#------------------------------------------------------------------------------
#$Date: 2021-06-04 03:58:12 +0300 (Fri, 04 Jun 2021) $
#$Revision: 265749 $
#$URL: file:///home/coder/svn-repositories/cod/cif/4/51/86/4518699.cif $
#------------------------------------------------------------------------------
#
# This file is available in the Crystallography Open Database (COD),
# http://www.crystallography.net/
#
# All data on this site have been placed in the public domain by the
# contributors.
#
data_4518699
loop_
_publ_author_name
'Pandey, Rampal'
'Singh, Durgesh'
'Thakur, Neha'
'Raj, Krishna K.'
_publ_section_title
;
 Catalytic C-H Bond Activation and Knoevenagel Condensation Using
 Pyridine-2,3-Dicarboxylate-Based Metal-Organic Frameworks.
;
_journal_issue                   20
_journal_name_full               'ACS omega'
_journal_page_first              13240
_journal_page_last               13259
_journal_paper_doi               10.1021/acsomega.1c01155
_journal_volume                  6
_journal_year                    2021
_chemical_formula_sum            'C7 H7 N O6 Zn'
_chemical_formula_weight         266.51
_space_group_crystal_system      monoclinic
_space_group_IT_number           14
_space_group_name_Hall           '-P 2ybc'
_space_group_name_H-M_alt        'P 1 21/c 1'
_atom_sites_solution_hydrogens   mixed
_audit_creation_method           SHELXL-2016/6
_cell_angle_alpha                90
_cell_angle_beta                 113.824(2)
_cell_angle_gamma                90
_cell_formula_units_Z            4
_cell_length_a                   7.7081(4)
_cell_length_b                   15.6681(7)
_cell_length_c                   7.7483(4)
_cell_measurement_reflns_used    2623
_cell_measurement_temperature    103(2)
_cell_measurement_theta_max      0.26
_cell_measurement_theta_min      0.22
_cell_volume                     856.04(7)
_computing_structure_refinement  'SHELXL-2016/6 (Sheldrick, 2016)'
_computing_structure_solution    'SHELXT 2014/5 (Sheldrick, 2014)'
_diffrn_ambient_temperature      103(2)
_diffrn_measured_fraction_theta_full 0.999
_diffrn_measured_fraction_theta_max 0.997
_diffrn_measurement_device_type  'Bruker APEX-II CCD'
_diffrn_measurement_method       '\f and \w scans'
_diffrn_radiation_type           MoK\a
_diffrn_radiation_wavelength     0.71073
_diffrn_reflns_av_R_equivalents  0.0561
_diffrn_reflns_av_unetI/netI     0.0319
_diffrn_reflns_Laue_measured_fraction_full 0.999
_diffrn_reflns_Laue_measured_fraction_max 0.997
_diffrn_reflns_limit_h_max       10
_diffrn_reflns_limit_h_min       -11
_diffrn_reflns_limit_k_max       22
_diffrn_reflns_limit_k_min       -22
_diffrn_reflns_limit_l_max       11
_diffrn_reflns_limit_l_min       -10
_diffrn_reflns_number            23316
_diffrn_reflns_point_group_measured_fraction_full 0.999
_diffrn_reflns_point_group_measured_fraction_max 0.997
_diffrn_reflns_theta_full        25.242
_diffrn_reflns_theta_max         30.553
_diffrn_reflns_theta_min         3.154
_exptl_absorpt_coefficient_mu    2.878
_exptl_crystal_colour            Offwhite
_exptl_crystal_density_diffrn    2.068
_exptl_crystal_description       Block
_exptl_crystal_F_000             536
_refine_diff_density_max         0.598
_refine_diff_density_min         -0.457
_refine_diff_density_rms         0.100
_refine_ls_extinction_method     none
_refine_ls_goodness_of_fit_ref   1.080
_refine_ls_hydrogen_treatment    mixed
_refine_ls_matrix_type           full
_refine_ls_number_parameters     152
_refine_ls_number_reflns         2611
_refine_ls_number_restraints     0
_refine_ls_restrained_S_all      1.080
_refine_ls_R_factor_all          0.0374
_refine_ls_R_factor_gt           0.0264
_refine_ls_shift/su_max          0.000
_refine_ls_shift/su_mean         0.000
_refine_ls_structure_factor_coef Fsqd
_refine_ls_weighting_details
'w=1/[\s^2^(Fo^2^)+(0.0216P)^2^+0.6287P] where P=(Fo^2^+2Fc^2^)/3'
_refine_ls_weighting_scheme      calc
_refine_ls_wR_factor_gt          0.0538
_refine_ls_wR_factor_ref         0.0567
_reflns_Friedel_coverage         0.000
_reflns_number_gt                2241
_reflns_number_total             2611
_reflns_threshold_expression     'I > 2\s(I)'
_cod_data_source_file            ao1c01155_si_002.cif
_cod_data_source_block           1
_cod_depositor_comments
'Adding full bibliography for 4518699--4518701.cif.'
_cod_original_sg_symbol_H-M      'P 21/c'
_cod_database_code               4518699
_shelx_shelxl_version_number     2016/6
_shelx_space_group_comment
;
The symmetry employed for this shelxl refinement is uniquely defined
by the following loop, which should always be used as a source of
symmetry information in preference to the above space-group names.
They are only intended as comments.
;
_shelx_res_file
;
TITL M1_a.res in P2(1)/c
    M1_a.res
    created by SHELXL-2016/6 at 00:55:48 on 29-Mar-2021
CELL  0.71073   7.7081  15.6681   7.7483   90.000  113.824   90.000
ZERR   4.000   0.0004   0.0007   0.0004    0.000    0.002    0.000
LATT 1
SYMM -X, 1/2+Y, 1/2-Z
SFAC C  H  N  O  Zn
UNIT 28  28  4  24  4
LIST 6 ! automatically inserted. Change 6 to 4 for CHECKCIF!!
L.S. 10
ACTA
BOND $H
FMAP 2
PLAN 20
TEMP -169.840
WGHT    0.021600    0.628700
FVAR       0.56694
ZN1   5    0.349527    0.440473    0.066598    11.00000    0.00550    0.00798 =
         0.00375    0.00125    0.00226    0.00115
O1    4    0.421549    0.296297    0.800331    11.00000    0.02058    0.00805 =
         0.01221   -0.00192    0.01122   -0.00406
O2    4    0.197356    0.428605    0.510170    11.00000    0.00861    0.01689 =
         0.00739    0.00054    0.00505    0.00131
O3    4    0.198656    0.459697    0.229878    11.00000    0.00739    0.01107 =
         0.00566    0.00202    0.00350    0.00258
O5    4    0.518358    0.428511    0.902902    11.00000    0.00781    0.00734 =
         0.00546   -0.00093    0.00361    0.00052
C8    1    0.475915    0.397930    0.462295    11.00000    0.00637    0.00472 =
         0.00651   -0.00030    0.00310   -0.00085
C7    1    0.274259    0.431017    0.398490    11.00000    0.00609    0.00545 =
         0.00630   -0.00170    0.00186   -0.00099
C9    1    0.580378    0.370180    0.645810    11.00000    0.00726    0.00489 =
         0.00516   -0.00066    0.00334   -0.00095
C10   1    0.765163    0.340632    0.691834    11.00000    0.00849    0.00745 =
         0.00721    0.00118    0.00149    0.00105
AFIX  43
H10   2    0.841064    0.321992    0.816359    11.00000   -1.20000
AFIX   0
C11   1    0.835636    0.338917    0.554187    11.00000    0.00735    0.00775 =
         0.01005    0.00049    0.00323    0.00102
AFIX  43
H11   2    0.960098    0.318354    0.582418    11.00000   -1.20000
AFIX   0
C12   1    0.722731    0.367572    0.373796    11.00000    0.00769    0.00705 =
         0.00874   -0.00049    0.00472   -0.00054
AFIX  43
H12   2    0.771282    0.365817    0.278990    11.00000   -1.20000
AFIX   0
C13   1    0.497114    0.365484    0.791784    11.00000    0.00535    0.00834 =
         0.00410    0.00221    0.00058    0.00397
N14   3    0.547291    0.397608    0.329867    11.00000    0.00711    0.00581 =
         0.00619    0.00046    0.00357    0.00022
O1W   4    0.146419    0.483844   -0.173211    11.00000    0.00616    0.01521 =
         0.00615    0.00114    0.00270    0.00383
H1A   2    0.152535    0.470655   -0.264533    11.00000    0.02193
H1B   2    0.038435    0.497574   -0.186543    11.00000    0.03927
O2W   4    0.229133    0.313428    0.009406    11.00000    0.01246    0.01099 =
         0.01017    0.00066    0.00486   -0.00001
H2A   2    0.285917    0.281570    0.099240    11.00000    0.02467
H2B   2    0.276368    0.300646   -0.064014    11.00000    0.02450

HKLF 4




REM  M1_a.res in P2(1)/c
REM R1 =  0.0264 for    2241 Fo > 4sig(Fo)  and  0.0374 for all    2611 data
REM    152 parameters refined using      0 restraints

END

WGHT      0.0216      0.6287

REM Highest difference peak  0.598,  deepest hole -0.457,  1-sigma level  0.100
Q1    1   0.5270  0.3708  0.5375  11.00000  0.05    0.60
Q2    1   0.5325  0.3722  0.6979  11.00000  0.05    0.50
Q3    1   0.6641  0.3581  0.6585  11.00000  0.05    0.43
Q4    1   0.3566  0.3073  0.8416  11.00000  0.05    0.42
Q5    1   0.4931  0.4078  0.2359  11.00000  0.05    0.41
Q6    1   0.6251  0.3816  0.3643  11.00000  0.05    0.41
Q7    1   0.7720  0.3422  0.5984  11.00000  0.05    0.41
Q8    1   0.3732  0.4035  0.4106  11.00000  0.05    0.40
Q9    1   0.4872  0.3777  0.3985  11.00000  0.05    0.39
Q10   1   0.2421  0.3980  0.5833  11.00000  0.05    0.37
Q11   1   0.1578  0.5197  0.2636  11.00000  0.05    0.36
Q12   1   0.5714  0.4576  0.9266  11.00000  0.05    0.35
Q13   1   0.2280  0.4885  0.2192  11.00000  0.05    0.35
Q14   1   0.1321  0.5534  0.0674  11.00000  0.05    0.31
Q15   1   0.7912  0.3702  0.4776  11.00000  0.05    0.30
Q16   1   0.5240  0.3840  0.9240  11.00000  0.05    0.30
Q17   1   0.3198  0.5301  0.2538  11.00000  0.05    0.30
Q18   1   0.2736  0.3310  0.2643  11.00000  0.05    0.30
Q19   1   0.4800  0.2274  0.9167  11.00000  0.05    0.30
Q20   1   0.9398  0.2505  0.9380  11.00000  0.05    0.29
;
_shelx_res_checksum              26928
_shelx_hkl_file
;
   2   0   0 1508.45   60.59
   2   0   0 1446.86   61.39
   2   0   0 1588.44   60.49
  -2   0   0 1500.95   60.59
  -2   0   0 1473.35   60.59
  -2   0   0 1405.76   61.29
   2   0   0 1603.84   61.19
   2   0   0 1438.06   60.19
  -2   0   0 1466.35   60.99
   3   0   0  527.45   24.00
   3   0   0  583.94   24.70
   3   0   0  557.54   24.20
  -3   0   0  510.85   25.00
  -3   0   0  553.64   24.60
  -3   0   0  549.65   24.60
  -3   0   0  521.35   25.80
   3   0   0  547.85   25.10
  -4   0   0   17.50    5.00
   4   0   0   22.60    4.80
  -4   0   0   20.60    5.30
   4   0   0   16.90    3.50
   4   0   0   15.60    3.50
  -4   0   0   20.90    4.20
  -4   0   0   21.50    4.60
   5   0   0  101.69   10.30
   5   0   0   69.69    9.80
  -5   0   0   66.29    8.30
   5   0   0   77.59    9.60
   5   0   0   67.79    7.80
  -5   0   0   73.79    9.90
  -5   0   0   74.89   10.10
   5   0   0   62.49    7.80
  -5   0   0   70.09   10.30
  -6   0   0 1010.70   48.30
   6   0   0 1097.09   46.90
   6   0   0  969.00   45.00
  -6   0   0  996.60   50.09
  -6   0   0 1116.79   48.50
   6   0   0  925.21   44.50
   6   0   0 1038.50   46.80
  -6   0   0 1002.10   46.90
   6   0   0 1020.80   47.20
   7   0   0  786.52   36.40
   7   0   0  782.42   37.20
  -7   0   0  804.22   43.90
   7   0   0  772.32   41.10
   7   0   0  798.32   38.70
   7   0   0  824.12   38.80
  -7   0   0  790.42   40.30
  -7   0   0  794.82   41.80
   8   0   0   44.60    7.80
   8   0   0   62.69    9.30
  -8   0   0   51.49   13.10
  -8   0   0   26.40   10.40
  -8   0   0   52.39   15.10
   8   0   0   80.39   11.20
   8   0   0   50.69    9.50
  -9   0   0   76.29   20.70
  -9   0   0  107.29   18.30
  -9   0   0   86.29   16.30
 -10   0   0  387.46   40.50
 -10   0   0  307.77   43.70
   1  -1   0  670.33   28.10
   1  -1   0  685.43   28.30
  -1  -1   0  690.73   27.20
  -1  -1   0  699.93   27.90
   1  -1   0  667.03   28.10
   1  -1   0  579.04   28.20
  -1  -1   0  688.33   27.50
   1  -1   0  728.83   28.50
  -1  -1   0  694.13   27.50
   1   1   0  681.93   27.80
  -1   1   0  686.83   28.20
  -1   1   0  694.53   28.40
   1   1   0  709.93   27.50
  -1   1   0  716.63   28.40
  -1   1   0  642.84   28.30
  -1   1   0  683.63   28.20
   1   1   0  674.83   27.40
  -2  -1   0  452.45   21.20
   2  -1   0  462.35   22.00
   2  -1   0  481.65   22.00
   2  -1   0  513.05   21.50
   2  -1   0  475.35   22.10
   2  -1   0  505.85   21.70
  -2  -1   0  507.85   21.40
  -2  -1   0  489.85   22.20
  -2  -1   0  497.75   21.00
  -2  -1   0  483.05   20.80
  -2   1   0  461.15   21.80
   2   1   0  521.25   21.00
   2   1   0  504.15   21.00
   2   1   0  466.75   20.90
  -2   1   0  493.95   22.20
  -2   1   0  500.15   21.70
   2   1   0  477.05   20.40
   2   1   0  512.95   21.10
  -2   1   0  490.45   21.70
  -2   1   0  493.85   22.10
  -3  -1   0    1.60    1.90
   3  -1   0   -0.40    2.10
   3  -1   0    3.10    2.30
  -3  -1   0   -1.10    1.80
   3  -1   0    0.80    2.40
  -3  -1   0   -2.10    1.80
   3  -1   0   -2.30    1.90
  -3  -1   0   -2.00    2.70
   3  -1   0   -1.20    2.50
  -3   1   0    2.10    2.70
  -3   1   0   -3.00    2.50
   3   1   0   -3.40    1.90
   3   1   0   -2.80    1.60
   3   1   0    0.70    1.90
  -3   1   0   -0.30    2.70
   3   1   0   -1.50    1.50
  -3   1   0    0.30    2.50
   3   1   0   -4.20    1.40
  -4  -1   0   20.70    5.50
  -4  -1   0   30.30    4.50
  -4  -1   0   28.40    5.40
  -4  -1   0   24.70    4.40
   4  -1   0   48.60    7.50
   4  -1   0   27.20    4.60
   4  -1   0   34.20    6.50
   4  -1   0   20.30    4.10
   4  -1   0   22.10    4.40
   4   1   0   22.60    4.20
   4   1   0   27.10    4.10
  -4   1   0   35.20    5.80
  -4   1   0   25.80    5.70
   4   1   0   25.20    4.10
   4   1   0   30.60    4.80
  -4   1   0   32.10    5.90
  -4   1   0   29.20    5.00
   5  -1   0  166.38   13.00
  -5  -1   0  168.58   14.20
   5  -1   0  192.38   14.80
   5  -1   0  177.98   12.80
  -5  -1   0  186.78   12.40
   5  -1   0  159.18   11.90
  -5  -1   0  163.28   13.70
   5  -1   0  154.08   11.60
  -5  -1   0  178.88   14.70
   5   1   0  189.38   12.60
   5   1   0  178.88   12.20
  -5   1   0  206.38   14.50
  -5   1   0  192.78   14.40
   5   1   0  169.68   11.70
   5   1   0  165.38   10.80
   5   1   0  176.98   11.40
  -5   1   0  167.58   13.10
  -5   1   0  177.08   14.60
   6  -1   0  223.78   17.60
   6  -1   0  210.38   14.80
  -6  -1   0  225.38   15.70
  -6  -1   0  219.08   17.50
   6  -1   0  204.28   14.40
  -6  -1   0  189.68   18.40
   6  -1   0  208.58   17.00
   6   1   0  202.88   13.60
   6   1   0  224.98   13.10
  -6   1   0  211.88   16.20
   6   1   0  221.58   16.20
  -6   1   0  168.68   16.90
  -6   1   0  205.58   17.70
   6   1   0  195.68   14.10
   6   1   0  218.38   14.10
   7  -1   0  -17.10    8.00
  -7  -1   0   -1.40    9.50
  -7  -1   0    5.70    5.90
   7  -1   0    3.30    5.40
  -7  -1   0   16.10    8.50
   7  -1   0    4.20    6.30
   7  -1   0    8.20    6.50
  -7   1   0   13.70    7.80
  -7   1   0    0.80    9.20
   7   1   0   -5.10    4.70
   7   1   0    3.20    4.70
  -7   1   0    7.50    9.40
   7   1   0    2.40    8.10
   7   1   0   21.30    8.70
   7   1   0   10.10    6.30
  -8  -1   0  141.69   22.10
  -8  -1   0  189.58   24.00
  -8  -1   0  177.18   18.80
   8  -1   0  191.38   18.90
   8  -1   0  154.48   17.00
   8  -1   0  156.08   17.30
   8  -1   0  165.28   14.40
   8   1   0  176.38   18.10
  -8   1   0  123.89   19.50
  -8   1   0  170.38   19.50
  -8   1   0  132.49   21.20
   9  -1   0   10.20   10.20
  -9  -1   0   44.20   15.00
  -9  -1   0   23.60   12.10
  -9  -1   0    4.20   16.40
  -9   1   0   22.90   12.70
  -9   1   0   11.30   15.60
  -9   1   0   28.10   14.80
 -10  -1   0    4.30   17.30
 -10  -1   0  -42.70   20.10
 -10   1   0   14.90   21.70
 -10   1   0  -22.10   19.20
   1  -2   0  274.27   12.60
  -1  -2   0  283.27   11.30
   1  -2   0  295.17   12.70
   1  -2   0  287.47   12.80
   1  -2   0  275.17   12.50
  -1  -2   0  286.97   12.30
   1  -2   0  254.77   12.80
  -1  -2   0  264.77   13.00
  -1   2   0  258.27   12.40
   1   2   0  290.27   13.30
  -1   2   0  248.98   12.70
  -1   2   0  265.47   12.60
  -1   2   0  275.27   12.70
  -1   2   0  286.77   12.60
  -2  -2   0  240.28   10.30
   2  -2   0  249.97   12.60
   2  -2   0  235.68   12.30
   2  -2   0  241.38   12.00
   2  -2   0  218.18   12.20
  -2  -2   0  242.68   11.60
  -2  -2   0  240.38   10.70
   2  -2   0  221.88   11.90
  -2  -2   0  236.98   10.90
   2   2   0  229.28   10.50
  -2   2   0  219.18   12.20
   2   2   0  243.18   10.30
  -2   2   0  215.68   12.10
  -2   2   0  229.38   12.00
   2   2   0  241.08   11.20
  -2   2   0  234.18   12.20
  -2   2   0  227.38   12.40
  -3  -2   0  111.29    6.80
  -3  -2   0  112.09    7.80
   3  -2   0  110.39    8.70
  -3  -2   0   98.99    8.50
   3  -2   0  111.19    7.90
   3  -2   0  103.79    8.70
  -3  -2   0  104.79    6.80
   3  -2   0  101.09    7.90
   3  -2   0  106.39    8.20
  -3  -2   0  110.89    7.40
  -3   2   0  112.29    9.00
   3   2   0  112.79    6.90
  -3   2   0  110.49    8.20
  -3   2   0  107.19    8.50
   3   2   0  112.79    6.90
   3   2   0  114.29    6.40
  -3   2   0  116.29    8.60
   4  -2   0  662.93   33.00
   4  -2   0  729.13   33.40
   4  -2   0  710.63   31.80
   4  -2   0  685.93   32.50
   4  -2   0  679.73   32.40
  -4  -2   0  616.64   32.80
  -4  -2   0  712.83   30.90
  -4  -2   0  699.63   30.80
   4   2   0  710.63   30.20
   4   2   0  694.53   28.60
  -4   2   0  657.33   32.10
  -4   2   0  737.23   33.10
   4   2   0  703.03   29.00
  -4   2   0  669.03   32.80
  -4   2   0  698.03   33.40
   5  -2   0   17.00    5.20
  -5  -2   0   16.30    6.10
  -5  -2   0   20.80    4.70
   5  -2   0   23.00    6.20
   5  -2   0   26.00    5.90
  -5  -2   0   26.60    6.10
  -5  -2   0   31.20    5.70
   5  -2   0   29.30    7.20
   5  -2   0   28.20    5.90
   5   2   0   24.00    4.60
  -5   2   0   30.80    6.60
  -5   2   0   24.70    6.80
  -5   2   0   26.60    7.60
   5   2   0   33.80    4.00
   5   2   0   24.20    5.20
   5   2   0   19.90    4.20
  -5   2   0   24.70    5.30
  -6  -2   0 1303.47   57.09
   6  -2   0 1394.66   58.89
   6  -2   0 1298.77   57.29
  -6  -2   0 1233.88   60.39
   6  -2   0 1213.98   55.99
  -6  -2   0 1372.96   58.79
   6  -2   0 1242.78   59.69
   6  -2   0 1244.38   58.69
   6   2   0 1276.37   55.39
  -6   2   0 1256.37   60.69
   6   2   0 1359.06   56.79
  -6   2   0 1298.27   58.79
  -6   2   0 1345.07   59.99
   6   2   0 1211.78   54.79
   7  -2   0  480.85   25.80
   7  -2   0  461.05   33.00
  -7  -2   0  545.25   33.10
  -7  -2   0  476.65   27.40
   7  -2   0  517.95   28.80
  -7  -2   0  514.15   29.90
   7  -2   0  488.85   27.60
  -7   2   0  492.05   29.90
  -7   2   0  502.95   31.10
   7   2   0  455.85   27.80
   7   2   0  496.25   25.90
  -7   2   0  489.45   32.80
  -8  -2   0   20.00   12.60
  -8  -2   0   16.80   10.70
   8  -2   0   23.60    9.50
   8  -2   0   10.40   14.60
   8  -2   0    7.10    7.30
  -8  -2   0   16.20    8.20
  -8   2   0   15.60   11.00
   8   2   0   -0.70    7.90
  -8   2   0   27.70   14.10
  -8   2   0   21.60   11.90
   9  -2   0   47.30   13.50
  -9  -2   0   52.89   13.00
  -9  -2   0   48.90   18.10
  -9  -2   0   31.90   15.30
  -9   2   0   54.29   19.00
  -9   2   0   51.19   19.90
  -9   2   0   78.89   17.00
 -10  -2   0  165.48   25.30
 -10  -2   0  141.09   29.00
 -10   2   0  144.19   28.20
 -10   2   0  111.09   29.20
   0  -3   0    7.10    1.50
   0   3   0    9.50    2.30
   1  -3   0 2887.91  111.69
   1  -3   0 2554.94  111.59
   1  -3   0 3044.20  111.29
   1  -3   0 2538.15  111.29
  -1  -3   0 2783.62  109.59
  -1  -3   0 2996.10  112.29
   1  -3   0 2817.72  111.39
  -1   3   0 2623.74  111.59
  -1   3   0 2788.62  111.29
  -1   3   0 2738.63  111.39
  -1   3   0 2790.42  111.39
  -1   3   0 2833.72  111.49
   2  -3   0  169.58   10.00
  -2  -3   0  178.88    9.70
   2  -3   0  191.08   10.80
   2  -3   0  166.98   10.00
   2  -3   0  177.48   10.60
   2  -3   0  159.78    9.90
  -2  -3   0  167.68    8.30
  -2  -3   0  181.18    7.40
  -2  -3   0  193.78   11.20
  -2   3   0  174.68   10.30
  -2   3   0  200.48   10.60
  -2   3   0  180.18   10.00
  -2   3   0  180.08   10.40
  -3  -3   0   99.79    7.00
  -3  -3   0  104.99    6.40
   3  -3   0  115.09    8.60
   3  -3   0  100.49    8.00
   3  -3   0   95.19    8.00
  -3  -3   0  113.79   10.10
  -3  -3   0  112.19    9.00
  -3  -3   0  103.69    6.10
  -3  -3   0  109.69    7.90
   3  -3   0   83.79    8.50
   3  -3   0  107.69    8.70
   3   3   0  104.69    5.50
  -3   3   0  116.19    9.00
   3   3   0  104.59    6.00
  -3   3   0  101.39    8.30
  -3   3   0   92.39    8.60
  -3   3   0  100.49    8.80
  -4  -3   0  769.72   33.90
   4  -3   0  753.42   36.30
  -4  -3   0  760.12   36.10
   4  -3   0  718.53   34.80
   4  -3   0  721.53   34.60
  -4  -3   0  749.82   32.90
  -4  -3   0  761.32   32.80
   4  -3   0  762.42   35.80
   4  -3   0  775.72   35.70
  -4  -3   0  758.42   34.30
  -4   3   0  743.53   35.70
   4   3   0  802.42   32.60
  -4   3   0  801.02   35.80
  -4   3   0  751.02   35.10
  -4   3   0  733.73   36.00
   4   3   0  758.22   31.80
   4   3   0  691.43   32.70
   5  -3   0 2170.18  109.19
  -5  -3   0 2510.35  104.29
  -5  -3   0 2424.16  106.59
   5  -3   0 2649.73  106.19
  -5  -3   0 2489.65  103.09
   5  -3   0 2636.14  106.99
  -5  -3   0 2648.73  103.29
   5  -3   0 2457.75  104.49
   5  -3   0 2442.16  105.19
   5   3   0 2667.43  102.49
  -5   3   0 2342.47  105.19
   5   3   0 2528.65  101.59
  -5   3   0 2874.31  107.09
   5   3   0 2399.36  102.29
  -5   3   0 2624.24  107.39
  -5   3   0 2326.77  105.79
   6  -3   0  787.82   38.30
  -6  -3   0  829.32   40.10
  -6  -3   0  798.52   42.30
   6  -3   0  782.72   39.30
  -6  -3   0  865.81   38.40
   6  -3   0  819.72   40.60
   6  -3   0  912.41   41.40
   6  -3   0  842.12   42.80
  -6   3   0  801.52   43.10
  -6   3   0  809.72   40.60
   6   3   0  820.52   36.20
   6   3   0  807.12   37.20
  -6   3   0  757.32   41.20
  -7  -3   0  145.49   14.30
   7  -3   0  148.99   16.60
   7  -3   0  132.69   13.80
  -7  -3   0  156.48   20.10
   7  -3   0  164.78   16.90
  -7  -3   0  125.79   16.80
   7  -3   0  200.28   22.00
  -7   3   0  125.89   18.40
   7   3   0  155.68   15.20
  -7   3   0  149.19   19.80
  -7   3   0  148.99   17.40
   7   3   0  129.89   12.30
   8  -3   0  509.45   31.40
   8  -3   0  535.75   32.20
   8  -3   0  470.25   27.40
   8  -3   0  536.75   37.40
  -8  -3   0  506.45   36.90
  -8  -3   0  511.95   32.60
  -8  -3   0  504.25   30.10
   8   3   0  488.35   27.10
  -8   3   0  487.05   33.40
  -8   3   0  447.86   36.60
  -8   3   0  515.05   34.90
   9  -3   0  166.38   17.60
  -9  -3   0  208.48   31.80
  -9  -3   0  186.68   27.10
  -9  -3   0  234.48   22.40
   9  -3   0  177.38   20.00
  -9   3   0  201.08   29.50
  -9   3   0  161.48   25.50
   0  -4   0 1394.06   58.09
   0  -4   0 1405.16   58.19
   0  -4   0 1484.55   58.39
   0  -4   0 1457.65   58.29
   0  -4   0 1378.76   58.39
   0   4   0 1487.35   59.89
   1  -4   0 1714.33   66.79
   1  -4   0 1707.93   66.99
  -1  -4   0 1578.34   64.89
   1  -4   0 1582.44   66.29
  -1  -4   0 1684.33   67.79
   1  -4   0 1615.84   67.09
  -1   4   0 1498.85   66.49
   1   4   0 1700.53   67.89
  -1   4   0 1711.93   66.59
  -1   4   0 1665.33   66.79
  -1   4   0 1533.65   66.79
  -1   4   0 1563.64   66.59
  -2  -4   0  269.57   13.90
   2  -4   0  265.97   14.80
   2  -4   0  275.57   14.40
  -2  -4   0  282.57   15.50
   2  -4   0  273.77   14.80
   2  -4   0  266.27   14.10
  -2   4   0  295.17   14.60
  -2   4   0  262.07   14.50
  -2   4   0  315.27   15.00
  -2   4   0  244.38   14.10
   2   4   0  286.07   15.70
   3  -4   0  187.78   11.50
  -3  -4   0  185.28   11.00
  -3  -4   0  160.18    8.70
   3  -4   0  168.28   11.90
  -3  -4   0  172.28    9.20
   3  -4   0  178.08   11.80
  -3  -4   0  192.58   13.10
  -3  -4   0  165.28    8.20
   3  -4   0  169.28   11.50
  -3   4   0  169.38   11.70
  -3   4   0  157.68   11.40
  -3   4   0  169.58   11.40
  -3   4   0  166.68   11.70
  -4  -4   0  763.22   35.80
   4  -4   0  746.63   36.10
  -4  -4   0  750.12   32.10
   4  -4   0  717.33   34.50
  -4  -4   0  771.82   37.30
   4  -4   0  722.93   35.30
  -4  -4   0  731.93   34.00
  -4  -4   0  772.72   31.90
   4  -4   0  696.13   34.70
   4  -4   0  754.82   35.50
  -4  -4   0  721.63   32.90
  -4   4   0  743.83   35.80
  -4   4   0  695.83   34.70
  -4   4   0  821.82   36.10
   4   4   0  778.32   30.50
  -4   4   0  664.63   34.90
   4   4   0  728.53   30.20
  -5  -4   0   95.69    8.50
  -5  -4   0   73.19    9.80
   5  -4   0   68.09   10.30
  -5  -4   0   90.39    8.10
   5  -4   0   90.79   11.10
   5  -4   0  105.89   11.40
  -5  -4   0   95.49   10.60
  -5  -4   0   95.79   12.10
   5  -4   0   78.29   11.60
  -5  -4   0   95.29   14.40
   5  -4   0  102.89   11.80
  -5   4   0   98.09   12.60
   5   4   0   93.29    7.30
  -5   4   0  124.99   13.50
   5   4   0   99.19    6.50
  -5   4   0   83.29   10.40
  -5   4   0   85.89   11.40
   6  -4   0    9.20    9.20
  -6  -4   0   21.10    5.30
  -6  -4   0   23.20    7.30
   6  -4   0   27.20    9.40
  -6  -4   0    7.50    8.10
   6  -4   0   19.80    7.00
   6  -4   0   20.00    7.20
  -6  -4   0    4.50   11.80
   6   4   0   28.10    5.00
  -6   4   0   10.90    8.10
  -6   4   0   18.00    7.10
  -6   4   0    3.10    6.90
  -7  -4   0    7.40    7.60
   7  -4   0    6.20    8.30
  -7  -4   0   -4.50    9.00
   7  -4   0   13.10   12.50
   7  -4   0    0.60    6.60
  -7  -4   0   -4.20    5.90
   7  -4   0    0.80    7.00
   7   4   0    0.60    5.70
  -7   4   0   -6.10    9.40
  -7   4   0   -6.00    7.40
  -7   4   0   -0.40    8.20
   7   4   0    5.60    5.00
   8  -4   0    7.40   10.20
  -8  -4   0   -1.20    8.30
  -8  -4   0   10.50   13.50
   8  -4   0    6.20    8.10
   8  -4   0    6.10    9.50
  -8  -4   0    2.20   10.30
   8  -4   0    7.20   16.30
  -8   4   0   19.90   10.30
  -8   4   0   12.20   16.40
  -8   4   0   11.40   11.00
   9  -4   0   13.30    9.60
  -9  -4   0   31.00   18.70
  -9  -4   0   11.70   10.70
  -9  -4   0   22.60   14.20
   9  -4   0   12.80   13.90
  -9   4   0   34.50   18.60
  -9   4   0   18.70   15.30
   0  -5   0    7.00    1.90
   0  -5   0    6.70    2.00
   0  -5   0    4.40    2.60
   0  -5   0    7.40    1.90
   0   5   0    3.20    3.00
   1  -5   0 8762.62  361.66
   1  -5   0 8356.96  362.26
   1  -5   0 9288.97  361.96
  -1  -5   0 9292.57  363.06
   1  -5   0 9999.00  361.56
   1   5   0 9255.57  363.26
  -1   5   0 9040.50  361.66
   2  -5   0  911.01   39.60
   2  -5   0  918.71   39.70
  -2  -5   0  964.30   39.40
  -2  -5   0  861.81   36.60
   2  -5   0  902.81   39.20
   2  -5   0  929.81   40.20
   2  -5   0  938.91   40.50
  -2  -5   0  843.62   40.40
  -2   5   0  940.41   39.90
  -2   5   0  909.21   39.70
  -2   5   0  864.51   39.30
   2   5   0  916.61   41.20
  -2   5   0  860.81   39.60
  -3  -5   0    5.50    1.90
   3  -5   0    7.30    3.60
  -3  -5   0   -3.00    4.10
   3  -5   0    5.80    4.00
   3  -5   0    5.00    3.50
   3  -5   0    5.50    4.10
  -3  -5   0    4.60    1.30
  -3  -5   0    2.10    1.90
  -3  -5   0    4.80    3.20
   3  -5   0    2.80    3.00
  -3   5   0    3.30    3.50
  -3   5   0    5.30    3.70
  -3   5   0    4.50    3.60
  -3   5   0    6.10    3.10
  -4  -5   0   74.39    7.10
   4  -5   0   85.79   10.70
  -4  -5   0   74.69    6.00
  -4  -5   0   51.19    8.30
  -4  -5   0   73.99    9.70
   4  -5   0   66.19    9.70
  -4  -5   0   70.19    5.70
   4  -5   0   75.79    9.40
   4  -5   0   64.19    8.70
  -4  -5   0   80.19   11.20
   4  -5   0   74.49   10.30
  -4   5   0  103.29   11.10
  -4   5   0   75.49    8.90
  -4   5   0   64.49    9.80
  -4   5   0   64.19    9.40
  -5  -5   0 1368.86   63.19
   5  -5   0 1334.57   62.09
  -5  -5   0 1312.97   58.19
   5  -5   0 1467.15   64.79
   5  -5   0 1401.16   63.09
   5  -5   0 1377.76   62.99
   5  -5   0 1473.15   62.39
  -5  -5   0 1206.48   60.69
  -5  -5   0 1442.36   61.69
  -5   5   0 1351.56   62.89
  -5   5   0 1339.67   63.09
  -5   5   0 1466.45   63.09
  -5   5   0 1583.14   64.29
   6  -5   0  508.85   31.20
   6  -5   0  561.44   31.50
  -6  -5   0  502.75   25.30
  -6  -5   0  528.25   31.10
   6  -5   0  482.65   28.70
  -6  -5   0  514.05   27.70
   6  -5   0  596.64   34.10
  -6  -5   0  491.95   35.30
   6  -5   0  496.05   30.00
  -6   5   0  490.45   30.30
  -6   5   0  529.75   31.40
  -6   5   0  479.55   29.40
  -7  -5   0   68.69   14.60
   7  -5   0   84.89   15.40
  -7  -5   0   72.29   11.40
   7  -5   0   83.49   12.70
   7  -5   0  103.69   14.80
   7  -5   0   88.19   17.10
  -7  -5   0   77.89   12.00
  -7   5   0   67.49   13.20
  -7   5   0  104.39   15.50
  -7   5   0   73.29   13.80
   8  -5   0  203.18   18.80
   8  -5   0  176.78   24.90
   8  -5   0  164.28   22.60
  -8  -5   0  190.58   21.80
  -8  -5   0  206.48   31.90
   8  -5   0  223.58   35.00
  -8   5   0  155.18   24.70
  -8   5   0  174.98   22.40
  -9  -5   0  109.59   23.80
   9  -5   0   89.69   13.80
   9  -5   0  109.39   19.10
  -9  -5   0  100.89   19.60
  -9   5   0  117.69   22.20
  -9   5   0  111.09   22.40
   0  -6   0  881.61   38.00
   0  -6   0  908.41   38.50
   0  -6   0  882.21   38.00
   0  -6   0  966.50   38.60
   0  -6   0  870.81   38.10
   0   6   0  921.91   40.60
   1  -6   0 2688.63  101.29
   1  -6   0 2436.56  101.29
   1  -6   0 2344.17  100.59
   1  -6   0 2447.76  100.79
  -1  -6   0 2612.64  102.69
   1  -6   0 2536.45  100.39
  -1  -6   0 2292.87   98.89
  -1  -6   0 2375.76   98.59
  -1   6   0 2505.45  100.69
  -1   6   0 2522.65  100.59
   1   6   0 2496.65  102.59
  -2  -6   0  238.88   10.80
  -2  -6   0  229.08   15.00
   2  -6   0  229.48   14.20
   2  -6   0  240.38   13.80
   2  -6   0  241.28   13.40
   2  -6   0  235.08   14.50
   2  -6   0  220.28   13.60
  -2   6   0  234.78   13.90
  -2   6   0  250.07   14.10
  -2   6   0  257.27   14.00
   2   6   0  230.58   15.10
  -2   6   0  233.78   13.80
  -3  -6   0  664.13   33.80
   3  -6   0  627.54   31.30
   3  -6   0  758.12   32.70
   3  -6   0  663.93   31.80
   3  -6   0  668.03   32.70
  -3  -6   0  700.13   31.60
  -3  -6   0  692.43   28.10
  -3   6   0  649.74   31.90
  -3   6   0  629.04   32.00
  -3   6   0  649.64   35.40
  -3   6   0  684.53   32.20
   4  -6   0   82.59   10.60
   4  -6   0   64.59   10.00
  -4  -6   0   62.49    9.70
  -4  -6   0   85.09   12.90
   4  -6   0   56.89    8.60
   4  -6   0   75.39    9.70
   4  -6   0   84.19    9.50
  -4  -6   0   59.39    5.40
  -4  -6   0   66.39    9.00
  -4  -6   0   64.99    6.30
  -4  -6   0   70.09    5.20
  -4   6   0   63.09    9.40
  -4   6   0   63.59    9.50
  -4   6   0   61.99    9.60
  -4   6   0   69.39    9.50
  -5  -6   0  118.69   10.30
   5  -6   0  129.09   14.80
   5  -6   0  115.79   13.70
  -5  -6   0  112.99    8.40
  -5  -6   0  101.09   12.50
   5  -6   0  110.99   12.70
  -5  -6   0  124.49   17.10
   5  -6   0  127.79   14.30
   5  -6   0  125.69   15.80
  -5  -6   0  119.59   13.50
  -5   6   0  105.69   12.40
  -5   6   0  114.09   13.20
  -5   6   0  122.49   14.10
   6  -6   0  439.46   31.60
   6  -6   0  411.46   28.70
   6  -6   0  416.56   26.00
  -6  -6   0  441.66   28.20
   6  -6   0  487.35   29.30
   6  -6   0  460.65   28.60
  -6  -6   0  441.86   32.40
  -6  -6   0  414.96   26.30
  -6  -6   0  430.96   21.70
  -6  -6   0  394.56   23.70
  -6   6   0  382.96   26.60
  -6   6   0  410.76   28.50
  -6   6   0  430.36   27.60
   7  -6   0  317.37   34.50
   7  -6   0  441.16   29.70
  -7  -6   0  416.86   27.00
  -7  -6   0  449.46   32.20
   7  -6   0  459.95   31.70
  -7  -6   0  440.86   24.10
  -7   6   0  443.96   31.10
  -7   6   0  436.46   31.80
  -7   6   0  451.85   30.10
  -8  -6   0   10.30   10.10
   8  -6   0   46.80   22.80
   8  -6   0    2.50    9.40
   8  -6   0    9.00   11.90
   8  -6   0   -7.40   11.10
  -8   6   0  -19.50   12.90
  -8   6   0    9.10   11.50
  -8   6   0   -1.10   12.40
   9  -6   0   61.49   17.90
  -9  -6   0   42.80   16.10
   9  -6   0   53.19   13.70
  -9  -6   0   65.09   20.80
  -9   6   0   52.59   20.20
  -9   6   0   90.39   22.60
   0  -7   0    3.30    2.40
   0  -7   0    2.20    2.30
   0  -7   0   -1.60    1.90
   0  -7   0    4.50    2.30
   0  -7   0    0.10    1.90
   0   7   0    5.70    4.00
  -1  -7   0 2080.89   90.69
   1  -7   0 2190.58   92.49
  -1  -7   0 2518.95   95.19
   1  -7   0 2325.97   92.89
   1  -7   0 2145.09   92.29
  -1  -7   0 2213.78   90.39
   1  -7   0 2342.47   92.09
   1  -7   0 2249.77   92.99
  -1   7   0 2252.67   92.29
   1   7   0 2246.08   94.69
   2  -7   0  615.64   27.80
  -2  -7   0  562.04   29.60
   2  -7   0  647.14   29.60
  -2  -7   0  582.04   25.10
   2  -7   0  587.34   29.00
   2  -7   0  559.04   28.00
  -2  -7   0  601.94   24.20
   2  -7   0  602.54   28.60
  -2   7   0  576.04   28.10
   2   7   0  597.74   30.50
  -2   7   0  612.54   28.50
  -2   7   0  594.34   28.30
  -3  -7   0   45.10    8.50
   3  -7   0   46.90    7.60
   3  -7   0   35.80    7.30
   3  -7   0   54.19    7.70
   3  -7   0   52.19    8.00
  -3  -7   0   54.49    8.10
   3  -7   0   48.80    7.50
  -3  -7   0   49.70    4.40
  -3   7   0   41.70    6.70
  -3   7   0   52.69    8.20
   3   7   0   33.70    7.60
  -3   7   0   38.90    6.90
   4  -7   0   12.00    6.10
   4  -7   0   12.30    6.60
  -4  -7   0    8.40    7.10
  -4  -7   0    1.50    4.80
  -4  -7   0    2.60    3.30
   4  -7   0   13.90    5.80
   4  -7   0    4.30    5.80
   4  -7   0   18.90    6.20
  -4  -7   0   10.90    2.60
  -4   7   0   13.00    5.80
  -4   7   0    7.40    4.90
  -4   7   0    9.10    5.60
   5  -7   0  121.39   14.10
  -5  -7   0  151.88   10.90
  -5  -7   0  121.99   14.70
   5  -7   0  122.69   15.00
   5  -7   0  141.39   15.60
   5  -7   0  109.59   15.30
  -5  -7   0  117.39   14.00
   5  -7   0  142.19   16.90
  -5  -7   0  122.89    8.80
  -5   7   0  140.29   15.40
  -5   7   0  129.09   14.60
  -5   7   0  108.69   13.10
   6  -7   0  100.29   14.20
  -6  -7   0   88.49   13.60
   6  -7   0  100.59   14.30
  -6  -7   0   94.29   16.40
   6  -7   0   79.39   13.40
  -6  -7   0   83.29   13.20
   6  -7   0  107.99   17.60
  -6  -7   0  122.19   17.40
   6  -7   0   90.49   13.10
  -6  -7   0  102.89    9.10
  -6   7   0  125.79   17.10
  -6   7   0   96.79   14.40
  -6   7   0   85.09   14.00
   7  -7   0   33.80   17.10
   7  -7   0   -5.10   11.00
  -7  -7   0    7.60    6.00
  -7  -7   0    1.10    8.20
   7  -7   0   22.30   10.50
  -7  -7   0    2.80   11.00
  -7   7   0   12.50   11.80
  -7   7   0    8.90    9.90
  -7   7   0   -8.80    9.90
  -8  -7   0  129.19   21.10
   8  -7   0  104.89   17.60
  -8  -7   0  100.39   13.80
  -8  -7   0  124.99   19.70
   8  -7   0  105.89   18.40
   8  -7   0   94.09   15.00
  -8   7   0  105.89   18.90
  -8   7   0  101.89   20.00
   9  -7   0    5.20   13.20
  -9  -7   0   36.50   21.90
  -9  -7   0   16.00   15.50
   9  -7   0   19.10   16.90
  -9   7   0   19.00   19.90
  -9   7   0   13.70   19.10
   0  -8   0 4243.48  170.28
   0  -8   0 4605.24  170.68
   0  -8   0 4320.07  170.28
   0  -8   0 3887.01  170.18
   0  -8   0 4061.59  170.48
   0   8   0 4372.26  173.68
   1  -8   0  540.35   25.60
  -1  -8   0  530.15   23.40
  -1  -8   0  527.05   23.90
   1  -8   0  552.84   25.60
   1  -8   0  550.04   26.20
   1  -8   0  555.34   25.10
  -1  -8   0  511.95   27.40
   1  -8   0  567.04   26.10
  -1  -8   0  527.65   23.80
  -1   8   0  506.35   25.20
   1   8   0  509.75   27.80
   2  -8   0 1133.29   49.80
  -2  -8   0 1069.09   46.40
  -2  -8   0 1089.69   54.39
   2  -8   0 1090.99   50.99
   2  -8   0 1170.38   50.79
  -2  -8   0 1159.98   45.80
   2  -8   0 1186.28   49.30
   2  -8   0 1161.18   50.69
   2   8   0 1091.39   52.09
  -2   8   0 1114.09   49.70
  -2   8   0 1150.28   49.70
   3  -8   0 1107.69   51.09
   3  -8   0 1184.98   50.89
   3  -8   0 1126.09   51.49
   3  -8   0 1096.09   50.09
  -3  -8   0 1113.29   45.70
  -3  -8   0 1142.89   52.29
   3  -8   0 1133.29   49.99
  -3   8   0 1097.59   50.29
  -3   8   0 1107.19   50.09
   3   8   0 1084.49   52.69
  -3   8   0 1036.40   49.90
  -4  -8   0  422.36   27.30
  -4  -8   0  434.76   19.40
  -4  -8   0  438.46   24.30
   4  -8   0  414.16   25.20
   4  -8   0  439.36   24.50
   4  -8   0  418.86   24.40
   4  -8   0  451.35   25.80
  -4  -8   0  420.56   18.90
  -4   8   0  396.86   24.60
  -4   8   0  411.26   24.60
  -4   8   0  441.06   24.90
  -5  -8   0  121.29    8.30
   5  -8   0  132.39   15.80
  -5  -8   0  122.49   19.40
   5  -8   0  134.89   17.60
   5  -8   0  119.79   14.00
  -5  -8   0  125.69   10.50
  -5  -8   0   90.59   14.50
   5  -8   0  140.79   16.40
   5  -8   0  133.29   15.50
  -5  -8   0  115.79   14.60
  -5   8   0  118.09   14.80
  -5   8   0  129.09   14.60
  -5   8   0  119.59   15.70
  -6  -8   0  484.35   22.90
   6  -8   0  515.05   32.10
  -6  -8   0  521.95   31.90
   6  -8   0  483.85   32.60
  -6  -8   0  438.36   30.50
   6  -8   0  491.45   30.10
   6  -8   0  472.25   36.50
   6  -8   0  417.76   31.70
  -6  -8   0  479.85   37.00
  -6   8   0  470.45   30.50
  -6   8   0  492.55   31.00
  -6   8   0  485.85   31.60
  -7  -8   0 1171.78   50.49
  -7  -8   0 1055.09   59.09
   7  -8   0 1217.18   60.79
   7  -8   0 1090.89   57.59
  -7  -8   0 1208.38   58.69
   7  -8   0 1237.98   66.39
  -7  -8   0 1095.29   53.19
  -7   8   0 1155.58   59.49
  -7   8   0 1127.09   60.19
   8  -8   0   35.90   21.00
   8  -8   0   29.60   14.90
  -8  -8   0   11.30    7.30
  -8  -8   0    8.90   10.90
  -8  -8   0   27.40   15.70
  -8   8   0   19.40   14.50
  -8   8   0   23.20   15.50
  -9  -8   0  298.17   39.80
   9  -8   0  178.88   29.20
   9  -8   0  267.27   35.00
  -9  -8   0  227.78   29.70
  -9   8   0  264.07   38.70
  -9   8   0  268.37   37.50
   0  -9   0    3.70    2.80
   0  -9   0   -1.80    3.00
   0  -9   0    3.20    2.90
   0  -9   0   -1.20    3.10
   0  -9   0    0.60    3.00
   0   9   0    3.30    5.10
  -1  -9   0  881.11   36.40
  -1  -9   0  857.21   36.90
   1  -9   0  875.61   37.80
   1  -9   0  852.51   38.40
   1  -9   0  861.61   39.00
  -1  -9   0  848.62   36.40
   1  -9   0  860.91   38.90
   1  -9   0  810.52   38.20
  -1  -9   0  880.91   36.80
  -1   9   0  819.72   38.00
   1   9   0  796.72   41.00
  -1   9   0  829.02   41.20
   2  -9   0  514.25   24.90
  -2  -9   0  516.05   21.70
   2  -9   0  477.35   26.20
  -2  -9   0  475.75   22.30
  -2  -9   0  493.55   27.70
   2  -9   0  478.65   25.30
   2  -9   0  548.35   26.90
   2  -9   0  485.75   25.70
  -2   9   0  482.25   25.30
   2   9   0  465.25   28.00
  -2   9   0  534.45   25.80
  -3  -9   0   69.69    4.60
  -3  -9   0   74.39   11.30
  -3  -9   0   86.19   11.00
   3  -9   0   54.89    9.00
   3  -9   0   85.79   11.60
  -3  -9   0   70.89    6.20
   3  -9   0   66.39    9.40
   3  -9   0   73.99   10.50
   3  -9   0   68.09    9.30
  -3   9   0   71.29   10.50
   3   9   0   84.99   12.70
  -3   9   0   82.59   10.10
   4  -9   0   10.10    6.00
   4  -9   0   11.90    5.90
   4  -9   0    2.60    6.80
  -4  -9   0   17.30    7.00
   4  -9   0   12.10    6.70
  -4  -9   0   12.70    2.70
   4  -9   0    5.40    5.60
  -4  -9   0   18.90    8.90
  -4  -9   0   14.90    3.20
  -4   9   0   13.00    6.70
  -4   9   0    8.90    5.70
  -4   9   0   14.40    6.60
   5  -9   0   11.40    7.80
  -5  -9   0   39.40    9.80
  -5  -9   0   34.90    5.00
  -5  -9   0   34.10    5.80
   5  -9   0   30.60    9.80
   5  -9   0   35.80    9.30
  -5  -9   0   21.60   11.60
  -5  -9   0   29.90    9.40
   5  -9   0   22.80   10.40
   5  -9   0   26.20   10.30
  -5   9   0   21.80    9.30
  -5   9   0   31.20    9.20
  -5   9   0   22.30    8.90
  -6  -9   0   60.79   12.80
   6  -9   0   44.30   11.20
   6  -9   0   41.70   12.40
   6  -9   0   48.00   13.60
  -6  -9   0   54.19    7.00
  -6  -9   0   50.29    8.30
   6  -9   0   45.10   13.40
   6  -9   0   73.39   17.50
  -6  -9   0   27.60   11.60
  -6   9   0   41.80   11.50
  -6   9   0   46.70   11.30
  -7  -9   0   48.00    7.30
  -7  -9   0   26.10   15.10
  -7  -9   0   35.80    9.80
   7  -9   0   23.20   12.70
   7  -9   0   28.50   12.40
  -7  -9   0   30.10   14.10
  -7   9   0   66.19   15.50
  -7   9   0   34.70   14.10
  -8  -9   0   31.70   11.60
   8  -9   0    8.80   15.20
  -8  -9   0    9.00   15.90
   8  -9   0   -3.10   13.20
  -8   9   0   12.40   14.40
  -9  -9   0    2.70   20.40
  -9  -9   0   14.90   23.10
   9  -9   0   11.30   19.20
  -9   9   0  -11.40   18.00
  -9   9   0   17.10   22.40
   0 -10   0 1107.19   47.00
   0 -10   0 1082.69   46.50
   0 -10   0 1064.89   47.00
   0 -10   0 1118.19   46.80
   0 -10   0 1075.79   46.60
   0  10   0  956.00   49.90
   1 -10   0   58.19    7.80
  -1 -10   0   57.39    6.10
  -1 -10   0   62.79    6.80
  -1 -10   0   55.89    6.60
  -1 -10   0   41.40    8.30
   1 -10   0   43.10    6.90
   1 -10   0   49.90    7.70
   1 -10   0   48.10    7.00
   1 -10   0   57.09    8.10
   1  10   0   72.79   11.30
  -1  10   0   51.09    9.50
  -2 -10   0  841.22   35.50
  -2 -10   0  829.72   36.30
   2 -10   0  868.01   40.80
   2 -10   0  795.62   39.50
   2 -10   0  886.01   40.70
  -2 -10   0  849.41   35.90
   2 -10   0  836.52   39.50
  -2 -10   0  851.11   42.50
   2 -10   0  839.22   38.50
  -2  10   0  829.52   39.20
   2  10   0  843.22   42.70
  -2  10   0  820.02   39.20
  -3 -10   0  889.81   45.40
  -3 -10   0  933.71   43.50
   3 -10   0  937.41   44.90
  -3 -10   0  923.41   37.30
   3 -10   0  890.51   43.80
   3 -10   0  925.21   43.70
   3 -10   0  938.01   42.30
  -3 -10   0  904.81   38.30
   3 -10   0  894.21   42.90
   3  10   0  923.11   46.40
  -3  10   0  863.91   42.90
  -3  10   0  799.22   42.30
   4 -10   0  394.76   23.60
   4 -10   0  391.16   23.80
  -4 -10   0  357.56   17.00
  -4 -10   0  403.26   24.90
   4 -10   0  390.26   25.20
  -4 -10   0  401.16   27.70
   4 -10   0  341.07   26.40
   4 -10   0  387.36   25.30
  -4 -10   0  373.86   17.70
  -4  10   0  378.76   23.90
  -4  10   0  367.16   23.90
   5 -10   0    5.30    8.30
   5 -10   0   -3.10    7.30
  -5 -10   0    1.20    8.20
   5 -10   0    1.60    8.60
   5 -10   0    7.20    8.10
  -5 -10   0   -3.50   11.40
  -5 -10   0   -0.30    2.50
   5 -10   0   -1.70   11.30
  -5 -10   0   10.00    9.30
  -5  10   0    7.20    7.00
  -5  10   0   -6.60    7.70
   6 -10   0  516.55   34.70
  -6 -10   0  483.65   34.50
   6 -10   0  527.45   33.50
   6 -10   0  518.35   35.40
   6 -10   0  511.45   36.10
  -6 -10   0  533.95   34.10
  -6 -10   0  516.85   23.10
  -6 -10   0  525.75   26.50
  -6  10   0  530.05   33.70
  -6  10   0  483.35   33.80
  -7 -10   0  520.25   42.30
  -7 -10   0  578.04   26.40
  -7 -10   0  536.15   38.90
   7 -10   0  603.34   41.40
  -7 -10   0  568.14   31.20
   7 -10   0  629.74   41.80
  -7  10   0  525.65   40.10
  -7  10   0  583.24   38.60
  -8 -10   0   61.99   13.30
   8 -10   0   64.39   17.80
   8 -10   0   50.09   18.30
  -8 -10   0   62.39   19.10
  -8  10   0   43.80   17.10
   9 -10   0   -1.60   20.60
  -9 -10   0    9.30   22.50
  -9  10   0   -2.60   22.70
  -9  10   0    8.00   20.60
   0 -11   0    2.10    4.00
   0 -11   0    3.50    4.90
   0 -11   0    0.00    3.60
   0 -11   0    2.40    3.60
   0 -11   0    1.80    3.60
   0  11   0   14.70    6.40
  -1 -11   0  276.17   17.90
   1 -11   0  326.57   19.30
   1 -11   0  314.27   19.60
  -1 -11   0  341.47   22.50
   1 -11   0  341.17   19.10
  -1 -11   0  320.47   16.90
   1 -11   0  302.27   18.40
   1 -11   0  353.36   18.50
  -1 -11   0  323.87   17.10
  -1 -11   0  306.97   17.30
  -1 -11   0  321.47   16.70
   1  11   0  310.57   21.70
  -1  11   0  321.27   22.50
   2 -11   0 1279.67   59.29
   2 -11   0 1358.46   60.89
  -2 -11   0 1336.67   56.39
  -2 -11   0 1383.66   55.69
  -2 -11   0 1303.57   62.59
   2 -11   0 1408.56   60.89
   2 -11   0 1343.57   59.99
  -2 -11   0 1357.26   55.99
   2 -11   0 1342.27   58.49
  -2  11   0 1260.57   59.09
   2  11   0 1355.96   63.39
   3 -11   0   -2.20    5.20
  -3 -11   0    4.50    6.60
   3 -11   0    3.00    5.30
  -3 -11   0    5.50    2.60
   3 -11   0    4.40    6.30
   3 -11   0    1.70    6.60
   3 -11   0   14.10    8.30
  -3 -11   0   13.70   10.20
  -3 -11   0    8.10    3.80
  -3  11   0    6.70    6.20
   3  11   0   -7.00    6.80
  -3  11   0    5.40    5.30
   4 -11   0  722.63   38.40
  -4 -11   0  783.62   42.60
   4 -11   0  766.82   40.00
   4 -11   0  709.93   37.70
  -4 -11   0  681.33   31.10
   4 -11   0  781.22   40.00
  -4 -11   0  751.02   31.90
   4 -11   0  747.03   41.40
  -4 -11   0  772.02   39.80
  -4  11   0  699.03   38.80
  -4  11   0  701.63   38.40
   5 -11   0  520.15   30.40
   5 -11   0  487.05   31.70
   5 -11   0  465.15   30.40
  -5 -11   0  428.16   36.50
   5 -11   0  465.25   32.10
  -5 -11   0  438.36   31.40
   5 -11   0  462.65   35.30
  -5 -11   0  478.65   23.40
  -5 -11   0  479.45   29.90
  -5  11   0  433.86   29.70
  -5  11   0  450.35   30.60
   6 -11   0  208.88   25.10
   6 -11   0  190.38   23.80
  -6 -11   0  174.68   22.00
   6 -11   0  177.78   22.00
  -6 -11   0  206.58   15.60
  -6 -11   0  180.18   23.40
  -6  11   0  178.48   21.60
  -6  11   0  183.48   23.50
  -7 -11   0   70.09   20.90
  -7 -11   0   23.50   13.50
   7 -11   0   34.10   13.80
   7 -11   0   24.70   15.80
  -7 -11   0   26.40    9.80
  -7  11   0   22.40   16.40
  -7  11   0   45.50   14.40
  -8 -11   0  223.38   23.90
  -8 -11   0  228.78   34.10
   8 -11   0  235.38   34.30
   8 -11   0  225.88   34.00
  -8  11   0  175.78   27.90
  -8  11   0  188.38   26.20
   0 -12   0  123.89   10.60
   0 -12   0  121.99   11.20
   0 -12   0  130.09   11.70
   0 -12   0  120.49   10.70
   0 -12   0  123.09   11.90
   0  12   0  105.49   14.90
  -1 -12   0  242.68   16.40
   1 -12   0  240.38   16.50
   1 -12   0  220.28   15.30
  -1 -12   0  242.48   14.40
   1 -12   0  236.18   15.80
  -1 -12   0  233.68   14.60
   1 -12   0  236.98   16.70
   1 -12   0  252.77   17.90
  -1 -12   0  231.08   14.20
  -1 -12   0  248.88   15.10
  -1  12   0  239.28   20.00
   1  12   0  240.08   19.90
  -2 -12   0   20.90   10.20
   2 -12   0   10.50    6.90
  -2 -12   0   17.60    4.50
   2 -12   0    1.10    7.30
  -2 -12   0   12.80    4.00
  -2 -12   0    5.40    4.10
   2 -12   0   10.20    6.00
   2 -12   0   14.70    6.50
   2 -12   0   14.30    6.30
   2  12   0    2.70    7.40
  -2  12   0   10.20    7.60
  -2  12   0   11.60    6.10
   3 -12   0  172.48   16.60
  -3 -12   0  172.48   21.00
   3 -12   0  160.18   15.40
   3 -12   0  179.28   17.70
   3 -12   0  145.29   14.50
  -3 -12   0  180.58   10.40
  -3 -12   0  150.58   11.50
   3 -12   0  175.18   19.10
  -3 -12   0  159.78    9.90
  -3 -12   0  153.08   17.70
   3  12   0  185.18   19.20
  -3  12   0  156.98   16.00
  -3  12   0  147.99   15.00
  -4 -12   0   53.39   12.70
  -4 -12   0   55.39    7.60
   4 -12   0   51.99   10.50
  -4 -12   0   64.29    5.50
   4 -12   0   81.29   15.10
   4 -12   0   67.29   12.30
  -4 -12   0   55.39   15.60
   4 -12   0   70.39   11.40
   4 -12   0   52.19   12.00
  -4 -12   0   69.89    6.90
   4  12   0   63.99   14.60
  -4  12   0   72.79   11.90
  -4  12   0   72.59   12.70
  -5 -12   0   11.60   13.50
   5 -12   0    1.40   10.90
  -5 -12   0    0.00    5.90
  -5 -12   0    1.50    8.80
   5 -12   0    9.60   11.60
   5 -12   0   18.10   10.50
   5 -12   0   16.30    9.20
  -5  12   0   22.10    9.50
  -5  12   0    3.80   10.20
   6 -12   0    1.20   12.10
   6 -12   0   -4.90   11.00
  -6 -12   0   -5.50   15.60
  -6 -12   0   15.30   11.50
  -6 -12   0   -0.80    7.10
  -6  12   0   12.80   11.50
  -6  12   0   -1.70   12.70
  -7 -12   0   -5.80   13.60
   7 -12   0   20.80   17.90
   7 -12   0  -27.90   12.90
  -7 -12   0    5.70   11.40
  -7 -12   0   -3.90   23.40
  -7  12   0   -3.80   13.00
   8 -12   0   15.80   17.80
   8 -12   0  -16.00   19.90
  -8 -12   0   -0.10   18.60
  -8  12   0    6.60   21.60
  -8  12   0   42.90   16.80
   0 -13   0    2.10    4.30
   0 -13   0   -1.10    5.10
   0 -13   0   14.10    5.00
   0 -13   0   -5.60    4.10
   0 -13   0    6.30    5.40
   0  13   0    6.70    7.70
  -1 -13   0  750.92   35.80
   1 -13   0  783.42   37.90
   1 -13   0  741.23   36.10
   1 -13   0  747.93   37.00
  -1 -13   0  807.72   36.00
   1 -13   0  769.32   37.90
  -1 -13   0  752.92   36.70
  -1 -13   0  779.02   35.20
  -1 -13   0  760.82   35.50
   1 -13   0  733.83   38.50
  -1  13   0  745.83   41.90
   1  13   0  736.13   41.70
   2 -13   0 1131.39   52.69
   2 -13   0 1127.89   52.89
   2 -13   0 1074.39   51.69
  -2 -13   0 1114.79   48.40
   2 -13   0 1097.29   50.49
  -2 -13   0 1055.89   55.69
  -2 -13   0 1106.19   48.00
   2 -13   0 1148.49   54.19
  -2 -13   0 1085.69   48.90
   2  13   0 1028.90   55.69
  -2  13   0 1261.37   57.89
  -3 -13   0   77.99    9.60
   3 -13   0   63.39   12.80
  -3 -13   0   68.49    7.70
   3 -13   0   68.19   11.70
   3 -13   0   93.79   13.00
   3 -13   0   78.49   12.10
   3 -13   0  102.69   13.60
  -3 -13   0   79.69   16.60
  -3 -13   0  100.59   14.10
  -3 -13   0   69.69    7.60
  -3  13   0   68.79   11.20
   3  13   0   66.89   13.70
   4 -13   0  188.48   20.30
  -4 -13   0  191.28   10.40
  -4 -13   0  186.88   24.00
   4 -13   0  214.48   23.20
   4 -13   0  212.58   21.20
  -4 -13   0  260.07   30.20
  -4 -13   0  185.58   11.80
  -4 -13   0  193.28   12.80
   4 -13   0  190.78   19.00
   4  13   0  216.78   24.40
  -4  13   0  204.18   19.10
  -4  13   0  200.08   20.80
   5 -13   0  542.55   37.30
  -5 -13   0  603.54   35.40
   5 -13   0  560.84   36.40
   5 -13   0  613.74   36.50
  -5 -13   0  605.14   28.70
   5 -13   0  515.35   39.50
  -5 -13   0  553.24   39.60
  -5  13   0  595.14   37.30
  -5  13   0  571.94   36.10
  -6 -13   0  324.57   20.40
   6 -13   0  328.37   32.40
  -6 -13   0  368.86   55.39
   6 -13   0  321.97   29.80
  -6 -13   0  320.87   30.30
  -6  13   0  359.26   32.30
  -6  13   0  309.07   28.40
  -7 -13   0   62.89   27.60
  -7 -13   0   81.09   11.40
   7 -13   0   59.49   19.80
   7 -13   0   86.29   19.90
  -7  13   0   72.39   20.60
  -7  13   0   48.60   16.40
   8 -13   0  325.37   44.50
   8 -13   0  440.56   43.50
  -8 -13   0  417.56   43.00
  -8  13   0  300.77   44.80
  -8  13   0  444.56   41.10
   0 -14   0  598.34   30.40
   0 -14   0  587.34   31.40
   0 -14   0  634.94   30.90
   0 -14   0  557.94   32.90
   0 -14   0  605.24   31.20
   0  14   0  568.54   35.70
  -1 -14   0  206.18   15.70
   1 -14   0  230.28   18.20
   1 -14   0  235.58   17.10
   1 -14   0  240.38   20.40
  -1 -14   0  248.78   15.70
   1 -14   0  210.68   17.80
  -1 -14   0  255.67   17.10
   1 -14   0  245.48   17.70
  -1 -14   0  237.58   15.80
  -1  14   0  212.58   21.70
   1  14   0  185.18   21.30
  -2 -14   0    0.60   11.20
  -2 -14   0   11.00    5.40
  -2 -14   0   25.90    8.20
   2 -14   0   25.80    9.10
   2 -14   0   11.70    7.00
  -2 -14   0   16.50    6.10
   2 -14   0   15.80    8.00
   2 -14   0   31.60    8.10
  -2 -14   0   14.40    5.30
   2 -14   0   29.50   10.50
  -2  14   0   12.10   10.70
   2  14   0    8.50    9.40
  -3 -14   0  228.08   27.80
  -3 -14   0  224.08   24.00
   3 -14   0  225.38   19.80
  -3 -14   0  240.48   13.80
   3 -14   0  262.77   22.80
  -3 -14   0  233.58   14.70
  -3 -14   0  217.28   15.60
   3 -14   0  227.28   20.60
   3 -14   0  198.38   18.50
  -3  14   0  231.18   20.70
   3  14   0  197.98   23.40
  -4 -14   0   59.79    8.50
   4 -14   0   60.59   14.70
  -4 -14   0   67.39    9.70
   4 -14   0   50.39   11.50
   4 -14   0   55.29   12.30
   4 -14   0   56.19   12.60
  -4 -14   0   64.89    6.50
  -4 -14   0   71.39   16.90
   4  14   0   82.79   15.60
  -4  14   0   64.09   13.70
  -4  14   0   81.59   13.50
   5 -14   0   11.40   16.80
   5 -14   0   33.90   11.90
  -5 -14   0   35.10   12.20
   5 -14   0   25.10   14.60
  -5 -14   0   28.70    8.00
   5 -14   0   39.20   13.80
  -5  14   0   48.20   13.50
  -5  14   0   43.20   14.20
   6 -14   0  123.49   19.40
   6 -14   0  100.69   18.50
  -6 -14   0  129.79   20.70
  -6 -14   0   96.99   12.30
  -6  14   0   70.79   16.50
  -6  14   0  128.19   20.90
   7 -14   0   55.19   20.20
   7 -14   0   39.90   19.00
  -7 -14   0   22.90   18.80
  -7  14   0   34.70   20.90
  -7  14   0   15.90   15.70
   0 -15   0    5.10    6.50
   0 -15   0    2.10    7.80
   0 -15   0    5.20    5.40
   0 -15   0    5.40    5.90
   0 -15   0   11.80    6.00
   0  15   0   -1.50   10.50
  -1 -15   0  340.87   21.90
  -1 -15   0  326.17   20.00
  -1 -15   0  310.07   20.30
  -1 -15   0  325.77   22.10
   1 -15   0  362.06   23.20
   1 -15   0  287.77   22.00
   1 -15   0  308.07   21.90
   1 -15   0  358.86   25.50
  -1 -15   0  329.27   20.10
   1 -15   0  344.77   21.50
  -1  15   0  278.47   27.30
   1  15   0  307.27   27.40
  -2 -15   0  244.18   20.70
  -2 -15   0  222.28   17.10
   2 -15   0  229.78   25.30
  -2 -15   0  226.48   16.30
   2 -15   0  226.28   20.70
   2 -15   0  225.68   20.80
   2 -15   0  262.67   19.70
   2 -15   0  239.88   19.90
  -2 -15   0  221.58   17.00
  -2 -15   0  217.88   15.90
   2  15   0  237.08   24.80
  -2  15   0  228.28   25.20
  -3 -15   0   13.50    6.70
   3 -15   0   18.80    9.40
  -3 -15   0   14.70    5.30
   3 -15   0   12.60    9.10
   3 -15   0   14.40    9.90
  -3 -15   0   14.70    6.20
  -3 -15   0   18.00    6.80
  -3  15   0   21.80   10.10
   3  15   0   31.70   13.00
  -3  15   0   29.10   13.40
  -4 -15   0   60.19    7.30
   4 -15   0   80.29   17.70
   4 -15   0   46.50   13.50
   4 -15   0   54.39   12.40
  -4 -15   0   62.19   11.00
  -4 -15   0   64.29    7.80
   4 -15   0   65.79   14.80
   4  15   0   44.50   15.80
  -4  15   0   69.39   14.20
  -5 -15   0  107.59   16.50
   5 -15   0  113.79   18.30
   5 -15   0  131.59   20.90
  -5 -15   0  106.29   15.30
   5 -15   0  124.89   23.00
  -5  15   0  124.69   18.90
   6 -15   0  249.38   28.80
   6 -15   0  223.58   31.70
  -6 -15   0  202.48   19.90
  -6 -15   0  256.27   30.80
  -6  15   0  189.48   28.90
  -6  15   0  170.68   25.00
   7 -15   0   39.00   21.30
   7 -15   0   49.10   20.40
  -7 -15   0  -11.20   17.60
  -7  15   0  -26.60   15.40
  -7  15   0    5.50   20.90
   0 -16   0 1158.98   53.59
   0 -16   0 1104.39   51.19
   0 -16   0 1064.99   51.69
   0 -16   0 1058.19   51.19
   0 -16   0 1069.49   50.69
   0  16   0 1043.30   57.29
  -1 -16   0  386.36   23.70
  -1 -16   0  395.66   23.90
  -1 -16   0  389.16   25.40
  -1 -16   0  371.36   23.90
   1 -16   0  400.86   26.30
  -1 -16   0  363.86   25.20
   1 -16   0  393.86   26.20
   1 -16   0  380.16   29.10
   1 -16   0  425.56   26.10
   1 -16   0  418.86   24.90
  -1  16   0  380.36   31.30
   1  16   0  400.16   31.20
  -2 -16   0  112.39   14.40
   2 -16   0  109.69   16.00
  -2 -16   0  111.09   15.10
  -2 -16   0  105.79   13.40
  -2 -16   0  132.89   16.00
   2 -16   0  102.09   15.60
  -2 -16   0  116.89   12.80
   2 -16   0  136.59   17.40
   2 -16   0  106.89   15.80
   2  16   0  120.29   19.70
  -2  16   0  103.79   19.10
   3 -16   0  772.92   42.50
   3 -16   0  698.73   42.30
  -3 -16   0  718.63   36.20
  -3 -16   0  773.92   34.80
   3 -16   0  771.32   45.20
  -3 -16   0  731.73   36.00
  -3 -16   0  741.53   37.00
   3 -16   0  759.42   40.40
  -3  16   0  762.22   49.10
   3  16   0  739.13   46.90
   4 -16   0  176.68   23.60
  -4 -16   0  158.18   11.10
  -4 -16   0  145.69   16.80
   4 -16   0  159.88   22.40
  -4 -16   0  149.88   15.10
   4 -16   0  135.59   20.80
  -4 -16   0  154.18   13.00
   4 -16   0  150.18   19.30
   4  16   0  134.49   22.40
  -4  16   0  181.38   23.50
  -5 -16   0    9.90   10.00
  -5 -16   0   10.70    8.50
   5 -16   0    8.00   14.20
   5 -16   0  -15.30   20.00
  -5 -16   0    6.30   13.30
   5 -16   0   -0.80   12.30
  -5  16   0   -3.90   14.80
   6 -16   0  162.78   24.30
  -6 -16   0  215.18   31.70
  -6  16   0  133.19   28.30
  -7 -16   0  243.78   29.70
   7 -16   0  295.67   41.50
   7 -16   0  223.88   33.00
  -7  16   0  213.08   29.20
  -7  16   0  331.07   44.20
   0 -17   0   22.10   13.10
   0 -17   0    3.30    7.10
   0 -17   0   -5.10    7.50
   0 -17   0  -11.40    7.30
   0 -17   0   13.40    8.80
   0  17   0   20.90   12.00
  -1 -17   0  131.49   16.20
  -1 -17   0  139.09   15.60
  -1 -17   0  153.68   16.50
   1 -17   0  155.68   17.60
  -1 -17   0  134.89   15.60
  -1 -17   0  116.59   16.00
   1 -17   0  125.09   17.30
   1 -17   0  172.78   19.90
   1 -17   0  130.29   17.60
  -1  17   0  116.99   19.40
   1  17   0  169.28   24.90
  -2 -17   0   47.30   12.90
  -2 -17   0   36.00   10.10
   2 -17   0   63.79   12.70
   2 -17   0   41.20   13.00
  -2 -17   0   52.49    8.80
   2 -17   0   58.79   12.70
  -2 -17   0   35.20   11.70
  -2 -17   0   47.00    9.40
   2 -17   0   33.70   12.10
   2  17   0   36.40   15.30
  -2  17   0   19.20   13.40
   3 -17   0   24.90   12.70
   3 -17   0   22.60   15.30
   3 -17   0   22.20   12.00
  -3 -17   0   32.70    9.50
  -3 -17   0   36.10    9.90
  -3 -17   0   31.40    9.10
   3 -17   0   45.80   12.20
  -3 -17   0   41.00   14.30
  -3 -17   0   43.80    7.50
  -3  17   0   35.70   16.90
   3  17   0   45.10   15.20
  -4 -17   0    1.90   10.00
   4 -17   0   -0.70   16.60
   4 -17   0  -12.80   15.60
   4 -17   0   -3.90   14.20
  -4 -17   0   -0.70    9.20
  -4 -17   0   17.20    6.80
  -4 -17   0   12.60    5.40
   4 -17   0    9.60   12.80
   4  17   0   -2.60   14.80
  -4  17   0  -27.70   16.50
  -4  17   0   -5.50   12.40
   5 -17   0   46.20   16.00
   5 -17   0   34.60   16.20
  -5 -17   0   40.00   15.10
  -5  17   0   15.20   17.20
   6 -17   0   -8.40   17.50
   6 -17   0   32.80   19.20
  -6 -17   0   43.70   18.10
  -6  17   0  -38.00   20.20
   0 -18   0  228.28   22.30
   0 -18   0  272.27   23.00
   0 -18   0  295.07   23.30
   0 -18   0  344.17   23.30
   0  18   0  218.38   30.20
  -1 -18   0   81.49   16.60
  -1 -18   0  115.69   16.60
   1 -18   0   80.89   21.20
  -1 -18   0   94.09   12.90
  -1 -18   0   75.99   13.10
   1 -18   0  134.09   20.60
  -1 -18   0   82.09   14.20
   1 -18   0   85.19   14.40
   1 -18   0   88.79   14.00
  -1  18   0   54.09   17.60
   1  18   0   64.29   17.80
  -2 -18   0   49.60   14.40
  -2 -18   0   44.00   13.30
  -2 -18   0   30.80    9.40
   2 -18   0   46.90   22.30
  -2 -18   0   36.00    9.40
   2 -18   0   45.20   12.60
  -2 -18   0   31.60   13.10
   2 -18   0   29.00   15.50
   2 -18   0   38.60   12.90
   2  18   0   60.39   16.70
  -2  18   0   29.80   17.10
  -3 -18   0  351.66   34.30
  -3 -18   0  342.37   27.30
  -3 -18   0  343.37   22.20
  -3 -18   0  339.27   25.90
   3 -18   0  361.16   30.50
   3 -18   0  356.56   35.70
   3 -18   0  363.86   30.50
   3  18   0  359.46   36.10
  -3  18   0  325.87   38.70
   4 -18   0  294.07   31.90
   4 -18   0  369.36   36.40
  -4 -18   0  273.47   17.20
   4 -18   0  315.97   31.60
  -4 -18   0  283.37   25.60
  -4  18   0  300.57   41.30
   4  18   0  235.08   38.00
   5 -18   0   48.20   17.60
  -5 -18   0   -3.50   14.90
   5 -18   0   40.20   19.20
  -5  18   0    7.10   19.00
  -5  18   0   10.20   23.70
   0 -19   0   25.20   11.60
   0 -19   0  -14.50   11.60
   0 -19   0   -3.10    9.60
   0 -19   0  -19.80    9.20
   1 -19   0  166.28   23.50
  -1 -19   0  192.98   20.60
  -1 -19   0  216.18   24.30
  -1 -19   0  148.79   19.50
   1 -19   0  158.88   21.90
   1 -19   0  150.58   22.20
   1 -19   0  174.58   25.20
  -1 -19   0  195.38   21.60
  -1  19   0  144.59   24.60
   1  19   0  161.68   27.90
   2 -19   0  170.88   23.20
  -2 -19   0  126.69   19.60
   2 -19   0  146.59   19.10
  -2 -19   0  162.98   21.50
  -2 -19   0  132.09   20.70
   2 -19   0  130.49   19.60
  -2 -19   0  138.09   18.40
   2 -19   0  154.28   22.80
  -2  19   0  118.89   23.20
   2  19   0  116.79   24.20
  -3 -19   0    0.20   10.80
  -3 -19   0   -4.80   11.60
   3 -19   0  -18.30   13.50
   3 -19   0   -2.10   13.20
  -3 -19   0    3.00    8.60
   3  19   0  -24.20   16.90
  -3  19   0    7.70   18.70
  -4 -19   0  199.28   27.20
  -4 -19   0  191.88   17.70
   4 -19   0  165.48   25.00
   4 -19   0  229.38   31.10
  -4 -19   0  206.78   15.50
  -4  19   0  261.57   42.80
   4  19   0  188.88   29.70
   5 -19   0  243.78   32.00
   5 -19   0  267.47   38.00
  -5  19   0  229.28   36.30
   0 -20   0   41.00   13.10
   0 -20   0   34.40   13.10
   0 -20   0   20.30   13.00
   0  20   0   38.90   19.80
   1 -20   0   55.09   16.00
  -1 -20   0   57.59   14.20
  -1 -20   0   62.69   14.00
  -1 -20   0   18.40   12.30
   1 -20   0   37.80   14.30
  -1  20   0   28.10   20.20
   1  20   0   35.80   20.90
  -2 -20   0   14.00   12.10
  -2 -20   0    8.90   12.80
  -2 -20   0  -11.40   12.50
   2 -20   0   13.40   13.60
   2 -20   0    5.80   13.40
   2  20   0   14.00   18.50
  -2  20   0   -3.70   18.60
   3 -20   0   66.19   18.40
  -3 -20   0   58.19   14.40
  -3 -20   0   21.60   15.40
  -3 -20   0   40.80   10.80
   3 -20   0   33.00   16.60
   3  20   0   56.19   22.20
  -3  20   0  -18.70   21.20
  -4 -20   0   80.49   10.30
   4 -20   0   42.90   19.50
   4 -20   0   85.59   22.30
  -4 -20   0   59.89   11.70
  -4  20   0   21.10   26.40
   4  20   0   40.00   26.70
   0 -21   0    9.40   13.40
   0 -21   0    4.50   14.50
   0  21   0   -1.70   20.60
   1 -21   0  298.37   30.50
  -1 -21   0  260.17   29.80
  -1 -21   0  292.97   31.10
   1 -21   0  233.38   30.50
  -1  21   0  254.47   40.80
   1  21   0  220.58   32.30
   2 -21   0  647.54   43.50
  -2 -21   0  573.34   40.90
   2 -21   0  547.95   43.30
  -2 -21   0  671.63   40.90
  -2  21   0  611.24   53.49
   2  21   0  573.14   52.99
   3 -21   0  152.78   23.90
  -3 -21   0  116.89   16.90
  -3 -21   0  157.28   22.40
  -3 -21   0  154.48   19.40
   3 -21   0  154.78   24.40
   3  21   0  130.39   28.60
  -3  21   0  152.98   33.00
   0 -22   0  121.19   21.00
   0 -22   0  143.49   25.50
   0  22   0  154.28   31.10
  -1 -22   0   20.50   18.10
  -1 -22   0   -8.70   16.40
   1 -22   0   -5.20   17.30
   1 -22   0    3.20   16.40
   1  22   0  -36.60   25.00
  -1  22   0    3.30   24.10
 -10   0   1    5.90   20.00
 -10   0   1   -7.30   12.30
 -10   0   1  -24.30   17.50
   9   0  -1   11.20   11.00
  -9   0   1   -3.90   13.10
  -9   0   1   -4.60    8.80
  -9   0   1   -3.20   15.00
   9   0  -1    5.50    8.20
   9   0  -1   -5.20    9.40
   8   0  -1   -1.00    7.90
   8   0  -1   12.60    9.70
  -8   0   1   -9.80    9.90
   8   0  -1   11.60    6.80
  -8   0   1    4.70    7.60
  -8   0   1   -1.50    9.30
  -7   0   1    3.40    5.60
   7   0  -1    9.60    7.50
   7   0  -1    6.50    4.90
  -7   0   1    2.30    8.00
   7   0  -1   -2.70    5.00
  -7   0   1   -0.90    8.70
   7   0  -1   -5.90    8.90
  -6   0   1   -7.10    5.80
  -6   0   1   -3.40    4.40
   6   0  -1    1.40    2.10
   6   0  -1    2.90    3.80
   6   0  -1    2.30    6.20
  -6   0   1   -6.40    5.50
   5   0  -1   -1.10    2.50
  -5   0   1   -1.60    4.30
   5   0  -1    0.40    1.70
   5   0  -1    3.80    3.10
  -5   0   1    1.60    4.10
  -5   0   1   -0.90    3.60
   5   0  -1    1.50    4.40
   5   0  -1   -4.70    3.80
  -4   0   1    2.30    2.50
  -4   0   1   -2.00    3.40
   4   0  -1    4.70    3.70
   4   0  -1    0.30    2.70
  -4   0   1    2.70    3.10
   4   0  -1   13.70    3.70
   4   0  -1    5.50    2.50
   4   0  -1    0.00    1.20
  -3   0   1   -1.80    2.00
   3   0  -1   -1.80    0.60
  -3   0   1   -6.90    2.90
   3   0  -1   -2.10    1.90
   3   0  -1   -3.00    2.80
  -2   0   1   -0.20    1.10
  -2   0   1   -0.40    1.70
   2   0  -1   -0.30    1.50
   2   0  -1   -1.60    1.50
  -1   0   1   -8.40    0.50
   1   0  -1   -6.60    1.20
  -1   0   1   -7.70    1.10
  -1   0   1   -6.90    1.30
   1   0  -1   -7.70    1.30
   0   0  -1   -1.60    0.80
   0   0   1   -1.00    1.00
   0   0   1   -1.00    1.00
   0   0  -1   -0.30    1.00
   0   0   1   -1.60    0.90
   1   0   1   -0.20    1.50
   1   0   1   -1.40    1.20
   1   0   1   -0.90    0.80
   1   0   1   -0.60    1.30
  -1   0  -1    0.90    1.10
  -1   0  -1   -1.30    1.10
  -1   0  -1   -0.80    1.00
  -1   0  -1   -1.90    1.20
   2   0   1   -0.40    2.20
  -2   0  -1   -1.20    1.40
  -2   0  -1    1.40    2.60
   2   0   1   -1.70    1.30
   2   0   1   -3.20    2.10
   2   0   1    1.40    2.00
   2   0   1   -0.40    1.70
  -2   0  -1   -1.30    1.60
  -2   0  -1    0.10    1.60
   3   0   1    2.90    3.20
   3   0   1   -2.90    2.40
  -3   0  -1    0.70    2.30
  -3   0  -1    1.70    2.60
   3   0   1   -0.10    2.80
  -3   0  -1    4.20    3.10
   3   0   1   -0.50    2.90
  -3   0  -1    3.80    2.50
  -3   0  -1    0.20    2.20
   3   0   1   -1.80    1.90
  -4   0  -1   -4.30    3.00
   4   0   1   -2.70    3.00
  -4   0  -1   -0.60    4.40
  -4   0  -1    0.50    4.00
   4   0   1   -1.50    3.70
   4   0   1   -1.80    3.10
   4   0   1   -0.20    3.40
  -4   0  -1   -5.70    2.90
   4   0   1   -6.10    4.20
  -4   0  -1   -0.20    3.10
   4   0   1   -1.90    3.20
  -5   0  -1   -0.20    5.10
   5   0   1   -3.90    3.80
   5   0   1   -0.30    4.40
  -5   0  -1    2.30    4.60
   5   0   1    4.40    4.90
  -5   0  -1    6.20    4.70
   5   0   1   -0.90    5.10
  -5   0  -1   -4.00    5.10
   5   0   1   10.10    5.60
   6   0   1   -1.10    5.70
   6   0   1    4.60    5.70
  -6   0  -1    7.50    6.00
   6   0   1    2.60    5.40
   6   0   1  -10.90    6.30
  -6   0  -1   -7.10    7.90
   6   0   1    6.50    5.90
  -6   0  -1   -0.80    6.60
  -6   0  -1  -10.80    6.50
  -7   0  -1   -7.90   10.40
  -7   0  -1    3.30    8.80
   7   0   1   -1.70    6.50
  -7   0  -1   -2.20    9.30
   7   0   1   -4.40    6.20
   7   0   1    1.90    7.90
   7   0   1    6.20    6.50
  -8   0  -1   -0.40   12.20
   8   0   1   11.60    9.00
  -8   0  -1  -13.20   10.90
   8   0   1   30.70   12.10
  -9   0  -1   18.30   18.60
   9   0   1  -10.30   10.30
  -9   0  -1   11.60   16.40
 -10  -1   1  328.87   39.20
 -10  -1   1  339.57   30.00
 -10  -1   1  406.06   41.70
 -10   1   1  377.96   32.60
 -10   1   1  329.37   38.50
 -10   1   1  272.87   41.80
   9  -1  -1  241.08   24.30
   9  -1  -1  241.58   21.80
  -9  -1   1  273.57   30.60
  -9  -1   1  296.07   23.60
   9  -1  -1  277.17   33.70
  -9  -1   1  337.17   30.00
  -9   1   1  262.57   23.30
  -9   1   1  305.17   31.10
   9   1  -1  252.27   26.90
  -9   1   1  255.47   30.20
   8  -1  -1   19.40   11.70
  -8  -1   1   18.30    7.30
   8  -1  -1    2.30    6.60
  -8  -1   1   -0.30    9.40
  -8  -1   1   -6.60   10.30
   8   1  -1   24.60    8.00
  -8   1   1   12.80    7.40
   8   1  -1   -2.50    5.90
  -8   1   1   -8.30   10.90
  -8   1   1    4.50   10.20
   8   1  -1    2.70    7.00
   7  -1  -1  644.14   32.80
   7  -1  -1  662.23   35.50
   7  -1  -1  617.64   31.40
  -7  -1   1  589.04   32.10
  -7  -1   1  637.54   36.70
   7  -1  -1  624.54   27.40
  -7  -1   1  676.83   36.30
   7  -1  -1  611.54   35.60
   7   1  -1  678.83   35.10
  -7   1   1  621.74   33.20
   7   1  -1  635.04   31.60
  -7   1   1  620.24   35.70
  -7   1   1  622.64   36.30
   7   1  -1  631.34   29.60
   7   1  -1  670.73   31.70
   6  -1  -1 2370.56  101.29
   6  -1  -1 2462.05  100.99
   6  -1  -1 2280.97   95.09
  -6  -1   1 2285.27  100.99
   6  -1  -1 2304.47   97.89
  -6  -1   1 2392.26   99.19
  -6  -1   1 2396.36  102.29
   6  -1  -1 2560.94   99.89
   6   1  -1 2302.87   99.69
   6   1  -1 2369.66   98.89
   6   1  -1 2242.38   96.39
   6   1  -1 2434.36   98.39
  -6   1   1 2323.67  101.79
  -6   1   1 2380.56   99.79
  -6   1   1 2390.06  101.99
  -5  -1   1  231.18   17.00
  -5  -1   1  244.68   15.10
   5  -1  -1  250.17   12.30
   5  -1  -1  260.37   17.60
   5  -1  -1  241.18   14.10
  -5  -1   1  266.47   17.70
   5  -1  -1  255.47   16.60
   5  -1  -1  264.37   15.70
  -5   1   1  257.77   15.70
  -5   1   1  243.38   17.50
   5   1  -1  266.17   16.10
  -5   1   1  254.17   17.40
   5   1  -1  292.27   15.00
   5   1  -1  242.88   13.30
   5   1  -1  247.48   16.00
  -4  -1   1 1005.40   43.10
   4  -1  -1  938.91   42.40
  -4  -1   1  946.81   44.30
   4  -1  -1  976.00   43.90
   4  -1  -1 1002.10   40.70
   4  -1  -1 1047.20   45.20
   4  -1  -1 1035.10   43.50
  -4  -1   1 1000.00   44.80
  -4   1   1  949.71   43.30
   4   1  -1  995.30   41.50
  -4   1   1  982.80   44.50
   4   1  -1 1008.10   43.50
   4   1  -1 1013.80   43.70
  -4   1   1  976.20   44.70
  -3  -1   1 1095.79   47.00
   3  -1  -1 1163.98   47.70
  -3  -1   1 1134.09   44.80
  -3  -1   1 1095.09   47.80
   3  -1  -1 1051.99   46.50
   3  -1  -1 1175.98   48.60
  -3   1   1 1039.10   47.40
   3   1  -1 1126.79   47.20
  -3   1   1 1114.19   48.40
   3   1  -1 1117.59   45.80
   3   1  -1 1159.08   47.50
  -3   1   1 1074.79   47.10
   2  -1  -1  524.65   23.70
   2  -1  -1  519.75   23.10
  -2  -1   1  545.75   22.80
  -2  -1   1  495.85   23.10
   2   1  -1  520.95   22.70
  -2   1   1  492.75   23.40
   2   1  -1  511.75   22.90
  -2   1   1  489.05   22.70
  -1  -1   1    1.20    1.20
  -1  -1   1   -0.90    1.10
   1  -1  -1    0.10    0.80
  -1  -1   1   -0.60    1.20
   1  -1  -1   -2.10    1.20
   1  -1  -1   -0.50    1.20
  -1   1   1    0.90    1.30
   1   1  -1    1.00    1.10
  -1   1   1    1.30    1.40
  -1   1   1    0.80    0.80
   1   1  -1   -0.70    0.80
   1   1  -1    0.30    1.30
   0  -1  -1  873.11   35.90
   0  -1  -1  904.61   36.90
   0  -1   1  872.61   37.00
   0  -1   1  888.21   36.70
   0  -1   1  913.31   36.90
   0  -1  -1  880.21   36.50
   0  -1  -1  873.51   36.40
   0   1  -1  934.01   36.90
   0   1   1  895.91   35.80
   0   1  -1  859.01   36.80
   0   1   1  880.51   36.80
   0   1  -1  888.71   36.70
   0   1   1  901.01   36.40
   1  -1   1 2742.23  111.19
  -1  -1  -1 2775.12  111.39
  -1  -1  -1 2867.61  110.99
  -1  -1  -1 2848.52  111.09
  -1  -1  -1 2775.12  110.59
   1  -1   1 2770.62  111.69
  -1  -1  -1 2804.92  112.19
   1  -1   1 2854.61  111.89
   1  -1   1 2696.93  111.69
   1   1   1 2835.92  110.59
  -1   1  -1 2840.02  111.49
  -1   1  -1 2705.83  111.49
   1   1   1 2885.61  110.99
  -1   1  -1 2862.11  111.49
  -1   1  -1 2773.72  111.89
   1   1   1 2802.12  111.29
   1   1   1 2610.14  110.29
   1   1   1 2629.64  110.09
  -2  -1  -1  437.86   19.90
  -2  -1  -1  409.76   21.00
   2  -1   1  473.25   20.40
   2  -1   1  412.26   20.40
  -2  -1  -1  433.66   19.90
  -2  -1  -1  443.46   20.20
   2  -1   1  379.46   21.50
   2  -1   1  461.05   21.40
  -2  -1  -1  484.65   20.20
   2  -1   1  468.95   21.20
  -2   1  -1  453.75   21.00
   2   1   1  452.05   19.70
   2   1   1  451.75   19.40
  -2   1  -1  456.05   21.60
  -2   1  -1  458.45   20.80
   2   1   1  475.95   21.20
   2   1   1  461.95   19.50
   2   1   1  439.86   19.90
   2   1   1  475.25   21.40
  -2   1  -1  460.85   20.50
  -3  -1  -1 2375.66   92.39
   3  -1   1 2357.76   92.99
   3  -1   1 2194.98   93.29
  -3  -1  -1 2110.49   94.29
   3  -1   1 2191.38   93.69
   3  -1   1 2472.95   94.99
  -3  -1  -1 2341.27   93.09
  -3  -1  -1 2276.77   92.79
   3  -1   1 2173.18   93.39
  -3  -1  -1 2117.39   92.99
  -3   1  -1 2196.88   94.09
   3   1   1 2308.17   92.59
  -3   1  -1 2381.36   95.39
   3   1   1 2138.49   93.69
   3   1   1 2269.87   94.29
  -3   1  -1 2329.47   94.09
   3   1   1 2434.76   92.19
  -3   1  -1 2307.27   92.99
  -3   1  -1 2076.49   93.29
   3   1   1 2422.86   92.09
   3   1   1 2367.46   92.09
  -4  -1  -1 1542.95   69.39
   4  -1   1 1645.44   69.49
  -4  -1  -1 1496.45   67.39
   4  -1   1 1486.25   68.09
   4  -1   1 1489.75   67.29
  -4  -1  -1 1575.44   66.99
   4  -1   1 1598.24   68.19
  -4  -1  -1 1703.43   66.69
   4  -1   1 1595.54   67.89
  -4  -1  -1 1487.35   67.49
   4  -1   1 1650.23   67.29
  -4   1  -1 1553.34   68.79
   4   1   1 1642.34   65.99
   4   1   1 1692.03   66.49
   4   1   1 1542.25   67.89
  -4   1  -1 1580.54   67.99
  -4   1  -1 1641.84   70.29
   4   1   1 1624.54   65.89
  -4   1  -1 1684.03   68.89
   4   1   1 1632.34   66.89
  -5  -1  -1   11.60    5.20
   5  -1   1    7.00    6.40
  -5  -1  -1    5.90    5.40
  -5  -1  -1   15.30    5.50
   5  -1   1    6.90    5.20
   5  -1   1   16.90    5.60
  -5  -1  -1    5.00    5.50
   5  -1   1   15.50    6.10
   5  -1   1    9.30    5.60
  -5   1  -1   23.40    7.00
  -5   1  -1    5.70    5.20
   5   1   1    6.80    4.40
  -5   1  -1    3.30    6.60
   5   1   1    7.80    4.90
   5   1   1    8.30    5.60
   5   1   1   16.60    4.20
  -5   1  -1   12.40    6.00
  -6  -1  -1  109.59   16.00
  -6  -1  -1  123.29   13.70
  -6  -1  -1  105.39   14.30
  -6  -1  -1  106.79   13.90
   6  -1   1  113.49   14.20
   6  -1   1  107.19   12.80
   6  -1   1   85.69   12.90
   6  -1   1  108.39   13.70
   6  -1   1  107.99   14.40
  -6   1  -1  104.99   14.80
  -6   1  -1  111.69   16.30
  -6   1  -1  113.29   14.80
   6   1   1   78.89   12.40
   6   1   1   95.19   11.60
   6   1   1  104.89    8.40
  -6   1  -1  109.79   15.20
   6   1   1   93.09   12.60
   6   1   1  104.49   10.20
   7  -1   1  890.81   43.80
  -7  -1  -1  955.60   46.70
   7  -1   1  890.61   45.20
  -7  -1  -1  896.61   46.90
   7  -1   1  847.92   43.80
  -7  -1  -1  926.11   50.49
   7  -1   1  894.31   44.30
  -7   1  -1  909.61   49.90
   7   1   1  884.01   43.20
   7   1   1  914.41   43.90
  -7   1  -1  990.50   48.10
  -7   1  -1  930.81   48.00
   8  -1   1  608.14   32.40
   8  -1   1  638.64   32.70
   8  -1   1  560.24   33.10
   8  -1   1  604.44   37.10
  -8  -1  -1  618.54   42.50
  -8  -1  -1  631.34   39.60
  -8   1  -1  573.44   41.70
  -8   1  -1  669.43   41.50
   8   1   1  554.44   34.50
   8   1   1  603.24   32.60
  -9  -1  -1   93.69   24.20
   9  -1   1  109.69   15.20
  -9  -1  -1  130.69   22.10
  -9   1  -1  154.18   25.90
  -9   1  -1  102.99   25.30
 -10  -2   1  231.38   36.00
  10  -2  -1  203.48   27.20
 -10  -2   1  267.67   43.30
 -10  -2   1  233.48   25.50
 -10   2   1  211.48   28.20
 -10   2   1  254.27   34.70
 -10   2   1  207.08   30.30
  -9  -2   1   19.40   15.70
  -9  -2   1   16.30   10.30
  -9  -2   1   17.80   13.70
   9  -2  -1   33.80   11.40
  -9   2   1   15.90   14.20
  -9   2   1    4.00   16.30
  -9   2   1   30.90   10.90
  -8  -2   1   52.49   12.90
  -8  -2   1   48.60   13.20
   8  -2  -1   41.90   10.10
   8  -2  -1   43.10   14.10
   8  -2  -1   29.80    9.00
  -8  -2   1   32.80    8.30
   8   2  -1   25.50    8.30
  -8   2   1   37.70   10.10
  -8   2   1   51.89   12.40
  -8   2   1   26.60   11.40
   7  -2  -1   23.00    7.70
   7  -2  -1   18.50    3.90
  -7  -2   1   27.80    6.70
   7  -2  -1   14.50   10.10
   7  -2  -1   31.60    7.10
  -7  -2   1   26.20    8.50
  -7  -2   1   18.10   10.10
   7  -2  -1   21.80   10.40
  -7   2   1   16.50    9.00
  -7   2   1   45.00   11.10
   7   2  -1   10.10    9.00
  -7   2   1   27.90    7.70
   7   2  -1   25.00    5.90
   7   2  -1   30.20    4.70
  -6  -2   1   63.49    9.00
   6  -2  -1   57.99    7.90
  -6  -2   1   56.99    9.60
  -6  -2   1   67.99   11.50
   6  -2  -1   67.89   10.40
   6  -2  -1   48.70    9.00
   6  -2  -1   56.39    6.50
   6   2  -1   66.49    9.10
  -6   2   1   71.59   10.30
  -6   2   1   89.19   12.90
   6   2  -1   61.69    6.70
   6   2  -1   74.49    8.30
  -6   2   1   59.99   10.20
   6   2  -1   70.99    7.80
   5  -2  -1  502.85   25.60
   5  -2  -1  464.25   21.30
   5  -2  -1  485.55   24.60
  -5  -2   1  440.16   25.70
  -5  -2   1  455.55   23.30
   5  -2  -1  471.25   23.20
   5  -2  -1  500.35   27.10
  -5  -2   1  452.75   25.10
  -5   2   1  457.65   25.40
   5   2  -1  421.96   21.50
  -5   2   1  432.46   25.80
   5   2  -1  494.65   22.70
  -5   2   1  488.65   24.60
   5   2  -1  502.45   24.00
   5   2  -1  454.55   22.60
   4  -2  -1  459.65   22.60
   4  -2  -1  504.25   24.30
  -4  -2   1  450.25   24.10
   4  -2  -1  482.45   23.40
   4  -2  -1  489.75   25.10
  -4  -2   1  414.46   22.20
  -4  -2   1  487.25   21.10
  -4   2   1  502.95   23.70
  -4   2   1  493.85   24.30
   4   2  -1  473.45   22.80
  -4   2   1  456.35   24.40
   4   2  -1  464.65   20.50
   4   2  -1  477.45   21.70
   4   2  -1  459.35   22.10
  -3  -2   1  339.97   17.30
  -3  -2   1  338.07   16.60
  -3  -2   1  346.27   15.10
   3  -2  -1  356.06   17.70
  -3  -2   1  346.47   18.60
   3  -2  -1  347.27   18.40
   3  -2  -1  330.47   16.70
  -3   2   1  337.97   17.10
  -3   2   1  304.67   17.70
  -3   2   1  335.97   17.20
   3   2  -1  352.36   15.00
   3   2  -1  350.86   16.60
   3   2  -1  333.77   16.10
  -2  -2   1  100.99    7.30
   2  -2  -1   97.59    7.50
  -2  -2   1   95.79    6.80
   2  -2  -1   89.89    6.60
  -2  -2   1   96.59    6.30
   2   2  -1   98.99    6.00
  -2   2   1   97.29    6.50
  -2   2   1  100.69    6.20
   2   2  -1  101.69    6.40
  -2   2   1   98.99    7.10
   1  -2  -1 2217.18   88.09
   1  -2  -1 2064.39   86.89
   1  -2  -1 2253.77   87.79
  -1  -2   1 2130.99   87.69
  -1  -2   1 2039.40   87.59
  -1  -2   1 2298.27   88.19
   1   2  -1 2294.07   87.59
  -1   2   1 2204.98   87.89
   1   2  -1 2170.08   87.29
   1   2  -1 2300.87   88.19
  -1   2   1 2121.69   86.49
  -1   2   1 2086.99   87.39
   0  -2  -1    0.10    0.80
   0  -2  -1    1.50    0.60
   0  -2   1    0.90    1.10
   0  -2   1    0.40    1.10
   0  -2  -1    1.30    1.20
   0  -2  -1    2.00    1.00
   0  -2   1    1.80    1.30
   0  -2  -1    1.10    0.90
   0   2   1   -0.80    1.10
   0   2   1    1.60    0.50
   0   2   1    1.40    0.80
   0   2  -1    0.20    1.20
   0   2   1    1.30    0.80
   0   2  -1   -0.20    1.20
   0   2  -1    2.30    1.30
   0   2   1    1.30    0.70
   1  -2   1 2730.53  102.99
  -1  -2  -1 2606.04  103.49
   1  -2   1 2607.74  103.49
  -1  -2  -1 2470.45  102.39
  -1  -2  -1 2507.45  101.09
   1  -2   1 2451.85  103.09
  -1  -2  -1 2681.53  101.79
  -1  -2  -1 2567.44  101.49
   1  -2   1 2677.13  103.39
  -1   2  -1 2601.64  103.49
   1   2   1 2488.65  103.19
  -1   2  -1 2526.25  102.69
   1   2   1 2455.85  100.99
  -1   2  -1 2517.75  102.99
   1   2   1 2711.53  101.39
  -1   2  -1 2393.86  102.89
   1   2   1 2510.35  102.29
   2  -2   1 3091.19  124.29
  -2  -2  -1 3105.59  122.79
   2  -2   1 3288.47  124.99
   2  -2   1 3011.10  124.49
   2  -2   1 3176.58  123.99
  -2  -2  -1 3048.60  124.49
   2  -2   1 3135.09  124.99
  -2  -2  -1 3271.77  125.19
  -2  -2  -1 3009.80  122.69
  -2  -2  -1 3002.60  122.59
  -2   2  -1 2888.31  124.19
  -2   2  -1 3072.29  124.59
   2   2   1 3072.49  122.09
   2   2   1 3243.28  122.59
  -2   2  -1 2815.22  124.79
   2   2   1 3130.69  124.29
  -2   2  -1 3009.00  123.79
  -3  -2  -1  985.80   43.10
   3  -2   1 1067.79   45.60
   3  -2   1 1035.60   44.90
   3  -2   1 1000.90   44.80
   3  -2   1  988.40   44.10
  -3  -2  -1 1014.50   45.50
  -3  -2  -1 1059.89   43.50
  -3  -2  -1  999.60   42.80
   3  -2   1 1060.19   45.60
  -3  -2  -1 1071.69   45.60
  -3  -2  -1  903.71   43.30
   3   2   1 1029.00   44.80
   3   2   1 1006.90   42.80
  -3   2  -1  996.60   44.90
  -3   2  -1 1059.39   45.70
  -3   2  -1 1033.90   46.00
   3   2   1 1072.69   42.50
  -3   2  -1 1032.30   45.30
  -3   2  -1 1075.69   44.40
   4  -2   1   40.90    7.20
   4  -2   1   49.99    7.90
   4  -2   1   53.49    7.60
  -4  -2  -1   47.70    7.50
   4  -2   1   49.80    7.60
  -4  -2  -1   41.70    7.00
  -4  -2  -1   51.29    5.90
  -4  -2  -1   40.40    6.30
  -4  -2  -1   55.09    6.20
   4  -2   1   58.59    8.60
  -4   2  -1   52.59    7.80
  -4   2  -1   45.90    7.30
  -4   2  -1   49.50    7.70
   4   2   1   45.60    6.00
  -4   2  -1   37.70    7.60
  -4   2  -1   54.29    8.60
   4   2   1   46.60    7.80
   4   2   1   42.20    5.80
  -5  -2  -1  586.54   27.70
  -5  -2  -1  587.04   29.50
   5  -2   1  617.04   30.70
   5  -2   1  554.14   29.90
   5  -2   1  603.44   29.30
  -5  -2  -1  558.34   31.40
   5  -2   1  543.55   29.20
  -5  -2  -1  532.05   28.60
   5  -2   1  569.24   31.60
   5  -2   1  609.24   30.40
  -5   2  -1  561.94   30.50
  -5   2  -1  525.95   31.50
   5   2   1  588.64   27.20
   5   2   1  559.04   27.10
  -5   2  -1  621.34   29.90
   5   2   1  582.84   28.90
  -5   2  -1  558.64   30.50
  -6  -2  -1  277.47   23.40
   6  -2   1  371.86   22.90
   6  -2   1  332.97   22.30
   6  -2   1  356.76   23.40
  -6  -2  -1  338.47   22.40
  -6  -2  -1  318.47   21.10
   6  -2   1  299.47   21.50
   6  -2   1  327.37   22.00
  -6  -2  -1  359.76   21.20
   6   2   1  331.87   20.80
  -6   2  -1  337.47   23.10
   6   2   1  358.26   20.50
  -6   2  -1  373.46   23.70
  -6   2  -1  314.87   24.70
  -6   2  -1  360.46   24.10
   6   2   1  328.47   19.30
   7  -2   1    8.00    7.70
  -7  -2  -1   26.10   11.70
  -7  -2  -1   26.60    9.90
  -7  -2  -1    7.60    9.30
   7  -2   1   15.90    9.00
   7  -2   1   19.60   11.60
   7   2   1    2.80    7.30
  -7   2  -1    1.50   10.00
   7   2   1    9.90    6.60
  -7   2  -1   23.30   12.00
  -8  -2  -1  112.89   21.10
  -8  -2  -1  157.98   23.20
   8  -2   1  155.08   23.00
   8  -2   1  121.09   16.70
   8  -2   1  150.98   17.80
   8  -2   1  120.59   18.80
   8   2   1  183.98   19.90
  -8   2  -1  172.58   25.00
   8   2   1  107.09   15.70
  -8   2  -1  101.09   20.30
  -9  -2  -1  213.08   30.00
  -9  -2  -1  154.98   23.30
   9  -2   1  141.99   22.40
  -9   2  -1  169.78   27.00
  -9   2  -1  227.18   36.10
  10  -3  -1  265.87   29.90
 -10  -3   1  247.58   39.20
 -10  -3   1  249.88   34.70
 -10  -3   1  230.48   26.40
 -10   3   1  274.37   32.20
 -10   3   1  288.67   36.90
 -10   3   1  222.38   30.70
  -9  -3   1    0.70    8.10
  -9  -3   1    3.70   15.10
   9  -3  -1   30.90   12.20
   9  -3  -1   24.50   11.80
  -9  -3   1    3.00   11.90
  -9   3   1   -2.90   15.10
  -9   3   1    9.00   13.50
  -9   3   1   28.10   11.90
  -8  -3   1   29.80   11.80
   8  -3  -1   19.20    9.20
   8  -3  -1   31.20   10.00
   8  -3  -1   45.50    7.10
  -8  -3   1   34.60   12.30
  -8  -3   1   25.90    8.40
   8  -3  -1   53.29   15.80
  -8   3   1   19.70   12.00
  -8   3   1   23.10   10.00
   8   3  -1   43.90    8.10
  -8   3   1   39.20   13.30
  -7  -3   1   -1.70    8.00
  -7  -3   1    9.60    5.40
  -7  -3   1   -2.30    7.30
   7  -3  -1    1.20    5.80
  -7  -3   1    4.10   12.80
   7  -3  -1   -2.40   10.30
   7  -3  -1   -7.40    6.10
   7  -3  -1    1.70    9.80
   7   3  -1    2.00    7.80
  -7   3   1   10.60    8.20
   7   3  -1    2.90    4.30
  -7   3   1    5.70    5.60
  -7   3   1    5.40    8.40
   6  -3  -1  607.54   31.90
  -6  -3   1  563.94   34.60
   6  -3  -1  538.55   26.40
  -6  -3   1  532.45   27.80
   6  -3  -1  550.64   28.50
   6  -3  -1  571.94   33.60
  -6  -3   1  546.75   30.70
  -6  -3   1  557.74   31.80
   6  -3  -1  614.54   30.50
  -6   3   1  573.14   30.00
   6   3  -1  591.74   26.60
  -6   3   1  576.34   31.90
   6   3  -1  608.24   28.70
  -6   3   1  524.05   31.40
  -5  -3   1   -0.90    3.10
   5  -3  -1    1.40    3.90
   5  -3  -1   -0.50    5.00
  -5  -3   1   -1.90    6.20
  -5  -3   1    0.80    4.70
  -5  -3   1    5.80    4.90
  -5  -3   1   -0.60    3.10
   5  -3  -1    2.10    3.90
   5   3  -1    3.90    2.90
  -5   3   1    2.60    4.70
  -5   3   1    3.70    4.80
  -5   3   1    1.80    4.70
   5   3  -1   -2.40    3.70
  -4  -3   1  391.06   19.50
   4  -3  -1  415.96   22.80
   4  -3  -1  441.56   21.90
   4  -3  -1  407.96   20.80
  -4  -3   1  395.06   20.60
   4  -3  -1  383.76   20.10
  -4  -3   1  417.06   18.70
   4   3  -1  402.56   18.40
   4   3  -1  413.56   19.40
  -4   3   1  375.56   21.70
  -4   3   1  381.76   21.30
  -4   3   1  348.27   20.10
   4   3  -1  400.96   17.30
   4   3  -1  382.06   16.60
  -3  -3   1  131.19    9.30
   3  -3  -1  154.78    9.90
   3  -3  -1  152.98   10.40
   3  -3  -1  160.38   11.30
  -3  -3   1  137.79   10.70
  -3  -3   1  153.28    8.20
  -3  -3   1  145.49    9.10
  -3   3   1  145.69    9.80
   3   3  -1  155.18    8.80
  -3   3   1  151.28    9.80
   3   3  -1  151.28    6.80
   3   3  -1  145.59    7.30
  -3   3   1  155.88   10.90
   2  -3  -1  766.22   33.60
  -2  -3   1  796.62   33.80
  -2  -3   1  799.62   32.30
   2  -3  -1  781.02   32.00
   2  -3  -1  790.52   33.10
   2   3  -1  638.04   34.70
   2   3  -1  751.52   31.60
  -2   3   1  709.13   32.20
   2   3  -1  751.72   30.60
  -2   3   1  769.52   31.90
  -2   3   1  672.13   33.10
   1  -3  -1   69.09    5.30
   1  -3  -1   71.29    3.80
  -1  -3   1   69.59    5.80
  -1  -3   1   62.99    4.90
   1  -3  -1   68.19    5.00
  -1  -3   1   69.49    4.90
  -1   3   1   69.89    5.00
   1   3  -1   72.09    4.70
  -1   3   1   68.09    3.70
   1   3  -1   68.89    4.20
   0  -3  -1 1576.64   62.39
   0  -3   1 1527.45   63.39
   0  -3  -1 1581.04   62.89
   0  -3  -1 1545.05   63.39
   0  -3  -1 1552.74   62.29
   0  -3   1 1556.14   63.59
   0  -3  -1 1572.14   61.39
   0  -3   1 1564.44   63.59
   0   3   1 1613.94   62.99
   0   3   1 1537.55   61.59
   0   3  -1 1548.95   63.19
   0   3   1 1521.25   61.99
   0   3  -1 1502.35   62.79
   0   3  -1 1509.05   63.69
   1  -3   1  327.07   16.10
  -1  -3  -1  331.37   16.10
   1  -3   1  364.16   17.00
   1  -3   1  352.06   16.70
  -1  -3  -1  340.07   14.40
   1  -3   1  339.67   16.30
  -1  -3  -1  363.16   16.80
  -1  -3  -1  360.86   15.50
  -1   3  -1  302.17   16.70
  -1   3  -1  330.67   17.70
  -1   3  -1  329.97   15.80
   1   3   1  332.67   16.20
  -1   3  -1  336.77   16.20
   2  -3   1  934.91   39.10
   2  -3   1  927.21   39.90
  -2  -3  -1  885.51   39.40
  -2  -3  -1  882.41   36.40
  -2  -3  -1  868.21   39.20
  -2  -3  -1  916.71   36.50
  -2  -3  -1  916.01   36.20
   2  -3   1  910.21   38.50
  -2  -3  -1  841.32   38.50
   2  -3   1  910.31   39.40
  -2   3  -1  875.31   39.50
  -2   3  -1  889.01   39.20
  -2   3  -1  888.91   38.40
   2   3   1  894.01   38.80
  -2   3  -1  841.22   38.80
   3  -3   1   89.99    9.20
  -3  -3  -1   87.39    9.20
  -3  -3  -1   91.79    6.20
   3  -3   1   82.29    8.80
  -3  -3  -1   92.79    8.90
  -3  -3  -1   94.19    6.10
   3  -3   1   91.49    8.00
   3  -3   1   87.39    8.50
  -3  -3  -1   82.69    6.40
  -3  -3  -1   87.99    6.60
   3  -3   1   85.79    8.80
  -3   3  -1   95.59    9.40
   3   3   1   84.89    8.20
   3   3   1  103.59    5.40
   3   3   1   88.49    5.50
  -3   3  -1   68.29    8.00
  -3   3  -1  100.79    8.20
  -3   3  -1   86.19    9.10
   4  -3   1  594.94   28.70
   4  -3   1  564.34   29.20
  -4  -3  -1  579.44   27.30
   4  -3   1  618.64   30.40
   4  -3   1  585.74   29.60
  -4  -3  -1  617.44   29.90
  -4  -3  -1  623.94   26.30
  -4  -3  -1  603.74   26.60
   4  -3   1  560.04   29.70
  -4  -3  -1  509.35   26.90
  -4   3  -1  587.04   29.90
  -4   3  -1  532.75   30.20
   4   3   1  538.75   28.00
  -4   3  -1  610.74   28.90
  -4   3  -1  576.24   29.30
   4   3   1  606.24   25.70
  -4   3  -1  613.94   30.50
   4   3   1  612.44   25.70
  -5  -3  -1   18.50    5.70
   5  -3   1   23.80    8.10
   5  -3   1   18.50    6.10
   5  -3   1   27.50    7.20
   5  -3   1   20.20    6.50
  -5  -3  -1   25.50    5.60
  -5  -3  -1   15.40    6.80
  -5  -3  -1   33.40    6.60
  -5   3  -1   31.50    7.90
  -5   3  -1   26.30    7.60
   5   3   1   21.30    4.70
  -5   3  -1   36.90    7.70
   5   3   1   22.70    5.60
   5   3   1   30.40    5.10
  -5   3  -1   25.80    8.30
   6  -3   1  165.08   17.90
   6  -3   1  159.68   16.20
   6  -3   1  177.98   18.90
  -6  -3  -1  146.09   18.30
  -6  -3  -1  157.88   16.00
  -6  -3  -1  164.88   14.70
  -6  -3  -1  194.58   15.20
   6  -3   1  158.08   20.00
   6  -3   1  144.99   15.90
   6  -3   1  155.88   16.30
   6   3   1  158.68   12.70
   6   3   1  173.88   12.30
  -6   3  -1  159.18   18.50
  -6   3  -1  223.58   19.60
   6   3   1  152.68   14.20
  -6   3  -1  155.18   18.00
   7  -3   1   52.59   10.30
   7  -3   1   67.29   14.50
   7  -3   1   64.69   12.30
  -7  -3  -1   64.89   13.60
   7  -3   1   34.00   10.40
  -7  -3  -1   57.99   11.00
  -7  -3  -1   42.50   11.50
  -7   3  -1   63.89   13.60
   7   3   1   83.49   12.20
   7   3   1   55.29    8.90
   7   3   1   65.09    9.60
  -7   3  -1   52.19   13.50
  -8  -3  -1   53.69   19.00
  -8  -3  -1   76.29   14.50
   8  -3   1   90.89   18.20
   8  -3   1   70.39   12.60
   8  -3   1   56.29   14.30
  -8   3  -1   85.19   18.60
  -8   3  -1   67.59   16.70
   8   3   1   71.29   10.90
   9  -3   1  -11.10   15.10
  -9  -3  -1    6.10   17.00
   9  -3   1   -6.70   11.80
  -9  -3  -1   18.50   19.80
  -9   3  -1   13.30   19.60
  -9   3  -1   -2.00   18.70
 -10  -4   1  125.59   27.60
 -10  -4   1  163.38   25.10
  10  -4  -1  143.09   20.50
 -10  -4   1  157.48   22.90
 -10   4   1  206.88   30.60
 -10   4   1  123.59   26.20
 -10   4   1  118.29   22.80
  -9  -4   1   45.00   14.90
  -9  -4   1   56.79   11.40
   9  -4  -1   42.20   13.50
  -9  -4   1   74.29   19.40
   9  -4  -1   43.50   14.80
  -9   4   1   57.59   13.90
  -9   4   1   26.20   18.50
  -9   4   1   32.10   17.50
   8  -4  -1  345.87   24.80
   8  -4  -1  291.27   23.40
  -8  -4   1  297.97   28.00
   8  -4  -1  295.67   33.30
   8  -4  -1  325.67   19.10
  -8  -4   1  314.37   26.50
  -8  -4   1  312.47   21.10
  -8   4   1  308.37   28.00
  -8   4   1  285.07   24.00
  -8   4   1  257.07   27.50
   8   4  -1  304.57   18.60
   7  -4  -1  289.37   17.50
  -7  -4   1  290.87   18.70
  -7  -4   1  215.78   29.10
   7  -4  -1  327.37   28.80
   7  -4  -1  298.77   21.00
  -7  -4   1  309.77   24.70
   7  -4  -1  340.87   26.10
   7  -4  -1  263.27   22.30
  -7  -4   1  311.87   23.10
   7   4  -1  298.67   16.10
  -7   4   1  322.77   24.80
   7   4  -1  294.97   19.20
  -7   4   1  320.47   22.30
  -7   4   1  301.47   24.40
   6  -4  -1  156.48   16.70
  -6  -4   1  120.89   14.00
   6  -4  -1  146.89   13.10
  -6  -4   1  130.59   19.60
   6  -4  -1  119.89   18.70
  -6  -4   1  135.99   11.60
  -6  -4   1  147.69   15.90
   6   4  -1  139.99    9.60
  -6   4   1  168.28   14.10
  -6   4   1  154.28   15.60
  -6   4   1  132.59   15.50
   6   4  -1  165.48   12.20
  -5  -4   1 4023.50  162.78
  -5  -4   1 4041.20  164.38
  -5  -4   1 4298.57  162.68
   5  -4  -1 4155.58  167.58
  -5  -4   1 4261.77  168.68
   5  -4  -1 3859.21  163.78
   5  -4  -1 4034.40  165.78
  -5  -4   1 4064.19  166.48
  -5   4   1 3971.80  164.68
  -5   4   1 3752.12  165.58
   5   4  -1 4086.99  161.98
  -5   4   1 3873.61  165.38
   5   4  -1 4013.80  160.88
   4  -4  -1 2796.12  113.89
  -4  -4   1 2683.23  109.79
  -4  -4   1 2425.56  109.69
   4  -4  -1 2851.11  112.99
  -4  -4   1 2638.64  113.89
  -4  -4   1 2909.91  111.59
   4  -4  -1 2627.84  111.29
  -4   4   1 2598.64  111.79
  -4   4   1 2548.25  111.49
   4   4  -1 2809.42  108.59
   4   4  -1 2871.81  109.49
  -4   4   1 2774.32  113.09
  -3  -4   1  291.67   17.50
   3  -4  -1  307.17   16.70
   3  -4  -1  328.77   18.00
   3  -4  -1  258.37   15.50
  -3  -4   1  305.27   15.50
  -3  -4   1  309.47   14.60
  -3  -4   1  290.77   14.90
   3  -4  -1  311.37   16.00
  -3   4   1  299.57   15.80
  -3   4   1  290.67   15.90
  -3   4   1  270.27   16.50
   3   4  -1  306.57   14.20
   2  -4  -1 1259.67   56.09
  -2  -4   1 1395.96   54.49
   2  -4  -1 1373.86   55.79
  -2  -4   1 1390.96   56.79
   2  -4  -1 1291.97   54.39
  -2  -4   1 1324.97   54.59
   2   4  -1 1339.67   53.69
  -2   4   1 1300.97   54.99
   2   4  -1 1329.77   56.69
  -2   4   1 1226.78   55.39
  -2   4   1 1300.37   54.29
   1  -4  -1  413.46   17.00
   1  -4  -1  421.16   19.00
  -1  -4   1  377.46   18.00
  -1  -4   1  343.67   19.30
  -1  -4   1  374.76   18.50
   1  -4  -1  426.36   18.70
  -1   4   1  413.36   18.10
  -1   4   1  408.06   17.00
   1   4  -1  414.86   17.30
   1   4  -1  384.36   20.10
  -1   4   1  403.46   18.30
   1   4  -1  418.26   17.90
   0  -4   1 3632.04  136.69
   0  -4  -1 3572.34  136.19
   0  -4   1 3283.37  136.39
   0  -4  -1 3318.97  134.89
   0  -4   1 3326.27  136.19
   0  -4  -1 3427.86  136.29
   0  -4  -1 3262.67  134.89
   0   4   1 3475.55  136.09
   0   4  -1 3472.65  135.89
   0   4  -1 3537.35  137.39
   0   4   1 3351.76  134.39
   0   4   1 3358.76  134.09
   0   4  -1 3286.77  135.29
   0   4  -1 3215.68  136.39
  -1  -4  -1  662.73   28.70
  -1  -4  -1  651.63   27.10
   1  -4   1  650.43   28.20
   1  -4   1  622.54   28.60
   1  -4   1  610.74   28.80
  -1  -4  -1  602.84   28.20
   1  -4   1  655.83   28.30
   1  -4   1  655.13   28.60
  -1  -4  -1  660.63   25.80
   1   4   1  632.14   28.40
  -1   4  -1  617.04   27.60
  -1   4  -1  622.84   28.20
  -1   4  -1  614.14   28.30
  -1   4  -1  607.24   28.80
   2  -4   1 3993.00  165.28
   2  -4   1 4156.98  166.58
   2  -4   1 4381.76  165.98
   2  -4   1 4155.78  164.98
  -2  -4  -1 4005.50  162.08
   2  -4   1 3891.21  165.58
  -2  -4  -1 4360.16  166.08
  -2  -4  -1 3913.71  164.68
  -2  -4  -1 4409.66  166.08
  -2   4  -1 4034.20  165.48
  -2   4  -1 4037.50  165.48
  -2   4  -1 4117.29  165.98
  -2   4  -1 4255.27  164.88
   2   4   1 3772.72  164.58
   3  -4   1 1750.12   71.99
   3  -4   1 1834.52   73.19
   3  -4   1 1621.04   74.79
  -3  -4  -1 1746.33   72.79
  -3  -4  -1 1701.13   73.69
  -3  -4  -1 1566.74   69.39
  -3  -4  -1 1726.33   68.99
  -3  -4  -1 1754.62   69.29
  -3  -4  -1 1809.82   73.19
   3  -4   1 1735.13   73.19
  -3  -4  -1 1724.93   69.19
   3  -4   1 1705.63   73.79
  -3   4  -1 1632.94   72.79
   3   4   1 1660.03   71.69
  -3   4  -1 1630.14   73.19
  -3   4  -1 1796.92   73.19
  -4  -4  -1  694.23   36.20
  -4  -4  -1  756.42   36.50
   4  -4   1  710.03   36.20
  -4  -4  -1  768.02   33.40
   4  -4   1  786.32   37.50
  -4  -4  -1  765.02   32.20
  -4  -4  -1  753.02   38.00
   4  -4   1  759.92   37.00
  -4  -4  -1  684.93   33.00
   4  -4   1  777.82   35.80
   4   4   1  733.73   34.70
  -4   4  -1  786.22   36.00
  -4   4  -1  762.12   36.90
  -4   4  -1  769.52   37.50
  -4   4  -1  738.23   36.10
   5  -4   1 1180.68   54.09
  -5  -4  -1 1082.69   50.09
  -5  -4  -1 1137.29   56.09
   5  -4   1 1123.39   54.09
  -5  -4  -1 1130.19   50.39
   5  -4   1 1117.49   52.19
   5  -4   1 1132.89   53.69
  -5  -4  -1 1178.48   48.90
  -5  -4  -1 1145.69   54.39
   5  -4   1 1124.79   52.89
   5   4   1 1106.09   50.59
  -5   4  -1 1103.19   54.59
  -5   4  -1 1244.68   53.29
  -5   4  -1 1190.68   54.29
  -6  -4  -1  316.77   21.30
  -6  -4  -1  326.57   20.50
   6  -4   1  328.77   24.10
  -6  -4  -1  316.27   25.40
  -6  -4  -1  368.66   20.10
   6  -4   1  343.97   26.90
   6  -4   1  364.46   26.20
   6  -4   1  322.97   22.80
  -6  -4  -1  384.66   30.40
   6  -4   1  310.07   23.10
   6  -4   1  328.77   23.80
  -6   4  -1  328.37   25.40
  -6   4  -1  307.97   24.60
  -6   4  -1  367.76   25.60
   6   4   1  327.27   20.40
   7  -4   1   10.20    9.50
  -7  -4  -1   35.10   13.30
  -7  -4  -1   11.70    8.70
   7  -4   1   20.50   13.70
   7  -4   1    1.40    9.60
   7  -4   1   16.30    9.50
  -7  -4  -1   31.90    9.50
  -7   4  -1   22.70   11.50
  -7   4  -1   21.40   12.60
   8  -4   1  327.07   29.70
   8  -4   1  385.06   28.40
   8  -4   1  406.16   38.50
  -8  -4  -1  374.36   29.70
  -8  -4  -1  370.76   36.40
   8  -4   1  434.16   32.90
  -8   4  -1  415.26   35.50
  -8   4  -1  392.06   34.90
  -9  -4  -1  481.55   44.20
   9  -4   1  347.17   32.10
   9  -4   1  351.06   37.30
  -9  -4  -1  416.36   37.80
  -9   4  -1  499.25   42.40
  -9   4  -1  513.05   45.90
 -10  -5   1    2.20   11.90
 -10  -5   1   35.90   18.00
 -10  -5   1  -34.70   22.00
  10  -5  -1   26.20   20.20
 -10   5   1   19.60   19.80
 -10   5   1   22.20   17.20
 -10   5   1   29.00   19.70
  -9  -5   1   31.50   16.90
  -9  -5   1   12.80    8.70
   9  -5  -1   20.50   12.40
   9  -5  -1   26.90    8.20
  -9  -5   1   -5.80   12.20
  -9   5   1   60.49   17.50
  -9   5   1   13.60   15.70
  -9   5   1   -8.20   10.50
  -8  -5   1   55.99    9.30
  -8  -5   1   56.49   13.60
   8  -5  -1   72.69   11.30
   8  -5  -1   67.59   20.20
  -8  -5   1   59.89   16.20
   8  -5  -1   66.99   14.30
   8  -5  -1   61.49   12.40
  -8   5   1   42.30   14.70
  -8   5   1   34.30   12.50
  -8   5   1   47.70   11.40
   7  -5  -1   99.19   17.30
   7  -5  -1  138.39   19.00
   7  -5  -1  125.99   16.80
   7  -5  -1  127.09   14.60
  -7  -5   1  115.09   16.60
   7  -5  -1  105.59   12.50
  -7  -5   1  109.69   14.40
  -7  -5   1  117.59   11.90
  -7   5   1  123.89   15.70
  -7   5   1  151.68   18.90
   7   5  -1  128.89   11.10
  -7   5   1  140.59   18.80
   7   5  -1  119.09    8.90
  -6  -5   1  166.18   20.30
  -6  -5   1  156.18   13.10
   6  -5  -1  141.19   17.00
   6  -5  -1  184.18   20.80
  -6  -5   1  144.69   15.00
  -6  -5   1  160.38   11.70
   6  -5  -1  149.29   14.20
   6  -5  -1  165.38   16.20
  -6  -5   1  139.29   15.60
  -6   5   1  151.78   16.30
  -6   5   1  147.39   16.60
  -6   5   1  149.88   14.50
   6   5  -1  163.48   10.60
   6   5  -1  159.18    9.00
  -5  -5   1  292.77   16.10
  -5  -5   1  248.98   15.00
   5  -5  -1  276.37   18.00
   5  -5  -1  274.27   20.90
   5  -5  -1  252.37   16.70
   5  -5  -1  256.77   19.10
  -5  -5   1  286.87   21.20
  -5  -5   1  262.57   17.50
   5   5  -1  264.57   12.60
   5   5  -1  277.57   13.60
  -5   5   1  262.87   17.30
  -5   5   1  259.17   18.30
  -5   5   1  265.87   18.60
   4  -5  -1  418.86   21.90
   4  -5  -1  418.76   24.10
  -4  -5   1  390.46   19.80
   4  -5  -1  410.26   21.50
   4  -5  -1  412.86   22.70
  -4  -5   1  415.56   20.10
  -4  -5   1  391.46   24.20
   4  -5  -1  410.06   22.20
  -4  -5   1  403.76   20.70
  -4   5   1  406.26   22.60
  -4   5   1  387.96   21.70
  -4   5   1  390.76   21.40
   4   5  -1  416.16   17.60
   4   5  -1  402.76   18.10
   3  -5  -1 1688.43   77.49
   3  -5  -1 2053.09   79.29
   3  -5  -1 1734.43   77.99
   3  -5  -1 1916.81   77.69
  -3  -5   1 1829.52   76.49
  -3  -5   1 1889.01   76.79
  -3  -5   1 1940.21   80.19
   3  -5  -1 1962.20   80.09
   3   5  -1 1792.42   79.89
   3   5  -1 1891.01   74.89
  -3   5   1 1850.51   78.59
  -3   5   1 1869.61   77.69
  -3   5   1 1874.61   77.89
  -2  -5   1    0.20    2.90
  -2  -5   1    3.30    1.90
  -2  -5   1    2.60    2.10
   2  -5  -1    4.10    2.90
   2  -5  -1    3.20    1.70
   2  -5  -1    0.40    2.60
   2  -5  -1    2.20    2.10
  -2   5   1    6.10    2.20
  -2   5   1    2.20    2.60
  -2   5   1    2.20    1.90
   2   5  -1    3.50    1.50
   2   5  -1    5.40    3.60
   1  -5  -1   96.69    7.20
  -1  -5   1   93.39    8.10
   1  -5  -1   96.59    5.10
  -1  -5   1   85.59    6.10
   1  -5  -1   93.99    6.70
  -1  -5   1   86.49    6.60
   1   5  -1   91.79    8.20
  -1   5   1   89.99    6.10
   1   5  -1   89.49    5.80
  -1   5   1   86.39    5.20
   1   5  -1   91.79    5.20
  -1   5   1   90.59    6.00
   0  -5  -1  949.51   40.80
   0  -5  -1  940.61   39.30
   0  -5   1  947.41   40.90
   0  -5   1  965.30   40.70
   0  -5  -1  948.51   39.40
   0  -5   1  957.90   40.90
   0   5  -1  989.00   39.70
   0   5   1  941.41   38.70
   0   5   1  902.21   40.60
   0   5  -1  945.01   40.10
  -1  -5  -1  121.19    8.70
   1  -5   1  134.59    8.80
   1  -5   1  132.59    9.00
  -1  -5  -1  124.39    8.90
   1  -5   1  120.79    8.90
   1  -5   1  118.49    8.30
  -1  -5  -1  129.09    6.00
  -1   5  -1  112.59    9.00
  -1   5  -1  128.89    8.10
  -1   5  -1  130.39    8.80
  -1   5  -1  108.29    8.30
  -2  -5  -1  408.56   20.70
  -2  -5  -1  387.56   19.10
  -2  -5  -1  402.26   20.50
   2  -5   1  358.46   19.30
   2  -5   1  383.46   21.20
   2  -5   1  394.86   20.10
   2  -5   1  401.16   20.20
  -2   5  -1  393.56   20.70
  -2   5  -1  372.76   19.30
  -2   5  -1  346.87   19.80
  -2   5  -1  388.76   20.00
   3  -5   1   40.80    7.50
   3  -5   1   25.50    5.10
  -3  -5  -1   36.80    3.60
  -3  -5  -1   23.60    5.40
  -3  -5  -1   30.30    5.90
   3  -5   1   37.80    6.80
   3  -5   1   24.20    5.50
  -3  -5  -1   34.50    3.50
  -3  -5  -1   36.30    3.40
   3  -5   1   24.40    5.60
  -3  -5  -1   28.40    6.10
  -3   5  -1   30.00    5.80
   3   5   1   32.80    5.50
  -3   5  -1   34.60    6.10
  -3   5  -1   31.90    6.50
  -3   5  -1   25.30    5.50
   4  -5   1  222.68   16.20
  -4  -5  -1  214.28   10.90
   4  -5   1  190.48   16.50
   4  -5   1  223.58   16.30
   4  -5   1  195.98   14.70
  -4  -5  -1  216.28   16.30
  -4  -5  -1  234.98   17.90
  -4  -5  -1  199.68   11.60
  -4  -5  -1  211.18   11.80
  -4  -5  -1  202.28   15.80
   4  -5   1  196.78   15.50
  -4   5  -1  215.58   15.70
  -4   5  -1  209.18   15.90
   4   5   1  213.88   13.70
  -4   5  -1  231.58   15.80
  -4   5  -1  204.08   16.10
  -5  -5  -1    1.70    3.50
  -5  -5  -1    8.70    6.70
  -5  -5  -1   -6.00    8.40
   5  -5   1   14.50    7.80
   5  -5   1   14.50    8.60
   5  -5   1    6.80    5.50
   5  -5   1   24.50    7.30
   5  -5   1   -9.40    5.90
  -5  -5  -1    9.70    7.10
  -5  -5  -1    3.30    3.90
  -5   5  -1    0.30    6.60
  -5   5  -1   17.50    7.70
  -5   5  -1    8.80    6.60
   6  -5   1  222.78   23.90
  -6  -5  -1  199.78   26.10
   6  -5   1  199.58   20.50
  -6  -5  -1  196.48   16.30
   6  -5   1  204.48   22.80
   6  -5   1  201.08   19.00
  -6  -5  -1  217.08   15.00
  -6  -5  -1  208.98   21.40
  -6   5  -1  154.38   19.90
  -6   5  -1  212.18   20.90
  -6   5  -1  184.78   21.20
  -7  -5  -1   59.89   11.50
   7  -5   1   68.59   15.60
  -7  -5  -1   67.99   11.20
   7  -5   1   78.49   14.40
   7  -5   1   51.39   13.80
  -7  -5  -1   60.89   15.50
   7  -5   1   49.70   12.00
  -7   5  -1   83.99   15.90
  -7   5  -1   81.19   16.20
   8  -5   1    4.00   10.80
  -8  -5  -1   15.30   17.00
  -8  -5  -1   -7.90   11.40
   8  -5   1  -18.70   11.70
   8  -5   1   -8.50   21.60
   8  -5   1  -18.70   13.50
  -8   5  -1   11.30   23.70
  -8   5  -1   19.50   14.30
   9  -5   1   -3.70   18.10
  -9  -5  -1    4.90   16.70
   9  -5   1    4.20   13.90
  -9  -5  -1  -23.40   21.50
  -9   5  -1   -7.00   20.90
  -9   5  -1   -5.70   17.00
  10  -6  -1   19.00   18.70
 -10  -6   1   16.70   11.90
 -10  -6   1  -35.00   23.30
 -10  -6   1  -16.90   17.60
 -10   6   1  -18.70   20.50
 -10   6   1  -18.20   15.60
 -10   6   1  -11.20   20.20
  -9  -6   1  143.89   19.00
  -9  -6   1  154.88   20.40
  -9  -6   1  161.58   23.70
   9  -6  -1  211.88   26.30
   9  -6  -1  158.58   16.10
   9  -6  -1  169.18   23.60
  -9   6   1  233.88   31.90
  -9   6   1  147.49   23.60
  -9   6   1  197.38   25.00
   8  -6  -1  564.74   29.90
   8  -6  -1  535.05   33.60
  -8  -6   1  532.45   38.70
   8  -6  -1  629.84   37.20
   8  -6  -1  539.95   47.60
  -8  -6   1  566.54   35.00
  -8  -6   1  559.34   30.10
  -8   6   1  623.64   38.80
  -8   6   1  586.74   38.20
  -8   6   1  561.64   35.60
  -7  -6   1  676.93   39.00
   7  -6  -1  614.34   40.10
  -7  -6   1  584.04   35.00
   7  -6  -1  662.73   36.80
   7  -6  -1  700.73   42.90
   7  -6  -1  660.13   34.80
  -7  -6   1  620.04   31.20
  -7   6   1  633.24   37.40
  -7   6   1  598.24   35.40
  -7   6   1  664.93   37.90
  -6  -6   1   57.09   14.50
  -6  -6   1   20.00    7.60
  -6  -6   1   32.20    5.60
   6  -6  -1   19.00    7.90
   6  -6  -1   15.40    6.00
   6  -6  -1   30.00   11.50
  -6  -6   1   36.20    7.80
  -6  -6   1   22.00    9.40
   6  -6  -1   33.10   11.30
  -6   6   1   29.80    8.60
  -6   6   1   22.20    7.60
  -6   6   1   21.60    8.50
  -5  -6   1 1126.49   50.19
  -5  -6   1 1189.08   51.59
   5  -6  -1 1245.08   56.69
   5  -6  -1 1214.38   55.19
   5  -6  -1 1100.79   52.39
   5  -6  -1 1266.07   54.59
  -5  -6   1 1127.29   56.59
   5  -6  -1 1200.98   54.19
  -5   6   1 1128.49   53.19
  -5   6   1 1131.99   53.69
  -5   6   1 1164.58   54.49
  -4  -6   1  439.26   21.90
  -4  -6   1  443.56   26.70
   4  -6  -1  487.35   25.80
   4  -6  -1  453.05   23.90
  -4  -6   1  436.76   22.70
  -4  -6   1  468.25   22.80
   4  -6  -1  469.85   24.90
   4  -6  -1  492.55   24.80
   4  -6  -1  472.35   26.50
  -4   6   1  454.05   24.10
  -4   6   1  441.06   24.90
  -4   6   1  474.65   24.30
   3  -6  -1    3.20    2.90
  -3  -6   1   -3.00    4.30
   3  -6  -1   -4.40    3.30
   3  -6  -1    1.60    3.30
  -3  -6   1    0.40    2.40
   3  -6  -1    0.80    4.40
   3  -6  -1   -2.80    3.00
  -3  -6   1   -1.00    2.30
  -3   6   1    0.20    2.80
  -3   6   1    0.40    2.90
  -3   6   1   -0.90    3.50
   3   6  -1    2.30    1.20
   3   6  -1    3.20    4.10
   2  -6  -1  174.28   11.50
   2  -6  -1  181.18   11.20
  -2  -6   1  173.48    9.60
  -2  -6   1  178.48   10.30
  -2  -6   1  186.88   12.80
   2  -6  -1  185.48   12.50
   2  -6  -1  169.28    9.80
  -2   6   1  165.78   10.90
   2   6  -1  152.68   12.20
   2   6  -1  188.78    8.70
  -2   6   1  164.78   10.40
  -2   6   1  174.48    9.90
   1  -6  -1  941.01   39.50
  -1  -6   1  904.11   38.40
  -1  -6   1  849.32   38.60
   1  -6  -1  885.61   37.00
  -1  -6   1  921.61   41.00
   1  -6  -1  891.21   39.10
   1   6  -1  855.01   40.70
  -1   6   1  856.91   38.30
   1   6  -1  943.31   37.10
  -1   6   1  897.11   37.20
  -1   6   1  946.71   38.20
   1   6  -1  906.61   37.70
   0  -6   1  121.89    9.10
   0  -6  -1  138.29    7.90
   0  -6  -1  139.39    7.00
   0  -6  -1  137.39    7.80
   0  -6   1  137.39    8.70
   0  -6   1  130.59    9.00
   0  -6   1  119.09    9.20
   0  -6  -1  131.99    9.40
   0   6  -1  125.99    8.40
   0   6  -1  136.49   10.60
   0   6   1  150.48    7.30
   0   6  -1  138.09    8.10
   0   6   1  119.79   10.60
  -1  -6  -1  618.94   29.00
   1  -6   1  603.34   28.50
  -1  -6  -1  635.34   25.10
  -1  -6  -1  628.24   25.70
   1  -6   1  627.34   28.80
   1  -6   1  587.24   29.40
  -1  -6  -1  634.74   29.10
   1  -6   1  555.94   28.70
   1  -6   1  637.64   28.60
  -1   6  -1  579.44   28.90
  -1   6  -1  657.53   28.10
  -1   6  -1  649.93   28.80
   1   6   1  609.34   29.30
   2  -6   1 1669.73   76.79
   2  -6   1 1618.54   77.19
   2  -6   1 1853.91   76.69
   2  -6   1 1958.10   76.79
  -2  -6  -1 1949.41   77.09
  -2  -6  -1 1721.53   76.69
  -2  -6  -1 1760.02   75.19
   2  -6   1 1866.61   76.09
  -2   6  -1 1824.92   77.09
  -2   6  -1 1789.72   76.59
  -2   6  -1 1886.61   76.89
   2   6   1 1825.92   77.49
  -2   6  -1 1860.01   75.89
   3  -6   1  373.06   21.30
   3  -6   1  419.56   23.10
   3  -6   1  401.76   22.20
   3  -6   1  417.76   22.60
   3  -6   1  420.86   23.90
  -3  -6  -1  415.16   22.60
  -3  -6  -1  418.26   21.90
  -3   6  -1  419.06   22.00
  -3   6  -1  417.56   22.60
  -3   6  -1  383.36   22.10
  -3   6  -1  383.16   22.80
   4  -6   1  175.48   15.60
  -4  -6  -1  130.29   14.20
  -4  -6  -1  148.49    9.20
  -4  -6  -1  151.58   14.10
   4  -6   1  156.08   14.30
  -4  -6  -1  163.28    8.60
   4  -6   1  181.38   15.30
  -4  -6  -1  166.38   16.60
   4  -6   1  154.28   15.40
  -4  -6  -1  164.58    9.50
   4  -6   1  157.68   13.50
  -4   6  -1  162.58   14.40
  -4   6  -1  141.99   13.40
  -4   6  -1  175.38   14.40
  -4   6  -1  166.78   15.90
  -5  -6  -1  504.85   30.20
   5  -6   1  501.55   30.80
   5  -6   1  471.55   29.80
  -5  -6  -1  520.55   24.00
   5  -6   1  561.24   32.20
  -5  -6  -1  533.25   33.20
   5  -6   1  513.15   29.50
  -5  -6  -1  501.15   25.40
  -5  -6  -1  564.04   31.50
   5  -6   1  538.25   31.30
  -5   6  -1  550.44   31.10
  -5   6  -1  510.45   31.60
  -5   6  -1  574.04   30.80
   6  -6   1  688.03   39.30
  -6  -6  -1  668.33   40.50
   6  -6   1  774.72   43.20
  -6  -6  -1  658.93   43.80
   6  -6   1  718.53   39.70
  -6  -6  -1  773.82   33.80
   6  -6   1  693.93   41.30
   6  -6   1  725.73   41.30
  -6  -6  -1  719.93   35.20
  -6   6  -1  756.42   43.10
  -6   6  -1  706.23   41.80
  -6   6  -1  722.93   40.80
   7  -6   1  163.58   22.20
   7  -6   1  124.99   19.90
   7  -6   1  225.78   30.50
   7  -6   1  176.78   24.40
  -7  -6  -1  155.28   18.60
  -7  -6  -1  165.58   23.70
  -7   6  -1  199.78   24.40
  -7   6  -1  135.49   21.10
   8  -6   1  361.96   32.40
   8  -6   1  340.87   36.60
   8  -6   1  465.65   48.60
   8  -6   1  281.27   28.80
  -8  -6  -1  350.36   34.90
  -8  -6  -1  305.07   27.80
  -8   6  -1  391.56   37.00
  -8   6  -1  355.36   33.80
  -9  -6  -1  285.17   34.70
  -9  -6  -1  307.07   38.00
   9  -6   1  247.88   32.50
   9  -6   1  235.58   40.30
  -9   6  -1  326.57   44.40
  -9   6  -1  358.66   40.00
   9  -7  -1  474.45   28.70
  -9  -7   1  514.35   37.80
   9  -7  -1  502.15   42.20
   9  -7  -1  555.04   37.70
  -9  -7   1  528.85   30.30
  -9  -7   1  546.15   43.90
  -9   7   1  476.75   40.10
  -9   7   1  490.75   38.30
  -9   7   1  505.95   42.00
  -8  -7   1   10.20   12.90
  -8  -7   1    6.40    6.80
   8  -7  -1    0.00    9.40
  -8  -7   1   19.10   11.00
   8  -7  -1   -4.00    7.90
   8  -7  -1   -3.10   11.00
  -8   7   1    7.30   11.60
  -8   7   1   31.60   14.10
  -8   7   1  -15.90    9.40
  -7  -7   1  188.68   21.20
  -7  -7   1  151.88   13.40
   7  -7  -1  197.28   20.10
  -7  -7   1  115.29   17.30
   7  -7  -1  176.88   18.10
   7  -7  -1  162.38   23.60
  -7   7   1  161.68   17.90
  -7   7   1  183.98   20.60
  -7   7   1  171.18   20.60
  -6  -7   1  317.87   29.90
   6  -7  -1  354.96   29.00
  -6  -7   1  298.47   20.60
  -6  -7   1  337.87   24.40
   6  -7  -1  311.07   21.30
   6  -7  -1  315.17   25.40
   6  -7  -1  366.16   24.10
  -6  -7   1  314.77   17.80
  -6  -7   1  284.17   20.60
  -6   7   1  342.47   22.30
  -6   7   1  327.27   23.40
  -6   7   1  342.67   23.70
  -5  -7   1  456.45   23.60
   5  -7  -1  428.36   24.50
  -5  -7   1  458.25   24.00
  -5  -7   1  418.46   21.50
  -5  -7   1  439.66   30.00
   5  -7  -1  464.45   26.10
   5  -7  -1  446.46   28.80
   5  -7  -1  430.56   25.60
   5  -7  -1  457.65   27.00
  -5   7   1  426.56   25.80
  -5   7   1  398.26   24.40
  -5   7   1  437.46   25.30
  -4  -7   1   22.10    5.40
   4  -7  -1   32.50    6.50
  -4  -7   1   17.10    7.50
   4  -7  -1   26.00    7.20
  -4  -7   1   30.40    5.30
  -4  -7   1   24.00    4.60
   4  -7  -1   24.30    6.10
   4  -7  -1   26.90    7.10
  -4   7   1   29.70    6.50
  -4   7   1   33.60    7.10
  -4   7   1   29.50    6.40
  -3  -7   1  769.42   37.30
   3  -7  -1  725.13   34.40
   3  -7  -1  788.12   36.10
   3  -7  -1  753.12   35.20
  -3  -7   1  682.23   32.60
   3  -7  -1  815.72   34.20
   3  -7  -1  770.22   36.80
  -3  -7   1  779.62   32.60
  -3   7   1  661.03   33.90
  -3   7   1  687.33   34.60
  -3   7   1  724.33   33.80
   3   7  -1  757.12   37.60
   2  -7  -1   29.50    5.10
  -2  -7   1   27.50    6.40
   2  -7  -1   30.10    5.80
  -2  -7   1   33.30    5.10
  -2  -7   1   37.20    4.50
   2  -7  -1   30.90    5.20
   2  -7  -1   28.40    4.20
   2  -7  -1   26.00    5.00
   2   7  -1   40.80    7.40
  -2   7   1   35.20    5.40
   2   7  -1   34.60    3.50
  -2   7   1   30.50    5.20
  -2   7   1   34.00    4.60
   1  -7  -1  370.86   18.90
   1  -7  -1  388.06   19.10
   1  -7  -1  354.46   16.60
  -1  -7   1  390.76   18.20
  -1  -7   1  423.56   21.50
  -1  -7   1  352.36   18.50
   1   7  -1  393.36   16.70
  -1   7   1  353.46   19.90
   1   7  -1  358.46   17.30
   1   7  -1  382.56   20.90
  -1   7   1  329.47   17.40
  -1   7   1  384.56   17.90
  -1   7   1  350.46   16.80
   0  -7  -1 2192.78   95.49
   0  -7  -1 2454.05   95.69
   0  -7   1 2451.95   97.29
   0  -7   1 2078.79   96.49
   0  -7  -1 2322.47   94.49
   0  -7   1 2273.07   97.19
   0  -7   1 2605.14   96.89
   0   7  -1 2486.25   95.69
   0   7  -1 2368.86   96.29
   0   7   1 2359.16   97.89
   0   7  -1 2358.06   99.09
   1  -7   1 2898.71  118.79
   1  -7   1 3057.29  119.19
  -1  -7  -1 2905.71  115.49
   1  -7   1 2807.22  119.99
  -1  -7  -1 2801.62  115.99
   1  -7   1 2746.63  119.29
  -1  -7  -1 2841.42  119.69
  -1  -7  -1 3047.20  119.69
   1  -7   1 3153.68  119.29
   1   7   1 2876.71  119.99
  -1   7  -1 2929.61  118.89
  -1   7  -1 2784.62  119.29
  -1   7  -1 2964.60  118.09
  -2  -7  -1    0.50    3.80
  -2  -7  -1    0.30    4.30
   2  -7   1    3.20    3.60
   2  -7   1   -3.00    3.80
   2  -7   1    2.50    3.70
  -2   7  -1   -3.90    3.40
   2   7   1    3.00    4.30
  -2   7  -1    0.80    4.10
  -2   7  -1    0.80    3.90
  -2   7  -1    0.60    3.40
   3  -7   1 1446.46   62.19
  -3  -7  -1 1499.35   63.09
  -3  -7  -1 1397.86   61.49
  -3  -7  -1 1417.76   63.39
   3  -7   1 1330.67   63.69
   3  -7   1 1460.15   63.39
   3  -7   1 1304.97   61.39
   3  -7   1 1446.66   62.79
  -3   7  -1 1259.57   61.99
  -3   7  -1 1537.95   62.29
  -3   7  -1 1487.85   62.99
  -3   7  -1 1381.06   62.89
   4  -7   1 1387.16   65.29
  -4  -7  -1 1347.97   62.89
  -4  -7  -1 1463.35   63.99
  -4  -7  -1 1388.46   65.19
   4  -7   1 1440.46   63.59
   4  -7   1 1389.66   62.79
   4  -7   1 1469.85   64.79
   4  -7   1 1385.96   63.99
  -4  -7  -1 1329.57   56.59
  -4  -7  -1 1368.06   57.29
  -4   7  -1 1525.95   63.39
  -4   7  -1 1412.96   63.59
  -4   7  -1 1346.27   64.09
  -4   7  -1 1463.15   63.99
  -5  -7  -1  188.68   17.80
   5  -7   1  183.48   19.60
   5  -7   1  180.08   18.30
  -5  -7  -1  228.48   20.30
  -5  -7  -1  167.28   22.30
   5  -7   1  195.18   18.20
   5  -7   1  229.58   20.20
  -5  -7  -1  203.48   11.20
  -5  -7  -1  197.08   12.40
   5  -7   1  212.18   20.30
  -5   7  -1  162.38   18.70
  -5   7  -1  184.38   18.00
  -5   7  -1  160.28   18.50
  -6  -7  -1  268.27   18.60
   6  -7   1  287.97   25.70
  -6  -7  -1  249.28   30.70
   6  -7   1  302.07   26.20
  -6  -7  -1  334.67   26.70
  -6  -7  -1  325.97   25.20
   6  -7   1  287.17   28.80
   6  -7   1  269.57   24.20
  -6  -7  -1  256.37   19.20
  -6   7  -1  264.57   23.90
  -6   7  -1  311.57   26.00
  -7  -7  -1  579.54   32.60
   7  -7   1  631.54   38.70
   7  -7   1  588.54   44.80
  -7  -7  -1  548.75   39.10
   7  -7   1  560.74   39.20
  -7   7  -1  557.04   38.80
  -7   7  -1  578.04   40.60
   8  -7   1  137.99   24.90
  -8  -7  -1  158.08   25.00
   8  -7   1  131.69   19.80
  -8  -7  -1  154.18   22.00
   8  -7   1  124.59   21.00
  -8   7  -1  130.09   25.00
  -8   7  -1  190.18   30.20
   9  -7   1   26.90   20.30
  -9  -7  -1   10.80   23.30
   9  -7   1  -19.80   17.70
  -9  -7  -1    9.90   18.10
  -9   7  -1   26.70   18.70
  -9   7  -1   -6.60   22.70
  -9  -8   1   19.20   14.90
   9  -8  -1   36.10   12.90
   9  -8  -1   31.10   19.90
  -9  -8   1   29.80   19.00
   9  -8  -1   17.10   15.70
  -9  -8   1   26.20    9.20
  -9   8   1   50.49   17.70
  -9   8   1   69.39   20.90
  -9   8   1   52.59   19.80
  -8  -8   1    5.60    7.60
   8  -8  -1    1.90   10.10
  -8  -8   1    0.70   11.40
   8  -8  -1    7.50   13.10
  -8   8   1   -0.90   12.70
  -8   8   1   19.80   11.80
  -8   8   1    1.70   11.40
   7  -8  -1   78.39   21.20
  -7  -8   1  101.59   10.80
   7  -8  -1   91.79   13.40
   7  -8  -1  125.69   18.30
  -7  -8   1   96.59   14.80
  -7  -8   1  101.49   14.10
  -7  -8   1   87.39   15.90
  -7   8   1  116.19   18.20
  -7   8   1   74.99   13.70
  -7   8   1  104.19   15.40
   6  -8  -1    1.50    6.50
  -6  -8   1   13.00    8.90
  -6  -8   1   -0.40    7.70
  -6  -8   1   10.40    8.00
   6  -8  -1    9.40    8.80
   6  -8  -1  -23.40    9.90
  -6  -8   1    2.50    4.50
   6  -8  -1   30.80   13.50
  -6  -8   1   18.90   14.00
  -6   8   1    3.30    7.40
  -6   8   1    3.50    7.10
  -6   8   1    7.70    6.80
   5  -8  -1  180.98   15.20
  -5  -8   1  181.28   16.60
  -5  -8   1  179.48   12.20
   5  -8  -1  204.18   17.10
  -5  -8   1  195.78   14.00
   5  -8  -1  187.58   16.30
   5  -8  -1  170.48   18.00
  -5  -8   1  158.38   20.70
   5  -8  -1  183.18   21.00
  -5   8   1  183.78   15.80
  -5   8   1  176.88   16.00
  -5   8   1  184.48   16.70
  -4  -8   1    8.80    3.90
  -4  -8   1    8.10    4.70
  -4  -8   1    3.90    6.50
   4  -8  -1    5.20    4.00
   4  -8  -1    9.70    6.90
   4  -8  -1    3.80    7.50
  -4  -8   1   15.00    4.20
   4  -8  -1   15.10    5.20
   4  -8  -1    6.20    5.00
  -4   8   1    4.90    5.10
  -4   8   1   -3.10    4.60
  -4   8   1   10.20    5.00
  -3  -8   1  140.89    9.40
   3  -8  -1  150.28   10.90
   3  -8  -1  148.49   12.20
   3  -8  -1  137.79   11.30
   3  -8  -1  145.19   13.20
  -3  -8   1  155.18   10.20
  -3  -8   1  133.79   14.90
  -3   8   1  136.49   11.70
  -3   8   1  134.29   11.10
  -3   8   1  141.39   11.20
   3   8  -1  154.68   14.40
  -2  -8   1   75.69    6.50
   2  -8  -1   74.89    6.50
   2  -8  -1   72.19    8.50
   2  -8  -1   76.39    8.00
  -2  -8   1   73.29    7.10
   2  -8  -1   67.99    7.90
  -2  -8   1   53.49   10.20
   2  -8  -1   68.19   10.80
  -2   8   1   79.09    7.30
  -2   8   1   71.39    7.70
   2   8  -1   78.89   10.40
   2   8  -1   76.69    5.30
  -2   8   1   60.19    8.30
   1  -8  -1  584.84   27.20
  -1  -8   1  630.94   30.90
   1  -8  -1  604.14   28.20
   1  -8  -1  561.24   27.00
   1  -8  -1  605.64   25.70
  -1  -8   1  590.74   27.70
  -1  -8   1  568.14   28.40
   1  -8  -1  577.54   28.10
   1   8  -1  606.44   26.40
  -1   8   1  551.54   26.40
  -1   8   1  575.14   29.40
   1   8  -1  614.24   30.60
   0  -8   1   24.60    5.10
   0  -8   1   31.70    5.60
   0  -8  -1   25.30    4.10
   0  -8   1   20.80    4.20
   0  -8  -1   25.90    4.40
   0  -8   1   12.90    4.30
   0  -8  -1   30.10    4.20
   0  -8  -1   26.30    4.30
   0   8  -1   29.30    6.60
   0   8   1   19.80    5.00
   0   8  -1   17.40    3.70
   0   8  -1   29.90    4.80
  -1  -8  -1  350.46   16.50
   1  -8   1  367.66   19.50
   1  -8   1  385.26   21.50
   1  -8   1  351.66   20.40
  -1  -8  -1  399.26   21.20
  -1  -8  -1  371.56   16.60
   1  -8   1  401.96   20.10
   1  -8   1  342.77   20.30
  -1  -8  -1  348.87   17.00
  -1   8  -1  416.56   19.30
  -1   8  -1  414.86   20.20
  -1   8  -1  301.77   19.80
   1   8   1  357.86   20.90
   2  -8   1   -3.20    4.40
  -2  -8  -1    4.00    4.50
   2  -8   1   -2.50    4.00
   2  -8   1   -0.40    3.60
   2  -8   1    4.70    4.40
  -2  -8  -1    0.10    1.50
   2  -8   1    1.40    4.30
  -2  -8  -1   -4.90    4.60
  -2   8  -1   -4.50    3.80
  -2   8  -1    1.90    3.60
   2   8   1   -3.30    4.20
  -2   8  -1   -3.10    4.50
   3  -8   1   22.10    7.20
   3  -8   1   22.30    7.00
   3  -8   1   27.40    7.50
   3  -8   1   34.10    8.30
   3  -8   1   22.60    6.40
  -3  -8  -1   33.60    6.60
  -3  -8  -1   35.30    8.20
  -3  -8  -1   24.80    7.10
  -3   8  -1   40.80    7.30
  -3   8  -1   32.70    6.90
  -3   8  -1   28.10    7.60
  -3   8  -1   49.10    7.80
   4  -8   1   38.90    9.50
   4  -8   1   52.79    9.60
  -4  -8  -1   50.99    9.30
   4  -8   1   48.30    8.20
  -4  -8  -1   54.99   11.00
   4  -8   1   46.90   10.10
   4  -8   1   33.70    8.10
  -4  -8  -1   53.89    9.60
  -4   8  -1   42.10    9.20
  -4   8  -1   46.70    9.60
  -4   8  -1   32.60    7.90
   5  -8   1   -3.50    7.80
  -5  -8  -1   -1.00    3.70
   5  -8   1   -0.40    8.00
   5  -8   1    8.00    9.10
   5  -8   1   -4.00    7.20
   5  -8   1   -4.50   10.00
  -5  -8  -1   -9.00   11.30
  -5  -8  -1    2.30    3.20
  -5  -8  -1   -6.70    7.70
  -5   8  -1   -8.50    8.10
  -5   8  -1    0.70    6.50
  -5   8  -1    1.20    9.30
   6  -8   1   10.90   10.20
   6  -8   1   23.00   14.00
  -6  -8  -1    1.90    5.30
  -6  -8  -1   27.40   13.10
  -6  -8  -1    7.60    9.80
   6  -8   1   -5.10    9.90
  -6   8  -1  -16.10   10.50
  -6   8  -1    2.80    8.90
   7  -8   1  -13.50   10.80
  -7  -8  -1    9.30    9.40
  -7  -8  -1   21.50   14.10
   7  -8   1   -4.60   13.60
  -7   8  -1  -11.70   15.10
  -7   8  -1    4.20   14.10
   8  -8   1   53.49   22.30
   8  -8   1   47.30   18.50
  -8  -8  -1   24.40   19.50
   8  -8   1    6.30   15.00
  -8  -8  -1   24.70   12.50
  -8   8  -1   22.10   18.00
  -8   8  -1   47.80   18.20
   9  -9  -1  575.14   42.80
  -9  -9   1  544.45   30.60
   9  -9  -1  548.25   47.80
  -9  -9   1  520.05   46.40
  -9  -9   1  562.84   40.10
   9  -9  -1  546.15   42.10
  -9   9   1  575.04   46.90
  -9   9   1  527.45   42.40
  -9   9   1  588.74   45.30
   8  -9  -1   12.30   11.30
  -8  -9   1  -17.80   14.70
  -8  -9   1   -5.30   12.10
   8  -9  -1   -1.20   13.30
  -8  -9   1   16.40   15.70
  -8   9   1   -2.10   13.00
  -8   9   1    3.20   12.60
  -7  -9   1  404.96   31.90
   7  -9  -1  459.95   31.60
   7  -9  -1  399.06   29.10
  -7  -9   1  376.36   30.00
  -7  -9   1  414.16   22.20
  -7  -9   1  433.46   27.70
  -7   9   1  464.25   31.00
  -7   9   1  452.95   32.60
  -7   9   1  420.06   31.00
   6  -9  -1  670.53   37.10
  -6  -9   1  623.04   33.20
  -6  -9   1  629.74   29.50
   6  -9  -1  607.84   37.00
   6  -9  -1  643.24   34.90
   6  -9  -1  651.93   39.40
  -6  -9   1  644.14   34.60
  -6  -9   1  642.94   43.00
   6  -9  -1  669.33   42.50
  -6   9   1  585.94   36.10
  -6   9   1  630.84   35.70
  -6   9   1  631.54   36.30
  -5  -9   1  269.27   18.30
   5  -9  -1  250.17   19.20
  -5  -9   1  227.78   24.30
   5  -9  -1  273.37   23.90
   5  -9  -1  198.98   16.70
   5  -9  -1  244.98   19.40
   5  -9  -1  223.38   20.80
  -5  -9   1  224.08   16.40
  -5  -9   1  230.98   14.30
  -5   9   1  234.38   18.70
  -5   9   1  239.78   18.80
  -5   9   1  242.38   18.50
  -4  -9   1  487.85   23.40
  -4  -9   1  516.95   30.90
  -4  -9   1  482.75   25.80
   4  -9  -1  446.56   25.50
  -4  -9   1  489.85   23.70
   4  -9  -1  500.15   26.00
   4  -9  -1  449.86   29.30
   4  -9  -1  466.75   26.80
  -4   9   1  487.15   26.50
  -4   9   1  450.25   26.70
  -4   9   1  453.85   25.70
   4   9  -1  501.35   30.40
   3  -9  -1 1308.07   55.49
   3  -9  -1 1278.17   56.59
   3  -9  -1 1289.47   58.29
  -3  -9   1 1306.67   54.09
   3  -9  -1 1249.97   57.19
   3  -9  -1 1392.26   59.89
  -3  -9   1 1254.07   54.59
  -3  -9   1 1319.77   59.99
  -3   9   1 1314.07   57.09
  -3   9   1 1229.18   56.39
   3   9  -1 1217.08   59.59
  -3   9   1 1217.08   55.59
  -2  -9   1   53.69    7.10
   2  -9  -1   38.60    7.60
   2  -9  -1   50.49    7.50
   2  -9  -1   58.19    8.00
  -2  -9   1   42.00    8.70
   2  -9  -1   48.00    6.10
  -2  -9   1   63.49    6.40
   2  -9  -1   39.00    6.90
  -2   9   1   47.60    6.70
  -2   9   1   43.50    6.80
   2   9  -1   55.39    5.40
   2   9  -1   52.59    9.10
  -2   9   1   58.89    7.60
  -1  -9   1   16.30    4.50
   1  -9  -1   15.10    3.10
   1  -9  -1   15.50    4.40
  -1  -9   1   12.70    4.90
   1  -9  -1   20.80    5.40
   1  -9  -1   22.60    5.10
   1  -9  -1   13.70    4.30
  -1  -9   1   24.90    7.60
  -1  -9   1   16.80    4.40
  -1   9   1   11.40    5.00
  -1   9   1   17.50    3.60
   1   9  -1   19.70    3.50
   1   9  -1   17.40    6.40
   0  -9  -1 1730.23   66.59
   0  -9   1 1585.94   66.89
   0  -9   1 1472.35   67.39
   0  -9   1 1525.55   66.79
   0  -9   1 1499.45   67.79
   0  -9  -1 1495.75   66.19
   0  -9   1 1718.43   67.99
   0  -9  -1 1528.75   65.59
   0  -9  -1 1627.74   64.99
   0   9  -1 1779.02   66.19
   0   9  -1 1349.86   69.39
   0   9   1 1548.55   68.99
   0   9  -1 1683.13   66.89
   1  -9   1 5747.42  219.08
  -1  -9  -1 4871.21  215.18
   1  -9   1 5808.02  218.98
   1  -9   1 5589.14  220.38
   1  -9   1 5502.55  218.48
  -1  -9  -1 5716.73  219.98
   1  -9   1 4854.41  218.88
  -1  -9  -1 4651.53  215.48
  -1  -9  -1 5814.82  220.58
  -1  -9  -1 5703.03  215.68
  -1   9  -1 5717.43  217.78
  -1   9  -1 5434.76  219.18
   1   9   1 5101.09  219.98
  -1   9  -1 5478.45  218.48
   2  -9   1  240.18   16.20
  -2  -9  -1  236.78   11.60
  -2  -9  -1  282.37   17.90
   2  -9   1  240.48   17.60
   2  -9   1  252.57   17.20
  -2  -9  -1  243.18   11.40
   2  -9   1  250.37   16.70
  -2  -9  -1  242.48   17.90
   2  -9   1  236.68   17.80
  -2   9  -1  234.18   16.80
  -2   9  -1  258.87   16.00
  -2   9  -1  280.37   16.90
   2   9   1  236.18   17.70
  -3  -9  -1  825.12   41.00
   3  -9   1  866.71   44.30
   3  -9   1  921.01   42.90
  -3  -9  -1  925.51   43.60
  -3  -9  -1  881.51   44.40
   3  -9   1  891.31   43.90
   3  -9   1  855.11   43.10
  -3   9  -1  813.52   42.50
  -3   9  -1  885.81   43.30
  -3   9  -1  904.61   42.70
  -3   9  -1  944.41   42.40
  -4  -9  -1  260.37   21.10
   4  -9   1  248.58   21.50
   4  -9   1  247.98   19.20
   4  -9   1  257.07   21.40
   4  -9   1  243.38   20.30
  -4  -9  -1  269.37   22.00
  -4  -9  -1  272.67   19.20
   4  -9   1  203.88   19.50
  -4   9  -1  252.37   20.20
  -4   9  -1  255.77   19.40
  -4   9  -1  252.07   20.50
  -5  -9  -1   -1.60    7.70
   5  -9   1  -25.40   11.40
   5  -9   1    9.80    8.80
  -5  -9  -1    3.10    3.60
  -5  -9  -1   -7.50    9.60
  -5  -9  -1    6.60   12.60
  -5  -9  -1    5.00    3.10
   5  -9   1    8.70   10.40
   5  -9   1   10.70    9.70
   5  -9   1   13.60    9.70
  -5   9  -1   -3.30    8.00
  -5   9  -1   -0.60   10.80
  -5   9  -1   11.60    7.70
  -6  -9  -1  201.88   14.90
   6  -9   1  212.48   24.70
   6  -9   1  326.97   35.80
  -6  -9  -1  240.48   30.00
   6  -9   1  200.58   25.00
  -6  -9  -1  210.18   23.00
  -6   9  -1  214.38   22.60
  -6   9  -1  230.28   25.20
  -7  -9  -1  888.71   55.09
   7  -9   1  855.81   52.39
   7  -9   1  899.51   51.79
  -7  -9  -1  892.11   51.79
  -7  -9  -1  851.31   42.10
  -7   9  -1  699.23   56.59
  -7   9  -1  938.31   50.99
   8  -9   1  307.57   36.30
  -8  -9  -1  269.27   25.80
   8  -9   1  222.68   29.30
  -8  -9  -1  252.87   35.70
  -8   9  -1  193.68   28.90
  -8   9  -1  251.87   34.00
  -9 -10   1   59.79   23.30
  -9 -10   1  113.79   19.50
  -9 -10   1   87.39   11.50
   9 -10  -1   93.99   25.60
   9 -10  -1  118.29   22.30
  -9  10   1   51.09   24.20
  -9  10   1  122.49   24.40
   8 -10  -1  320.47   28.10
  -8 -10   1  275.57   27.30
  -8 -10   1  300.07   18.50
  -8 -10   1  363.66   40.80
   8 -10  -1  283.57   33.00
  -8 -10   1  256.87   34.90
  -8  10   1  309.37   31.10
  -8  10   1  265.57   32.70
  -8  10   1  296.37   30.60
  -7 -10   1   10.80   12.10
   7 -10  -1    1.10    8.80
  -7 -10   1  -19.20    8.90
  -7 -10   1   10.30   13.00
  -7 -10   1   -1.10    5.30
   7 -10  -1    7.00   10.60
  -7  10   1    3.80   10.50
  -7  10   1    0.10    9.40
  -7  10   1  -16.00   10.50
  -6 -10   1   68.39   11.20
  -6 -10   1   81.39    8.50
   6 -10  -1   71.29   14.10
   6 -10  -1   65.59   12.90
  -6 -10   1  115.69   17.20
   6 -10  -1   85.29   17.40
   6 -10  -1   48.70   10.70
  -6  10   1   67.99   12.10
  -6  10   1   94.09   14.80
  -6  10   1   72.39   13.10
  -5 -10   1  306.47   17.00
   5 -10  -1  262.07   26.40
  -5 -10   1  297.37   28.80
   5 -10  -1  333.57   24.70
  -5 -10   1  297.77   19.10
   5 -10  -1  322.17   22.90
   5 -10  -1  339.37   22.50
  -5 -10   1  301.57   22.20
   5 -10  -1  278.37   20.30
  -5  10   1  294.37   22.50
  -5  10   1  309.17   22.20
  -5  10   1  301.27   22.10
  -4 -10   1  885.21   39.30
   4 -10  -1  900.11   42.40
  -4 -10   1  938.31   42.40
   4 -10  -1  965.80   46.80
   4 -10  -1  730.83   46.50
   4 -10  -1  930.21   42.00
  -4 -10   1  811.62   46.20
   4 -10  -1  880.21   43.40
  -4 -10   1  921.41   39.80
  -4  10   1  846.92   43.00
  -4  10   1  921.51   42.40
  -4  10   1  845.72   42.60
   4  10  -1  836.22   46.10
  -3 -10   1   18.70    4.40
  -3 -10   1   22.00    5.40
   3 -10  -1   16.70    6.20
   3 -10  -1   19.90    7.90
  -3 -10   1   20.90    9.50
   3 -10  -1   18.40    5.30
   3 -10  -1   18.00    7.40
   3 -10  -1   20.90    5.90
  -3  10   1   16.60    5.60
  -3  10   1   21.50    5.90
   3  10  -1   11.00    7.30
  -3  10   1   20.00    6.10
  -2 -10   1  422.26   22.90
   2 -10  -1  459.65   22.10
   2 -10  -1  432.36   24.10
   2 -10  -1  447.36   23.80
  -2 -10   1  511.85   28.40
   2 -10  -1  496.05   26.40
  -2 -10   1  430.06   22.60
   2 -10  -1  466.15   25.40
  -2  10   1  490.75   23.80
   2  10  -1  420.66   27.10
  -2  10   1  450.65   22.70
  -2  10   1  462.75   23.40
   1 -10  -1  216.08   14.30
   1 -10  -1  248.38   15.50
   1 -10  -1  246.88   12.90
  -1 -10   1  231.88   16.00
   1 -10  -1  242.08   14.30
  -1 -10   1  250.77   15.30
  -1 -10   1  230.38   14.70
   1  10  -1  230.98   18.40
   1  10  -1  251.47   13.30
  -1  10   1  237.48   17.30
   0 -10  -1   88.09    7.90
   0 -10   1   95.69   10.20
   0 -10   1   85.39    8.70
   0 -10   1   94.19    9.40
   0 -10  -1   93.69    8.10
   0 -10  -1   93.79    7.30
   0 -10   1   83.69   10.10
   0 -10   1   98.19   10.20
   0 -10  -1   82.39    8.30
   0 -10  -1  112.79    9.40
   0  10   1   87.29   11.40
   0  10  -1   77.49   12.30
   0  10  -1   97.39    8.70
   1 -10   1    6.00    4.80
   1 -10   1    8.20    4.90
  -1 -10  -1    5.70    2.90
  -1 -10  -1   -0.90    5.00
  -1 -10  -1    0.80    5.10
   1 -10   1    0.90    4.90
  -1 -10  -1   -3.60    2.70
   1 -10   1    4.90    5.30
  -1 -10  -1    3.00    2.50
   1 -10   1    4.10    4.30
  -1  10  -1    7.90    3.90
  -1  10  -1   -2.20    4.40
   1  10   1    6.10    5.80
  -1  10  -1    0.00    6.10
  -1  10  -1   -0.30    3.80
  -2 -10  -1  156.28   16.10
  -2 -10  -1  122.79    7.90
   2 -10   1  151.28   14.80
  -2 -10  -1  123.99   14.20
  -2 -10  -1  131.89    7.60
   2 -10   1  121.09   12.00
   2 -10   1  127.39   13.70
   2 -10   1  132.89   13.00
   2 -10   1  142.09   14.20
  -2 -10  -1  140.19    7.70
   2  10   1  117.99   13.80
  -2  10  -1  134.29   13.50
  -2  10  -1  112.99   12.10
  -2  10  -1  168.88   13.00
   3 -10   1  137.19   14.50
  -3 -10  -1  123.19   16.80
  -3 -10  -1  143.59   12.90
   3 -10   1  139.89   15.30
  -3 -10  -1  130.59   15.90
   3 -10   1  128.19   15.30
   3 -10   1  115.49   13.30
   3 -10   1  121.59   16.20
  -3  10  -1  130.09   14.80
  -3  10  -1  150.58   14.20
  -3  10  -1  126.49   13.20
   3  10   1  127.89   16.00
  -4 -10  -1   -0.80    6.20
   4 -10   1   -0.80    7.60
   4 -10   1    0.60    6.70
   4 -10   1   -7.20    8.90
   4 -10   1   -3.30    7.50
  -4 -10  -1  -10.60    9.80
   4 -10   1   -3.60    7.50
  -4 -10  -1    0.80    8.50
  -4  10  -1   10.40    9.20
  -4  10  -1    7.40    8.00
  -4  10  -1    1.10    6.00
  -5 -10  -1  463.35   32.10
  -5 -10  -1  419.06   34.00
   5 -10   1  460.35   30.90
  -5 -10  -1  395.46   28.60
   5 -10   1  426.56   30.10
   5 -10   1  451.95   29.80
   5 -10   1  443.16   31.80
  -5 -10  -1  437.16   19.90
  -5  10  -1  438.96   29.10
  -5  10  -1  392.66   30.20
   6 -10   1  329.87   29.80
  -6 -10  -1  346.07   27.60
  -6 -10  -1  279.87   17.70
  -6 -10  -1  333.67   34.30
   6 -10   1  260.27   29.30
  -6  10  -1  317.17   27.00
  -6  10  -1  317.37   30.00
  -7 -10  -1   17.90    9.50
  -7 -10  -1   -1.30   14.20
   7 -10   1    6.20   14.60
   7 -10   1    6.90   15.60
  -7 -10  -1   10.10   22.00
  -7  10  -1    2.60   16.00
  -7  10  -1   18.50   13.00
   8 -10   1  142.09   26.40
  -8 -10  -1  148.09   26.40
   8 -10   1  118.19   26.30
  -8  10  -1  114.59   23.10
  -8  10  -1  111.69   24.90
   9 -11  -1  -31.30   24.30
  -9 -11   1   25.60    8.70
   9 -11  -1   27.10   19.80
  -9 -11   1  -20.30   19.30
  -9  11   1   46.90   21.40
  -9  11   1   -0.30   22.20
   8 -11  -1   33.10   14.70
  -8 -11   1   11.80   14.10
  -8 -11   1   15.80    6.10
  -8 -11   1    7.40   17.30
   8 -11  -1   -8.50   15.60
  -8  11   1   -8.60   17.20
  -8  11   1   12.40   15.60
  -7 -11   1  118.59   18.80
  -7 -11   1  104.79   14.50
   7 -11  -1   87.29   15.50
  -7 -11   1   70.59   17.80
  -7 -11   1  102.39   10.30
  -7  11   1   75.89   15.80
  -7  11   1   89.49   18.70
  -7  11   1   90.39   17.20
   6 -11  -1  668.13   39.60
  -6 -11   1  606.54   29.60
   6 -11  -1  687.03   39.60
  -6 -11   1  673.93   34.70
   6 -11  -1  637.94   36.90
  -6 -11   1  670.93   38.90
   6 -11  -1  599.04   42.60
  -6  11   1  633.14   38.30
  -6  11   1  672.53   38.70
  -6  11   1  677.33   39.00
   5 -11  -1  165.18   21.40
  -5 -11   1  147.49   18.70
   5 -11  -1  114.79   18.20
   5 -11  -1  135.49   16.50
  -5 -11   1   88.29   10.10
   5 -11  -1  116.79   16.50
  -5 -11   1   98.99   18.70
  -5 -11   1  100.69   12.90
   5 -11  -1  113.49   14.10
  -5  11   1  101.79   14.40
  -5  11   1  126.99   16.10
  -5  11   1  125.59   15.80
  -4 -11   1  509.35   25.20
  -4 -11   1  512.65   25.80
   4 -11  -1  501.75   27.70
  -4 -11   1  470.65   33.50
   4 -11  -1  517.55   29.50
   4 -11  -1  518.45   28.20
  -4 -11   1  492.05   28.60
   4 -11  -1  489.45   32.80
   4 -11  -1  475.75   30.80
   4  11  -1  547.55   33.40
  -4  11   1  530.35   29.30
  -4  11   1  468.55   27.90
  -4  11   1  521.95   29.50
   3 -11  -1  558.04   32.00
   3 -11  -1  502.45   26.40
   3 -11  -1  545.65   28.90
   3 -11  -1  491.55   29.60
  -3 -11   1  514.55   26.10
   3 -11  -1  487.95   27.30
  -3 -11   1  540.25   32.60
  -3  11   1  531.65   27.10
  -3  11   1  522.15   27.80
   3  11  -1  534.55   32.20
  -3  11   1  526.25   33.10
  -2 -11   1    8.80    4.50
   2 -11  -1    3.30    5.50
  -2 -11   1    7.70    8.70
   2 -11  -1    5.10    6.20
   2 -11  -1    8.30    5.00
  -2 -11   1    4.90    4.40
   2 -11  -1   11.30    5.30
   2 -11  -1   16.10    4.50
  -2  11   1   12.00    4.50
   2  11  -1   14.10    7.30
  -2  11   1    5.40    6.20
  -2  11   1    9.50    4.40
   1 -11  -1   -4.70    2.70
  -1 -11   1    0.50    4.40
   1 -11  -1    5.00    4.90
   1 -11  -1    3.20    5.40
  -1 -11   1    7.60    4.60
  -1 -11   1    1.00    5.20
   1 -11  -1    0.50    3.00
   1 -11  -1    1.90    3.80
  -1  11   1    4.80    6.30
   1  11  -1    2.60    6.10
   0 -11  -1  224.48   12.90
   0 -11   1  230.38   16.30
   0 -11  -1  220.18   13.40
   0 -11   1  236.48   15.10
   0 -11  -1  219.88   14.40
   0 -11  -1  230.48   15.10
   0 -11   1  207.58   16.10
   0 -11   1  230.18   14.80
   0 -11  -1  225.38   13.40
   0 -11   1  218.98   15.90
   0  11   1  227.68   17.60
   0  11  -1  186.68   18.00
   0  11  -1  257.77   14.40
   1 -11   1  775.72   38.60
   1 -11   1  786.82   39.10
  -1 -11  -1  821.62   35.00
   1 -11   1  825.02   38.20
  -1 -11  -1  727.93   34.60
  -1 -11  -1  785.22   34.30
   1 -11   1  740.63   37.00
  -1 -11  -1  720.13   34.80
   1 -11   1  794.92   37.70
  -1 -11  -1  795.32   40.10
   1  11   1  767.52   40.00
  -1  11  -1  783.02   41.60
  -1  11  -1  841.12   37.30
  -2 -11  -1  116.19   14.30
   2 -11   1  103.89   12.20
  -2 -11  -1  112.49   15.80
   2 -11   1  116.29   14.40
   2 -11   1  113.29   13.90
  -2 -11  -1   92.09    7.20
  -2 -11  -1  104.29    7.50
   2 -11   1  115.49   12.70
   2 -11   1  102.69   13.50
  -2 -11  -1  103.19    7.70
  -2  11  -1  112.99   13.30
   2  11   1  103.99   13.80
  -2  11  -1  111.49   12.20
  -3 -11  -1   35.70   11.00
   3 -11   1   39.80    9.00
   3 -11   1   38.60    9.00
   3 -11   1   36.80   10.30
  -3 -11  -1   43.30   11.10
   3 -11   1   34.20    8.90
   3 -11   1   53.09    9.90
  -3  11  -1   29.30    9.30
  -3  11  -1   40.90    9.70
  -3  11  -1   34.50    9.10
   3  11   1   23.80    9.20
   4 -11   1   42.30   10.40
   4 -11   1   31.60   12.00
   4 -11   1   64.09   12.20
  -4 -11  -1   66.39   11.00
   4 -11   1   55.99   11.30
  -4 -11  -1   69.69   12.80
  -4 -11  -1   37.40   13.20
   4 -11   1   48.30   11.80
  -4  11  -1   50.19   10.10
  -4  11  -1   50.99   11.10
   5 -11   1   17.00   11.00
  -5 -11  -1   13.80   10.40
  -5 -11  -1   21.00   15.10
   5 -11   1   39.90   13.50
   5 -11   1   33.80   13.10
  -5 -11  -1   14.90   14.50
   5 -11   1   30.00   11.50
  -5  11  -1   36.30   12.60
  -5  11  -1   16.90    8.80
  -6 -11  -1   99.19   15.80
   6 -11   1  116.39   20.00
  -6 -11  -1   93.59   11.00
  -6 -11  -1   61.89   20.40
   6 -11   1   71.39   16.70
  -6  11  -1   93.29   26.60
  -6  11  -1   87.79   18.00
  -7 -11  -1  262.47   23.90
  -7 -11  -1  352.76   35.00
   7 -11   1  285.37   35.30
   7 -11   1  304.27   34.10
  -7  11  -1  336.77   31.10
  -7  11  -1  291.27   36.00
  -8 -11  -1   33.60   21.90
   8 -11   1   39.50   22.70
   8 -11   1   70.39   27.30
  -8  11  -1   35.80   18.10
  -8  11  -1   53.09   23.70
  -8 -12   1  264.97   30.00
  -8 -12   1  274.37   37.30
   8 -12  -1  273.37   37.00
  -8 -12   1  348.97   17.90
   8 -12  -1  377.06   33.40
  -8  12   1  357.16   36.80
  -8  12   1  358.36   39.40
  -7 -12   1   71.29    8.60
  -7 -12   1   75.89   20.10
   7 -12  -1   62.39   15.80
   7 -12  -1   71.19   16.70
  -7 -12   1   73.19   17.80
  -7 -12   1   59.79   13.50
  -7  12   1  102.49   17.80
  -7  12   1   58.69   16.70
   6 -12  -1    9.10   16.00
   6 -12  -1   13.60   12.30
   6 -12  -1   23.90    9.40
  -6 -12   1   16.90    5.00
  -6 -12   1   16.00    9.00
  -6 -12   1   36.20   14.70
   6 -12  -1   34.00   11.80
  -6  12   1   10.60   11.30
  -6  12   1   31.20   10.30
  -6  12   1   23.70   12.50
  -5 -12   1  986.60   47.90
   5 -12  -1  845.92   46.00
  -5 -12   1  888.71   40.30
   5 -12  -1  904.61   45.70
  -5 -12   1  846.32   45.60
   5 -12  -1  868.71   46.70
   5 -12  -1  991.90   50.49
  -5  12   1  920.91   46.80
  -5  12   1  967.10   47.50
  -5  12   1  863.31   46.60
   4 -12  -1 1801.42   81.19
  -4 -12   1 1778.52   83.69
  -4 -12   1 1835.02   78.59
  -4 -12   1 1712.83   74.49
   4 -12  -1 1750.92   77.89
   4 -12  -1 1761.62   83.09
   4 -12  -1 1737.83   76.99
   4 -12  -1 1721.93   78.89
  -4  12   1 1760.52   78.59
  -4  12   1 1873.91   78.09
   4  12  -1 1668.63   83.09
  -4  12   1 1732.13   78.29
   3 -12  -1   16.10    7.30
   3 -12  -1   20.50    6.50
  -3 -12   1   28.00    6.20
   3 -12  -1   30.90    7.30
  -3 -12   1   28.80    6.70
   3 -12  -1   37.10   11.10
   3 -12  -1   26.30    8.70
  -3 -12   1   52.39   13.10
  -3  12   1   22.90    6.80
  -3  12   1   22.60    6.90
   3  12  -1   35.90   10.70
   2 -12  -1  331.37   18.30
  -2 -12   1  332.17   19.70
  -2 -12   1  325.47   19.20
   2 -12  -1  311.87   20.00
   2 -12  -1  342.37   20.60
  -2 -12   1  314.37   24.80
   2 -12  -1  304.17   22.00
   2 -12  -1  344.47   23.40
  -2  12   1  376.16   24.80
  -2  12   1  323.07   19.10
   2  12  -1  346.57   24.70
  -1 -12   1  128.29   12.20
   1 -12  -1  129.39   11.50
  -1 -12   1  141.09   12.40
   1 -12  -1  133.69   13.90
  -1 -12   1  131.89   13.90
   1 -12  -1  124.09   11.30
  -1 -12   1  129.89   10.80
  -1 -12   1  135.99   12.60
   1 -12  -1  137.59    9.80
   1 -12  -1  125.59   12.50
   1  12  -1  151.38   16.70
  -1  12   1  121.89   14.90
   0 -12  -1  104.49   11.60
   0 -12   1   88.69   11.80
   0 -12   1   98.39   12.40
   0 -12  -1  100.49    9.10
   0 -12  -1  108.39    9.40
   0 -12   1  113.59   10.90
   0 -12   1  110.39   11.80
   0 -12  -1  105.89    9.50
   0 -12  -1  105.79   10.60
   0 -12   1   96.69   12.40
   0  12  -1   70.69   12.30
   0  12   1  114.09   14.00
  -1 -12  -1  336.27   17.20
  -1 -12  -1  309.37   23.40
   1 -12   1  338.87   22.20
   1 -12   1  323.17   20.60
  -1 -12  -1  331.97   18.20
   1 -12   1  357.86   20.30
  -1 -12  -1  317.67   17.90
  -1 -12  -1  317.47   18.00
   1 -12   1  305.17   21.70
   1 -12   1  350.56   21.50
  -1 -12  -1  316.17   16.90
   1  12   1  321.57   22.90
  -1  12  -1  295.67   24.70
  -2 -12  -1 2461.85  102.19
  -2 -12  -1 2192.08   94.09
   2 -12   1 2345.17  100.89
   2 -12   1 2324.07   98.79
   2 -12   1 2275.37   98.69
  -2 -12  -1 2415.76   94.29
  -2 -12  -1 2258.47   93.79
   2 -12   1 2370.76  101.59
   2 -12   1 2242.68   99.79
  -2 -12  -1 2306.27   93.39
  -2 -12  -1 2327.47  100.69
  -2  12  -1 2224.38   99.49
   2  12   1 2335.07  102.39
   3 -12   1 1116.79   53.09
  -3 -12  -1 1190.88   56.19
   3 -12   1 1077.69   54.49
   3 -12   1 1152.58   53.49
  -3 -12  -1 1094.49   56.19
  -3 -12  -1 1091.79   45.40
  -3 -12  -1 1092.69   45.30
   3 -12   1 1192.28   56.29
  -3 -12  -1 1067.19   45.20
  -3 -12  -1 1152.28   45.80
   3 -12   1 1103.19   54.89
   3  12   1 1082.99   56.09
  -3  12  -1 1010.50   53.39
   4 -12   1  -13.50    9.50
  -4 -12  -1   10.70    7.50
  -4 -12  -1   25.50   13.80
   4 -12   1    9.00    8.90
  -4 -12  -1   10.00   12.80
   4 -12   1   24.50   10.90
   4 -12   1   -8.40   12.10
   4 -12   1    1.00    9.60
  -4  12  -1   16.40   10.90
  -4  12  -1   13.50    8.80
   5 -12   1  780.02   46.00
  -5 -12  -1  751.52   47.00
   5 -12   1  735.63   44.80
  -5 -12  -1  684.03   41.50
   5 -12   1  734.73   44.10
  -5  12  -1  764.02   43.40
  -5  12  -1  795.22   45.30
  -6 -12  -1  240.78   14.60
  -6 -12  -1  200.58   26.60
   6 -12   1  258.27   29.90
   6 -12   1  287.77   30.70
  -6  12  -1  258.37   30.70
  -6  12  -1  251.97   26.80
  -7 -12  -1   40.50   27.60
  -7 -12  -1   64.39   11.60
   7 -12   1   65.19   20.00
   7 -12   1   28.00   19.50
  -7  12  -1   36.20   20.10
  -7  12  -1   48.60   17.20
   8 -12   1  124.79   28.50
  -8 -12  -1  125.69   27.80
   8 -12   1  145.09   43.20
  -8  12  -1  137.99   30.00
  -8 -13   1    7.80   19.90
   8 -13  -1   17.50   16.10
   8 -13  -1    2.30   19.00
  -8  13   1  -10.20   21.00
  -8  13   1  -18.60   15.10
   7 -13  -1   26.70   12.70
   7 -13  -1    8.10   13.50
  -7 -13   1   41.50   22.00
  -7 -13   1   -8.60   14.70
  -7 -13   1   16.70   12.40
  -7 -13   1   24.50    4.80
  -7  13   1   20.50   15.70
  -7  13   1   39.70   14.70
   6 -13  -1   11.10   16.90
  -6 -13   1    1.70   10.60
   6 -13  -1   30.30   12.10
   6 -13  -1   -4.80   17.90
  -6 -13   1    3.10    4.50
   6 -13  -1  -21.50   14.50
  -6 -13   1  -27.60   15.50
  -6  13   1    9.50   12.10
  -6  13   1   -1.50   10.30
  -5 -13   1   30.10    6.60
  -5 -13   1   26.60   11.10
   5 -13  -1   26.80    9.40
   5 -13  -1   45.10   10.90
   5 -13  -1   34.00   10.30
   5 -13  -1   33.10   15.30
  -5 -13   1   27.60   13.20
  -5  13   1   34.60   11.00
  -5  13   1   36.60   10.90
   4 -13  -1    8.20    8.20
   4 -13  -1    2.90    6.30
  -4 -13   1    7.60    5.70
  -4 -13   1   11.20    9.80
   4 -13  -1  -14.90    9.60
   4 -13  -1  -12.70   13.00
   4 -13  -1    5.10    6.60
  -4 -13   1   13.60    7.10
  -4 -13   1   12.10   13.80
   4  13  -1    6.50   10.90
  -4  13   1    3.90    6.70
  -4  13   1   -8.00    7.10
   3 -13  -1   66.09   13.60
  -3 -13   1   51.49    8.40
   3 -13  -1   57.59   10.00
   3 -13  -1   62.59   12.70
  -3 -13   1   80.29   15.90
  -3 -13   1   53.09    8.60
   3 -13  -1   59.19    9.90
   3 -13  -1   51.19   10.40
   3  13  -1   48.50   12.70
  -3  13   1   47.10    9.30
  -3  13   1   56.39    9.40
   2 -13  -1   99.79   13.00
   2 -13  -1   97.19   14.50
  -2 -13   1  102.19   14.60
  -2 -13   1   61.89   13.10
  -2 -13   1   88.29    9.60
  -2 -13   1   83.29   10.20
  -2 -13   1   89.89   11.50
   2 -13  -1   97.39   10.20
   2 -13  -1   82.79   11.10
  -2 -13   1   77.39   11.50
   2 -13  -1   94.99   12.50
  -2  13   1   74.09   12.60
   2  13  -1   85.29   15.20
   1 -13  -1   77.89   12.30
  -1 -13   1   73.09   11.00
   1 -13  -1   87.09   10.70
   1 -13  -1  109.39   14.20
  -1 -13   1   72.29    9.70
  -1 -13   1   89.49   11.70
  -1 -13   1   82.59   11.30
   1 -13  -1   95.49    8.90
   1 -13  -1   83.89   10.00
  -1 -13   1   94.69   10.20
   1  13  -1   69.79   13.00
  -1  13   1   76.19   12.60
   0 -13  -1   20.00    5.00
   0 -13  -1   28.40    7.50
   0 -13   1   22.70    6.20
   0 -13   1   20.70    7.50
   0 -13  -1   13.10    4.80
   0 -13  -1   17.00    5.60
   0 -13   1   11.40    6.20
   0 -13   1   13.70    6.40
   0 -13   1   16.40    6.70
   0 -13  -1   21.10    5.40
   0  13  -1   15.70    9.10
   0  13   1   12.10    7.10
   1 -13   1  252.67   18.70
   1 -13   1  255.27   20.50
  -1 -13  -1  257.97   16.50
   1 -13   1  283.97   20.20
  -1 -13  -1  257.37   15.40
  -1 -13  -1  271.37   16.60
   1 -13   1  278.07   20.50
   1 -13   1  267.87   19.40
  -1 -13  -1  268.17   15.30
  -1  13  -1  258.47   23.00
   1  13   1  271.77   22.40
  -2 -13  -1  675.83   29.90
  -2 -13  -1  624.64   28.80
  -2 -13  -1  661.03   36.90
   2 -13   1  646.94   36.00
  -2 -13  -1  634.24   37.40
  -2 -13  -1  636.24   28.40
   2 -13   1  627.04   36.00
   2 -13   1  616.74   43.60
  -2 -13  -1  624.04   29.50
   2 -13   1  632.24   34.00
   2 -13   1  624.34   34.00
  -2  13  -1  617.44   38.60
  -2  13  -1  614.44   35.00
   2  13   1  653.03   37.70
  -3 -13  -1   -2.80   12.50
   3 -13   1   18.70    8.60
  -3 -13  -1   19.80    4.70
  -3 -13  -1   11.50   13.40
  -3 -13  -1   18.90    3.70
  -3 -13  -1   19.00    3.70
   3 -13   1   13.20   10.00
  -3 -13  -1   15.50    4.20
   3 -13   1    6.60    9.60
   3 -13   1   35.80   12.30
   3 -13   1   16.80    9.00
   3  13   1    7.80    9.60
  -3  13  -1    5.00    9.60
   4 -13   1   34.10   11.30
   4 -13   1   44.30   13.10
   4 -13   1   41.90   12.70
  -4 -13  -1   55.29   16.30
  -4 -13  -1    0.30   15.30
   4 -13   1   49.40   13.00
  -4 -13  -1   30.90   10.20
  -4  13  -1   47.10   13.60
   5 -13   1  187.38   26.10
   5 -13   1  165.98   22.70
   5 -13   1  177.58   24.60
  -5 -13  -1  180.58   23.50
  -5  13  -1  240.28   24.50
  -5  13  -1  199.98   25.90
  -6 -13  -1   89.49   18.10
   6 -13   1  131.19   23.20
   6 -13   1  102.29   20.80
  -6  13  -1  111.69   23.70
  -6  13  -1   83.49   17.50
   7 -13   1   -3.60   19.90
   7 -13   1    8.30   18.80
  -7 -13  -1   17.00   19.70
  -7  13  -1   17.30   20.60
  -7  13  -1  -29.60   14.50
   8 -14  -1  513.45   42.40
   8 -14  -1  505.75   47.10
  -8 -14   1  358.86   46.10
  -8  14   1  390.56   45.90
  -8  14   1  430.36   42.10
  -7 -14   1   62.79   21.00
   7 -14  -1   54.79   19.60
   7 -14  -1   79.59   18.40
  -7 -14   1  119.09   17.50
  -7  14   1   92.29   18.10
  -7  14   1   98.69   20.10
  -6 -14   1   -1.10   10.90
   6 -14  -1   10.80   21.70
   6 -14  -1    8.30   11.00
   6 -14  -1  -22.70   17.30
  -6 -14   1   12.80    4.70
   6 -14  -1   -1.80   10.30
  -6  14   1   19.70   12.90
  -6  14   1  -20.30   12.60
   5 -14  -1  199.68   29.10
   5 -14  -1  145.29   22.00
   5 -14  -1  135.69   18.80
   5 -14  -1  180.18   20.70
  -5 -14   1  145.19   13.20
  -5 -14   1  165.98   21.50
  -5 -14   1  136.79   18.20
  -5  14   1  141.49   20.90
  -5  14   1  172.28   20.00
  -4 -14   1  436.56   24.20
  -4 -14   1  391.66   30.30
   4 -14  -1  411.96   28.10
   4 -14  -1  435.16   31.60
   4 -14  -1  412.06   27.00
   4 -14  -1  407.86   27.10
  -4 -14   1  419.06   25.10
  -4  14   1  429.46   27.40
  -4  14   1  443.26   27.70
   4  14  -1  404.86   33.10
   3 -14  -1   -6.10    5.80
  -3 -14   1   -1.90    5.80
  -3 -14   1    8.80   13.80
  -3 -14   1   -1.60    6.40
   3 -14  -1    0.00    6.80
   3 -14  -1    0.70   12.40
   3 -14  -1    1.00    7.00
   3 -14  -1   -1.20    9.80
  -3  14   1    2.80    7.00
  -3  14   1   11.10   10.50
  -3  14   1    0.90    6.70
   3  14  -1    4.10   10.80
   2 -14  -1  105.69   11.70
   2 -14  -1  127.89   17.10
  -2 -14   1  113.99   11.40
  -2 -14   1  148.59   14.30
  -2 -14   1  121.59   14.10
   2 -14  -1  143.69   14.90
   2 -14  -1  126.79   13.60
   2 -14  -1  119.39   16.60
  -2 -14   1  147.09   17.50
  -2 -14   1  147.09   14.00
  -2  14   1  121.49   18.70
   2  14  -1  149.49   20.90
   1 -14  -1  215.28   15.70
  -1 -14   1  225.68   16.80
   1 -14  -1  198.98   15.40
  -1 -14   1  187.28   14.60
  -1 -14   1  172.68   17.90
  -1 -14   1  218.08   17.00
   1 -14  -1  194.68   19.50
  -1 -14   1  227.38   17.20
   1 -14  -1  173.38   13.20
   1 -14  -1  203.38   17.80
  -1  14   1  168.08   20.10
   1  14  -1  226.78   23.10
   0 -14  -1  194.48   17.80
   0 -14   1  199.18   15.60
   0 -14  -1  201.28   14.20
   0 -14  -1  190.88   16.00
   0 -14   1  195.48   17.40
   0 -14   1  203.38   17.80
   0 -14   1  199.98   18.30
   0 -14  -1  178.28   13.40
   0 -14  -1  180.18   13.90
   0  14   1  208.88   20.30
   0  14  -1  189.28   21.80
  -1 -14  -1  825.22   43.90
   1 -14   1  758.52   41.60
  -1 -14  -1  767.12   37.40
   1 -14   1  795.82   41.40
   1 -14   1  787.12   39.60
  -1 -14  -1  752.02   36.20
   1 -14   1  799.52   39.90
  -1 -14  -1  815.52   38.40
  -1 -14  -1  786.12   36.00
  -1 -14  -1  783.62   36.80
   1 -14   1  823.82   41.60
   1  14   1  790.92   43.70
  -1  14  -1  770.42   45.30
  -2 -14  -1 2191.58  105.49
  -2 -14  -1 2443.96  105.79
   2 -14   1 2279.47  104.09
  -2 -14  -1 2365.66   97.79
  -2 -14  -1 2341.47   96.79
   2 -14   1 2369.86  102.59
   2 -14   1 2421.76  104.79
   2 -14   1 2385.36  102.29
  -2 -14  -1 2366.56   97.39
   2 -14   1 2373.26  105.09
  -2 -14  -1 2539.35   98.89
   2  14   1 2343.47  106.59
  -2  14  -1 2401.36  108.39
  -3 -14  -1  188.78   12.20
   3 -14   1  230.08   22.00
   3 -14   1  162.18   22.00
  -3 -14  -1  163.08   26.90
  -3 -14  -1  202.28   13.60
   3 -14   1  207.08   21.50
  -3 -14  -1  199.68   11.40
   3 -14   1  202.38   21.60
  -3 -14  -1  198.58   27.60
  -3 -14  -1  201.18   11.70
   3  14   1  199.78   23.10
  -3  14  -1  192.58   20.80
  -4 -14  -1   33.70    4.60
  -4 -14  -1   38.60   10.40
  -4 -14  -1   28.60    5.10
   4 -14   1   34.60   13.00
   4 -14   1   26.40   13.20
   4 -14   1   15.60   13.10
   4 -14   1   30.20   12.80
  -4  14  -1   62.69   14.60
  -5 -14  -1  159.38   20.00
   5 -14   1  128.49   22.10
   5 -14   1  179.48   24.40
   5 -14   1  147.09   22.50
  -5  14  -1  102.29   19.50
   6 -14   1  390.96   38.50
   6 -14   1  449.36   41.00
  -6 -14  -1  421.56   36.00
  -6  14  -1  443.36   41.10
  -7 -14  -1   48.80   20.80
   7 -14   1   12.60   23.20
   7 -14   1   29.40   23.80
  -7  14  -1   -8.90   16.70
  -7  14  -1   25.20   21.90
   7 -15  -1  191.68   31.00
   7 -15  -1  184.08   27.30
  -7 -15   1  283.87   33.80
  -7  15   1  217.58   31.10
   6 -15  -1  312.87   28.70
  -6 -15   1  301.17   28.10
   6 -15  -1  307.17   30.80
  -6  15   1  333.77   30.60
  -6  15   1  320.07   31.70
   5 -15  -1  118.99   18.10
  -5 -15   1  111.79    9.90
  -5 -15   1  112.49   15.10
   5 -15  -1   97.19   17.40
   5 -15  -1   87.69   17.80
  -5 -15   1  131.49   13.20
  -5  15   1  104.49   16.30
  -5  15   1  111.59   16.30
  -4 -15   1   30.50   10.30
   4 -15  -1   29.10   10.50
  -4 -15   1   27.80    6.20
   4 -15  -1   22.70   10.70
  -4 -15   1   16.50    8.10
   4 -15  -1   28.00   14.10
   4 -15  -1   21.50    9.50
   4  15  -1   28.60   14.80
  -4  15   1    8.30    9.90
  -4  15   1   13.90   10.30
   3 -15  -1  318.37   21.60
  -3 -15   1  289.87   21.40
  -3 -15   1  332.47   20.50
  -3 -15   1  337.27   18.80
  -3 -15   1  297.87   22.10
   3 -15  -1  283.77   27.70
   3 -15  -1  286.37   22.30
   3 -15  -1  340.87   23.90
   3  15  -1  344.77   30.20
  -3  15   1  317.97   29.00
   2 -15  -1   45.60   10.50
  -2 -15   1   48.10    9.70
  -2 -15   1   67.39   12.20
  -2 -15   1   50.39    9.00
  -2 -15   1   65.49   10.00
   2 -15  -1   45.00   13.60
   2 -15  -1   51.19    8.30
   2 -15  -1   45.50    9.60
  -2 -15   1   40.00    9.50
   2 -15  -1   48.20    9.10
   2  15  -1   52.89   13.40
  -2  15   1   45.30   13.40
   1 -15  -1  429.36   29.10
   1 -15  -1  408.26   26.40
  -1 -15   1  367.36   24.60
  -1 -15   1  417.16   23.00
  -1 -15   1  370.56   24.10
  -1 -15   1  378.16   24.60
   1 -15  -1  385.76   23.40
   1 -15  -1  376.46   23.10
   1 -15  -1  386.16   21.20
  -1 -15   1  387.16   26.20
   1  15  -1  368.46   30.20
  -1  15   1  393.66   28.90
   0 -15  -1  699.53   34.90
   0 -15  -1  713.33   34.50
   0 -15  -1  671.33   36.50
   0 -15   1  736.93   36.50
   0 -15  -1  752.42   38.90
   0 -15   1  702.63   37.90
   0 -15   1  744.23   38.30
   0 -15  -1  709.43   33.30
   0 -15   1  679.63   38.00
   0 -15   1  738.13   38.70
   0  15   1  689.03   41.20
   0  15  -1  703.83   42.90
  -1 -15  -1  420.36   24.60
   1 -15   1  402.96   28.50
  -1 -15  -1  428.46   24.00
   1 -15   1  410.36   26.20
  -1 -15  -1  424.86   23.30
  -1 -15  -1  470.35   26.90
  -1 -15  -1  420.86   22.50
   1 -15   1  423.66   27.20
   1 -15   1  438.06   29.30
   1 -15   1  464.55   28.80
  -1  15  -1  392.36   32.70
   1  15   1  444.96   31.00
  -2 -15  -1  236.88   30.80
  -2 -15  -1  336.47   19.80
  -2 -15  -1  360.66   18.60
   2 -15   1  336.77   25.70
   2 -15   1  344.07   26.30
  -2 -15  -1  337.17   19.00
   2 -15   1  329.27   24.80
   2 -15   1  334.77   26.50
  -2 -15  -1  317.47   21.20
   2  15   1  347.27   28.60
  -2  15  -1  346.77   31.50
  -3 -15  -1    1.20    4.30
   3 -15   1   -0.20   11.20
   3 -15   1   -0.50   10.70
  -3 -15  -1    0.90    4.20
  -3 -15  -1    5.90    6.20
  -3 -15  -1   28.30   27.50
   3 -15   1    0.80   12.20
  -3 -15  -1   -2.80    4.70
   3 -15   1   24.80   11.70
  -3  15  -1    9.90   10.80
  -3  15  -1   24.20   13.00
   3  15   1   10.30   12.40
   4 -15   1  327.37   30.80
  -4 -15  -1  346.17   27.00
  -4 -15  -1  329.67   17.40
  -4 -15  -1  358.66   18.60
   4 -15   1  367.26   30.50
   4 -15   1  312.77   32.00
   4 -15   1  279.47   33.80
  -4  15  -1  315.07   30.60
   5 -15   1   -3.40   13.80
   5 -15   1   -0.70   15.50
  -5 -15  -1  -19.40   11.60
  -5  15  -1  -10.30   15.10
   6 -15   1  445.96   43.50
   6 -15   1  496.35   44.40
  -6 -15  -1  477.55   38.30
  -6  15  -1  402.66   43.30
   7 -15   1  433.76   51.19
   7 -15   1  387.46   58.89
  -7 -15  -1  511.15   44.70
  -7  15  -1  397.46   51.59
   7 -16  -1   44.00   17.60
  -7 -16   1   31.40   21.70
   7 -16  -1   19.30   22.10
  -7  16   1   26.50   18.30
  -7  16   1   37.30   22.90
   6 -16  -1  -21.90   11.20
  -6 -16   1   10.80   16.30
  -6  16   1  -24.40   13.20
  -6  16   1    1.80   16.30
  -5 -16   1   86.49   15.10
   5 -16  -1   39.40   16.70
  -5 -16   1   64.79    8.90
  -5 -16   1   65.79    9.30
   5 -16  -1  108.39   26.10
   5 -16  -1   55.69   14.50
   5 -16  -1   94.09   15.30
  -5  16   1   48.50   15.00
  -5  16   1   44.90   16.90
   4 -16  -1   24.30   14.90
  -4 -16   1   22.30    6.10
  -4 -16   1   20.50   10.50
  -4 -16   1   38.90    9.90
   4 -16  -1   33.70   12.20
   4 -16  -1   38.10   11.40
   4 -16  -1   33.00   11.10
  -4  16   1   32.40   11.00
   4  16  -1   10.80   14.20
  -4  16   1   12.30   13.90
   3 -16  -1   95.69   14.00
  -3 -16   1   73.39   10.40
  -3 -16   1   72.19   11.00
  -3 -16   1   73.79   15.60
   3 -16  -1   48.70   11.20
  -3 -16   1   65.29   11.30
   3 -16  -1   47.10   11.00
   3 -16  -1   84.09   16.90
  -3 -16   1   74.09   11.70
  -3  16   1   43.90   14.60
   3  16  -1   44.30   15.10
  -2 -16   1  174.08   18.20
  -2 -16   1  159.78   17.40
   2 -16  -1  154.78   21.60
  -2 -16   1  187.08   15.00
  -2 -16   1  202.78   19.00
   2 -16  -1  179.58   17.80
   2 -16  -1  218.08   36.00
   2 -16  -1  179.48   17.10
  -2 -16   1  168.48   19.30
  -2  16   1  143.79   22.50
   2  16  -1  198.88   25.40
  -1 -16   1  345.67   22.60
  -1 -16   1  371.46   25.50
  -1 -16   1  386.56   26.20
  -1 -16   1  359.96   26.60
   1 -16  -1  416.06   27.20
   1 -16  -1  379.16   21.80
   1 -16  -1  389.56   23.60
  -1 -16   1  370.56   26.30
   1 -16  -1  394.06   24.00
  -1  16   1  369.76   29.60
   1  16  -1  386.46   31.70
   0 -16   1  333.37   23.40
   0 -16  -1  393.56   27.70
   0 -16   1  381.66   26.00
   0 -16   1  318.47   26.30
   0 -16   1  378.36   25.70
   0 -16  -1  355.76   21.80
   0 -16  -1  361.46   24.00
   0 -16   1  334.67   25.30
   0 -16  -1  365.16   21.00
   0 -16  -1  344.37   21.80
   0  16  -1  358.46   30.40
   0  16   1  379.86   29.40
   1 -16   1   11.40    8.50
  -1 -16  -1   12.50    7.80
   1 -16   1   19.30    9.30
   1 -16   1   35.10   10.50
  -1 -16  -1    3.00   10.00
  -1 -16  -1    9.30    5.70
   1 -16   1   -0.70    9.20
  -1 -16  -1   10.60    7.40
  -1 -16  -1    8.10    5.90
   1  16   1    3.70   10.70
  -1  16  -1   12.80   12.70
   2 -16   1    9.40   10.80
   2 -16   1   31.20   11.70
  -2 -16  -1   21.60    7.00
  -2 -16  -1   28.30   10.40
  -2 -16  -1   21.90    7.30
   2 -16   1   33.40   12.10
  -2 -16  -1   14.10    5.90
  -2 -16  -1   31.60    9.40
   2 -16   1    3.70   11.70
   2  16   1   28.20   14.10
  -2  16  -1   45.20   14.60
  -3 -16  -1  100.79   12.50
   3 -16   1  106.89   17.50
   3 -16   1  105.29   16.90
   3 -16   1   93.79   16.00
  -3 -16  -1  102.19   11.00
   3 -16   1  121.39   19.10
  -3 -16  -1  108.39   14.80
  -3 -16  -1  106.29   11.00
  -3  16  -1  118.89   22.40
   3  16   1  126.19   20.30
   4 -16   1   31.10   16.40
  -4 -16  -1   22.70    7.70
   4 -16   1   28.70   15.30
  -4 -16  -1   15.70   11.40
   4 -16   1    3.80   13.40
  -4  16  -1   21.00   14.40
   5 -16   1   -2.80   16.40
   5 -16   1    0.80   15.80
  -5 -16  -1   -8.20   13.40
  -5  16  -1  -14.20   17.50
   6 -16   1  170.68   37.20
  -6 -16  -1  203.58   30.80
   6 -16   1  151.58   27.30
  -6  16  -1  152.98   27.60
   6 -17  -1  295.97   32.40
   6 -17  -1  232.78   35.10
  -6  17   1  293.87   34.40
  -6  17   1  336.37   38.00
   5 -17  -1   63.69   16.80
   5 -17  -1   30.80   39.40
   5 -17  -1   58.99   18.20
  -5 -17   1   85.39   10.10
  -5 -17   1   79.49   16.90
  -5  17   1   42.80   16.50
  -4 -17   1  136.39   21.70
  -4 -17   1  123.79   12.90
   4 -17  -1  184.98   24.90
  -4 -17   1  179.48   18.70
   4 -17  -1  121.59   21.80
   4 -17  -1  183.48   26.40
  -4 -17   1  164.48   20.00
  -4  17   1  138.99   26.60
   4  17  -1  131.59   23.10
  -3 -17   1  811.22   37.50
  -3 -17   1  725.03   41.40
   3 -17  -1  754.32   40.20
   3 -17  -1  803.02   48.00
   3 -17  -1  787.22   43.50
   3 -17  -1  782.12   42.40
  -3 -17   1  795.02   40.20
  -3 -17   1  721.53   46.60
  -3 -17   1  834.92   41.90
   3  17  -1  777.62   50.89
  -3  17   1  783.62   50.39
  -2 -17   1  478.65   26.50
   2 -17  -1  466.55   29.70
  -2 -17   1  466.15   33.90
  -2 -17   1  465.55   29.70
   2 -17  -1  440.16   33.90
   2 -17  -1  470.15   28.90
  -2 -17   1  465.55   30.00
  -2 -17   1  464.55   30.10
   2 -17  -1  449.76   26.40
  -2  17   1  467.35   36.30
   2  17  -1  457.55   37.70
  -1 -17   1    8.50    8.60
   1 -17  -1   15.90    7.70
  -1 -17   1   -3.60   10.70
   1 -17  -1    0.70    6.80
  -1 -17   1    3.30    9.90
   1 -17  -1  -10.60    9.70
   1 -17  -1  -11.50   14.10
  -1 -17   1  -10.00   12.50
  -1 -17   1    2.90    7.10
   1 -17  -1    4.90    6.80
   1  17  -1   30.60   14.90
  -1  17   1    6.50   13.00
   0 -17  -1  511.25   29.10
   0 -17   1  527.45   33.10
   0 -17  -1  453.45   27.80
   0 -17   1  511.45   33.00
   0 -17   1  666.63   50.79
   0 -17  -1  537.25   35.60
   0 -17   1  536.25   30.50
   0 -17  -1  489.35   26.60
   0 -17   1  564.04   33.70
   0 -17  -1  452.65   30.80
   0  17  -1  475.15   37.30
   0  17   1  499.85   37.70
  -1 -17  -1  518.45   28.80
  -1 -17  -1  548.65   34.60
   1 -17   1  546.75   32.70
   1 -17   1  526.95   34.80
  -1 -17  -1  498.75   27.90
   1 -17   1  536.35   33.70
  -1 -17  -1  583.94   29.00
   1 -17   1  523.85   35.20
  -1  17  -1  434.36   38.70
   1  17   1  462.35   37.10
  -2 -17  -1   38.10    8.70
   2 -17   1   42.50   13.70
  -2 -17  -1   34.70   10.80
  -2 -17  -1   56.29    9.50
  -2 -17  -1   38.40   12.70
   2 -17   1   57.69   15.10
   2 -17   1   53.89   14.20
  -2 -17  -1   37.60    8.10
   2 -17   1   51.79   13.70
   2  17   1   56.89   16.80
  -2  17  -1   55.29   18.00
  -3 -17  -1  152.58   13.10
   3 -17   1  179.78   27.70
  -3 -17  -1  137.09   20.60
  -3 -17  -1  108.49   13.40
   3 -17   1  117.99   21.20
  -3 -17  -1  114.19   17.40
   3 -17   1  116.49   19.90
  -3 -17  -1  112.29   13.60
  -3  17  -1  134.99   25.70
   4 -17   1  306.77   36.10
  -4 -17  -1  366.06   21.50
  -4 -17  -1  348.37   28.50
   4 -17   1  312.17   38.80
  -4  17  -1  406.16   42.70
  -4  17  -1  363.46   35.40
  -5 -17  -1   11.30   15.60
   5 -17   1   51.49   19.30
   5 -17   1   13.30   20.90
  -5  17  -1    1.60   21.90
  -6 -17  -1  187.38   26.10
   6 -17   1  191.58   33.80
   6 -17   1  210.98   32.90
  -6  17  -1  175.68   30.10
   6 -18  -1   56.19   21.90
   6 -18  -1   72.99   20.60
  -6  18   1   96.59   23.30
  -5 -18   1   63.79    8.00
  -5 -18   1   14.30   17.50
  -5 -18   1   53.29   10.50
   5 -18  -1   55.49   18.60
   5 -18  -1   62.09   19.60
  -5  18   1   66.39   19.10
  -5  18   1  102.19   28.20
  -4 -18   1  111.99   17.40
   4 -18  -1  115.69   20.30
   4 -18  -1   97.19   17.00
  -4 -18   1  132.99   20.00
   4 -18  -1  108.59   18.30
  -4 -18   1  119.99   13.50
  -4 -18   1   91.79   14.90
  -4  18   1  108.19   26.40
   4  18  -1  110.29   24.10
  -3 -18   1  101.49   14.40
   3 -18  -1  140.89   22.30
  -3 -18   1  119.19   16.10
  -3 -18   1  101.99   16.30
   3 -18  -1   95.99   15.60
   3 -18  -1  121.49   16.00
  -3 -18   1  112.69   15.90
   3 -18  -1  119.69   17.60
  -3 -18   1   79.89   20.70
  -3  18   1  109.89   25.40
   3  18  -1  118.29   22.60
   2 -18  -1   12.90    9.00
   2 -18  -1    6.90   11.30
  -2 -18   1  -10.90   15.10
  -2 -18   1    6.30   11.90
   2 -18  -1  -11.40   13.00
  -2 -18   1   11.70   11.20
   2 -18  -1   -1.40    9.10
  -2 -18   1   -1.50    7.60
  -2  18   1  -11.10   14.60
  -1 -18   1   42.40   12.70
  -1 -18   1   40.60   15.00
  -1 -18   1   28.20    9.20
   1 -18  -1    3.80   11.80
   1 -18  -1   29.30    9.70
   1 -18  -1   33.20   11.40
  -1 -18   1   20.60   18.10
  -1  18   1   35.30   14.90
   1  18  -1   13.40   15.80
   0 -18   1   24.30   12.90
   0 -18  -1  -11.70    7.30
   0 -18  -1  -10.10   16.50
   0 -18   1   -3.90   11.30
   0 -18  -1  -12.70    9.30
   0 -18   1   15.20   10.30
   0 -18  -1   11.60    7.70
   0 -18  -1   14.30    8.80
   0  18   1    1.90   14.70
   0  18  -1   22.70   15.40
  -1 -18  -1   16.60    8.50
  -1 -18  -1   14.40    9.20
  -1 -18  -1   12.90   14.70
  -1 -18  -1   26.70   10.50
   1 -18   1   34.00   13.00
   1 -18   1   26.30   12.00
   1 -18   1    3.10   13.60
  -1  18  -1    2.20   23.60
   1  18   1   22.40   15.20
  -2 -18  -1  308.97   24.40
   2 -18   1  343.37   36.50
   2 -18   1  386.26   33.20
   2 -18   1  329.87   31.70
  -2 -18  -1  360.36   26.50
   2 -18   1  290.67   30.60
  -2 -18  -1  342.87   22.90
  -2 -18  -1  304.17   21.20
  -2 -18  -1  294.97   29.50
   2  18   1  374.16   34.50
  -2  18  -1  257.97   35.50
  -3 -18  -1  299.57   19.30
   3 -18   1  251.97   31.50
  -3 -18  -1  317.77   30.40
  -3 -18  -1  281.67   20.20
   3 -18   1  299.97   32.90
  -3 -18  -1  221.98   26.80
  -3 -18  -1  323.27   25.10
   3 -18   1  332.37   35.50
  -3 -18  -1  278.67   20.10
  -3  18  -1  301.97   39.60
   4 -18   1   18.60   19.00
  -4 -18  -1   45.50   11.40
   4 -18   1   31.50   18.60
  -4 -18  -1   40.80   15.00
  -4  18  -1   66.39   24.10
   5 -18   1  108.19   24.10
   5 -18   1   58.19   22.80
  -5  18  -1  108.79   30.90
  -5  18  -1  121.49   25.70
   5 -19  -1   53.29   19.30
   5 -19  -1   58.49   18.90
  -5 -19   1   41.40    8.40
  -5 -19   1   46.10   10.40
  -5  19   1   54.29   26.10
  -4 -19   1   89.39   18.70
   4 -19  -1   48.00   16.20
  -4 -19   1   62.09   10.40
   4 -19  -1   52.49   16.30
  -4 -19   1   57.59   14.30
  -4  19   1   36.50   24.10
   4  19  -1    2.60   20.10
  -3 -19   1  200.88   19.40
   3 -19  -1  190.28   27.20
  -3 -19   1  175.68   27.20
   3 -19  -1  198.58   23.60
  -3 -19   1  205.78   25.80
  -3 -19   1  192.88   27.30
  -3 -19   1  234.68   27.40
   3  19  -1  288.67   35.80
  -3  19   1  176.08   29.00
  -2 -19   1   74.69   13.90
   2 -19  -1   44.50   12.40
  -2 -19   1   56.09   11.00
   2 -19  -1   32.00   12.10
   2 -19  -1   30.40   16.20
  -2 -19   1   51.39   14.00
  -2 -19   1   14.20   18.50
   2 -19  -1   33.80   11.40
   2  19  -1   23.10   17.50
  -2  19   1   27.50   24.70
   1 -19  -1   -7.60   12.60
   1 -19  -1   -8.20    8.90
  -1 -19   1   14.10   10.20
  -1 -19   1   16.20   12.70
  -1 -19   1  -22.70   10.80
   1 -19  -1    1.60    9.70
  -1 -19   1   20.90   16.20
  -1  19   1   -2.80   17.10
   1  19  -1   17.60   18.10
   0 -19   1   50.79   15.10
   0 -19  -1   70.99   14.30
   0 -19  -1   60.89   13.10
   0 -19   1  104.19   17.90
   0 -19  -1   71.59   12.50
   0 -19   1   65.89   16.20
   0 -19  -1   61.89   12.40
   0 -19   1   30.70   13.10
   0  19  -1   68.79   19.70
   0  19   1   84.09   19.70
   1 -19   1  186.78   21.80
  -1 -19  -1  144.19   21.30
   1 -19   1  155.88   21.60
   1 -19   1  157.38   22.30
  -1 -19  -1  189.88   19.20
   1 -19   1  188.48   24.70
  -1 -19  -1  171.88   25.00
  -1 -19  -1  173.48   18.30
  -1  19  -1  210.58   32.50
   1  19   1  106.39   25.40
  -2 -19  -1   80.29   13.00
  -2 -19  -1   79.39   11.80
   2 -19   1   63.29   17.60
   2 -19   1   56.19   16.40
  -2 -19  -1   71.29   19.40
  -2 -19  -1   81.49   12.60
   2 -19   1   30.60   19.20
   2  19   1   85.59   22.10
  -2  19  -1   31.50   20.80
  -3 -19  -1  751.82   39.00
  -3 -19  -1  797.52   42.00
   3 -19   1  723.13   50.59
   3 -19   1  826.52   52.29
  -3 -19  -1  717.23   37.60
  -3 -19  -1  733.43   36.40
   3  19   1  759.22   55.09
  -3  19  -1  675.83   56.89
   4 -19   1  478.35   46.20
   4 -19   1  521.45   47.40
  -4 -19  -1  455.85   37.20
  -4  19  -1  448.76   52.49
  -4 -20   1  179.48   19.20
   4 -20  -1  194.38   30.60
  -4 -20   1  157.18   23.60
   4 -20  -1  138.59   23.30
  -4 -20   1  224.68   35.10
   4  20  -1  140.29   28.40
  -4  20   1  137.59   29.60
  -3 -20   1  -22.10   14.60
   3 -20  -1    3.90   13.80
  -3 -20   1   20.40   14.80
  -3 -20   1   30.90   11.20
   3 -20  -1  -22.10   12.70
   3  20  -1   -5.90   18.60
  -3  20   1  -14.20   21.10
  -2 -20   1  381.96   32.80
   2 -20  -1  331.67   30.10
  -2 -20   1  317.67   32.20
   2  20  -1  364.06   42.50
  -2  20   1  341.27   40.20
   1 -20  -1  402.26   29.80
   1 -20  -1  419.56   30.10
  -1 -20   1  404.16   33.50
  -1 -20   1  357.06   29.80
  -1 -20   1  401.06   34.80
  -1  20   1  416.76   40.90
   1  20  -1  420.06   42.20
   0 -20  -1   19.40   10.20
   0 -20  -1   25.50   13.00
   0 -20   1   27.00   15.30
   0 -20   1   11.90   13.90
   0 -20  -1   -2.90    9.00
   0  20   1   26.70   19.40
   0  20  -1   11.10   18.30
  -1 -20  -1   -7.00   12.80
  -1 -20  -1   -6.90    9.70
  -1 -20  -1    0.00   11.20
   1 -20   1  -11.60   29.40
   1 -20   1   13.40   16.00
   1  20   1    3.90   18.40
  -1  20  -1  -11.20   17.50
   2 -20   1   90.59   20.10
  -2 -20  -1   46.80   12.70
  -2 -20  -1   65.29   14.40
  -2 -20  -1   63.89   14.00
   2 -20   1   40.70   19.70
   2  20   1   45.70   21.80
  -2  20  -1   35.50   24.10
  -3 -20  -1  373.16   30.60
  -3 -20  -1  396.56   32.00
  -3 -20  -1  358.96   24.90
   3 -20   1  347.37   40.40
  -3 -20  -1  381.96   26.30
   3 -20   1  401.46   43.60
   3  20   1  431.96   45.80
  -3  20  -1  280.57   47.20
  -4 -20  -1    5.50   18.70
   4 -20   1   28.70   23.30
   4 -20   1   24.10   24.10
  -4  20  -1   22.20   29.60
  -3 -21   1   16.00   16.10
   3 -21  -1   -9.70   15.80
   3 -21  -1    4.00   16.70
  -3 -21   1   14.80   20.20
   3  21  -1   36.70   24.20
  -3  21   1   10.40   24.60
   2 -21  -1   34.30   15.80
  -2 -21   1   63.19   20.20
   2 -21  -1   59.39   16.40
  -2 -21   1   79.49   19.30
  -2  21   1   25.20   23.40
   2  21  -1   70.99   24.50
  -1 -21   1   39.30   18.30
   1 -21  -1   -2.00   13.50
  -1 -21   1   25.00   16.10
   1 -21  -1   13.80   13.20
  -1  21   1   31.90   22.60
   1  21  -1    5.10   23.00
   0 -21  -1   -5.00   12.60
   0 -21  -1   24.80   13.00
   0 -21   1   40.90   16.90
   0  21   1    2.40   22.60
   0  21  -1    3.90   21.40
  -1 -21  -1   56.89   14.90
   1 -21   1   89.89   21.70
   1 -21   1   79.99   21.50
  -1 -21  -1   54.09   14.50
  -1  21  -1   39.20   21.50
   1  21   1   67.79   24.00
  -2 -21  -1  208.18   25.90
  -2 -21  -1  210.48   30.70
   2 -21   1  209.98   29.20
   2 -21   1  213.88   28.20
  -2 -21  -1  204.68   25.80
  -2  21  -1  185.98   32.30
   2  21   1  150.78   30.60
   2 -22  -1  267.77   32.50
  -2 -22   1  239.28   37.70
   2  22  -1  248.88   37.20
  -2  22   1  382.36   47.80
   1 -22  -1  488.05   39.80
  -1 -22   1  550.54   45.90
   1 -22  -1  581.04   40.50
  -1  22   1  588.64   54.89
   1  22  -1  654.73   56.19
   0 -22  -1   63.09   16.90
   0 -22   1   86.49   22.80
   0 -22  -1   46.30   17.30
   0 -22   1   85.69   22.10
   0  22   1   63.09   27.20
   0  22  -1  100.99   27.60
   1 -22   1   -3.80   21.90
  -1 -22  -1   27.90   16.10
   1 -22   1  -12.10   21.20
  -1 -22  -1    7.80   15.00
   1  22   1   -5.00   25.30
  -1  22  -1   71.39   27.30
 -10   0   2  368.76   29.50
 -10   0   2  405.36   38.60
  -9   0   2  569.14   33.20
   9   0  -2  501.95   29.10
  -9   0   2  550.94   38.00
   9   0  -2  526.85   35.00
   9   0  -2  529.65   31.60
  -9   0   2  599.74   39.90
  -8   0   2  649.43   38.90
  -8   0   2  647.44   35.10
  -8   0   2  657.83   40.00
   8   0  -2  652.83   37.40
   8   0  -2  651.03   32.00
  -7   0   2  160.18   17.60
   7   0  -2  175.58   12.90
   7   0  -2  167.28   14.00
   7   0  -2  216.08   19.10
   7   0  -2  175.38   18.80
  -7   0   2  168.48   14.80
  -7   0   2  186.38   19.50
  -6   0   2 1658.03   73.89
   6   0  -2 1677.13   72.79
   6   0  -2 1628.54   68.89
   6   0  -2 1610.64   70.19
  -6   0   2 1643.74   71.49
   6   0  -2 1669.03   73.19
  -6   0   2 1600.54   73.09
   5   0  -2  754.82   36.90
   5   0  -2  732.73   33.30
   5   0  -2  791.32   36.30
  -5   0   2  719.93   36.00
  -5   0   2  672.93   34.70
  -5   0   2  777.02   37.30
  -4   0   2  203.78   14.90
   4   0  -2  215.38   14.80
   4   0  -2  240.68   14.80
  -4   0   2  207.98   13.70
  -3   0   2 1247.38   56.19
  -3   0   2 1332.47   57.39
   3   0  -2 1347.07   57.29
   3   0  -2 1351.16   56.59
   2   0  -2 5611.04  223.38
  -2   0   2 5557.44  221.08
  -2   0   2 5578.44  222.08
  -2   0   2 5321.97  224.38
  -2   0   2 5481.35  223.18
   2   0  -2 6002.30  224.28
  -1   0   2   44.30    3.40
   1   0  -2   43.10    5.20
   1   0  -2   40.60    3.30
  -1   0   2   47.00    5.10
   1   0  -2   40.30    5.40
  -1   0   2   44.40    5.20
   0   0  -2 1004.20   42.40
   0   0  -2  967.50   41.90
   0   0  -2  995.60   41.40
   0   0   2  979.60   42.10
   0   0   2  972.20   42.30
   0   0   2  976.70   41.20
   0   0   2  989.30   42.30
   1   0   2  872.91   37.50
   1   0   2  917.21   40.00
  -1   0  -2  921.11   39.10
   1   0   2  916.71   38.60
   1   0   2  903.91   39.10
  -1   0  -2  916.01   38.70
  -1   0  -2  803.02   38.90
   1   0   2  906.71   38.90
  -2   0  -2  279.47   15.00
   2   0   2  318.87   16.00
   2   0   2  289.87   14.30
   2   0   2  290.97   14.30
   2   0   2  288.17   16.00
  -2   0  -2  294.47   15.40
  -2   0  -2  289.57   15.30
  -2   0  -2  273.97   16.10
   2   0   2  257.67   16.60
  -3   0  -2  736.33   34.30
   3   0   2  778.62   33.10
  -3   0  -2  718.73   35.50
   3   0   2  732.13   33.90
   3   0   2  701.13   35.40
  -3   0  -2  699.43   33.30
  -3   0  -2  754.82   33.40
   3   0   2  740.63   32.50
   3   0   2  778.72   35.80
  -4   0  -2 1261.07   58.39
  -4   0  -2 1235.98   55.39
   4   0   2 1298.07   54.79
   4   0   2 1230.18   57.39
   4   0   2 1321.07   57.79
  -4   0  -2 1252.97   54.99
   4   0   2 1252.47   55.29
   4   0   2 1296.97   56.09
  -4   0  -2 1259.07   57.09
   4   0   2 1326.17   54.59
  -5   0  -2  347.37   23.90
   5   0   2  355.66   19.70
   5   0   2  339.97   22.30
   5   0   2  357.06   19.50
   5   0   2  333.97   20.40
   5   0   2  316.67   20.50
  -5   0  -2  314.27   20.20
  -5   0  -2  369.76   20.50
  -5   0  -2  327.77   22.90
   5   0   2  346.77   23.80
   6   0   2   56.29   10.50
   6   0   2   72.79   10.40
  -6   0  -2   43.80   11.80
   6   0   2   60.99    9.20
   6   0   2   69.79   10.80
   6   0   2   69.99   11.00
  -6   0  -2   53.79   10.50
  -6   0  -2   64.29   12.80
   7   0   2 1045.70   53.09
   7   0   2 1087.39   52.99
  -7   0  -2 1117.69   56.99
  -7   0  -2 1092.09   58.99
  -8   0  -2  958.10   55.89
   8   0   2  841.02   46.70
  -8   0  -2  848.82   52.69
  -9   0  -2   18.00   22.10
   9   0   2   23.70   15.00
  -9   0  -2   26.60   20.60
 -10  -1   2   62.69   22.20
  10  -1  -2   99.19   14.60
 -10  -1   2   85.69   16.00
 -10   1   2   63.49   16.10
 -10   1   2  108.39   23.00
 -10   1   2   99.69   21.20
  -9  -1   2    1.60    8.50
   9  -1  -2  -15.70   15.10
   9  -1  -2  -10.00    8.20
  -9  -1   2    9.10   13.70
  -9  -1   2    5.90   14.10
  -9   1   2   -0.60   14.20
  -9   1   2   17.70    9.70
  -9   1   2   -7.80   12.10
   9   1  -2   12.00    9.50
   9   1  -2  -12.90    6.90
   9   1  -2  -17.20    8.60
  -8  -1   2  268.87   24.30
  -8  -1   2  238.38   24.50
   8  -1  -2  229.08   17.60
   8  -1  -2  233.98   25.20
  -8  -1   2  246.18   19.50
   8  -1  -2  245.38   19.20
   8   1  -2  245.38   16.20
   8   1  -2  246.08   18.30
  -8   1   2  220.08   24.10
  -8   1   2  285.87   26.00
  -8   1   2  219.98   19.90
   8   1  -2  280.47   21.00
  -7  -1   2  112.69   13.20
   7  -1  -2  102.19   11.90
   7  -1  -2  108.29   11.00
  -7  -1   2  117.29   16.60
  -7  -1   2  115.29   17.10
   7  -1  -2  117.59   17.80
   7  -1  -2  122.79   18.10
   7   1  -2  106.09   10.30
   7   1  -2  141.29   17.60
  -7   1   2  108.79   17.20
   7   1  -2  132.99   15.30
   7   1  -2  102.89   11.20
  -7   1   2  102.59   13.70
  -7   1   2  108.29   16.50
   6  -1  -2    6.40    6.90
  -6  -1   2    7.80    7.40
   6  -1  -2    1.60    4.40
   6  -1  -2    4.10    3.90
  -6  -1   2    7.70    6.50
   6  -1  -2   -5.30    6.90
  -6  -1   2   -4.30    4.20
  -6   1   2   -0.20    4.90
   6   1  -2    6.60    3.20
   6   1  -2   -1.30    6.80
  -6   1   2    4.90    6.50
  -6   1   2    2.90    6.30
   6   1  -2    7.40    6.20
  -5  -1   2  151.08   11.90
   5  -1  -2  165.68   13.40
   5  -1  -2  166.48   14.50
   5  -1  -2  143.09   10.60
  -5  -1   2  145.29   14.00
  -5   1   2  149.79   12.00
   5   1  -2  135.29   13.10
   5   1  -2  164.08   13.10
   5   1  -2  141.49    9.70
  -5   1   2  142.79   12.70
  -5   1   2  135.69   13.80
  -4  -1   2  687.63   32.60
   4  -1  -2  693.93   33.40
   4  -1  -2  743.63   34.60
  -4  -1   2  690.13   34.10
   4   1  -2  743.13   33.30
   4   1  -2  753.82   33.70
  -4   1   2  679.13   32.70
  -4   1   2  612.14   33.60
  -3  -1   2 1512.65   64.29
   3  -1  -2 1652.63   65.79
   3  -1  -2 1565.84   64.59
  -3  -1   2 1423.96   63.89
  -3  -1   2 1464.85   64.89
   3   1  -2 1638.94   64.49
   3   1  -2 1571.04   64.79
  -3   1   2 1437.16   64.89
  -3   1   2 1395.26   63.79
  -2  -1   2  162.38   10.70
  -2  -1   2  147.89    9.30
   2  -1  -2  157.38    8.20
  -2  -1   2  160.28   10.10
   2  -1  -2  176.48   11.10
   2  -1  -2  159.08   10.10
   2   1  -2  164.88   10.10
  -2   1   2  155.68    9.90
  -2   1   2  158.48    8.00
   2   1  -2  168.08   10.60
  -1  -1   2  176.88    8.90
   1  -1  -2  169.48   10.60
   1  -1  -2  174.68   10.20
   1  -1  -2  169.48    9.50
  -1  -1   2  181.58   10.50
   1   1  -2  167.98   10.10
  -1   1   2  177.18    7.50
  -1   1   2  164.48    9.20
   1   1  -2  166.78    8.80
  -1   1   2  158.78    9.60
  -1   1   2  171.78   10.30
   0  -1   2    9.90    3.00
   0  -1  -2    2.80    1.70
   0  -1  -2    3.40    2.30
   0  -1  -2    4.10    2.20
   0  -1   2    3.20    2.10
   0  -1  -2    6.50    2.70
   0  -1   2    0.30    1.80
   0   1   2    4.70    2.00
   0   1   2    3.90    1.50
   0   1  -2    3.60    2.30
   0   1   2    3.20    2.40
   0   1  -2    4.80    2.40
   0   1  -2    4.70    2.30
   0   1   2    1.40    2.10
   1  -1   2 1673.83   65.69
   1  -1   2 1467.45   65.49
  -1  -1  -2 1701.33   65.19
  -1  -1  -2 1474.65   65.29
   1  -1   2 1448.06   66.29
   1  -1   2 1532.45   64.49
  -1  -1  -2 1671.73   65.59
   1   1   2 1576.64   66.29
   1   1   2 1570.14   63.59
  -1   1  -2 1536.75   65.29
   1   1   2 1600.84   64.99
  -1   1  -2 1636.64   65.79
   1   1   2 1561.44   64.69
  -1   1  -2 1557.34   65.79
  -2  -1  -2  651.93   29.90
  -2  -1  -2  659.93   29.60
   2  -1   2  700.53   29.80
   2  -1   2  665.93   30.80
   2  -1   2  636.04   30.90
   2  -1   2  639.34   29.50
  -2  -1  -2  671.83   29.70
   2  -1   2  653.33   30.70
  -2  -1  -2  653.03   30.90
   2   1   2  679.43   29.50
   2   1   2  704.23   30.00
  -2   1  -2  682.03   30.30
  -2   1  -2  621.74   31.10
  -2   1  -2  641.54   30.10
   2   1   2  652.43   31.70
   2   1   2  669.13   30.30
   2   1   2  689.83   28.50
   2   1   2  656.13   28.60
  -2   1  -2  679.63   30.70
   3  -1   2    6.70    4.50
   3  -1   2    3.90    3.40
   3  -1   2    4.70    3.90
   3  -1   2    8.60    3.20
  -3  -1  -2    1.30    3.20
  -3  -1  -2   10.30    3.00
   3  -1   2    6.10    5.00
   3  -1   2    4.80    3.80
  -3  -1  -2    7.00    4.00
  -3  -1  -2    9.40    5.10
  -3   1  -2    8.60    3.40
   3   1   2    2.50    4.20
   3   1   2    5.50    2.50
  -3   1  -2    3.90    3.70
   3   1   2    5.40    2.80
   3   1   2    5.90    3.40
   3   1   2    7.10    3.30
  -3   1  -2    6.60    4.20
  -3   1  -2    7.40    4.60
   4  -1   2  117.29   13.10
  -4  -1  -2  130.09   12.60
   4  -1   2  122.69   12.40
   4  -1   2  148.39   14.10
  -4  -1  -2  159.28   14.50
   4  -1   2  136.89   10.80
  -4  -1  -2  143.39   10.80
   4  -1   2  128.39   11.30
  -4  -1  -2  148.79   10.90
  -4   1  -2  140.09   11.60
   4   1   2  135.49   11.40
   4   1   2  129.09   13.20
  -4   1  -2  153.38   13.70
   4   1   2  130.89   13.10
  -4   1  -2  141.29   14.20
   4   1   2  143.29    9.50
   4   1   2  144.89    9.80
  -4   1  -2  124.59   11.30
  -5  -1  -2  104.79   11.00
   5  -1   2  104.39   15.60
  -5  -1  -2  131.89   16.30
  -5  -1  -2  138.79   11.80
   5  -1   2  115.99   13.60
  -5  -1  -2   97.29   14.30
   5  -1   2  129.39   14.40
   5  -1   2  138.59   13.20
   5  -1   2  109.99   12.60
  -5   1  -2  124.99   12.90
   5   1   2  105.39   11.80
   5   1   2  106.79    8.50
   5   1   2  117.59   14.90
  -5   1  -2  101.69   12.20
   5   1   2  109.09   13.40
   5   1   2  129.89   11.50
  -5   1  -2  117.79   15.10
   5   1   2   90.99   10.40
  -5   1  -2  101.89   14.80
  -6  -1  -2  149.79   19.70
  -6  -1  -2  158.88   16.30
   6  -1   2  146.79   16.60
   6  -1   2  168.28   16.30
  -6  -1  -2  152.38   18.40
   6  -1   2  140.79   17.10
   6  -1   2  137.89   17.30
  -6   1  -2  142.09   18.90
   6   1   2  155.98   17.30
   6   1   2  154.18   15.70
   6   1   2  128.39   15.60
  -6   1  -2  153.28   19.70
  -7  -1  -2   93.69   16.90
  -7  -1  -2  105.69   16.80
   7  -1   2   82.79   11.50
   7  -1   2   73.09   13.10
  -7  -1  -2   90.79   17.40
   7  -1   2   74.49   13.30
   7  -1   2   77.89   12.30
  -7   1  -2   88.89   15.60
   7   1   2   67.19   12.20
  -7   1  -2   82.69   17.10
   7   1   2   88.69   13.20
  -8  -1  -2  178.58   23.50
   8  -1   2  173.68   23.30
  -8  -1  -2  158.28   25.40
   8   1   2  135.39   21.20
  -8   1  -2  183.58   24.30
  -8   1  -2  135.19   23.00
  -9  -1  -2  245.38   38.30
   9  -1   2  175.38   21.60
  -9  -1  -2  178.98   32.50
  -9   1  -2  261.17   38.60
  -9   1  -2  174.08   29.50
   9   1   2  173.18   20.50
 -10  -2   2   64.19   12.90
 -10  -2   2   65.29   21.70
  10  -2  -2   32.30   12.90
 -10  -2   2   22.90   17.40
 -10   2   2   47.20   19.90
 -10   2   2   27.50   13.50
 -10   2   2   19.80   17.80
   9  -2  -2  178.88   18.90
   9  -2  -2  168.28   20.30
  -9  -2   2  183.88   26.60
  -9  -2   2  177.78   19.10
   9  -2  -2  215.18   32.30
  -9  -2   2  180.28   27.20
  -9   2   2  171.58   22.50
  -9   2   2  209.08   21.80
   9   2  -2  218.68   19.60
  -9   2   2  205.58   27.90
  -8  -2   2  288.87   26.40
   8  -2  -2  306.77   20.80
   8  -2  -2  313.47   22.40
  -8  -2   2  309.57   26.40
   8  -2  -2  344.07   30.30
  -8  -2   2  329.87   21.60
  -8   2   2  285.87   26.10
   8   2  -2  313.07   19.90
  -8   2   2  307.67   22.70
  -8   2   2  300.07   27.10
   8   2  -2  321.77   18.70
   8   2  -2  315.27   17.00
   7  -2  -2   32.50   10.80
  -7  -2   2    9.50   12.20
  -7  -2   2    9.10    9.10
   7  -2  -2   26.40    6.60
   7  -2  -2   21.40    9.60
  -7  -2   2   20.30    8.40
   7  -2  -2   26.90    6.30
  -7  -2   2   31.30    7.60
  -7   2   2   24.30    9.50
   7   2  -2   22.50    6.00
   7   2  -2   36.60    9.10
  -7   2   2   18.30    8.60
   7   2  -2   22.20    4.70
   7   2  -2   15.20    7.20
  -7   2   2   24.20    7.40
   6  -2  -2  685.23   38.20
  -6  -2   2  681.73   34.10
   6  -2  -2  726.93   34.60
   6  -2  -2  699.33   33.10
  -6  -2   2  705.33   36.80
  -6  -2   2  736.43   39.50
  -6  -2   2  695.93   36.80
   6  -2  -2  659.03   36.70
  -6   2   2  682.93   37.30
  -6   2   2  705.13   35.00
   6   2  -2  692.63   30.90
  -6   2   2  709.93   36.50
   6   2  -2  740.33   34.40
   6   2  -2  700.83   32.70
   6   2  -2  708.73   35.30
  -5  -2   2  327.57   21.70
  -5  -2   2  329.47   20.80
   5  -2  -2  312.77   21.70
   5  -2  -2  321.27   20.20
   5  -2  -2  315.67   17.80
  -5  -2   2  328.77   18.70
   5   2  -2  339.97   19.50
   5   2  -2  322.87   16.00
   5   2  -2  338.47   18.90
  -5   2   2  306.47   20.60
  -5   2   2  326.07   19.80
  -5   2   2  311.77   18.80
  -4  -2   2  154.68   13.10
  -4  -2   2  167.58   12.90
  -4  -2   2  173.68   12.00
   4  -2  -2  176.58   12.90
  -4  -2   2  179.48    7.80
   4  -2  -2  163.48    7.60
   4  -2  -2  152.08   13.60
  -4   2   2  161.68   11.60
  -4   2   2  180.18   13.60
   4   2  -2  176.38   11.90
   4   2  -2  161.98   11.70
  -4   2   2  172.98   11.90
   3  -2  -2 2704.63  106.39
  -3  -2   2 2680.33  106.19
   3  -2  -2 2772.62  107.39
  -3  -2   2 2500.75  105.39
  -3  -2   2 2178.88  108.29
   3  -2  -2 2593.34  102.39
   3   2  -2 2643.74  105.39
  -3   2   2 2504.35  105.29
  -3   2   2 2399.16  106.19
   3   2  -2 2735.63  105.69
   2  -2  -2 1001.30   43.00
  -2  -2   2 1009.80   41.80
  -2  -2   2 1033.30   43.10
   2  -2  -2  971.60   42.20
   2  -2  -2 1002.70   40.30
  -2  -2   2  902.41   43.80
   2   2  -2  848.22   41.50
  -2   2   2  989.60   39.90
  -2   2   2  997.60   41.90
   2   2  -2 1052.09   42.40
   2   2  -2  884.71   41.40
  -2   2   2  942.11   42.50
   1  -2  -2  365.46   17.30
  -1  -2   2  356.56   17.10
  -1  -2   2  370.96   18.60
   1  -2  -2  345.27   18.10
   1  -2  -2  358.36   17.60
  -1   2   2  383.06   17.60
   1   2  -2  320.37   16.90
  -1   2   2  385.36   17.90
   1   2  -2  356.86   18.00
   1   2  -2  376.76   18.00
  -1   2   2  391.26   17.20
   0  -2  -2  409.16   17.10
   0  -2  -2  405.36   19.90
   0  -2   2  373.06   19.70
   0  -2  -2  418.36   19.40
   0  -2  -2  394.66   19.00
   0  -2  -2  426.66   18.00
   0  -2   2  432.46   19.70
   0   2  -2  411.26   19.70
   0   2   2  418.26   18.70
   0   2  -2  407.26   19.70
   0   2  -2  367.66   20.80
   0   2   2  422.86   17.80
  -1  -2  -2 3438.86  133.79
   1  -2   2 3148.28  134.89
  -1  -2  -2 3409.56  133.99
   1  -2   2 3425.06  133.99
   1  -2   2 3463.65  134.89
  -1  -2  -2 3216.98  133.59
  -1  -2  -2 3594.54  135.99
   1  -2   2 2999.10  134.89
   1   2   2 3188.58  135.09
   1   2   2 3357.46  132.59
  -1   2  -2 3248.77  134.39
   1   2   2 3480.55  133.49
   1   2   2 3211.28  131.79
  -1   2  -2 3354.76  134.49
   1   2   2 3350.06  133.39
  -1   2  -2 3377.36  135.19
   2  -2   2 2107.99   83.49
  -2  -2  -2 2047.80   82.39
  -2  -2  -2 2092.19   85.49
  -2  -2  -2 2025.20   82.49
  -2  -2  -2 1972.60   83.89
  -2  -2  -2 2109.59   83.09
   2  -2   2 2129.69   83.49
   2  -2   2 1878.91   84.19
   2  -2   2 2141.29   84.79
   2  -2   2 1913.51   84.39
  -2   2  -2 1879.91   83.99
   2   2   2 2115.69   83.59
   2   2   2 2031.70   80.49
   2   2   2 1859.11   84.49
  -2   2  -2 1888.21   83.49
   2   2   2 2098.09   82.59
  -2   2  -2 2034.60   83.49
  -2   2  -2 2027.50   84.99
   2   2   2 2026.10   80.79
   2   2   2 2025.20   81.29
  -3  -2  -2  204.28   12.20
   3  -2   2  226.18   15.00
   3  -2   2  210.98   12.80
  -3  -2  -2  181.28   14.00
   3  -2   2  192.68   13.00
   3  -2   2  207.38   14.60
   3  -2   2  222.18   14.50
  -3  -2  -2  198.78   14.60
  -3  -2  -2  199.98   11.70
  -3   2  -2  181.98   12.90
  -3   2  -2  199.38   14.80
  -3   2  -2  215.58   14.40
   3   2   2  208.38   12.10
   3   2   2  217.58   10.90
   3   2   2  199.28   14.30
  -3   2  -2  188.18   14.30
   3   2   2  215.98   14.10
   4  -2   2  339.47   21.10
  -4  -2  -2  321.07   18.40
   4  -2   2  335.47   22.10
   4  -2   2  383.26   22.10
   4  -2   2  353.96   20.40
   4  -2   2  343.17   21.90
  -4  -2  -2  356.46   18.90
  -4  -2  -2  378.76   20.70
   4  -2   2  352.96   19.60
  -4  -2  -2  377.86   23.10
  -4   2  -2  368.06   22.10
  -4   2  -2  351.46   20.40
   4   2   2  366.26   21.80
  -4   2  -2  347.47   22.50
   4   2   2  334.37   21.30
   4   2   2  362.46   18.90
   4   2   2  389.06   17.90
  -4   2  -2  359.36   20.10
   5  -2   2  108.29   12.70
   5  -2   2   85.89   12.80
  -5  -2  -2   84.89   12.80
  -5  -2  -2   93.69   12.80
   5  -2   2   98.59   13.30
  -5  -2  -2   82.09   10.60
   5  -2   2   82.19   13.10
   5  -2   2  109.99   13.50
   5  -2   2   72.79   10.90
  -5  -2  -2   89.29   10.10
   5   2   2   63.59    9.90
  -5   2  -2  106.39   14.90
   5   2   2   81.79    9.50
  -5   2  -2   90.29   11.80
  -5   2  -2   96.79   14.60
  -5   2  -2   92.39   13.30
   5   2   2  114.69   11.10
  -6  -2  -2    7.60    8.70
  -6  -2  -2   23.60    8.50
   6  -2   2   -0.40    8.70
   6  -2   2    7.70    8.40
   6  -2   2   19.70    8.80
  -6  -2  -2    8.00   11.40
   6   2   2   21.20    7.20
   6   2   2   25.70    8.40
  -6   2  -2   16.20   10.10
  -6   2  -2   25.40   11.10
  -6   2  -2   16.80   10.10
   6   2   2   11.20    7.30
   7  -2   2  390.46   28.30
   7  -2   2  383.16   28.70
   7  -2   2  361.36   27.40
  -7  -2  -2  407.36   30.70
  -7  -2  -2  377.46   29.10
  -7  -2  -2  402.96   33.40
   7  -2   2  387.16   30.00
   7   2   2  382.36   26.50
  -7   2  -2  400.76   32.80
  -7   2  -2  412.56   31.90
   7   2   2  396.56   29.30
  -8  -2  -2  372.16   38.80
   8  -2   2  391.86   29.20
   8  -2   2  434.16   31.90
  -8  -2  -2  389.86   34.80
  -8   2  -2  428.86   38.30
  -8   2  -2  448.46   37.60
   8   2   2  378.56   28.70
   9  -2   2  -20.60   16.00
  -9  -2  -2   10.30   21.80
  -9   2  -2  -38.30   19.70
  -9   2  -2  -14.00   20.80
  10  -3  -2  113.49   17.30
 -10  -3   2  109.29   20.60
 -10  -3   2  132.99   25.70
 -10   3   2   73.89   23.20
 -10   3   2   70.29   16.10
 -10   3   2   82.29   21.70
  -9  -3   2   29.70   15.50
   9  -3  -2   84.89   22.00
   9  -3  -2   18.60    9.90
   9  -3  -2   31.70   11.40
  -9  -3   2   34.00   15.70
  -9  -3   2   39.50   10.10
  -9   3   2   48.10   15.10
  -9   3   2   51.59   14.70
  -9   3   2   34.60   11.20
   9   3  -2   32.80    9.80
   8  -3  -2  205.08   18.00
   8  -3  -2  201.08   19.30
  -8  -3   2  209.18   23.20
  -8  -3   2  194.68   23.00
  -8  -3   2  241.38   18.20
   8  -3  -2  201.58   27.90
  -8   3   2  222.08   20.20
   8   3  -2  217.58   15.80
  -8   3   2  222.98   23.80
  -8   3   2  202.98   23.50
  -7  -3   2  888.91   46.60
   7  -3  -2  925.21   44.30
  -7  -3   2  878.31   46.60
   7  -3  -2  857.11   47.40
   7  -3  -2  895.61   42.50
  -7  -3   2  991.20   52.29
   7  -3  -2  904.11   48.80
  -7  -3   2  929.11   43.50
  -7   3   2  905.21   47.80
   7   3  -2  955.60   41.50
   7   3  -2  932.51   41.10
  -7   3   2  911.41   44.70
   7   3  -2  884.51   39.20
  -7   3   2  844.52   46.20
   7   3  -2  954.10   44.80
  -6  -3   2   12.70    7.80
  -6  -3   2   15.70    7.70
   6  -3  -2   18.80    6.30
   6  -3  -2   27.20    8.50
  -6  -3   2   20.10    5.60
   6  -3  -2    7.50    8.50
  -6  -3   2   -1.40    7.90
   6  -3  -2   15.50    5.50
   6   3  -2   27.20    5.50
   6   3  -2   21.50    7.10
   6   3  -2   18.60    3.60
   6   3  -2   18.60    4.70
  -6   3   2   18.40    6.10
  -6   3   2   11.80    8.00
  -6   3   2   18.90    7.10
  -5  -3   2 1638.64   61.99
   5  -3  -2 1600.24   69.59
  -5  -3   2 1592.74   69.49
  -5  -3   2 1490.55   67.39
   5  -3  -2 1606.64   68.19
  -5  -3   2 1455.05   65.59
   5  -3  -2 1413.76   64.99
  -5   3   2 1485.95   68.09
  -5   3   2 1348.07   65.99
   5   3  -2 1563.64   65.89
   5   3  -2 1574.44   64.59
   5   3  -2 1487.55   62.29
  -5   3   2 1586.54   66.69
   4  -3  -2 2976.00  125.89
   4  -3  -2 3248.77  125.29
   4  -3  -2 2790.22  122.79
  -4  -3   2 3291.17  125.99
  -4  -3   2 2896.21  124.49
  -4  -3   2 2921.11  123.49
  -4  -3   2 3111.29  119.99
  -4   3   2 2867.11  123.49
   4   3  -2 2893.01  120.69
   4   3  -2 3066.19  125.19
   4   3  -2 3148.78  122.59
  -4   3   2 2965.50  123.19
  -4   3   2 3001.50  125.19
   3  -3  -2  711.83   33.00
   3  -3  -2  685.73   28.60
  -3  -3   2  683.83   32.10
  -3  -3   2  660.33   31.00
   3  -3  -2  625.64   31.40
  -3   3   2  646.24   29.80
   3   3  -2  689.73   30.40
  -3   3   2  629.94   31.90
  -3   3   2  659.03   30.90
   3   3  -2  736.33   31.00
   2  -3  -2  562.74   25.10
  -2  -3   2  560.34   26.80
   2  -3  -2  608.14   27.80
   2  -3  -2  584.64   27.00
  -2  -3   2  578.24   27.00
  -2  -3   2  567.74   27.20
   2   3  -2  581.84   26.30
  -2   3   2  584.84   27.20
  -2   3   2  605.74   26.50
   2   3  -2  522.45   27.00
   2   3  -2  577.84   26.40
   1  -3  -2 1332.27   55.99
  -1  -3   2 1292.17   57.09
   1  -3  -2 1281.67   56.09
   1  -3  -2 1405.76   56.89
  -1  -3   2 1313.67   56.29
  -1  -3   2 1253.37   56.69
   1   3  -2 1416.86   56.59
  -1   3   2 1405.06   55.79
   1   3  -2 1365.06   56.29
  -1   3   2 1378.36   56.09
  -1   3   2 1303.37   55.59
   1   3  -2 1361.86   56.49
   0  -3   2   77.79    7.00
   0  -3   2   75.79    6.70
   0  -3  -2   77.09    6.90
   0  -3  -2   73.49    4.60
   0  -3  -2   79.09    6.10
   0  -3  -2   72.69    5.70
   0  -3  -2   76.99    4.70
   0  -3   2   65.29    7.10
   0   3  -2   70.69    6.40
   0   3   2   73.19    5.00
   0   3   2   74.09    5.40
   0   3  -2   73.29    7.10
   0   3   2   73.49    6.60
   0   3   2   73.69    4.30
   0   3  -2   63.39    6.10
   1  -3   2  793.82   35.60
   1  -3   2  763.22   36.70
   1  -3   2  817.52   37.00
  -1  -3  -2  799.62   34.80
   1  -3   2  878.41   36.70
  -1  -3  -2  828.42   35.00
  -1  -3  -2  793.62   36.90
  -1  -3  -2  797.32   34.70
  -1  -3  -2  851.51   35.10
  -1   3  -2  770.72   35.70
  -1   3  -2  826.32   35.80
  -1   3  -2  803.02   36.80
   1   3   2  827.22   34.00
   1   3   2  827.72   36.60
   1   3   2  796.52   34.40
   2  -3   2 3146.59  135.39
  -2  -3  -2 3452.35  132.79
  -2  -3  -2 3265.37  134.49
   2  -3   2 3270.77  135.79
  -2  -3  -2 3276.07  132.29
  -2  -3  -2 3333.97  136.09
   2  -3   2 3570.34  134.49
  -2  -3  -2 3424.06  133.29
   2  -3   2 3183.98  134.09
   2  -3   2 3502.45  135.49
   2   3   2 3489.35  132.09
  -2   3  -2 3264.87  134.39
  -2   3  -2 3059.09  134.79
   2   3   2 3433.86  133.89
   2   3   2 3073.99  134.89
  -2   3  -2 3357.26  134.19
  -2   3  -2 3186.18  135.49
   2   3   2 3219.58  130.99
  -3  -3  -2 2615.84  115.39
   3  -3   2 2871.21  115.19
  -3  -3  -2 2742.23  112.29
  -3  -3  -2 2698.03  111.59
   3  -3   2 2961.60  114.19
  -3  -3  -2 2861.11  112.29
   3  -3   2 2813.72  113.39
   3  -3   2 2776.82  115.69
   3  -3   2 2688.23  115.09
  -3  -3  -2 2773.42  114.89
   3   3   2 2737.03  113.99
  -3   3  -2 2768.82  113.39
  -3   3  -2 2533.15  114.59
  -3   3  -2 2738.33  113.99
   3   3   2 2891.11  111.29
  -3   3  -2 2749.82  115.89
   3   3   2 2720.23  114.69
  -4  -3  -2  799.62   39.70
  -4  -3  -2  749.42   35.00
   4  -3   2  803.02   36.90
  -4  -3  -2  771.82   36.50
   4  -3   2  795.92   39.00
   4  -3   2  774.72   39.20
   4  -3   2  790.62   38.30
  -4  -3  -2  799.02   35.10
   4  -3   2  769.92   38.70
  -4   3  -2  845.82   37.40
  -4   3  -2  776.82   39.10
  -4   3  -2  832.82   38.00
  -4   3  -2  775.72   40.00
   4   3   2  777.82   34.40
   4   3   2  768.72   38.00
   4   3   2  745.63   33.40
   5  -3   2    0.70    6.80
  -5  -3  -2    5.60    4.80
   5  -3   2   -3.60    6.50
   5  -3   2    2.40    6.80
  -5  -3  -2    3.20    4.10
   5  -3   2    8.90    6.70
  -5  -3  -2   -0.60    7.60
   5  -3   2   17.40    9.30
   5  -3   2   18.10    7.20
  -5   3  -2    8.10    7.00
  -5   3  -2   18.50    8.00
  -5   3  -2   13.40    7.60
  -5   3  -2    1.00    6.50
   5   3   2   -0.40    5.90
   5   3   2    6.80    4.50
   5   3   2    0.50    4.20
   6  -3   2  322.57   25.50
  -6  -3  -2  366.66   22.50
   6  -3   2  351.56   26.10
   6  -3   2  348.17   26.00
  -6  -3  -2  369.86   28.90
  -6  -3  -2  341.57   24.70
   6  -3   2  346.07   25.50
   6   3   2  368.86   19.80
  -6   3  -2  417.06   28.20
  -6   3  -2  380.16   28.70
   6   3   2  356.76   24.00
  -6   3  -2  330.77   26.10
   7  -3   2   99.29   16.70
  -7  -3  -2   73.39   18.80
  -7  -3  -2  102.19   15.10
   7  -3   2   82.29   14.40
   7  -3   2   89.49   14.90
   7  -3   2   75.09   18.10
  -7  -3  -2   89.19   15.60
   7   3   2   75.39   12.80
  -7   3  -2   91.59   20.30
  -7   3  -2  103.79   18.10
   7   3   2   78.39   10.10
  -8  -3  -2  196.48   27.60
   8  -3   2  239.18   26.00
  -8  -3  -2  214.88   28.30
   8  -3   2  236.08   27.80
  -8   3  -2  175.48   25.60
   8   3   2  196.08   22.20
  -8   3  -2  197.18   39.50
  -9  -3  -2  456.25   44.50
   9  -3   2  412.36   37.30
  -9  -3  -2  536.15   51.29
  -9   3  -2  496.65   50.29
  -9   3  -2  387.06   46.70
 -10  -4   2   23.60   11.60
 -10  -4   2   27.80   17.60
 -10  -4   2   14.90   16.90
  10  -4  -2   17.10   14.00
 -10   4   2   -5.50   13.00
 -10   4   2   15.30   19.10
 -10   4   2   38.50   20.10
  -9  -4   2  -10.60   13.70
  -9  -4   2    3.90    7.50
   9  -4  -2  -24.40   15.80
  -9  -4   2   -3.50   14.40
   9  -4  -2  -14.10   20.90
   9  -4  -2    6.90    9.70
  -9   4   2  -24.70   18.20
  -9   4   2  -16.20   13.80
   9   4  -2   12.00    8.00
  -9   4   2    8.60   11.10
   8  -4  -2   -6.60    8.80
   8  -4  -2   -4.70   15.30
  -8  -4   2   -9.40    5.80
  -8  -4   2   -6.40   10.30
   8  -4  -2   -7.40    6.80
  -8  -4   2    2.30    9.80
  -8   4   2  -13.50   10.10
  -8   4   2    7.70   10.40
  -8   4   2   -3.40    6.60
   8   4  -2    5.00    5.90
   7  -4  -2   30.10   11.00
  -7  -4   2   35.20   10.30
   7  -4  -2   40.40    9.10
   7  -4  -2   40.20    8.00
   7  -4  -2   17.00   12.50
  -7  -4   2   37.40    9.80
  -7  -4   2   37.70    7.50
  -7  -4   2   49.10   14.80
   7   4  -2   43.50    6.40
  -7   4   2   39.40   10.90
  -7   4   2   32.70   10.20
  -7   4   2   31.40    8.20
   7   4  -2   39.20    9.50
  -6  -4   2   40.50    9.60
  -6  -4   2   27.00   10.50
   6  -4  -2   56.89   10.70
   6  -4  -2   22.20    6.00
   6  -4  -2   48.80   12.50
   6  -4  -2   38.10    8.70
  -6  -4   2   30.30    4.60
  -6  -4   2   30.10    6.40
   6   4  -2   35.80    7.40
  -6   4   2   30.70    8.20
   6   4  -2   32.30    5.20
  -6   4   2   31.70    7.40
  -6   4   2   31.80    8.80
   5  -4  -2   77.39    9.30
   5  -4  -2   54.09   10.70
   5  -4  -2   59.79    9.10
  -5  -4   2   57.69   10.40
  -5  -4   2   85.39    9.30
  -5  -4   2   52.49    9.10
  -5  -4   2   74.09    6.20
   5   4  -2   71.59    6.50
  -5   4   2   71.89    9.50
   5   4  -2   76.39    9.10
  -5   4   2   71.79   11.50
   5   4  -2   70.19    4.90
  -5   4   2   80.19   10.00
  -4  -4   2   43.00    7.00
  -4  -4   2   44.40    7.50
  -4  -4   2   38.20    9.50
   4  -4  -2   45.70    7.60
   4  -4  -2   38.80    9.60
   4  -4  -2   28.10    5.50
   4   4  -2   37.40    6.60
  -4   4   2   41.70    6.40
  -4   4   2   29.30    6.50
   4   4  -2   41.50    5.60
   4   4  -2   49.70    4.40
  -4   4   2   54.59    7.80
  -3  -4   2  179.38   11.90
  -3  -4   2  181.38   12.80
   3  -4  -2  179.68   12.20
   3  -4  -2  178.58   13.80
  -3  -4   2  148.79   14.30
   3   4  -2  192.38   11.50
  -3   4   2  185.68   10.80
   3   4  -2  176.98   12.90
  -3   4   2  172.78   11.80
  -3   4   2  188.48   12.70
   3   4  -2  196.68   10.50
  -2  -4   2    1.50    2.80
   2  -4  -2    1.50    2.20
  -2  -4   2    0.70    2.70
   2  -4  -2   -1.90    3.10
  -2  -4   2    3.30    2.70
   2  -4  -2   -0.80    2.50
   2   4  -2    0.00    2.00
   2   4  -2    0.40    2.80
  -2   4   2    0.90    1.30
  -2   4   2    0.10    2.70
   2   4  -2    3.40    2.40
  -2   4   2    1.60    2.10
  -1  -4   2  324.07   18.00
   1  -4  -2  337.17   17.30
   1  -4  -2  356.66   17.90
   1  -4  -2  364.56   17.50
  -1  -4   2  356.16   18.20
  -1   4   2  334.27   14.30
   1   4  -2  362.76   17.10
  -1   4   2  374.06   17.00
   1   4  -2  318.27   17.90
   1   4  -2  330.67   17.40
  -1   4   2  339.37   15.90
  -1   4   2  329.87   16.50
   0  -4  -2  137.59    6.90
   0  -4  -2  153.48    8.70
   0  -4  -2  155.78   10.00
   0  -4   2  144.39   10.00
   0  -4  -2  158.98    8.10
   0  -4  -2  139.89    8.70
   0  -4   2  136.09   10.20
   0   4  -2  135.49    9.20
   0   4   2  137.99    6.70
   0   4  -2  138.99    9.20
   0   4  -2  133.99   10.10
   0   4   2  139.29    7.10
   0   4   2  141.19    7.90
   0   4   2  145.19    7.80
   0   4   2  146.09    9.50
   1  -4   2   78.89    8.00
  -1  -4  -2   87.99    6.20
   1  -4   2   93.39    7.70
  -1  -4  -2   92.59    8.90
   1  -4   2   79.29    8.50
  -1  -4  -2   90.09    6.20
  -1  -4  -2   81.79    6.90
   1  -4   2   87.19    8.20
  -1  -4  -2   88.49    6.20
  -1   4  -2   82.09    8.60
   1   4   2   80.49    5.90
  -1   4  -2   83.29    7.30
   1   4   2   86.49    4.80
  -1   4  -2   79.89    7.20
   1   4   2   77.19    8.10
  -2  -4  -2  133.99    8.60
   2  -4   2  138.49   10.40
   2  -4   2  166.08   12.00
   2  -4   2  150.88   10.90
  -2  -4  -2  143.09   10.70
   2  -4   2  133.39   11.90
  -2  -4  -2  148.09   12.40
  -2  -4  -2  154.28   10.50
  -2  -4  -2  147.89    8.20
  -2  -4  -2  151.98    9.30
   2  -4   2  159.08   12.20
  -2   4  -2  154.08   10.70
  -2   4  -2  151.18   10.90
  -2   4  -2  149.69   12.10
   2   4   2  151.08   11.80
  -3  -4  -2  127.79    8.90
   3  -4   2  100.09   11.60
  -3  -4  -2  122.49   11.80
   3  -4   2  113.89   11.50
  -3  -4  -2  113.39    7.80
   3  -4   2  106.09   12.20
   3  -4   2  122.49   12.50
  -3  -4  -2  115.09    8.40
   3  -4   2  112.19   10.10
  -3  -4  -2  108.09   11.20
  -3   4  -2  122.19   10.70
  -3   4  -2  125.69   10.50
   3   4   2   99.69   10.80
  -3   4  -2  104.59   12.20
  -3   4  -2  108.99   11.40
   4  -4   2   42.10    8.20
  -4  -4  -2   29.50    6.30
  -4  -4  -2   29.30    5.00
  -4  -4  -2   37.60    8.30
   4  -4   2   13.80    6.50
   4  -4   2   22.00    7.20
  -4  -4  -2   31.30    5.00
   4  -4   2   35.60    6.80
   4  -4   2   34.90    8.10
   4   4   2   30.10    7.20
  -4   4  -2   34.90    6.90
  -4   4  -2   25.50    7.70
  -4   4  -2   35.60    7.50
  -4   4  -2   32.40    7.80
  -5  -4  -2    2.40    8.20
   5  -4   2   15.90    7.80
   5  -4   2   10.90    8.00
  -5  -4  -2   10.10    6.50
  -5  -4  -2    7.40    4.30
   5  -4   2   14.80    8.30
   5  -4   2   16.80    8.90
   5  -4   2   22.50    7.80
  -5  -4  -2   10.90    5.30
  -5   4  -2   20.50    8.20
  -5   4  -2   11.30    7.30
  -5   4  -2   11.40    8.00
  -5   4  -2    3.00    7.90
   5   4   2   15.20    6.80
   6  -4   2  158.28   19.40
  -6  -4  -2  169.18   15.00
  -6  -4  -2  152.28   17.40
   6  -4   2  141.49   20.30
   6  -4   2  122.99   19.40
  -6  -4  -2  116.69   17.60
   6  -4   2  143.49   19.00
  -6  -4  -2  149.09   21.10
   6   4   2  126.99   16.10
  -6   4  -2  158.58   20.00
  -6   4  -2  192.28   21.90
   7  -4   2   -3.60   10.50
   7  -4   2    9.40   14.60
   7  -4   2   26.30   12.40
  -7  -4  -2   11.10   14.20
  -7  -4  -2   -0.10   10.90
   7  -4   2   21.50   12.50
  -7  -4  -2    6.90    9.90
  -7   4  -2    1.10   11.80
   7   4   2   -1.20    8.40
  -8  -4  -2   20.40   18.80
  -8  -4  -2   53.89   16.10
   8  -4   2   36.80   16.60
   8  -4   2   35.40   14.20
  -8   4  -2   47.90   19.60
  -8   4  -2   54.89   17.10
 -10  -5   2   27.90   18.90
 -10  -5   2   54.69   12.30
 -10  -5   2   16.40   20.70
 -10   5   2   12.40   19.40
 -10   5   2   47.20   20.00
 -10   5   2   48.10   15.60
  -9  -5   2   10.00    7.80
  -9  -5   2   -1.60   14.60
  -9  -5   2    1.20   13.50
   9  -5  -2  -13.80   24.00
   9  -5  -2   -8.50    9.80
  -9   5   2   -4.10   14.00
   9   5  -2    7.90    8.10
  -9   5   2   -6.80   10.10
  -9   5   2  -27.60   13.70
   8  -5  -2  230.48   23.10
   8  -5  -2  277.97   34.20
  -8  -5   2  284.77   26.00
  -8  -5   2  219.98   25.00
   8  -5  -2  230.18   19.40
  -8  -5   2  226.38   18.40
   8   5  -2  216.38   18.10
  -8   5   2  238.68   25.50
  -8   5   2  257.47   21.50
  -8   5   2  203.68   24.10
   7  -5  -2 1285.77   57.89
   7  -5  -2 1271.67   63.69
  -7  -5   2 1210.58   59.59
  -7  -5   2 1145.89   54.39
  -7  -5   2 1205.88   64.09
  -7  -5   2 1259.07   58.69
   7  -5  -2 1241.48   55.79
   7  -5  -2 1132.29   60.39
  -7   5   2 1201.18   58.49
   7   5  -2 1186.28   53.79
  -7   5   2 1219.48   59.59
   7   5  -2 1229.48   51.59
  -7   5   2 1199.48   57.09
  -6  -5   2  117.09   14.50
  -6  -5   2  154.88   19.70
   6  -5  -2  113.99   15.30
   6  -5  -2  128.79   17.20
  -6  -5   2  110.69   11.10
   6  -5  -2  111.49   12.10
   6  -5  -2  129.09   14.00
  -6  -5   2   95.69    9.70
   6   5  -2  106.49    8.60
  -6   5   2  123.69   12.90
   6   5  -2   99.29   11.10
  -6   5   2  122.49   15.30
  -6   5   2  109.29   13.90
   5  -5  -2 1060.69   49.80
  -5  -5   2 1091.79   49.80
   5  -5  -2  897.61   44.60
   5  -5  -2  994.20   47.70
   5  -5  -2 1000.50   45.70
  -5  -5   2  851.91   44.00
  -5  -5   2  998.10   46.70
  -5  -5   2  985.20   42.30
  -5   5   2  996.10   47.40
  -5   5   2  980.50   45.50
  -5   5   2 1010.10   45.80
   5   5  -2 1020.00   43.70
   4  -5  -2 2587.74  103.39
   4  -5  -2 2614.34  102.19
  -4  -5   2 2311.17   99.19
  -4  -5   2 2402.66  102.49
  -4  -5   2 2317.37  100.29
   4  -5  -2 2273.97   99.39
  -4   5   2 2405.26   98.99
   4   5  -2 2366.46   95.49
  -4   5   2 2213.28   99.49
   4   5  -2 2564.24   98.39
   4   5  -2 2368.16   95.29
  -4   5   2 2336.27  101.19
  -3  -5   2  863.11   39.90
  -3  -5   2  933.51   42.10
   3  -5  -2  856.41   41.70
   3  -5  -2  888.91   41.20
   3   5  -2  886.21   38.90
  -3   5   2  948.21   38.60
   3   5  -2  915.41   42.00
   3   5  -2  883.11   37.30
  -3   5   2  859.11   40.80
  -2  -5   2  242.48   15.00
   2  -5  -2  225.18   13.90
   2  -5  -2  257.47   15.00
  -2  -5   2  224.58   13.90
   2  -5  -2  232.08   13.00
   2   5  -2  240.98   14.90
  -2   5   2  227.98   11.00
  -2   5   2  223.78   12.70
  -2   5   2  243.88   13.80
   2   5  -2  247.68   13.00
   2   5  -2  221.38   11.80
  -1  -5   2  983.10   43.90
  -1  -5   2  967.90   44.30
   1  -5  -2  960.50   42.90
   1  -5  -2  999.90   43.30
   1  -5  -2  993.90   43.50
  -1  -5   2  962.80   43.80
  -1  -5   2 1024.60   44.20
   1   5  -2 1056.79   42.40
  -1   5   2 1027.60   42.20
   1   5  -2  968.20   42.80
   1   5  -2  994.50   44.50
   0  -5   2  281.77   16.20
   0  -5  -2  270.07   13.90
   0  -5  -2  298.47   14.10
   0  -5   2  276.17   15.70
   0  -5  -2  281.57   14.00
   0  -5  -2  283.47   15.70
   0  -5   2  254.27   15.90
   0  -5  -2  281.57   11.80
   0   5  -2  277.87   16.10
   0   5  -2  298.57   16.30
   0   5   2  254.17   14.70
   0   5  -2  265.97   14.70
   0   5   2  277.57   11.80
   0   5   2  278.97   12.80
   0   5  -2  264.37   14.20
   0   5   2  266.77   13.90
  -1  -5  -2   -1.70    3.60
  -1  -5  -2   -2.40    1.80
   1  -5   2   -4.30    3.10
   1  -5   2   -3.10    3.00
   1  -5   2    1.90    3.90
  -1  -5  -2   -1.40    2.60
   1  -5   2    0.10    3.80
  -1  -5  -2   -3.20    1.60
  -1  -5  -2    0.40    2.10
  -1   5  -2   -1.40    2.60
   1   5   2   -1.90    0.70
   1   5   2   -3.40    2.80
  -1   5  -2    1.80    3.00
  -1   5  -2   -3.50    3.50
  -2  -5  -2 1789.32   73.09
  -2  -5  -2 1854.81   72.39
  -2  -5  -2 1914.91   77.79
  -2  -5  -2 1820.42   75.19
   2  -5   2 1813.32   78.29
  -2  -5  -2 1774.92   72.99
   2  -5   2 1910.41   76.09
   2  -5   2 1737.63   77.49
   2  -5   2 1803.42   83.69
   2  -5   2 1901.91   76.39
  -2  -5  -2 1801.42   76.09
  -2   5  -2 1766.12   75.69
  -2   5  -2 1732.33   76.69
   2   5   2 1787.82   76.39
  -2   5  -2 1665.53   77.09
  -2   5  -2 1698.63   75.79
  -3  -5  -2 2367.36   92.79
   3  -5   2 2282.67   95.29
  -3  -5  -2 2132.69   92.09
  -3  -5  -2 2177.08   91.89
   3  -5   2 2207.48   95.79
   3  -5   2 2232.38   98.29
   3  -5   2 2202.38   97.49
   3  -5   2 2479.85   97.19
  -3  -5  -2 2388.06   97.89
  -3  -5  -2 2275.67   95.89
  -3   5  -2 2364.76   96.29
  -3   5  -2 2330.27   97.89
  -3   5  -2 2217.38   96.99
  -3   5  -2 2317.57   95.19
   3   5   2 2223.58   95.69
   4  -5   2    8.00    7.10
  -4  -5  -2    1.60    6.90
   4  -5   2   -1.10    6.80
  -4  -5  -2    1.70    7.40
   4  -5   2   18.70    6.00
  -4  -5  -2   11.00    3.90
   4  -5   2    2.70    6.50
   4  -5   2   -5.50    5.90
  -4  -5  -2    2.00    3.70
  -4  -5  -2    4.10    6.30
  -4   5  -2    3.70    5.70
  -4   5  -2    3.60    6.70
  -4   5  -2   -3.80    5.50
  -4   5  -2   10.10    6.10
   4   5   2    3.30    5.20
  -5  -5  -2  675.33   37.00
   5  -5   2  814.92   42.70
   5  -5   2  857.71   40.60
   5  -5   2  812.72   41.50
   5  -5   2  740.33   41.20
  -5  -5  -2  773.72   43.20
  -5  -5  -2  764.22   35.50
  -5  -5  -2  824.62   42.30
  -5   5  -2  809.02   42.20
  -5   5  -2  868.61   41.40
  -5   5  -2  748.63   43.00
   5   5   2  747.13   38.70
  -5   5  -2  828.92   41.10
  -6  -5  -2  597.24   44.30
   6  -5   2  738.73   41.70
   6  -5   2  692.73   39.60
  -6  -5  -2  660.13   36.40
  -6  -5  -2  721.23   42.40
   6  -5   2  823.12   42.50
  -6  -5  -2  756.02   34.20
   6  -5   2  678.33   40.10
  -6   5  -2  662.33   41.80
  -6   5  -2  662.13   40.60
   6   5   2  648.34   36.10
   7  -5   2  177.18   25.10
   7  -5   2  177.08   24.70
  -7  -5  -2  159.08   22.90
  -7  -5  -2  151.58   20.40
   7  -5   2  142.99   23.30
   7  -5   2  194.28   24.30
  -7  -5  -2  142.29   16.40
  -7   5  -2  171.88   25.60
  -7   5  -2  142.29   23.30
   8  -5   2   13.80   18.70
  -8  -5  -2   38.30   15.90
  -8  -5  -2   44.90   20.00
   8  -5   2   31.70   15.50
  -8   5  -2   31.80   21.80
  -8   5  -2   39.60   17.90
 -10  -6   2   22.50   10.20
 -10  -6   2    4.90   19.10
 -10  -6   2   -6.10   19.20
  10  -6  -2  -30.90   15.10
 -10   6   2  -11.20   15.40
 -10   6   2  -18.00   17.50
 -10   6   2    2.40   18.90
  -9  -6   2  284.07   21.70
  -9  -6   2  315.27   30.90
  -9  -6   2  271.17   32.20
   9  -6  -2  221.28   25.00
   9  -6  -2  309.97   29.10
  -9   6   2  295.77   31.90
  -9   6   2  312.37   28.20
  -9   6   2  251.67   31.30
   8  -6  -2   48.70   20.90
  -8  -6   2   78.19   15.60
   8  -6  -2   76.39   13.50
   8  -6  -2   79.99    9.20
   8  -6  -2  101.89   15.70
  -8  -6   2   95.09   16.10
  -8  -6   2   78.09   11.10
   8   6  -2  106.29    9.60
   8   6  -2  108.19   12.30
  -8   6   2   85.29   16.90
  -8   6   2   97.19   15.40
  -8   6   2   88.79   14.60
   7  -6  -2   13.20    6.90
  -7  -6   2   16.60    6.50
  -7  -6   2   22.10    9.60
  -7  -6   2   18.30    6.30
  -7  -6   2   18.40    9.60
   7  -6  -2   -2.10   12.10
   7  -6  -2   30.00    9.20
   7  -6  -2   32.90   15.30
  -7   6   2   21.30   11.30
   7   6  -2   20.60    6.90
  -7   6   2   19.00    7.70
  -7   6   2   33.30   10.50
  -6  -6   2  555.14   31.00
   6  -6  -2  512.55   28.90
   6  -6  -2  584.74   33.40
   6  -6  -2  552.04   30.70
  -6  -6   2  599.94   36.50
   6  -6  -2  577.74   36.10
  -6  -6   2  552.34   26.80
  -6  -6   2  545.75   28.20
   6   6  -2  561.64   24.70
  -6   6   2  496.45   31.10
  -6   6   2  540.05   30.40
   6   6  -2  549.54   26.20
  -6   6   2  509.55   29.60
  -5  -6   2  444.06   21.80
   5  -6  -2  444.76   24.70
   5  -6  -2  446.76   24.40
  -5  -6   2  435.06   25.70
   5  -6  -2  443.66   29.10
  -5  -6   2  428.56   23.60
  -5  -6   2  444.56   29.10
   5  -6  -2  443.66   27.30
  -5   6   2  451.45   26.10
  -5   6   2  446.76   24.20
  -5   6   2  440.56   24.50
   5   6  -2  436.76   21.50
   4  -6  -2  229.18   16.70
   4  -6  -2  187.78   13.70
   4  -6  -2  222.38   18.10
  -4  -6   2  177.48   13.30
  -4  -6   2  213.08   15.80
  -4  -6   2  221.08   17.40
   4   6  -2  223.98   12.30
  -4   6   2  218.08   13.60
  -4   6   2  201.48   14.00
  -4   6   2  206.08   15.40
  -3  -6   2  611.44   36.10
  -3  -6   2  719.93   32.90
   3  -6  -2  744.23   34.40
   3   6  -2  672.13   34.50
  -3   6   2  693.73   33.30
  -3   6   2  691.23   31.00
   3   6  -2  727.13   29.00
   3   6  -2  704.13   30.90
  -2  -6   2  437.26   22.60
  -2  -6   2  377.26   20.80
  -2  -6   2  363.76   20.50
   2  -6  -2  412.86   21.20
   2  -6  -2  420.46   22.10
   2   6  -2  408.76   18.10
  -2   6   2  436.26   19.90
  -2   6   2  403.16   17.50
  -2   6   2  397.96   20.10
   2   6  -2  389.66   19.20
   2   6  -2  336.97   21.30
   1  -6  -2  172.28   10.90
  -1  -6   2  137.79   11.10
  -1  -6   2  138.59   10.60
   1  -6  -2  165.28   10.80
   1  -6  -2  151.68   10.00
  -1  -6   2  131.59   10.60
  -1  -6   2  135.59   11.30
  -1   6   2  138.89    9.20
   1   6  -2  145.09    9.40
   1   6  -2  140.59   11.30
   1   6  -2  142.59    8.60
  -1   6   2  126.79    9.30
   0  -6  -2 1695.73   68.29
   0  -6   2 1599.24   70.69
   0  -6   2 1758.92   70.59
   0  -6  -2 1683.33   68.79
   0  -6  -2 1671.93   70.29
   0  -6  -2 1733.53   68.49
   0  -6   2 1633.84   70.69
   0  -6  -2 1657.73   65.59
   0   6   2 1718.43   68.99
   0   6  -2 1574.64   70.39
   0   6  -2 1668.63   68.49
   0   6  -2 1629.04   69.09
   0   6   2 1638.04   66.59
   0   6  -2 1460.95   70.59
  -1  -6  -2 2038.20   84.49
   1  -6   2 2096.49   84.09
  -1  -6  -2 1995.60   80.29
   1  -6   2 2000.00   83.09
   1  -6   2 2073.59   85.39
  -1  -6  -2 1996.70   80.79
   1  -6   2 1824.92   84.29
  -1  -6  -2 1994.10   80.59
  -1  -6  -2 2043.80   82.79
  -1   6  -2 1964.70   84.29
  -1   6  -2 1926.91   82.19
   1   6   2 1937.01   82.79
  -1   6  -2 1952.80   82.89
   2  -6   2   72.69    8.60
   2  -6   2   81.69    9.10
  -2  -6  -2   83.39    9.50
  -2  -6  -2   89.49    8.60
  -2  -6  -2   97.39   11.20
   2  -6   2   77.99    9.90
   2  -6   2   84.19   10.80
  -2  -6  -2   83.89    5.80
   2  -6   2   76.89   11.50
   2   6   2   76.79    8.80
  -2   6  -2   83.99    9.00
  -2   6  -2   82.09   10.40
  -2   6  -2   86.49    9.50
   3  -6   2   64.09    9.40
   3  -6   2   52.39    8.30
   3  -6   2   63.19    9.50
   3  -6   2   56.79   10.50
  -3  -6  -2   54.09    9.00
  -3  -6  -2   59.39    6.20
  -3  -6  -2   51.59    7.80
   3  -6   2   59.49   10.00
  -3  -6  -2   63.79   10.00
  -3  -6  -2   68.49    5.30
  -3  -6  -2   54.99    5.20
   3   6   2   38.60    6.90
  -3   6  -2   54.99    8.70
  -3   6  -2   44.00    8.50
  -3   6  -2   40.90    7.60
  -3   6  -2   52.29    8.10
   4  -6   2   31.90    7.90
  -4  -6  -2   26.50    5.00
   4  -6   2   32.20    9.20
   4  -6   2   31.90    7.60
  -4  -6  -2   36.70    9.50
  -4  -6  -2   32.20    9.30
   4  -6   2   36.50    9.50
   4  -6   2   40.50    9.00
  -4  -6  -2   33.80    5.00
  -4  -6  -2   39.10    9.10
  -4  -6  -2   33.30    4.50
   4   6   2   33.10    7.10
  -4   6  -2   26.70    7.80
  -4   6  -2   25.80    7.60
  -4   6  -2   18.50    8.10
  -4   6  -2   43.40    8.80
   5  -6   2  170.28   20.40
   5  -6   2  191.48   22.00
  -5  -6  -2  196.28   12.80
   5  -6   2  211.48   20.90
  -5  -6  -2  167.08   14.90
  -5  -6  -2  232.08   22.60
  -5  -6  -2  170.48   19.20
  -5  -6  -2  245.68   22.20
   5  -6   2  204.98   19.40
   5  -6   2  215.48   21.60
  -5   6  -2  216.48   20.00
  -5   6  -2  224.58   20.50
   5   6   2  194.78   16.20
  -5   6  -2  207.58   19.10
  -5   6  -2  185.88   20.90
  -6  -6  -2   62.89    9.00
   6  -6   2   58.69   14.00
  -6  -6  -2   66.29   15.70
  -6  -6  -2   68.19   21.20
  -6  -6  -2   51.69    9.90
   6  -6   2   55.99   15.40
   6  -6   2   71.19   15.40
  -6   6  -2   39.00   13.20
  -6   6  -2   46.50   12.50
  -7  -6  -2  509.45   30.50
   7  -6   2  505.15   36.70
   7  -6   2  460.05   36.30
   7  -6   2  523.35   43.40
  -7  -6  -2  495.95   31.60
  -7  -6  -2  455.45   38.50
   7  -6   2  501.85   40.60
  -7   6  -2  571.64   38.40
  -7   6  -2  465.05   38.70
  -8  -6  -2  239.38   37.60
  -8  -6  -2  294.47   29.30
   8  -6   2  275.17   31.90
   8  -6   2  252.27   36.30
  -8   6  -2  301.77   36.80
  -8   6  -2  225.48   32.40
  10  -7  -2  187.58   30.00
 -10  -7   2  185.88   27.60
 -10  -7   2  196.88   29.70
 -10   7   2  167.28   29.20
 -10   7   2  200.28   28.60
 -10   7   2  211.48   27.40
   9  -7  -2    6.00   14.60
  -9  -7   2   -1.00   14.10
  -9  -7   2  -15.30   14.60
  -9  -7   2   24.70    8.90
   9  -7  -2    5.60   12.10
  -9   7   2    5.90   14.90
  -9   7   2   10.30   11.80
  -9   7   2   -6.10   15.00
  -8  -7   2  153.68   15.60
  -8  -7   2  132.29   21.20
   8  -7  -2  156.58   18.60
   8  -7  -2  218.58   23.80
  -8  -7   2  201.88   24.00
  -8   7   2  153.58   22.20
  -8   7   2  135.99   19.20
  -8   7   2  150.88   19.70
   7  -7  -2   55.49   10.20
   7  -7  -2   87.49   21.90
  -7  -7   2   53.19    9.10
  -7  -7   2   48.80   12.70
  -7  -7   2   50.59    8.20
   7  -7  -2   59.09   11.70
   7  -7  -2   19.60   12.90
  -7  -7   2   57.99   11.90
  -7   7   2   60.59   10.80
  -7   7   2   55.19   12.70
  -7   7   2   46.30   11.50
  -6  -7   2    0.50    5.00
   6  -7  -2   11.70   11.80
   6  -7  -2   -3.60    5.40
   6  -7  -2   -8.70    6.50
  -6  -7   2    7.90    7.60
  -6  -7   2   -1.30    4.70
   6  -7  -2  -17.70    8.60
   6   7  -2    1.20    3.60
   6   7  -2    4.60    3.40
  -6   7   2   -4.70    7.70
  -6   7   2    0.90    6.90
  -6   7   2    1.70    5.70
  -5  -7   2   35.50    8.20
   5  -7  -2   47.90    9.90
   5  -7  -2   56.09   11.10
  -5  -7   2   43.80    7.00
   5  -7  -2   41.50    7.40
  -5  -7   2   29.00   10.00
   5  -7  -2   41.60    8.00
  -5   7   2   46.50    8.10
   5   7  -2   42.90    5.20
  -5   7   2   32.50    8.60
  -5   7   2   42.90    7.90
   4  -7  -2  530.15   27.80
   4  -7  -2  485.55   28.70
  -4  -7   2  472.45   24.60
  -4  -7   2  504.15   28.60
   4  -7  -2  443.16   24.80
  -4  -7   2  464.25   25.80
   4   7  -2  496.25   22.00
  -4   7   2  476.35   26.20
  -4   7   2  474.05   24.20
  -4   7   2  459.95   25.00
   4   7  -2  470.75   28.20
  -3  -7   2  487.15   24.00
   3  -7  -2  478.65   27.00
   3  -7  -2  426.66   24.70
  -3  -7   2  449.95   24.10
  -3  -7   2  519.95   27.00
  -3   7   2  462.55   24.20
  -3   7   2  466.75   21.90
   3   7  -2  472.25   19.30
   3   7  -2  454.75   21.40
   3   7  -2  432.66   26.10
  -3   7   2  446.76   23.60
  -2  -7   2  121.39   10.50
   2  -7  -2  114.99   10.40
  -2  -7   2  115.39   10.30
  -2  -7   2  119.79   12.10
   2   7  -2  115.19   11.70
  -2   7   2  118.29    6.90
  -2   7   2  125.49    8.80
  -2   7   2  123.09    9.60
   2   7  -2  117.79    8.40
   2   7  -2  117.59    7.00
   1  -7  -2  506.35   24.00
  -1  -7   2  455.35   24.60
  -1  -7   2  487.15   24.90
  -1  -7   2  512.25   25.30
   1  -7  -2  497.05   24.60
   1  -7  -2  503.25   24.50
   1   7  -2  497.15   23.10
   1   7  -2  480.65   26.10
  -1   7   2  472.45   21.90
   1   7  -2  480.75   22.00
  -1   7   2  452.45   23.50
   0  -7   2  859.31   40.20
   0  -7  -2  885.91   37.70
   0  -7  -2  905.21   38.60
   0  -7  -2  876.81   37.40
   0  -7  -2  846.02   39.60
   0  -7   2  903.11   38.90
   0  -7   2  830.32   39.40
   0  -7  -2  855.91   34.50
   0   7  -2  819.82   40.70
   0   7  -2  870.21   37.40
   0   7  -2  822.02   38.10
   0   7   2  842.62   38.40
   0   7   2  829.72   35.50
  -1  -7  -2  100.69    6.90
  -1  -7  -2   98.89    9.70
   1  -7   2   96.49   10.90
  -1  -7  -2  102.69    7.00
  -1  -7  -2   99.99    6.80
   1  -7   2  104.49    9.80
  -1  -7  -2   81.09   12.10
   1  -7   2  102.09   10.60
   1  -7   2  102.09   10.90
   1   7   2  108.69    9.70
  -1   7  -2   94.79   10.80
  -1   7  -2   99.39    9.00
  -1   7  -2   99.99    8.60
   2  -7   2  460.95   24.30
  -2  -7  -2  417.96   24.60
   2  -7   2  392.06   24.70
   2  -7   2  434.46   23.60
   2  -7   2  388.26   25.20
   2  -7   2  425.16   22.80
  -2  -7  -2  421.46   19.20
  -2  -7  -2  452.75   23.60
  -2  -7  -2  447.66   21.90
  -2  -7  -2  423.26   18.50
  -2   7  -2  445.66   22.50
  -2   7  -2  402.66   24.50
  -2   7  -2  441.26   23.30
  -3  -7  -2    2.70    2.90
   3  -7   2    4.30    6.20
   3  -7   2    2.40    6.00
  -3  -7  -2    2.60    5.40
   3  -7   2    7.10    5.80
   3  -7   2   21.20    8.10
  -3  -7  -2    4.80    2.20
  -3  -7  -2    5.30    2.00
   3  -7   2   -1.60    6.30
  -3  -7  -2    7.30    6.30
  -3  -7  -2   -6.90    6.00
  -3   7  -2   -1.50    6.50
  -3   7  -2   -0.90    4.20
  -3   7  -2    6.70    5.30
  -3   7  -2    3.20    5.40
   4  -7   2  294.77   22.00
  -4  -7  -2  309.57   23.50
  -4  -7  -2  266.07   15.10
  -4  -7  -2  291.47   14.00
   4  -7   2  295.77   23.00
   4  -7   2  296.37   20.00
   4  -7   2  291.17   24.40
   4  -7   2  354.96   22.60
  -4  -7  -2  295.67   15.10
  -4  -7  -2  268.77   20.60
  -4  -7  -2  292.47   22.60
  -4   7  -2  272.47   22.40
  -4   7  -2  223.48   22.30
  -4   7  -2  312.87   20.90
  -4   7  -2  278.27   21.40
   5  -7   2   94.09   16.00
   5  -7   2   78.59   14.00
  -5  -7  -2   82.29    8.40
  -5  -7  -2  117.69   16.60
  -5  -7  -2   88.59   14.10
   5  -7   2   97.19   15.00
  -5  -7  -2   78.89   10.60
  -5  -7  -2   66.59   14.80
   5  -7   2   79.09   13.90
   5  -7   2   84.59   13.10
  -5   7  -2   86.69   13.70
  -5   7  -2   72.19   14.60
  -5   7  -2   80.49   13.00
  -5   7  -2   80.09   13.20
   6  -7   2  385.06   31.70
  -6  -7  -2  440.26   22.30
   6  -7   2  430.06   34.00
  -6  -7  -2  398.76   31.40
   6  -7   2  439.56   34.50
  -6  -7  -2  355.36   24.10
  -6   7  -2  405.26   31.50
  -6   7  -2  361.16   32.20
  -7  -7  -2  393.16   26.50
   7  -7   2  382.36   35.10
   7  -7   2  362.46   32.70
  -7  -7  -2  397.06   27.90
  -7  -7  -2  374.26   37.00
   7  -7   2  381.46   42.30
   7  -7   2  388.16   38.10
  -7   7  -2  392.46   34.10
  -7   7  -2  421.26   38.10
   8  -7   2   41.50   18.30
   8  -7   2  -10.80   22.60
  -8  -7  -2   36.50   15.50
  -8  -7  -2   47.60   22.00
  -8   7  -2   24.30   22.70
  -8   7  -2   10.60   18.70
  10  -8  -2   48.10   18.60
 -10  -8   2   47.80   26.00
 -10  -8   2   73.19   13.60
 -10  -8   2   57.79   23.00
 -10   8   2   57.39   24.60
 -10   8   2   43.80   20.70
 -10   8   2   61.99   21.50
   9  -8  -2  442.66   38.00
  -9  -8   2  482.95   37.80
  -9  -8   2  494.15   28.10
   9  -8  -2  458.65   34.00
  -9  -8   2  416.16   41.90
  -9   8   2  506.15   40.80
  -9   8   2  447.66   37.00
  -9   8   2  443.96   38.20
  -8  -8   2  231.48   26.80
  -8  -8   2  163.58   23.90
   8  -8  -2  255.67   25.60
   8  -8  -2  235.78   21.70
  -8  -8   2  216.28   17.80
  -8   8   2  200.18   23.40
  -8   8   2  266.27   27.40
  -7  -8   2   82.29   14.10
  -7  -8   2  113.39   12.70
  -7  -8   2  105.19   15.50
   7  -8  -2   90.89   12.80
   7  -8  -2  140.09   17.70
   7  -8  -2  185.98   27.70
  -7   8   2  111.79   15.40
  -7   8   2  128.09   16.60
  -7   8   2  118.89   17.80
  -6  -8   2 1271.47   67.29
   6  -8  -2 1512.85   69.59
   6  -8  -2 1375.86   66.59
   6  -8  -2 1268.47   62.99
  -6  -8   2 1364.56   62.79
   6  -8  -2 1308.77   61.49
  -6  -8   2 1486.15   60.49
  -6  -8   2 1400.56   59.99
  -6   8   2 1322.87   62.49
  -6   8   2 1310.97   62.49
  -6   8   2 1328.77   64.19
   5  -8  -2 1081.29   54.29
  -5  -8   2 1118.09   47.40
  -5  -8   2 1056.69   47.80
   5  -8  -2  976.90   48.40
  -5  -8   2 1072.79   49.80
  -5  -8   2  998.70   52.89
   5  -8  -2 1001.50   49.60
   5  -8  -2 1171.18   53.09
  -5   8   2 1040.00   48.90
   5   8  -2 1070.39   43.00
  -5   8   2 1064.59   49.30
  -5   8   2 1028.70   50.59
  -4  -8   2   18.80    6.80
   4  -8  -2    0.40    6.20
  -4  -8   2   14.20    5.10
   4  -8  -2   16.30    5.40
   4  -8  -2   27.40    8.90
   4  -8  -2   20.30    5.90
  -4  -8   2   13.80    8.90
  -4   8   2   19.30    5.20
   4   8  -2   22.30    3.40
  -4   8   2   14.90    5.50
   4   8  -2   21.10    7.90
  -4   8   2   11.10    6.20
   3  -8  -2 1280.97   56.89
  -3  -8   2 1204.28   54.69
   3  -8  -2 1265.17   57.79
  -3  -8   2 1288.37   58.19
  -3  -8   2 1243.08   54.59
   3   8  -2 1243.78   57.99
   3   8  -2 1256.87   51.59
  -3   8   2 1172.58   52.29
  -3   8   2 1161.18   54.49
  -3   8   2 1282.67   54.19
  -2  -8   2 1964.80   83.19
   2  -8  -2 1943.21   76.89
  -2  -8   2 1886.11   80.39
  -2  -8   2 1987.30   80.89
   2  -8  -2 1840.22   80.99
  -2   8   2 1868.51   78.99
   2   8  -2 1879.01   76.59
  -2   8   2 1869.71   78.79
   2   8  -2 1908.51   78.09
  -2   8   2 1903.81   76.69
   2   8  -2 1835.72   82.69
  -1  -8   2   40.10    6.70
  -1  -8   2   73.59    9.20
   1  -8  -2   42.20    7.80
   1  -8  -2   56.49    8.30
   1  -8  -2   52.29    7.40
  -1  -8   2   54.69    8.00
   1   8  -2   49.50    8.60
   1   8  -2   55.79    6.50
  -1   8   2   43.40    5.30
  -1   8   2   53.59    7.70
  -1   8   2   50.09    5.60
   1   8  -2   63.99    5.70
   0  -8   2 3072.29  119.59
   0  -8   2 2816.62  119.79
   0  -8  -2 2915.01  113.69
   0  -8  -2 2858.01  113.69
   0  -8  -2 2958.00  117.39
   0  -8  -2 2833.12  116.79
   0  -8  -2 2998.70  119.79
   0  -8   2 2852.81  119.99
   0   8  -2 2809.92  120.89
   0   8  -2 2707.93  122.39
   0   8   2 2836.42  114.79
   0   8  -2 2865.31  116.59
   0   8   2 2813.62  118.29
   1  -8   2 1484.35   66.49
   1  -8   2 1534.95   63.99
   1  -8   2 1458.75   63.99
  -1  -8  -2 1507.55   60.99
  -1  -8  -2 1514.55   65.59
  -1  -8  -2 1523.55   64.39
   1  -8   2 1556.34   64.89
   1  -8   2 1360.76   65.59
  -1  -8  -2 1521.05   61.09
  -1  -8  -2 1523.45   60.99
  -1   8  -2 1326.77   64.89
  -1   8  -2 1516.35   65.69
  -1   8  -2 1317.97   64.09
   1   8   2 1490.55   64.39
   2  -8   2   48.40   10.20
   2  -8   2   46.80    9.50
  -2  -8  -2   55.69    8.50
   2  -8   2   62.29    8.90
  -2  -8  -2   58.39    4.60
  -2  -8  -2   49.20    7.80
   2  -8   2   60.89    9.00
  -2  -8  -2   50.39    8.60
  -2  -8  -2   54.19    5.20
   2  -8   2   36.70    6.90
  -2   8  -2   39.90    8.40
  -2   8  -2   32.50    6.90
  -2   8  -2   47.10    6.90
  -3  -8  -2   22.40    7.40
  -3  -8  -2   22.10    8.60
   3  -8   2   18.80    7.30
   3  -8   2   15.60    7.90
  -3  -8  -2   17.70    3.10
   3  -8   2   21.40    8.40
  -3  -8  -2   20.90    2.60
  -3  -8  -2   27.10    6.70
   3  -8   2   26.40    8.00
   3  -8   2   26.90    7.40
  -3   8  -2   15.50    6.10
  -3   8  -2   16.30    6.50
  -3   8  -2   26.80    7.00
  -3   8  -2   19.90    7.30
  -4  -8  -2  277.47   22.40
  -4  -8  -2  211.18   19.40
   4  -8   2  217.68   20.30
   4  -8   2  230.58   21.20
  -4  -8  -2  256.27   13.10
  -4  -8  -2  235.78   12.60
   4  -8   2  226.68   23.30
   4  -8   2  237.48   22.30
   4  -8   2  238.58   18.80
  -4  -8  -2  250.77   22.60
  -4   8  -2  271.47   20.30
  -4   8  -2  246.18   21.80
  -4   8  -2  246.38   20.40
  -4   8  -2  224.88   19.70
   5  -8   2  671.03   40.80
   5  -8   2  739.73   43.00
  -5  -8  -2  686.13   42.30
  -5  -8  -2  707.43   30.10
  -5  -8  -2  634.94   31.10
   5  -8   2  672.83   40.50
  -5  -8  -2  740.13   43.50
   5  -8   2  642.34   38.10
  -5  -8  -2  664.53   38.80
   5  -8   2  627.74   39.80
  -5   8  -2  678.73   41.00
  -5   8  -2  621.44   38.70
  -5   8  -2  714.53   38.30
   6  -8   2  -21.90   15.50
  -6  -8  -2   38.90   14.20
  -6  -8  -2    9.20    6.40
  -6  -8  -2   27.80   17.90
   6  -8   2    6.00   13.70
   6  -8   2   21.30   12.90
  -6  -8  -2   16.20    7.90
  -6   8  -2   19.90   13.50
  -6   8  -2   23.20   12.10
  -7  -8  -2  816.72   39.30
   7  -8   2  748.43   52.29
  -7  -8  -2  780.32   51.09
   7  -8   2  811.72   51.19
  -7  -8  -2  768.02   40.70
  -7   8  -2  773.82   52.49
  -7   8  -2  769.12   50.39
   8  -8   2  605.54   47.00
  -8  -8  -2  559.34   49.20
  -8  -8  -2  637.94   39.70
   8  -8   2  597.84   49.10
  -8   8  -2  616.64   51.79
  -8   8  -2  606.94   49.10
  -9  -9   2    7.40   18.50
   9  -9  -2   16.50   14.20
  -9  -9   2   28.60    9.40
   9  -9  -2    7.70   16.30
  -9  -9   2   -3.50   16.30
  -9   9   2   15.10   15.30
  -9   9   2   49.99   20.10
  -9   9   2   -1.30   13.50
   8  -9  -2  205.88   25.10
  -8  -9   2  198.48   24.90
  -8  -9   2  174.98   23.20
  -8  -9   2  220.88   40.10
  -8   9   2  166.48   25.50
  -8   9   2  202.68   25.30
  -8   9   2  207.08   23.50
   7  -9  -2  125.49   19.60
  -7  -9   2  152.28   14.00
   7  -9  -2  142.19   16.60
   7  -9  -2   86.69   19.90
  -7  -9   2  120.79   16.10
  -7  -9   2  144.59   18.50
  -7   9   2  150.18   20.00
  -7   9   2  141.99   18.70
  -7   9   2  120.09   17.40
  -6  -9   2   14.30    7.30
   6  -9  -2   -8.10   11.10
   6  -9  -2   12.60    8.40
   6  -9  -2   10.20    7.00
  -6  -9   2    6.60    8.70
   6  -9  -2   35.70   14.90
  -6  -9   2    4.30    5.60
  -6   9   2   -3.30    7.10
  -6   9   2   -0.70    6.80
  -6   9   2    1.10    7.10
   5  -9  -2    5.40    6.60
  -5  -9   2    2.90    6.40
  -5  -9   2   15.10   10.10
   5  -9  -2    3.90    5.70
  -5  -9   2   -1.60    5.20
   5  -9  -2    9.80   10.60
   5  -9  -2   -4.90    9.00
  -5  -9   2    5.90    5.50
  -5   9   2    4.20    5.50
  -5   9   2   11.40    6.20
  -5   9   2    8.10    5.80
   4  -9  -2    3.20    4.70
   4  -9  -2   -6.10    6.00
  -4  -9   2    4.50    6.00
   4  -9  -2    5.40    4.60
  -4  -9   2   -6.40    6.70
  -4  -9   2   -0.50    4.40
   4  -9  -2    2.10    8.10
  -4   9   2    7.40    5.10
  -4   9   2    8.80    5.40
   4   9  -2    0.50    7.10
  -4   9   2    6.50    6.10
   4   9  -2    7.30    2.60
   3  -9  -2  495.25   27.40
   3  -9  -2  550.14   30.10
  -3  -9   2  527.25   28.20
  -3  -9   2  582.54   32.10
   3  -9  -2  547.25   26.00
  -3  -9   2  602.34   28.60
   3  -9  -2  585.54   31.70
  -3   9   2  538.25   25.90
   3   9  -2  577.14   24.70
  -3   9   2  532.85   27.80
   3   9  -2  523.35   31.30
  -3   9   2  552.34   27.50
  -2  -9   2  691.73   35.50
   2  -9  -2  662.73   28.70
   2  -9  -2  644.24   33.20
  -2  -9   2  658.33   32.60
  -2  -9   2  633.24   32.50
   2  -9  -2  687.53   34.50
   2   9  -2  672.03   29.90
  -2   9   2  692.13   28.80
  -2   9   2  676.23   30.90
   2   9  -2  650.03   35.20
  -2   9   2  635.74   30.90
   2   9  -2  681.83   28.50
   1  -9  -2  138.19   12.50
  -1  -9   2  143.09   12.60
  -1  -9   2  116.99   12.10
   1  -9  -2  123.29   10.80
   1  -9  -2  157.78   12.70
  -1   9   2  134.09    9.00
  -1   9   2  124.19   11.70
   1   9  -2  136.09    9.00
   1   9  -2  126.19    9.60
  -1   9   2  131.69    8.70
   1   9  -2  140.29   13.40
   0  -9   2   29.00    7.10
   0  -9   2   23.90    6.40
   0  -9  -2   30.70    3.20
   0  -9  -2   32.40    7.50
   0  -9  -2   33.00    5.30
   0  -9  -2   34.20    6.00
   0  -9   2   37.50    6.60
   0  -9   2   34.80    7.20
   0  -9  -2   31.70    3.20
   0   9  -2   37.50    6.30
   0   9  -2   39.60    7.90
   0   9  -2   47.60    6.40
   0   9   2   27.80    6.50
  -1  -9  -2 1325.17   54.29
   1  -9   2 1190.28   56.69
  -1  -9  -2 1276.17   54.49
  -1  -9  -2 1308.87   57.89
   1  -9   2 1255.67   59.59
  -1  -9  -2 1366.56   59.59
   1  -9   2 1275.67   57.49
   1  -9   2 1370.76   58.39
   1  -9   2 1324.07   60.29
  -1  -9  -2 1317.17   53.99
  -1   9  -2 1301.67   55.99
  -1   9  -2 1189.68   58.39
   1   9   2 1292.57   58.19
  -1   9  -2 1321.07   57.09
  -2  -9  -2    9.80    4.60
   2  -9   2   10.50    5.70
  -2  -9  -2    5.60    6.00
   2  -9   2    9.60    7.00
  -2  -9  -2   10.10    3.20
   2  -9   2   13.00    7.20
   2  -9   2    1.30    5.60
   2  -9   2   14.00    6.70
  -2  -9  -2   10.30    2.80
  -2  -9  -2   22.00    7.70
  -2   9  -2   10.70    5.50
  -2   9  -2   14.40    5.70
  -2   9  -2    4.40    5.80
   3  -9   2    4.80    8.40
  -3  -9  -2   -0.10    7.50
  -3  -9  -2    7.60    6.10
  -3  -9  -2    4.30    7.80
   3  -9   2    5.40    7.20
   3  -9   2   -3.80    6.80
   3  -9   2    1.30    7.00
   3  -9   2   -3.30    6.30
  -3   9  -2    3.10    6.50
  -3   9  -2    1.00    7.70
  -3   9  -2   -3.90    6.00
   4  -9   2  149.69   21.50
   4  -9   2  129.89   18.30
   4  -9   2  112.39   18.20
   4  -9   2  138.29   18.60
  -4  -9  -2  126.59    8.10
  -4  -9  -2  185.18   20.10
  -4  -9  -2  140.49   18.20
  -4  -9  -2  156.28    9.30
   4  -9   2  154.08   16.80
  -4  -9  -2  138.39   16.80
  -4   9  -2  118.89   16.00
  -4   9  -2  146.49   17.90
  -4   9  -2  125.89   17.60
  -4   9  -2  128.29   19.20
   5  -9   2   86.99   16.70
  -5  -9  -2  115.79   20.00
  -5  -9  -2   98.89   15.30
   5  -9   2   75.79   17.00
  -5  -9  -2   93.19    9.50
  -5  -9  -2   85.99   17.80
   5  -9   2   92.89   16.30
   5  -9   2   86.89   14.40
  -5  -9  -2  102.99    8.40
  -5   9  -2   94.19   13.70
  -5   9  -2  105.19   17.90
  -5   9  -2   85.89   15.60
  -6  -9  -2  210.38   25.70
   6  -9   2  165.78   22.50
  -6  -9  -2  197.58   13.90
   6  -9   2  187.28   26.00
  -6  -9  -2  191.08   25.10
  -6  -9  -2  149.49   24.80
  -6   9  -2  182.68   24.70
  -6   9  -2  166.98   24.30
   7  -9   2    0.50   15.30
  -7  -9  -2   23.40   10.70
  -7  -9  -2   32.40   19.50
   7  -9   2    0.60   19.30
  -7   9  -2   -6.90   17.00
  -7   9  -2    9.40   18.30
  -8  -9  -2  -16.00   21.00
   8  -9   2   29.90   20.70
   8  -9   2  -13.90   20.90
  -8   9  -2  -34.80   20.70
  -8   9  -2   24.10   25.80
   9 -10  -2  186.28   26.10
  -9 -10   2  196.28   18.40
   9 -10  -2  192.28   28.40
  -9 -10   2  149.79   24.00
  -9 -10   2  244.08   31.40
  -9  10   2  211.68   33.00
  -9  10   2  192.48   27.70
  -9  10   2  165.58   28.10
   8 -10  -2  196.28   26.50
   8 -10  -2  154.58   21.50
  -8 -10   2  173.58   15.80
  -8 -10   2  131.89   21.10
  -8 -10   2  138.89   19.30
  -8  10   2  181.18   24.90
  -8  10   2  156.78   23.90
  -8  10   2  152.48   21.70
  -7 -10   2   28.20   12.50
   7 -10  -2   22.00   11.20
   7 -10  -2   14.20    9.50
  -7 -10   2   21.50   10.80
  -7 -10   2   15.30    6.90
  -7  10   2   40.10   12.60
  -7  10   2   18.10   10.40
  -7  10   2   24.40   11.40
   6 -10  -2  567.34   32.30
  -6 -10   2  487.05   31.40
   6 -10  -2  497.75   36.90
   6 -10  -2  486.75   29.70
  -6 -10   2  518.35   27.70
  -6 -10   2  542.45   29.90
   6 -10  -2  571.64   46.90
  -6  10   2  490.05   30.90
  -6  10   2  478.95   31.00
  -6  10   2  524.65   32.30
   5 -10  -2  491.75   32.30
   5 -10  -2  461.15   28.70
   5 -10  -2  482.35   35.40
  -5 -10   2  480.55   26.20
  -5 -10   2  528.95   29.30
  -5 -10   2  460.25   34.00
  -5 -10   2  494.05   27.00
   5 -10  -2  442.46   27.20
  -5  10   2  531.75   29.70
  -5  10   2  479.15   28.30
  -5  10   2  500.25   27.80
   4 -10  -2  300.57   24.60
  -4 -10   2  244.08   17.10
   4 -10  -2  251.17   17.60
   4 -10  -2  243.68   21.60
  -4 -10   2  270.57   18.90
  -4 -10   2  254.57   23.40
   4 -10  -2  260.77   18.30
  -4  10   2  254.67   16.80
  -4  10   2  233.38   17.50
   4  10  -2  262.17   11.90
  -4  10   2  276.87   19.00
   4  10  -2  243.38   21.50
   3 -10  -2 1272.17   58.19
  -3 -10   2 1137.29   53.59
  -3 -10   2 1182.28   53.89
   3 -10  -2 1115.39   53.19
   3 -10  -2 1127.69   53.39
   3 -10  -2 1201.88   51.59
   3 -10  -2 1263.07   56.99
  -3 -10   2 1283.37   58.59
  -3  10   2 1285.77   53.59
   3  10  -2 1122.99   57.49
   3  10  -2 1217.48   49.80
  -3  10   2 1166.78   53.59
  -3  10   2 1195.58   51.29
   2 -10  -2  450.45   20.70
   2 -10  -2  472.45   27.10
  -2 -10   2  443.76   24.90
   2 -10  -2  398.26   25.00
  -2 -10   2  435.96   24.90
  -2 -10   2  467.25   28.10
   2  10  -2  438.56   27.40
   2  10  -2  469.15   21.70
  -2  10   2  448.36   22.80
  -2  10   2  439.46   25.70
  -2  10   2  457.75   23.00
   2  10  -2  473.15   20.20
   1 -10  -2   33.70    7.60
   1 -10  -2   36.70    3.40
  -1 -10   2   39.90    8.10
  -1 -10   2   34.80    7.50
  -1 -10   2   36.50    8.20
   1 -10  -2   41.70    6.90
   1  10  -2   42.30    5.90
   1  10  -2   40.50    6.10
  -1  10   2   43.00    8.10
  -1  10   2   43.50    5.90
   1  10  -2   43.50    8.70
  -1  10   2   33.10    4.70
   0 -10  -2  330.07   18.90
   0 -10   2  346.27   19.70
   0 -10   2  323.17   21.40
   0 -10   2  284.67   21.10
   0 -10  -2  321.27   14.40
   0 -10  -2  322.57   18.00
   0 -10  -2  343.07   21.60
   0 -10   2  353.26   21.10
   0  10  -2  331.07   18.60
   0  10  -2  315.87   22.60
   0  10  -2  322.07   17.50
   0  10   2  300.87   20.10
  -1 -10  -2 1029.30   47.60
   1 -10   2 1125.09   50.89
  -1 -10  -2 1128.49   47.20
  -1 -10  -2 1099.19   46.70
  -1 -10  -2 1160.78   53.29
   1 -10   2 1115.69   53.39
  -1 -10  -2 1052.29   53.99
   1 -10   2 1149.58   50.49
   1 -10   2 1153.38   51.39
   1 -10   2 1042.70   52.79
  -1  10  -2  971.10   52.69
   1  10   2 1148.69   51.99
  -1  10  -2 1100.79   49.99
  -1  10  -2 1112.39   51.99
  -1  10  -2 1164.08   49.10
  -2 -10  -2  493.25   29.50
   2 -10   2  485.25   26.80
   2 -10   2  483.15   27.80
  -2 -10  -2  451.95   21.80
  -2 -10  -2  473.95   21.90
  -2 -10  -2  455.05   24.20
   2 -10   2  449.86   29.40
   2 -10   2  491.85   30.30
   2 -10   2  491.45   27.60
  -2 -10  -2  529.25   28.90
  -2  10  -2  494.55   27.20
  -2  10  -2  447.36   28.50
   2  10   2  465.05   28.00
  -2  10  -2  529.35   26.40
   3 -10   2  137.49   18.50
   3 -10   2  196.18   18.60
   3 -10   2  165.38   19.60
  -3 -10  -2  161.98   20.80
   3 -10   2  178.28   19.80
  -3 -10  -2  176.68   15.00
   3 -10   2  179.58   16.40
  -3 -10  -2  133.29   18.30
  -3  10  -2  188.08   17.10
  -3  10  -2  124.99   16.00
  -3  10  -2  180.88   18.60
   4 -10   2 1468.35   69.89
  -4 -10  -2 1318.37   64.59
  -4 -10  -2 1351.86   67.69
   4 -10   2 1330.37   64.99
   4 -10   2 1389.36   66.69
  -4 -10  -2 1513.75   69.79
   4 -10   2 1428.66   70.79
   4 -10   2 1357.76   67.29
  -4  10  -2 1466.45   65.59
  -4  10  -2 1515.05   66.89
  -4  10  -2 1363.96   68.19
  -5 -10  -2  413.76   37.50
  -5 -10  -2  404.66   19.90
   5 -10   2  385.06   31.60
   5 -10   2  451.55   34.50
   5 -10   2  477.75   35.40
  -5 -10  -2  424.06   19.10
  -5 -10  -2  369.16   35.50
  -5 -10  -2  455.95   31.10
  -5  10  -2  419.16   29.70
  -5  10  -2  400.76   33.20
  -6 -10  -2   -8.40   12.50
  -6 -10  -2    7.70    6.40
   6 -10   2   15.30   17.90
  -6 -10  -2   -2.20    6.10
   6 -10   2   22.60   14.80
  -6  10  -2   10.50   11.70
  -7 -10  -2   50.19   11.40
   7 -10   2   22.50   21.40
   7 -10   2   29.20   18.90
  -7  10  -2   29.20   16.70
  -7  10  -2  -15.80   18.60
   8 -10   2   83.99   27.20
  -8 -10  -2   32.90   26.20
  -8  10  -2  133.89   28.00
  -8  10  -2  111.09   30.40
   9 -11  -2   81.09   22.50
  -9 -11   2   71.89   10.20
  -9 -11   2   89.19   24.20
  -9 -11   2   71.19   22.50
   9 -11  -2   88.69   19.50
  -9  11   2   64.59   20.20
  -9  11   2   95.69   22.00
  -9  11   2   33.20   23.20
  -8 -11   2  118.09   18.90
  -8 -11   2  124.49   14.60
  -8 -11   2  100.39   20.60
   8 -11  -2  171.88   23.80
   8 -11  -2  141.69   20.30
  -8  11   2  122.89   19.70
  -8  11   2   91.19   19.80
  -8  11   2  171.18   25.30
  -7 -11   2  139.59   21.80
   7 -11  -2  107.59   16.30
   7 -11  -2  147.19   18.70
  -7 -11   2  114.49   13.80
  -7 -11   2  138.39   18.00
  -7  11   2  148.79   21.80
  -7  11   2  133.89   18.40
  -7  11   2  115.59   21.60
   6 -11  -2    1.90    7.10
  -6 -11   2  -10.20    9.60
   6 -11  -2   30.70   14.00
  -6 -11   2    5.00    6.10
  -6 -11   2    5.00   10.10
   6 -11  -2  -10.00    7.90
  -6  11   2    5.10    9.20
  -6  11   2    0.20    7.50
  -6  11   2    1.20    7.50
  -5 -11   2  574.14   39.30
   5 -11  -2  555.94   40.10
   5 -11  -2  566.04   32.90
  -5 -11   2  571.04   31.60
  -5 -11   2  572.64   32.40
   5 -11  -2  590.94   37.50
  -5 -11   2  542.35   29.70
   5 -11  -2  575.04   31.60
  -5  11   2  592.84   31.70
  -5  11   2  589.44   33.40
  -5  11   2  596.84   32.60
   4 -11  -2  883.21   44.40
   4 -11  -2  928.91   43.60
  -4 -11   2  966.30   44.30
   4 -11  -2  967.70   49.40
  -4 -11   2  908.91   50.09
   4 -11  -2 1056.89   51.89
   4 -11  -2  907.01   45.20
  -4 -11   2  983.20   45.30
  -4  11   2  945.81   44.80
  -4  11   2  871.01   44.80
   4  11  -2  889.51   49.10
  -4  11   2  915.91   43.30
   3 -11  -2  182.48   12.00
   3 -11  -2  138.29   16.40
   3 -11  -2  152.88   13.90
   3 -11  -2  171.08   13.90
  -3 -11   2  145.39   13.90
  -3 -11   2  145.99   14.80
  -3 -11   2  171.38   20.00
   3 -11  -2  138.19   18.50
  -3  11   2  171.68   13.80
  -3  11   2  157.18   12.20
   3  11  -2  165.88   10.00
   3  11  -2  167.08   18.10
  -3  11   2  173.68   13.40
   2 -11  -2   37.20    8.40
  -2 -11   2   42.50    9.30
   2 -11  -2   45.20    5.70
  -2 -11   2   34.50    8.10
   2 -11  -2   32.40    6.80
   2 -11  -2   24.20    8.60
  -2 -11   2   28.60    7.40
   2 -11  -2   29.00    6.00
  -2 -11   2   50.29   10.90
  -2  11   2   33.40    5.80
  -2  11   2   42.70    6.30
  -2  11   2   35.90    8.50
   2  11  -2   46.00    7.10
   2  11  -2   24.80    8.10
   1 -11  -2 1487.35   64.29
  -1 -11   2 1501.35   64.39
  -1 -11   2 1333.57   63.69
   1 -11  -2 1422.36   57.19
   1 -11  -2 1261.67   62.39
  -1 -11   2 1393.46   63.89
   1  11  -2 1533.15   59.69
   1  11  -2 1490.05   60.89
   1  11  -2 1407.96   66.39
  -1  11   2 1327.47   63.59
   0 -11  -2 1007.50   46.10
   0 -11   2 1003.10   49.50
   0 -11  -2  975.90   41.80
   0 -11  -2 1073.89   49.90
   0 -11  -2  984.40   46.80
   0 -11   2 1051.69   49.90
   0 -11   2 1086.99   49.10
   0 -11   2 1069.79   47.30
   0  11  -2 1024.90   46.20
   0  11  -2  957.40   50.69
   0  11  -2 1095.99   45.30
   0  11   2  926.01   48.00
   1 -11   2  282.87   20.60
  -1 -11  -2  309.77   16.10
   1 -11   2  339.57   20.40
  -1 -11  -2  308.37   21.70
  -1 -11  -2  347.27   23.70
  -1 -11  -2  306.87   18.20
   1 -11   2  315.57   21.40
   1 -11   2  326.47   23.40
  -1 -11  -2  268.47   18.10
   1 -11   2  315.07   22.90
   1  11   2  323.67   21.50
  -1  11  -2  347.97   24.30
  -1  11  -2  335.67   19.40
  -1  11  -2  311.17   20.00
  -2 -11  -2  637.04   34.40
  -2 -11  -2  544.35   27.50
   2 -11   2  617.84   36.30
  -2 -11  -2  619.14   35.70
   2 -11   2  646.84   33.70
   2 -11   2  576.14   35.30
   2 -11   2  582.04   33.10
  -2 -11  -2  591.24   27.00
   2 -11   2  606.24   32.80
  -2 -11  -2  581.94   29.50
  -2 -11  -2  586.54   25.90
   2  11   2  673.43   34.90
  -2  11  -2  606.24   34.50
  -2  11  -2  627.34   32.80
  -2  11  -2  629.84   31.70
   3 -11   2  237.18   23.20
  -3 -11  -2  242.38   24.50
   3 -11   2  218.08   21.70
   3 -11   2  224.38   18.60
  -3 -11  -2  179.98   20.90
   3 -11   2  180.08   20.50
  -3 -11  -2  191.48   17.20
   3 -11   2  190.68   21.40
  -3  11  -2  246.98   19.70
  -3  11  -2  167.58   19.90
  -3  11  -2  218.68   19.40
   4 -11   2  197.98   23.40
  -4 -11  -2  164.28   18.90
   4 -11   2  165.68   22.10
   4 -11   2  150.68   21.00
  -4 -11  -2  157.18   25.50
   4 -11   2  204.18   27.90
  -4 -11  -2  217.48   24.60
   4 -11   2  169.68   23.10
  -4  11  -2  173.48   21.30
  -4  11  -2  163.08   19.80
  -4  11  -2  213.98   26.20
  -5 -11  -2  107.79    7.30
  -5 -11  -2  115.79   26.10
  -5 -11  -2   97.09   15.90
   5 -11   2   97.49   18.80
   5 -11   2  111.29   20.00
  -5  11  -2   87.99   17.60
  -6 -11  -2  635.54   43.70
  -6 -11  -2  675.43   31.00
  -6 -11  -2  681.13   30.20
   6 -11   2  678.03   48.10
   6 -11   2  649.04   49.50
  -6  11  -2  626.64   43.20
  -6  11  -2  737.93   47.60
  -7 -11  -2   94.49   22.60
   7 -11   2   82.19   26.60
   7 -11   2   61.99   22.60
  -7  11  -2   87.19   26.10
  -7  11  -2   80.49   21.00
   9 -12  -2   80.69   24.10
   9 -12  -2  104.89   22.00
  -9 -12   2  192.28   30.10
  -9 -12   2  109.39   15.10
  -9  12   2   87.09   24.90
  -9  12   2  112.49   24.50
  -9  12   2   81.89   25.20
  -8 -12   2   18.50   18.80
   8 -12  -2   34.70   13.60
   8 -12  -2   49.70   16.70
  -8 -12   2   47.00    8.90
  -8 -12   2   23.90   15.70
  -8  12   2   32.90   16.60
  -8  12   2   33.80   15.40
  -8  12   2   27.70   18.80
  -7 -12   2   -8.10   12.40
  -7 -12   2    3.60    6.50
  -7 -12   2   -3.30   14.30
   7 -12  -2    9.70   11.80
   7 -12  -2    0.40    9.80
  -7  12   2   -4.30   11.50
  -7  12   2   -4.20   11.80
  -7  12   2  -11.60   10.90
  -6 -12   2    0.00   11.70
  -6 -12   2   -2.70    7.20
   6 -12  -2   -3.30   14.90
  -6 -12   2  -12.20   10.30
   6 -12  -2    6.30    7.70
   6 -12  -2    7.90    9.60
  -6  12   2   -1.90    9.40
  -6  12   2  -12.20    8.70
  -6  12   2    4.60   11.00
  -5 -12   2  211.18   20.90
   5 -12  -2  179.78   24.80
   5 -12  -2  219.78   18.40
   5 -12  -2  218.28   19.70
  -5 -12   2  210.38   20.40
  -5 -12   2  198.28   17.10
   5  12  -2  235.18   25.30
  -5  12   2  195.68   18.80
  -5  12   2  206.98   20.20
  -5  12   2  233.18   20.20
  -4 -12   2   15.60    8.10
  -4 -12   2   12.60    6.30
   4 -12  -2    7.10    6.00
   4 -12  -2   -1.80   10.70
  -4 -12   2   43.70   14.90
   4 -12  -2   17.30    7.00
   4 -12  -2    3.90    6.40
   4 -12  -2   31.90   13.20
  -4  12   2   17.60    6.70
  -4  12   2   14.80    7.40
  -4  12   2    8.40    6.80
   4  12  -2   11.00    8.90
   3 -12  -2    9.00    6.40
   3 -12  -2   22.00    9.50
  -3 -12   2   13.50    7.60
  -3 -12   2   -2.00   10.60
   3 -12  -2   16.00    6.10
  -3 -12   2   26.70    7.70
   3 -12  -2   19.30    5.40
   3 -12  -2    9.30    9.90
  -3  12   2   16.30    5.90
   3  12  -2   28.20   10.50
  -3  12   2   26.20    6.50
   3  12  -2   28.30    4.60
  -3  12   2   13.10    5.50
  -2 -12   2   -5.20    6.80
  -2 -12   2    7.30    7.20
   2 -12  -2    0.90    6.70
   2 -12  -2    2.30    3.30
   2 -12  -2    7.00    5.00
  -2 -12   2    7.00    9.10
  -2 -12   2    6.00    5.90
   2 -12  -2   11.20    5.40
   2 -12  -2    5.40    8.60
   2  12  -2    6.70    7.40
   2  12  -2   -3.20    4.00
  -2  12   2    6.30    4.50
  -2  12   2    3.10    6.80
  -2  12   2    3.90    4.20
   1 -12  -2  214.98   17.20
  -1 -12   2  226.48   18.90
   1 -12  -2  224.28   15.20
   1 -12  -2  249.38   11.80
   1 -12  -2  252.47   19.80
  -1 -12   2  226.88   19.00
  -1 -12   2  275.37   17.30
  -1 -12   2  249.08   19.40
   1  12  -2  245.88   20.50
  -1  12   2  226.68   18.40
   1  12  -2  263.57   15.90
   0 -12   2  192.88   18.00
   0 -12   2  183.58   16.00
   0 -12  -2  230.28   19.10
   0 -12  -2  193.28   12.50
   0 -12   2  212.98   18.10
   0 -12   2  193.08   15.40
   0 -12  -2  186.08   16.20
   0 -12  -2  163.68   14.20
   0 -12   2  195.78   18.50
   0 -12  -2  200.28   10.20
   0  12  -2  213.48   15.40
   0  12  -2  141.59   18.10
   0  12  -2  205.88   15.10
   0  12   2  201.48   17.70
   1 -12   2  100.19   15.70
   1 -12   2  108.19   15.00
   1 -12   2  109.59   14.70
  -1 -12  -2  104.79    8.50
  -1 -12  -2  105.09    9.00
   1 -12   2  115.69   16.30
  -1 -12  -2   99.19   15.00
  -1 -12  -2   89.99   13.30
   1 -12   2   90.39   12.80
  -1 -12  -2  111.69    8.60
  -1 -12  -2   90.59   10.70
  -1  12  -2  101.09   12.10
   1  12   2  100.79   14.60
  -1  12  -2   93.19   14.80
  -1  12  -2  113.99   13.10
  -2 -12  -2   20.50    3.60
   2 -12   2   32.50   10.30
  -2 -12  -2   20.40    5.90
   2 -12   2   19.40    9.10
  -2 -12  -2   39.20   12.20
  -2 -12  -2   15.40    6.50
   2 -12   2   10.80    8.80
  -2 -12  -2   29.80    9.80
   2 -12   2   24.20   10.20
  -2 -12  -2   25.60    5.10
  -2  12  -2   15.40    7.20
  -2  12  -2   32.90    9.70
  -2  12  -2   30.10    9.50
   2  12   2   40.60   10.50
   3 -12   2  660.63   39.80
   3 -12   2  633.44   34.90
   3 -12   2  579.44   36.40
  -3 -12  -2  600.94   38.20
   3 -12   2  701.13   40.60
   3 -12   2  635.84   37.90
  -3 -12  -2  662.13   40.60
  -3 -12  -2  581.84   32.70
  -3 -12  -2  617.14   27.70
  -3  12  -2  656.33   36.10
  -3  12  -2  612.64   35.30
  -3  12  -2  594.44   37.30
   4 -12   2  103.09   15.60
   4 -12   2  172.68   25.40
  -4 -12  -2  142.09   20.30
  -4 -12  -2  176.48   28.60
   4 -12   2  179.68   26.20
   4 -12   2  155.48   24.00
  -4 -12  -2  167.28   19.20
  -4  12  -2  140.09   21.80
   5 -12   2   15.60   14.70
   5 -12   2   18.80   13.60
  -5 -12  -2   13.80   11.70
  -5  12  -2   12.70   13.40
  -6 -12  -2   21.50   15.80
   6 -12   2    7.10   18.80
   6 -12   2   31.60   19.60
  -6  12  -2   25.10   17.90
   7 -12   2   -9.40   22.30
   7 -12   2  -13.60   24.90
  -7 -12  -2    6.20   19.20
  -7  12  -2   -9.10   21.90
  -8 -13   2   48.90    8.70
   8 -13  -2   80.49   20.70
  -8 -13   2   76.09   20.00
   8 -13  -2   33.20   16.70
  -8 -13   2   28.20   18.80
  -8  13   2   67.09   19.30
  -8  13   2    8.20   17.70
  -7 -13   2  320.67   30.00
   7 -13  -2  299.07   27.00
   7 -13  -2  281.17   29.40
  -7 -13   2  339.87   35.50
  -7  13   2  300.57   29.60
  -7  13   2  317.87   30.80
  -7  13   2  282.97   32.60
  -6 -13   2   36.90   14.70
   6 -13  -2   23.00   10.70
   6 -13  -2   29.30    9.60
  -6 -13   2   16.60   13.40
  -6 -13   2   27.00    8.60
   6 -13  -2   17.40   18.40
  -6  13   2   16.60   11.80
  -6  13   2   40.30   11.60
  -6  13   2    8.50   11.80
   5 -13  -2 1019.70   54.19
   5 -13  -2 1121.39   53.69
  -5 -13   2 1201.48   55.09
   5 -13  -2 1095.29   60.09
  -5 -13   2 1138.89   54.59
  -5 -13   2 1077.39   51.29
  -5  13   2 1051.49   54.49
   5  13  -2 1070.69   59.79
  -5  13   2 1116.29   53.19
  -5  13   2 1150.88   55.09
   4 -13  -2 1828.22   80.79
  -4 -13   2 1794.42   87.59
   4 -13  -2 1941.41   88.29
  -4 -13   2 1879.91   80.59
   4 -13  -2 1717.23   79.49
   4 -13  -2 1685.33   85.09
  -4 -13   2 1753.32   79.19
   4  13  -2 1851.01   86.49
  -4  13   2 1762.22   79.79
  -4  13   2 1785.12   77.79
  -4  13   2 1872.41   80.79
  -3 -13   2  215.48   18.00
   3 -13  -2  185.08   14.30
   3 -13  -2  198.68   23.90
   3 -13  -2  181.28   20.80
  -3 -13   2  193.58   18.40
   3 -13  -2  202.58   17.10
  -3 -13   2  285.37   27.80
   3 -13  -2  196.18   16.60
  -3  13   2  216.98   16.70
  -3  13   2  241.78   21.70
  -3  13   2  178.08   15.40
   3  13  -2  211.98   22.20
  -3  13   2  214.38   15.10
   2 -13  -2  149.09   20.40
   2 -13  -2  138.19   10.10
   2 -13  -2  130.39   12.90
   2 -13  -2  108.69   16.40
   2 -13  -2  135.59   13.30
  -2 -13   2  145.19   16.00
  -2 -13   2  143.69   15.30
  -2 -13   2  120.69   17.20
  -2  13   2  147.69   11.80
  -2  13   2  116.89   16.50
   2  13  -2  127.29   11.10
   2  13  -2  143.79   18.90
  -1 -13   2 1055.89   48.70
   1 -13  -2  895.31   46.90
   1 -13  -2  988.90   49.20
   1 -13  -2  913.61   44.10
   1 -13  -2  952.30   44.50
  -1 -13   2  935.71   48.00
   1 -13  -2  995.00   40.50
  -1 -13   2  942.91   48.20
  -1 -13   2  981.10   46.00
   1  13  -2 1049.00   44.50
   1  13  -2  989.10   51.09
  -1  13   2  973.60   48.70
   0 -13   2  533.65   30.90
   0 -13  -2  510.65   29.30
   0 -13  -2  594.74   33.20
   0 -13   2  509.05   28.00
   0 -13  -2  503.45   22.20
   0 -13   2  468.35   28.50
   0 -13  -2  466.55   24.80
   0 -13   2  534.15   31.80
   0 -13   2  492.35   31.00
   0 -13  -2  468.65   27.20
   0  13  -2  506.85   32.80
   0  13  -2  497.35   27.30
   0  13   2  498.45   30.70
   1 -13   2   37.60   10.10
   1 -13   2   21.90    9.90
  -1 -13  -2   26.50    4.80
  -1 -13  -2   16.80   11.50
  -1 -13  -2   18.80   12.30
   1 -13   2   17.50    9.10
  -1 -13  -2   13.20    6.90
  -1 -13  -2   24.00    6.50
  -1 -13  -2   26.00    5.20
   1 -13   2   16.90    8.50
   1 -13   2   16.40    9.10
  -1  13  -2   20.90    7.30
  -1  13  -2   19.40    8.30
  -1  13  -2   31.60   11.00
   1  13   2   25.60   10.10
   2 -13   2  183.48   22.00
   2 -13   2  166.38   18.70
  -2 -13  -2  145.59   14.00
   2 -13   2  158.18   20.50
   2 -13   2  166.18   21.30
  -2 -13  -2  173.98   24.40
  -2 -13  -2  168.58   14.10
  -2 -13  -2  184.48   12.30
  -2 -13  -2  172.78   10.50
  -2 -13  -2  203.58   21.40
   2 -13   2  154.88   18.00
  -2  13  -2  196.28   19.50
   2  13   2  171.38   19.60
  -2  13  -2  180.78   17.60
  -2  13  -2  216.28   19.40
  -2  13  -2  188.58   22.10
  -3 -13  -2  371.16   34.80
   3 -13   2  394.06   30.90
  -3 -13  -2  395.86   32.00
   3 -13   2  420.36   27.60
  -3 -13  -2  368.16   24.40
   3 -13   2  431.46   32.90
   3 -13   2  376.36   31.70
  -3 -13  -2  364.76   20.10
  -3  13  -2  422.76   27.80
  -3  13  -2  352.66   29.30
  -3  13  -2  442.16   28.90
   4 -13   2  107.09   18.80
  -4 -13  -2   77.09   20.90
   4 -13   2  135.89   21.10
  -4 -13  -2  113.09   15.20
   4 -13   2  112.99   20.60
  -4  13  -2   94.89   17.60
   5 -13   2  412.06   38.50
  -5 -13  -2  384.76   31.80
   5 -13   2  379.56   39.00
  -5  13  -2  410.36   36.60
   6 -13   2  580.14   50.29
  -6 -13  -2  561.94   42.00
   6 -13   2  604.64   52.49
  -6  13  -2  553.74   46.30
  -7 -13  -2   73.89   23.00
   7 -13   2   78.69   30.40
   7 -13   2   33.60   25.00
  -7  13  -2  115.99   28.40
  -8 -14   2  213.88   16.30
  -8 -14   2  231.88   29.80
   8 -14  -2  192.38   25.10
   8 -14  -2  186.38   26.30
  -8  14   2  228.58   35.30
  -8  14   2  268.97   38.70
  -7 -14   2   20.60    7.40
   7 -14  -2   28.10   14.90
  -7 -14   2   19.60   16.70
   7 -14  -2  -13.00   10.90
  -7 -14   2    4.70   23.30
  -7  14   2  -26.30   14.80
  -7  14   2   12.90   14.70
  -7  14   2   -4.70   15.40
   6 -14  -2  201.78   24.60
  -6 -14   2  169.38   22.60
   6 -14  -2  222.48   30.70
  -6 -14   2  189.38   17.80
   6 -14  -2  205.08   21.00
  -6 -14   2  204.48   26.60
  -6  14   2  190.78   25.70
  -6  14   2  217.68   24.20
   5 -14  -2   29.20   16.50
  -5 -14   2   64.99   14.40
   5 -14  -2   49.80   12.10
   5 -14  -2   66.79   12.10
  -5 -14   2   69.89   15.10
  -5 -14   2   55.29   10.40
  -5  14   2   62.69   14.00
  -5  14   2   60.49   11.70
  -5  14   2   54.59   11.90
   5  14  -2   56.79   16.20
   4 -14  -2    3.80    7.60
  -4 -14   2   -4.20    9.30
   4 -14  -2   -2.10    7.10
  -4 -14   2    1.50    7.70
   4 -14  -2   10.90    7.90
  -4  14   2   -0.90    8.60
   4  14  -2   -7.60   10.90
  -4  14   2    3.70    7.70
  -4  14   2    3.20    7.80
   3 -14  -2   67.79   13.50
  -3 -14   2   82.39   12.20
   3 -14  -2   76.99   11.40
   3 -14  -2   68.19   16.50
   3 -14  -2   75.69   11.10
  -3 -14   2   49.60   18.10
  -3 -14   2   71.69   12.10
   3 -14  -2   89.19   13.00
  -3  14   2   96.89   15.30
  -3  14   2   84.19   12.20
   3  14  -2   68.79   14.00
  -2 -14   2  334.87   24.80
   2 -14  -2  339.97   21.70
  -2 -14   2  355.06   24.20
   2 -14  -2  311.57   25.10
   2 -14  -2  349.57   18.00
  -2 -14   2  387.76   22.60
  -2 -14   2  426.26   27.60
   2 -14  -2  367.06   29.60
   2 -14  -2  332.17   21.70
  -2  14   2  337.67   26.70
   2  14  -2  322.97   28.60
   1 -14  -2   25.20   11.00
  -1 -14   2   29.30   10.80
  -1 -14   2   19.60    7.10
   1 -14  -2   15.50    6.00
   1 -14  -2   19.10    3.90
   1 -14  -2   20.30   11.70
  -1 -14   2   29.60   10.20
   1 -14  -2   22.50    6.10
  -1 -14   2    1.20    7.10
  -1 -14   2   10.60    8.60
   1 -14  -2    5.60    7.20
   1  14  -2   21.30    6.30
  -1  14   2   11.40    9.00
   1  14  -2   15.80   10.30
   0 -14   2  160.98   15.30
   0 -14  -2  206.08   22.90
   0 -14  -2  124.29   14.40
   0 -14  -2  132.99   12.00
   0 -14  -2  133.79   18.30
   0 -14   2  128.79   17.20
   0 -14   2  134.19   18.20
   0 -14   2  162.88   19.20
   0 -14  -2  139.09    8.90
   0 -14  -2  130.39   11.60
   0 -14   2  127.39   19.00
   0  14  -2  129.49   20.00
   0  14  -2  142.59   14.80
   0  14   2  158.28   18.70
  -1 -14  -2   34.50    5.80
   1 -14   2   36.80   11.60
  -1 -14  -2   26.70    9.80
  -1 -14  -2   28.70    5.60
   1 -14   2   47.30   11.60
   1 -14   2   38.40   11.50
  -1 -14  -2   27.40    7.60
   1 -14   2   28.10   11.40
   1 -14   2   39.70    9.20
  -1 -14  -2   47.10   14.30
  -1  14  -2   28.50   11.60
   1  14   2   33.70   10.70
  -1  14  -2   21.60    9.00
  -2 -14  -2   13.00    8.10
   2 -14   2    6.20    9.80
  -2 -14  -2    6.50    6.70
  -2 -14  -2    4.30   11.40
   2 -14   2  -20.20    9.90
   2 -14   2    0.30   10.00
  -2 -14  -2    4.20    4.90
  -2 -14  -2   13.40    4.20
   2 -14   2   -4.50    8.60
  -2  14  -2   14.70   12.90
   2  14   2    5.40    9.40
  -2  14  -2    9.40   10.20
   3 -14   2   46.40   13.40
   3 -14   2   40.20   15.50
  -3 -14  -2   39.70   10.80
   3 -14   2   37.80   14.90
  -3 -14  -2   45.80    7.80
  -3 -14  -2   30.00   16.60
   3 -14   2   57.79   15.00
  -3  14  -2   30.20   12.50
   4 -14   2  321.07   37.30
  -4 -14  -2  260.27   23.90
   4 -14   2  304.57   32.10
   4 -14   2  307.07   33.70
  -4  14  -2  290.97   30.60
  -5 -14  -2  194.68   26.20
   5 -14   2  231.38   35.20
   5 -14   2  170.98   27.10
   6 -14   2   43.50   24.30
   6 -14   2   23.40   21.90
  -6 -14  -2   38.40   17.80
  -6  14  -2   -1.30   20.00
  -8 -15   2   78.79   26.80
  -8 -15   2   82.59   11.80
   8 -15  -2   84.49   20.90
   8 -15  -2   96.89   25.60
  -8  15   2  139.99   25.30
  -8  15   2  114.39   26.50
  -7 -15   2   77.19   10.60
  -7 -15   2   42.60   20.70
   7 -15  -2   82.09   19.80
   7 -15  -2   86.29   16.80
  -7  15   2   81.49   19.80
  -7  15   2   55.09   18.00
   6 -15  -2   71.49   14.50
  -6 -15   2  104.29   18.40
   6 -15  -2   33.80   25.80
   6 -15  -2   90.19   17.30
  -6  15   2  100.29   17.10
  -6  15   2   89.49   16.70
   5 -15  -2   69.09   19.30
   5 -15  -2   71.29   14.60
   5 -15  -2   73.39   13.50
  -5 -15   2   68.69   15.30
  -5 -15   2   90.99   12.10
  -5  15   2   60.39   12.90
  -5  15   2   75.29   14.10
   5  15  -2   68.79   19.50
   4 -15  -2  265.67   22.70
  -4 -15   2  269.67   22.40
   4 -15  -2  248.48   21.30
   4 -15  -2  248.18   29.70
   4 -15  -2  236.58   20.50
  -4 -15   2  191.68   23.90
  -4  15   2  283.97   20.40
   4  15  -2  225.48   27.80
  -4  15   2  230.18   20.90
  -4  15   2  326.27   29.00
  -3 -15   2   -6.00    7.70
   3 -15  -2    1.90    7.20
  -3 -15   2  -18.70   12.40
   3 -15  -2    3.90    7.70
  -3 -15   2   11.60    9.50
   3 -15  -2   11.20   12.70
   3 -15  -2   11.20    6.80
  -3  15   2    3.00    7.10
   3  15  -2   25.00   13.80
  -3  15   2   -9.50   10.20
   2 -15  -2  104.79    9.70
  -2 -15   2  146.89   18.90
   2 -15  -2   96.79   15.30
   2 -15  -2   92.29   13.70
  -2 -15   2  138.79   16.70
   2 -15  -2   87.09   17.10
   2 -15  -2   65.79   10.50
  -2 -15   2   82.69   12.90
  -2 -15   2   83.09   16.20
  -2  15   2   84.39   15.10
   2  15  -2   90.19   17.20
  -1 -15   2  479.15   30.90
   1 -15  -2  430.16   25.20
  -1 -15   2  434.16   30.30
   1 -15  -2  535.85   34.00
   1 -15  -2  448.96   20.90
  -1 -15   2  456.05   31.00
   1 -15  -2  424.96   29.00
  -1 -15   2  448.96   28.70
  -1 -15   2  434.36   26.40
   1 -15  -2  443.96   25.50
   1 -15  -2  479.35   35.20
   1  15  -2  433.46   34.00
  -1  15   2  508.15   31.70
   0 -15   2  315.97   26.00
   0 -15   2  344.87   28.20
   0 -15  -2  319.57   20.20
   0 -15  -2  344.67   16.50
   0 -15  -2  336.77   20.30
   0 -15   2  414.86   28.00
   0 -15   2  345.37   23.20
   0 -15  -2  333.57   23.30
   0 -15   2  353.46   27.80
   0 -15  -2  390.36   28.00
   0  15   2  367.96   27.90
   0  15  -2  319.37   29.60
  -1 -15  -2   10.20    6.90
   1 -15   2   11.60   11.40
   1 -15   2    5.20    9.90
  -1 -15  -2    7.50    5.40
  -1 -15  -2    9.80    4.80
   1 -15   2   20.60   11.20
   1 -15   2    0.50    8.90
  -1 -15  -2    4.40   10.00
  -1 -15  -2    7.40    5.30
   1  15   2    9.90   11.30
  -1  15  -2    9.80   11.50
   2 -15   2  157.08   21.80
  -2 -15  -2  149.79   13.70
  -2 -15  -2  155.98   11.70
  -2 -15  -2  127.59   20.60
  -2 -15  -2  154.48   18.10
   2 -15   2  183.38   25.70
  -2 -15  -2  113.09   14.80
   2 -15   2  139.89   20.10
  -2 -15  -2  153.28   11.40
  -2 -15  -2  164.28   14.90
   2 -15   2  145.29   19.60
   2  15   2  124.59   18.50
  -2  15  -2  154.38   22.80
  -3 -15  -2  165.48   17.70
  -3 -15  -2  218.88   29.70
  -3 -15  -2  221.68   12.90
   3 -15   2  287.17   26.80
  -3 -15  -2  194.08   19.90
   3 -15   2  242.08   29.20
   3 -15   2  228.28   28.60
  -3  15  -2  228.98   26.60
  -3  15  -2  241.78   29.80
  -4 -15  -2   49.80   12.70
   4 -15   2   88.19   20.00
  -4 -15  -2   53.39    6.20
  -4 -15  -2   55.89    7.90
   4 -15   2   84.89   21.80
   4 -15   2   49.30   18.20
  -4  15  -2   19.80   15.90
   5 -15   2   82.99   22.80
   5 -15   2   75.89   22.40
  -5 -15  -2   65.59   17.00
  -5  15  -2   61.39   21.30
   6 -15   2  129.99   29.20
  -6 -15  -2   99.89   22.80
   6 -15   2  101.29   28.20
  -6  15  -2   47.00   25.30
   7 -16  -2   93.99   18.90
  -7 -16   2  140.39   14.60
   7 -16  -2   75.89   20.60
  -7  16   2   92.99   22.50
  -7  16   2  114.89   20.70
   6 -16  -2  161.38   39.50
   6 -16  -2  198.68   24.30
  -6 -16   2  184.18   18.90
   6 -16  -2  169.38   26.20
  -6 -16   2  229.28   31.80
  -6  16   2  210.78   27.00
  -6  16   2  187.18   27.70
  -5 -16   2  123.59   19.30
   5 -16  -2  141.79   21.80
   5 -16  -2  133.59   27.40
  -5 -16   2  154.48   22.10
   5 -16  -2  104.59   15.50
  -5  16   2  145.59   20.70
  -5  16   2  102.39   16.40
   5  16  -2  134.29   24.40
   4 -16  -2   27.90   10.00
  -4 -16   2   34.00   10.90
  -4 -16   2    2.50   12.50
   4 -16  -2   12.10    9.40
   4 -16  -2   18.10   16.50
   4 -16  -2   20.20    9.20
  -4  16   2   26.90   16.10
  -4  16   2   -3.20    8.90
   4  16  -2   21.00   14.20
  -3 -16   2  222.88   29.30
   3 -16  -2  210.58   28.70
  -3 -16   2  271.17   21.90
   3 -16  -2  207.58   20.50
   3 -16  -2  218.18   20.10
  -3 -16   2  207.68   22.10
   3 -16  -2  224.78   17.50
  -3 -16   2  224.78   23.70
  -3  16   2  294.67   28.10
   3  16  -2  261.17   28.30
   2 -16  -2  826.82   53.09
   2 -16  -2  881.51   39.00
  -2 -16   2  880.91   42.80
  -2 -16   2  863.41   47.20
   2 -16  -2  874.81   49.10
  -2 -16   2  906.41   46.90
  -2 -16   2  941.81   49.40
   2 -16  -2  881.21   43.50
  -2 -16   2  891.21   44.90
   2 -16  -2  838.72   43.70
   2  16  -2  871.51   52.09
  -2  16   2  888.21   49.90
   1 -16  -2  105.69   13.50
   1 -16  -2   82.89   13.10
  -1 -16   2  127.69   17.50
   1 -16  -2  104.99    8.70
  -1 -16   2   85.09   14.90
  -1 -16   2  102.79   14.70
   1 -16  -2  122.39   18.70
  -1 -16   2  101.69   16.70
  -1 -16   2   85.79   13.50
  -1  16   2  137.69   20.70
   1  16  -2   93.79   16.70
   0 -16   2  583.54   37.90
   0 -16  -2  605.24   34.70
   0 -16   2  585.74   33.90
   0 -16  -2  649.43   39.30
   0 -16  -2  569.74   30.60
   0 -16  -2  634.34   26.70
   0 -16   2  608.54   39.00
   0 -16  -2  602.44   31.00
   0 -16   2  572.74   37.40
   0  16  -2  612.94   41.20
   0  16   2  634.84   39.20
   1 -16   2  592.24   34.60
   1 -16   2  621.64   38.90
   1 -16   2  573.54   37.10
  -1 -16  -2  578.14   31.70
  -1 -16  -2  581.14   28.80
  -1 -16  -2  632.54   36.70
  -1 -16  -2  532.35   28.60
  -1 -16  -2  564.94   26.90
   1 -16   2  560.54   39.20
  -1  16  -2  524.35   40.90
   1  16   2  595.64   38.40
  -2 -16  -2   13.20    5.60
   2 -16   2   15.50   13.40
  -2 -16  -2    2.50    7.50
  -2 -16  -2   27.30   11.30
  -2 -16  -2   23.60    8.00
   2 -16   2   15.10   14.30
   2 -16   2   26.50   11.90
  -2 -16  -2   17.90    7.40
  -2 -16  -2   16.40    5.40
   2  16   2    6.60   11.90
  -2  16  -2    1.00   14.30
  -3 -16  -2  116.99   18.20
  -3 -16  -2  142.89   11.70
  -3 -16  -2  164.38   18.20
   3 -16   2  124.99   22.20
   3 -16   2  180.88   27.50
  -3  16  -2  200.48   32.50
   4 -16   2  287.17   36.20
  -4 -16  -2  243.18   25.90
  -4 -16  -2  263.47   13.80
   4 -16   2  241.38   29.70
  -4 -16  -2  199.88   27.50
   4 -16   2  285.57   37.40
  -4  16  -2  271.47   34.50
  -5 -16  -2  416.86   36.90
   5 -16   2  450.15   46.20
   5 -16   2  482.95   61.29
  -5  16  -2  344.27   43.90
  -6 -16  -2   -6.20   19.60
   6 -16   2   62.79   32.20
  -6  16  -2  -25.20   24.20
   7 -17  -2  -30.30   18.40
   7 -17  -2  -17.50   14.90
  -7 -17   2   14.40    7.70
  -7 -17   2   -1.10    6.50
  -7  17   2   11.90   17.90
  -7  17   2    7.90   21.90
   6 -17  -2  228.88   31.10
  -6 -17   2  269.17   36.30
  -6 -17   2  162.18   19.70
   6 -17  -2  199.88   25.60
  -6  17   2  187.38   24.20
  -6  17   2  153.18   21.70
   5 -17  -2  135.89   21.80
   5 -17  -2  182.08   48.30
  -5 -17   2  107.09   20.20
   5 -17  -2  139.29   19.80
  -5 -17   2   94.69   15.20
   5  17  -2  106.69   23.30
  -5  17   2  173.58   24.50
  -5  17   2  161.08   27.00
   4 -17  -2  -15.70   19.70
  -4 -17   2   33.60    8.00
  -4 -17   2   37.40   15.50
  -4 -17   2    1.70   14.40
   4 -17  -2   18.60    9.70
  -4  17   2    1.60   15.50
   4  17  -2   17.50   16.10
  -3 -17   2  168.68   20.60
   3 -17  -2  154.68   19.40
   3 -17  -2  190.78   20.30
   3 -17  -2  157.08   16.80
  -3 -17   2  227.48   23.70
  -3 -17   2  178.48   16.70
  -3 -17   2  177.88   23.70
   3 -17  -2  144.49   22.20
  -3 -17   2  151.28   21.30
   3  17  -2  219.38   32.60
  -3  17   2  146.69   21.80
  -2 -17   2   13.90   10.50
  -2 -17   2   16.50    8.00
  -2 -17   2  -14.10   12.10
   2 -17  -2   10.70    8.50
  -2 -17   2    7.20   10.80
   2 -17  -2   12.40    8.40
   2 -17  -2   19.30    6.60
  -2 -17   2  -11.80   14.60
   2 -17  -2    2.40   12.60
  -2  17   2   12.50   12.80
   2  17  -2    7.00   14.60
   1 -17  -2  225.48   32.00
   1 -17  -2  169.88   16.60
   1 -17  -2  127.29   18.10
  -1 -17   2  160.48   17.90
  -1 -17   2  142.39   21.10
  -1 -17   2  164.18   23.60
   1 -17  -2  150.18   15.90
   1 -17  -2  146.79   10.00
  -1 -17   2  138.89   21.30
   1  17  -2  146.59   22.70
  -1  17   2  125.89   18.80
   0 -17   2   98.59   14.00
   0 -17  -2   83.49    8.30
   0 -17  -2   72.39   14.10
   0 -17   2   92.69   17.60
   0 -17  -2   95.49   13.50
   0 -17   2   60.09   15.60
   0 -17  -2   80.79   10.80
   0 -17  -2   90.09   18.40
   0 -17   2   89.39   17.20
   0  17  -2   76.69   19.50
   0  17   2   57.79   16.30
  -1 -17  -2   18.00    7.10
   1 -17   2    4.10   13.80
  -1 -17  -2   32.30   10.30
   1 -17   2   16.10   14.60
  -1 -17  -2   11.90    6.90
   1 -17   2   18.10   11.80
  -1 -17  -2   24.50   14.60
   1 -17   2   30.90   15.50
   1  17   2   24.60   13.10
  -1  17  -2   41.20   15.70
  -2 -17  -2  223.28   25.10
   2 -17   2  214.88   29.90
  -2 -17  -2  159.08   16.60
  -2 -17  -2  148.09   13.80
  -2 -17  -2  178.38   17.30
   2 -17   2  183.08   27.10
  -2 -17  -2  123.69   16.20
   2 -17   2  211.78   26.80
  -2 -17  -2  170.58   14.70
  -2  17  -2  236.48   33.10
   2  17   2  132.29   21.60
   3 -17   2  -23.50   18.00
  -3 -17  -2    5.80    6.10
   3 -17   2   15.00   21.30
  -3 -17  -2    6.50   12.50
   3 -17   2    0.70   16.10
  -3 -17  -2   16.70   10.10
  -3  17  -2  -24.30   17.70
   4 -17   2   94.79   24.00
  -4 -17  -2   73.89   15.30
   4 -17   2   43.90   21.10
  -4  17  -2   70.79   25.90
  -4  17  -2   71.39   20.40
   5 -17   2  -23.50   26.10
  -5 -17  -2   -5.70   17.00
   5 -17   2   -5.00   21.00
  -5  17  -2   -4.70   24.10
  -6 -18   2  386.86   27.80
  -6 -18   2  428.96   24.30
   6 -18  -2  470.75   37.00
   6 -18  -2  467.65   39.10
  -6  18   2  387.66   38.40
  -6  18   2  468.65   40.40
  -5 -18   2  240.88   34.80
   5 -18  -2  266.77   27.40
  -5 -18   2  184.18   23.80
   5 -18  -2  252.77   29.00
  -5 -18   2  269.17   19.10
   5  18  -2  209.28   29.90
  -4 -18   2   26.00   15.40
   4 -18  -2   58.39   14.50
  -4 -18   2   61.49   15.20
  -4 -18   2   54.69   10.30
  -4 -18   2   39.00   17.60
   4  18  -2   24.10   18.90
   3 -18  -2  442.16   29.50
   3 -18  -2  442.96   40.80
   3 -18  -2  460.95   30.90
  -3 -18   2  435.96   32.90
  -3 -18   2  450.25   26.80
  -3 -18   2  397.16   34.70
   3 -18  -2  423.46   25.90
  -3  18   2  416.06   38.90
   3  18  -2  378.36   40.50
  -2 -18   2  224.68   33.20
   2 -18  -2  288.87   23.40
  -2 -18   2  233.48   28.70
   2 -18  -2  246.78   22.30
   2 -18  -2  269.27   16.80
  -2 -18   2  269.77   26.40
  -2 -18   2  273.87   21.20
   2 -18  -2  216.18   31.00
   2  18  -2  296.87   35.10
  -2  18   2  235.58   30.50
   1 -18  -2    4.00    8.40
   1 -18  -2    5.00    8.40
   1 -18  -2   -1.60   11.60
  -1 -18   2  -20.00   12.10
  -1 -18   2   15.10    9.40
  -1 -18   2   18.80   17.30
  -1 -18   2   11.00   12.60
  -1  18   2   -6.40   14.30
   1  18  -2  -10.00   15.70
   0 -18  -2  300.87   36.90
   0 -18   2  262.67   25.00
   0 -18   2  284.07   31.50
   0 -18  -2  275.07   24.10
   0 -18   2  286.07   30.70
   0 -18  -2  257.07   25.40
   0 -18   2  299.37   31.30
   0 -18  -2  285.27   20.70
   0  18   2  312.17   33.40
   0  18  -2  290.57   34.00
   1 -18   2  485.45   39.20
  -1 -18  -2  449.76   21.60
   1 -18   2  398.46   31.90
  -1 -18  -2  477.85   38.30
  -1 -18  -2  433.66   25.50
  -1 -18  -2  443.66   29.90
   1 -18   2  441.76   37.30
  -1 -18  -2  426.66   23.10
  -1  18  -2  387.76   39.20
   1  18   2  462.35   37.80
   2 -18   2  362.46   38.10
   2 -18   2  346.17   36.10
  -2 -18  -2  372.96   34.30
  -2 -18  -2  341.87   23.40
  -2 -18  -2  314.27   20.60
  -2 -18  -2  340.37   21.50
   2 -18   2  290.37   32.70
  -2 -18  -2  310.87   21.40
  -2  18  -2  250.17   38.20
   2  18   2  266.07   35.00
   3 -18   2   17.50   17.90
  -3 -18  -2    5.70    7.20
  -3 -18  -2   14.00   11.00
   3 -18   2   12.40   20.50
  -3  18  -2    0.30   22.10
  -4 -18  -2  317.97   31.20
   4 -18   2  350.96   44.60
   4 -18   2  273.67   43.70
  -4  18  -2  361.16   49.20
  -5 -19   2  153.68   27.40
  -5 -19   2  137.99   18.20
   5 -19  -2  135.59   21.60
  -5 -19   2  128.39   13.80
   5 -19  -2  143.79   22.90
  -5  19   2  124.29   30.80
  -4 -19   2  253.37   27.90
   4 -19  -2  209.38   26.10
  -4 -19   2  174.08   25.70
   4 -19  -2  190.38   26.00
  -4 -19   2  173.28   19.90
   4  19  -2  176.88   30.40
  -4  19   2  143.19   28.10
  -3 -19   2  146.69   21.20
  -3 -19   2  139.89   21.90
   3 -19  -2  144.99   19.70
  -3  19   2   93.59   29.10
   3  19  -2  142.29   27.00
  -2 -19   2   94.69   19.50
   2 -19  -2   85.49   14.80
  -2 -19   2   87.79   16.50
   2 -19  -2   42.70   19.00
   2 -19  -2   87.19   14.10
  -2 -19   2   85.49   12.20
   2  19  -2   95.39   23.50
  -2  19   2  136.39   23.50
  -1 -19   2  459.65   36.30
  -1 -19   2  401.96   29.90
   1 -19  -2  397.96   35.40
   1 -19  -2  425.66   28.30
   1 -19  -2  438.36   28.80
  -1 -19   2  493.55   39.20
   1  19  -2  485.85   44.00
  -1  19   2  460.15   39.50
   0 -19   2   87.39   15.70
   0 -19   2   74.29   19.40
   0 -19  -2   87.79   12.60
   0 -19  -2   90.79   17.20
   0 -19   2   88.19   19.90
   0 -19  -2   79.89   12.80
   0  19   2   90.89   21.90
   0  19  -2   80.79   22.40
  -1 -19  -2   22.00    9.30
   1 -19   2   14.30   17.10
  -1 -19  -2   37.40   13.30
   1 -19   2   23.10   17.90
  -1 -19  -2   39.20   22.80
  -1 -19  -2   30.20    9.40
   1  19   2    8.60   16.60
  -1  19  -2  -11.30   18.20
  -2 -19  -2  137.49   16.50
  -2 -19  -2  158.38   16.90
   2 -19   2  166.48   27.30
  -2 -19  -2  123.19   19.30
  -2 -19  -2  132.09   16.60
   2 -19   2  121.79   24.60
   2  19   2  166.28   41.20
  -2  19  -2  107.69   25.70
   3 -19   2  160.48   30.20
   3 -19   2  161.38   28.70
  -3 -19  -2  201.08   22.30
  -3  19  -2  123.89   30.20
   4 -19   2   84.39   27.50
   4 -19   2   60.59   27.00
  -4  19  -2   -4.00   26.70
  -4 -20   2   10.40   22.60
  -4 -20   2   18.50   15.90
   4 -20  -2   -5.30   12.60
   4 -20  -2   -5.30   14.10
  -4  20   2   -6.00   23.00
   4  20  -2   23.40   22.10
   3 -20  -2   80.09   18.20
  -3 -20   2   87.09   18.30
   3 -20  -2   75.19   15.10
  -3 -20   2   80.09   22.70
  -3  20   2   55.09   23.60
   3  20  -2   85.59   24.50
  -2 -20   2   -2.60   15.30
  -2 -20   2  -12.20   16.20
   2 -20  -2   11.20   11.80
   2 -20  -2   18.90   12.50
   2  20  -2  -26.70   19.60
  -2  20   2   26.50   18.30
   1 -20  -2  -11.20   10.10
  -1 -20   2    8.90   18.60
  -1 -20   2   11.50   15.40
   1 -20  -2   -9.00    9.60
  -1  20   2    9.30   18.30
   1  20  -2    2.40   19.80
   0 -20   2   13.20   16.30
   0 -20  -2  -10.40    9.30
   0 -20  -2  -14.20    9.40
   0 -20  -2   16.30   16.10
   0  20  -2    4.90   20.00
   0  20   2  -30.30   17.50
  -1 -20  -2   41.90   12.10
  -1 -20  -2   61.19   16.30
  -1 -20  -2   69.49   12.30
   1 -20   2   87.29   22.60
   1 -20   2   56.39   21.00
   1  20   2   30.10   22.40
  -1  20  -2   45.30   25.00
  -2 -20  -2   94.09   15.70
   2 -20   2   58.79   20.50
   2 -20   2   94.89   26.00
  -2 -20  -2   58.89   12.20
  -2 -20  -2   63.19   13.00
  -2  20  -2   25.50   29.20
   2  20   2   -4.70   22.00
   3 -20   2  -35.00   21.40
   3 -20   2    3.40   25.20
  -3  20  -2    4.00   29.40
   3 -21  -2  194.18   29.90
  -3 -21   2  210.48   31.20
   3 -21  -2  201.88   29.10
  -3 -21   2  230.08   35.90
   3  21  -2  246.98   37.30
  -3  21   2  232.98   34.90
  -2 -21   2  -10.10   16.90
  -2 -21   2   21.40   19.70
   2 -21  -2   23.80   13.40
   2 -21  -2   23.50   14.10
   2  21  -2    1.10   23.30
  -2  21   2    9.90   21.40
   1 -21  -2  182.38   24.50
   1 -21  -2  191.98   24.30
  -1 -21   2  221.78   34.60
  -1 -21   2  207.18   45.50
  -1  21   2  218.58   32.00
   1  21  -2  253.27   41.10
   0 -21   2   93.19   22.20
   0 -21   2  114.39   25.00
   0 -21  -2   69.69   13.90
   0 -21  -2  105.19   16.40
   0  21  -2   95.59   27.10
   0  21   2   70.79   25.20
  -1 -21  -2   25.40   12.30
   1 -21   2   25.40   23.20
  -1 -21  -2   48.30   14.30
   1 -21   2   19.20   24.20
  -1  21  -2   43.00   27.00
   1  21   2   19.40   23.20
  -2 -21  -2  429.26   31.30
   2 -21   2  513.45   51.89
  -2 -21  -2  440.36   34.30
   2 -21   2  481.85   49.60
  -2  21  -2  474.95   55.79
   2  21   2  437.36   49.60
  -1 -22   2   46.70   23.10
  -1 -22   2   57.69   25.60
   1 -22  -2   55.19   15.20
   1  22  -2   32.50   28.10
  -1  22   2   13.50   26.00
  10   0  -3   14.00    9.70
 -10   0   3    1.50   17.20
 -10   0   3  -10.90   11.20
 -10   0   3    4.40   18.00
   9   0  -3  -10.60   15.20
  -9   0   3   12.30   13.00
   9   0  -3   -4.30    6.70
   8   0  -3   -8.80    5.90
   8   0  -3   -7.40   10.50
  -8   0   3  -17.70   10.30
  -8   0   3   11.00   10.20
  -8   0   3    0.00    7.00
   8   0  -3    2.80    5.20
   7   0  -3   -0.40    9.00
  -7   0   3    4.40    7.60
  -7   0   3  -12.70    7.30
   7   0  -3  -12.50    9.10
  -7   0   3  -10.70    5.60
   7   0  -3    3.70    4.80
   6   0  -3    3.00    3.60
   6   0  -3   -5.30    6.50
  -6   0   3    0.70    4.90
  -6   0   3   -9.00    6.50
   5   0  -3    4.70    6.30
  -5   0   3   -1.20    5.50
   5   0  -3    3.40    5.40
  -5   0   3    5.70    4.70
  -4   0   3   -6.60    4.30
  -4   0   3   -0.80    5.00
   4   0  -3   -2.90    5.00
   4   0  -3    7.40    4.00
  -4   0   3    1.10    1.00
  -3   0   3   -1.60    2.30
   3   0  -3    2.10    4.10
  -3   0   3    4.80    3.90
   3   0  -3   -0.10    3.40
  -3   0   3    3.00    3.50
  -3   0   3    0.70    1.80
  -2   0   3   -3.00    2.00
   2   0  -3    2.20    3.90
  -2   0   3    0.30    3.50
  -2   0   3    1.40    3.10
  -2   0   3   -1.30    1.90
   2   0  -3    3.40    3.30
   1   0  -3    0.20    1.30
   1   0  -3    3.50    3.10
  -1   0   3   -0.40    2.20
  -1   0   3    1.30    3.80
  -1   0   3    4.40    3.10
  -1   0   3    1.50    2.50
   1   0  -3   -3.10    2.40
   0   0  -3   -1.60    2.90
   0   0  -3   -0.10    3.50
   0   0  -3   -0.50    2.60
   0   0   3   -3.10    2.20
   0   0   3   -2.30    3.10
   0   0   3    1.20    2.50
   0   0   3   -0.10    3.70
   1   0   3   -2.00    3.30
   1   0   3    0.10    2.80
   1   0   3   -1.80    2.00
  -1   0  -3   -1.90    3.20
  -1   0  -3    4.30    3.90
   1   0   3   -5.90    3.50
   1   0   3   -0.70    3.80
  -1   0  -3   -3.10    3.20
   2   0   3    1.80    3.70
   2   0   3    0.30    4.20
  -2   0  -3    2.90    4.50
   2   0   3   -2.40    2.60
  -2   0  -3    2.20    4.40
  -2   0  -3    2.00    3.10
   2   0   3    1.70    3.90
   2   0   3    1.50    4.70
   3   0   3   -8.50    4.50
  -3   0  -3   -1.00    4.50
  -3   0  -3    4.10    5.00
   3   0   3    1.00    3.50
   3   0   3    5.50    5.60
  -3   0  -3   -0.30    4.10
   3   0   3   -0.30    4.80
   3   0   3    1.10    3.30
  -3   0  -3   -1.20    3.80
   4   0   3    5.60    5.90
   4   0   3    3.50    4.60
   4   0   3   22.70    7.90
  -4   0  -3    1.30    6.00
  -4   0  -3   12.10    5.30
   4   0   3   -1.20    5.90
   4   0   3    1.20    6.30
  -4   0  -3    1.40    6.80
  -4   0  -3   -3.70    4.70
   4   0   3    8.30    4.20
   5   0   3   -5.70    5.10
   5   0   3    0.90    6.50
   5   0   3   -2.60    7.10
  -5   0  -3  -10.80    5.20
  -5   0  -3   25.70    8.00
   5   0   3    0.40    8.10
   5   0   3    0.50   10.00
   5   0   3    4.90    7.00
  -5   0  -3   -1.90    8.50
  -5   0  -3    2.90    8.40
   6   0   3    3.00    9.20
  -6   0  -3   -1.20   10.20
  -6   0  -3   -3.10   10.70
  -6   0  -3   -9.90   11.70
   6   0   3    7.20    5.70
   6   0   3   -0.10    9.50
   6   0   3    6.90    6.90
  -6   0  -3   -1.30    7.80
   7   0   3  -20.50   11.90
  -7   0  -3    1.00   15.40
  -7   0  -3    4.90   14.50
   7   0   3  -24.30   14.00
   8   0   3  -28.40   14.30
  -8   0  -3   -8.00   21.10
  10  -1  -3  222.68   22.90
 -10  -1   3  240.18   24.50
 -10  -1   3  271.57   35.70
 -10   1   3  251.47   33.90
 -10   1   3  237.48   25.90
  10   1  -3  234.58   19.00
 -10   1   3  264.87   34.70
   9  -1  -3 1286.57   67.79
  -9  -1   3 1262.27   67.29
   9  -1  -3 1283.87   58.69
   9  -1  -3 1420.06   62.09
  -9  -1   3 1074.49   72.09
   9   1  -3 1272.77   56.79
   9   1  -3 1384.86   62.29
   9   1  -3 1308.27   60.09
  -9   1   3 1332.17   74.89
  -9   1   3 1217.38   82.09
  -9   1   3 1408.66   69.29
   8  -1  -3  401.06   25.20
  -8  -1   3  409.56   26.40
  -8  -1   3  411.66   30.10
   8  -1  -3  403.86   23.30
  -8  -1   3  451.65   32.40
   8  -1  -3  470.05   34.00
  -8   1   3  366.46   26.30
   8   1  -3  412.46   22.10
  -8   1   3  414.96   31.30
  -8   1   3  402.06   29.90
   8   1  -3  427.26   29.10
  -7  -1   3   65.69   14.20
   7  -1  -3   69.69   14.30
  -7  -1   3   82.79   12.60
  -7  -1   3   66.59   12.30
   7  -1  -3   74.19   10.70
  -7  -1   3   63.89   10.80
   7  -1  -3   88.99   14.70
   7   1  -3   99.79   14.30
  -7   1   3   72.19   11.50
  -7   1   3   83.49   12.70
  -7   1   3   53.59   12.20
   7   1  -3   67.29    8.80
   7   1  -3   69.49   12.10
   6  -1  -3   63.19   11.50
   6  -1  -3   49.30    9.70
  -6  -1   3   36.50    9.30
  -6  -1   3   48.20    8.60
   6  -1  -3   51.09    8.10
  -6  -1   3   41.30   10.80
   6   1  -3   52.29   10.50
   6   1  -3   37.70    6.00
  -6   1   3   49.50    9.00
  -6   1   3   52.09    9.70
  -6   1   3   51.79   11.00
   6   1  -3   54.19    9.80
   5  -1  -3 1164.88   62.19
  -5  -1   3 1186.08   57.79
  -5  -1   3 1295.47   57.69
   5  -1  -3 1192.78   56.89
  -5  -1   3 1268.07   56.29
   5   1  -3 1320.07   57.29
   5   1  -3 1355.16   57.99
  -5   1   3 1214.78   57.99
  -5   1   3 1247.88   56.19
   4  -1  -3  576.34   28.10
   4  -1  -3  521.05   28.70
  -4  -1   3  477.25   26.80
  -4  -1   3  529.05   28.70
  -4  -1   3  537.05   22.00
  -4  -1   3  541.95   27.00
   4   1  -3  509.65   27.20
   4   1  -3  531.25   28.00
  -4   1   3  483.55   27.90
  -4   1   3  525.75   26.80
  -3  -1   3 5085.99  213.48
   3  -1  -3 5634.74  213.18
  -3  -1   3 5134.99  212.38
   3  -1  -3 5396.96  213.78
  -3  -1   3 5193.38  211.08
  -3   1   3 5245.98  212.38
   3   1  -3 5132.49  212.88
   3   1  -3 5610.94  212.78
  -3   1   3 5067.59  213.18
  -3   1   3 5138.29  208.78
  -2  -1   3 3825.12  162.98
  -2  -1   3 3774.92  162.98
  -2  -1   3 4117.79  160.18
   2  -1  -3 4095.49  163.28
   2  -1  -3 4296.07  162.98
  -2   1   3 3976.60  160.38
   2   1  -3 3986.60  162.88
   2   1  -3 4229.38  162.68
  -2   1   3 3954.70  158.98
  -2   1   3 3902.51  162.88
   2   1  -3 3832.82  159.78
  -2   1   3 3999.90  162.18
  -1  -1   3  235.98   15.50
  -1  -1   3  229.68   14.60
  -1  -1   3  256.17   13.80
   1  -1  -3  254.37   14.70
   1  -1  -3  261.27   15.60
  -1   1   3  244.58   12.90
   1   1  -3  230.48   14.30
  -1   1   3  244.18   14.00
  -1   1   3  241.18   14.20
   1   1  -3  258.87   15.20
  -1   1   3  243.58   15.00
   1   1  -3  234.68   12.10
   0  -1   3    4.80    4.60
   0  -1   3    4.30    2.70
   0  -1   3   -1.40    3.00
   0  -1  -3    0.10    3.20
   0  -1  -3    4.60    3.10
   0   1  -3    0.30    3.50
   0   1   3    5.70    3.20
   0   1  -3    5.60    3.30
   0   1   3    3.50    3.60
   0   1  -3    8.30    3.70
   0   1   3    0.90    3.10
   0   1   3    5.10    2.60
   1  -1   3 2832.52  119.79
   1  -1   3 2757.22  119.09
  -1  -1  -3 2966.20  119.19
   1  -1   3 2934.11  117.49
  -1  -1  -3 2803.22  118.19
  -1  -1  -3 2829.52  118.29
   1  -1   3 2839.42  118.29
  -1   1  -3 3047.00  118.99
  -1   1  -3 2804.72  119.09
  -1   1  -3 3045.50  119.39
   1   1   3 2810.32  118.29
   1   1   3 2909.91  116.39
   1   1   3 2832.22  119.89
   1   1   3 3061.99  117.89
   2  -1   3 1754.52   70.29
  -2  -1  -3 1714.53   71.09
  -2  -1  -3 1803.62   71.89
   2  -1   3 1566.14   74.49
   2  -1   3 1672.93   72.39
   2  -1   3 1634.14   72.49
   2  -1   3 1652.33   73.79
  -2  -1  -3 1579.34   71.99
  -2   1  -3 1681.13   71.39
   2   1   3 1753.92   69.69
   2   1   3 1657.63   73.39
   2   1   3 1723.53   69.09
   2   1   3 1696.33   71.29
   2   1   3 1684.53   71.29
  -2   1  -3 1562.94   72.39
   2   1   3 1668.13   70.89
  -2   1  -3 1710.03   73.69
   3  -1   3   82.99   12.50
  -3  -1  -3   80.99   10.30
   3  -1   3   94.99   11.10
   3  -1   3   80.89   11.60
   3  -1   3  102.29    9.00
  -3  -1  -3   92.49   10.30
  -3  -1  -3   73.39    8.70
   3  -1   3   84.59   10.80
  -3  -1  -3   88.39   11.60
   3  -1   3   78.59    8.90
  -3   1  -3   91.99   10.10
   3   1   3   74.49    7.40
  -3   1  -3   90.39   12.20
   3   1   3   93.29   10.20
   3   1   3   74.59   11.50
   3   1   3  107.69   11.40
  -3   1  -3   79.19   10.60
  -3   1  -3  113.69   10.20
   3   1   3   88.59    9.80
   3   1   3   88.99    8.10
  -4  -1  -3  488.35   29.40
   4  -1   3  500.45   28.80
  -4  -1  -3  466.45   25.20
   4  -1   3  459.25   27.10
   4  -1   3  446.76   28.90
   4  -1   3  486.15   24.90
  -4  -1  -3  475.45   25.10
  -4  -1  -3  466.05   27.60
   4  -1   3  489.35   25.20
   4   1   3  489.65   28.10
  -4   1  -3  451.65   28.00
   4   1   3  467.55   25.70
  -4   1  -3  485.15   26.30
  -4   1  -3  498.35   29.60
   4   1   3  504.15   22.90
   4   1   3  491.95   24.20
   4   1   3  443.76   28.30
   4   1   3  501.15   23.90
  -4   1  -3  502.55   26.20
   5  -1   3  527.45   28.90
   5  -1   3  539.75   30.80
  -5  -1  -3  557.94   29.10
   5  -1   3  554.34   33.00
   5  -1   3  584.44   31.40
  -5  -1  -3  524.05   28.50
   5  -1   3  523.25   33.60
   5  -1   3  536.55   28.70
  -5  -1  -3  527.35   33.80
  -5  -1  -3  521.75   32.10
  -5   1  -3  490.25   29.40
   5   1   3  526.85   32.00
   5   1   3  601.94   27.90
   5   1   3  549.74   33.50
  -5   1  -3  534.85   33.70
  -5   1  -3  518.55   34.50
   5   1   3  566.34   29.60
  -5   1  -3  567.94   30.40
   6  -1   3  141.59   17.60
   6  -1   3  169.88   17.90
   6  -1   3  173.88   18.50
  -6  -1  -3  203.98   20.30
   6  -1   3  142.49   20.90
  -6  -1  -3  139.29   21.20
  -6  -1  -3  168.58   24.70
  -6  -1  -3  139.49   16.70
   6   1   3  170.78   20.80
   6   1   3  128.89   18.60
  -6   1  -3  144.39   20.10
  -6   1  -3  177.48   24.10
  -6   1  -3  126.49   18.00
   7  -1   3  115.59   12.40
  -7  -1  -3   83.89   18.60
  -7  -1  -3  127.69   22.70
   7  -1   3  119.29   19.90
   7  -1   3   72.89   16.80
   7  -1   3   97.69   15.10
   7   1   3  107.59   16.80
  -7   1  -3   99.99   19.90
  -7   1  -3  131.39   22.60
   8  -1   3  267.17   32.40
  -8  -1  -3  347.47   42.60
  -8  -1  -3  292.57   34.00
   8   1   3  292.47   31.70
  -8   1  -3  277.17   43.20
  -8   1  -3  271.47   41.80
 -10  -2   3  234.58   35.60
 -10  -2   3  234.98   31.60
  10  -2  -3  163.48   21.50
 -10  -2   3  194.38   23.60
 -10   2   3  158.68   25.00
 -10   2   3  196.68   24.50
 -10   2   3  220.68   32.30
   9  -2  -3    3.90    9.20
   9  -2  -3    2.60   19.00
   9  -2  -3    1.90    7.50
  -9  -2   3   -4.50   14.20
  -9  -2   3  -17.20   11.80
  -9  -2   3    2.60   10.00
  -9   2   3    2.30   10.50
   9   2  -3   -0.30    6.00
   9   2  -3    6.50    9.60
  -9   2   3    8.00   16.20
   9   2  -3   -9.10    8.00
  -9   2   3   24.20   13.40
   8  -2  -3  265.57   20.30
  -8  -2   3  244.08   25.70
   8  -2  -3  271.37   18.30
  -8  -2   3  266.47   21.30
  -8  -2   3  255.57   24.10
   8  -2  -3  326.07   29.60
  -8   2   3  252.67   21.50
   8   2  -3  272.77   15.80
  -8   2   3  267.97   26.50
  -8   2   3  238.98   23.80
   8   2  -3  258.67   18.40
   8   2  -3  250.87   21.00
  -7  -2   3  189.98   19.60
   7  -2  -3  204.78   15.60
   7  -2  -3  205.28   16.40
  -7  -2   3  211.38   17.60
  -7  -2   3  214.38   24.40
   7  -2  -3  192.78   24.00
   7  -2  -3  210.08   22.60
  -7  -2   3  213.28   21.50
   7   2  -3  242.28   21.40
   7   2  -3  220.88   13.70
   7   2  -3  211.98   18.30
  -7   2   3  197.38   21.10
  -7   2   3  215.78   19.50
  -7   2   3  209.58   18.00
   6  -2  -3    0.80    4.60
  -6  -2   3   -4.40    7.10
  -6  -2   3    0.00    5.70
   6  -2  -3    9.50    8.60
  -6  -2   3    4.00    6.60
   6  -2  -3   -3.30    6.70
  -6   2   3    6.40    5.10
  -6   2   3    7.10    6.30
   6   2  -3    2.20    3.80
   6   2  -3   16.80    6.80
   6   2  -3    4.90    6.90
  -6   2   3   -4.00    6.20
  -5  -2   3  131.79   14.30
   5  -2  -3  124.99   15.40
   5  -2  -3  122.69   13.70
  -5  -2   3  130.69   12.80
  -5  -2   3  143.69   15.10
   5   2  -3  149.19   13.70
  -5   2   3  141.69   14.20
  -5   2   3  145.09   12.60
  -5   2   3  128.59   12.10
   5   2  -3  165.58   14.00
  -4  -2   3 1865.91   81.99
  -4  -2   3 1984.70   80.89
   4  -2  -3 1915.11   82.49
  -4  -2   3 1874.31   80.59
   4  -2  -3 1885.31   81.09
  -4   2   3 1738.93   79.89
   4   2  -3 1987.10   80.99
  -4   2   3 1809.42   81.59
  -3  -2   3 2972.10  125.59
   3  -2  -3 3196.98  126.19
  -3  -2   3 2870.01  124.29
   3  -2  -3 3084.79  121.49
  -3  -2   3 3118.59  123.59
   3  -2  -3 3101.49  124.89
  -3   2   3 2954.10  120.79
   3   2  -3 3107.39  124.49
  -3   2   3 2871.51  124.89
  -3   2   3 2818.32  123.79
   3   2  -3 3102.19  124.89
  -2  -2   3  402.86   19.70
   2  -2  -3  421.86   21.20
   2  -2  -3  409.86   19.70
  -2  -2   3  423.66   21.80
  -2  -2   3  366.96   22.00
   2  -2  -3  392.26   21.70
   2   2  -3  385.26   19.30
  -2   2   3  378.06   21.20
   2   2  -3  407.96   21.40
  -2   2   3  356.96   20.10
   2   2  -3  424.76   21.20
  -2   2   3  390.86   20.50
  -1  -2   3  297.57   17.30
   1  -2  -3  297.17   17.30
   1  -2  -3  309.77   16.50
  -1  -2   3  262.37   17.40
   1  -2  -3  290.97   16.50
  -1  -2   3  317.47   16.60
   1   2  -3  285.17   16.60
  -1   2   3  295.17   16.10
  -1   2   3  285.97   15.90
   1   2  -3  300.27   15.00
  -1   2   3  294.37   14.30
   1   2  -3  293.27   17.10
  -1   2   3  292.47   16.70
   0  -2   3 1259.27   56.79
   0  -2  -3 1333.97   55.99
   0  -2   3 1367.16   55.49
   0  -2   3 1243.28   55.99
   0  -2  -3 1286.07   53.69
   0  -2  -3 1317.17   55.29
   0  -2  -3 1380.16   56.59
   0   2   3 1316.87   53.39
   0   2  -3 1342.37   56.09
   0   2  -3 1244.48   55.49
   0   2  -3 1288.07   55.59
   0   2   3 1266.57   55.79
   0   2   3 1206.68   55.19
   0   2   3 1102.99   55.99
  -1  -2  -3 1264.27   51.89
   1  -2   3 1273.67   52.49
   1  -2   3 1118.29   53.29
   1  -2   3 1231.98   51.39
   1  -2   3 1184.78   53.19
  -1  -2  -3 1193.08   52.19
  -1  -2  -3 1178.18   51.39
   1   2   3 1095.79   52.19
  -1   2  -3 1061.19   52.29
   1   2   3 1140.29   53.09
   1   2   3 1183.58   50.59
   1   2   3 1261.57   51.49
  -1   2  -3 1198.98   52.29
  -1   2  -3 1291.07   52.99
   1   2   3 1214.08   49.30
  -2  -2  -3  180.18   12.60
  -2  -2  -3  134.19   11.80
  -2  -2  -3  147.39   10.80
   2  -2   3  144.39   10.90
   2  -2   3  158.08   13.00
   2  -2   3  149.99   12.50
   2  -2   3  147.49   13.30
   2   2   3  151.98   13.40
   2   2   3  146.99   10.90
   2   2   3  154.98    8.50
  -2   2  -3  138.69   11.30
  -2   2  -3  156.18   12.50
  -2   2  -3  151.88   13.00
   2   2   3  155.68    9.70
   2   2   3  160.78   11.30
   2   2   3  156.08    9.50
  -3  -2  -3  756.22   36.60
   3  -2   3  730.63   38.10
  -3  -2  -3  760.22   38.20
   3  -2   3  801.62   36.10
   3  -2   3  751.52   39.30
   3  -2   3  781.82   37.70
  -3  -2  -3  688.43   35.90
   3  -2   3  793.02   38.30
  -3  -2  -3  763.62   35.30
   3  -2   3  782.82   35.80
  -3   2  -3  768.12   36.60
   3   2   3  791.32   35.70
   3   2   3  742.23   38.50
   3   2   3  797.62   32.20
   3   2   3  769.62   32.60
  -3   2  -3  690.73   38.20
  -3   2  -3  811.22   38.70
   3   2   3  784.22   33.50
   3   2   3  857.11   37.60
  -3   2  -3  731.63   36.20
   4  -2   3   33.20    8.90
   4  -2   3   34.80    8.80
   4  -2   3   65.39   10.00
  -4  -2  -3   32.90    7.80
   4  -2   3   44.80    9.70
   4  -2   3   41.90    7.70
   4  -2   3   30.10    8.10
  -4  -2  -3   40.50    9.30
  -4  -2  -3   38.40    6.90
  -4  -2  -3   32.30    6.40
  -4   2  -3   33.20    8.80
  -4   2  -3   31.60   10.20
  -4   2  -3   42.50    8.30
   4   2   3   45.70    9.60
  -4   2  -3   34.40    7.50
   4   2   3   43.20    6.00
   4   2   3   39.50    8.70
   4   2   3   45.10    7.60
   5  -2   3  626.84   31.70
   5  -2   3  516.85   34.10
   5  -2   3  537.25   32.50
  -5  -2  -3  617.64   30.20
  -5  -2  -3  548.95   29.10
   5  -2   3  577.14   30.90
   5  -2   3  583.24   33.60
   5  -2   3  544.05   34.50
  -5  -2  -3  534.15   32.80
  -5  -2  -3  618.04   36.20
  -5   2  -3  561.14   31.40
  -5   2  -3  574.84   31.90
   5   2   3  588.64   33.80
  -5   2  -3  597.04   36.20
   5   2   3  566.44   28.00
  -5   2  -3  523.95   34.60
   5   2   3  555.74   34.10
   5   2   3  585.64   29.60
  -6  -2  -3  241.58   24.60
  -6  -2  -3  305.37   22.40
   6  -2   3  258.27   24.40
   6  -2   3  228.88   23.80
  -6  -2  -3  227.38   26.50
   6  -2   3  277.17   23.10
   6  -2   3  257.47   24.90
  -6  -2  -3  247.68   19.60
  -6   2  -3  279.57   28.00
  -6   2  -3  258.87   23.40
  -6   2  -3  258.27   26.10
   6   2   3  257.17   23.00
   6   2   3  290.97   21.10
  -7  -2  -3  188.98   27.60
  -7  -2  -3  265.67   32.40
   7  -2   3  201.38   27.00
   7  -2   3  148.29   22.60
   7  -2   3  220.58   25.10
   7   2   3  185.08   27.10
  -7   2  -3  208.08   27.00
  -7   2  -3  193.88   26.60
   7   2   3  152.58   23.50
   8  -2   3   63.49   18.90
  -8  -2  -3   23.10   21.60
  -8  -2  -3  -28.40   20.10
  -8   2  -3   34.80   22.50
   8   2   3   22.90   15.90
  -8   2  -3   18.90   21.20
 -10  -3   3    2.50   18.50
 -10  -3   3   21.90   11.30
  10  -3  -3   -1.10   11.00
 -10   3   3   -0.70   17.50
 -10   3   3    0.70   17.10
 -10   3   3    0.40   12.70
  -9  -3   3   76.69   17.30
   9  -3  -3   76.39   21.40
   9  -3  -3   77.69   11.70
  -9  -3   3   82.99   19.40
   9  -3  -3  119.09   23.30
  -9  -3   3   86.59   13.70
  -9   3   3   81.19   14.40
  -9   3   3   78.59   16.60
   9   3  -3   85.99   12.10
  -9   3   3   90.19   19.90
  -8  -3   3  115.19   16.20
   8  -3  -3  134.89   14.30
  -8  -3   3  130.59   15.80
  -8  -3   3  117.29   17.80
   8  -3  -3  141.39   18.30
   8  -3  -3  133.99   21.20
   8   3  -3  141.09   13.50
   8   3  -3  118.19   14.30
  -8   3   3  147.09   17.10
  -8   3   3  141.69   19.50
   8   3  -3  111.39   10.00
  -8   3   3  120.99   18.80
   7  -3  -3   46.70   13.40
   7  -3  -3   46.60    8.20
   7  -3  -3   45.40    9.30
  -7  -3   3   30.50    7.80
   7  -3  -3   43.90   13.40
  -7  -3   3   45.30   12.40
  -7  -3   3   45.30   14.80
   7   3  -3   54.69    9.20
   7   3  -3   68.89   10.90
  -7   3   3   40.10    9.60
   7   3  -3   40.00    5.50
  -7   3   3   34.70    8.60
  -7   3   3   49.30   11.90
  -6  -3   3  188.18   15.80
  -6  -3   3  168.28   18.20
   6  -3  -3  194.28   20.40
   6  -3  -3  174.78   14.30
   6  -3  -3  210.08   19.50
  -6  -3   3  222.48   20.40
   6   3  -3  205.38   15.80
  -6   3   3  185.38   16.00
  -6   3   3  196.18   16.10
  -6   3   3  206.58   18.50
   6   3  -3  184.68   11.80
   6   3  -3  208.88   17.00
  -5  -3   3  561.34   31.70
  -5  -3   3  607.34   32.10
   5  -3  -3  559.34   23.90
   5  -3  -3  595.34   33.00
   5  -3  -3  576.54   31.30
  -5  -3   3  545.15   29.60
  -5  -3   3  592.94   23.70
  -5   3   3  511.65   30.90
  -5   3   3  542.75   29.20
   5   3  -3  571.74   29.10
  -5   3   3  558.94   28.60
   5   3  -3  597.84   29.70
   4  -3  -3  264.77   12.90
  -4  -3   3  249.08   17.20
   4  -3  -3  268.77   17.70
  -4  -3   3  262.97   16.90
  -4  -3   3  253.77   18.50
  -4   3   3  249.18   16.10
  -4   3   3  254.97   17.70
   4   3  -3  246.68   16.50
   4   3  -3  246.98   16.40
   3  -3  -3  192.48   14.00
  -3  -3   3  193.68   13.40
  -3  -3   3  185.48   15.00
  -3  -3   3  196.38   14.00
   3  -3  -3  200.68   11.20
  -3   3   3  209.78   13.50
   3   3  -3  195.88   13.00
   3   3  -3  193.38   13.30
   3   3  -3  205.68   13.80
  -3   3   3  191.78   14.10
  -2  -3   3    3.00    4.20
   2  -3  -3    3.90    3.70
  -2  -3   3    2.80    3.90
   2  -3  -3    5.10    2.80
  -2  -3   3    4.60    3.30
   2  -3  -3   13.90    5.00
  -2   3   3    5.70    2.70
  -2   3   3    2.80    3.90
   2   3  -3    2.10    3.80
   2   3  -3    5.40    3.20
   2   3  -3    1.80    2.70
  -2   3   3    3.90    3.20
   1  -3  -3   67.79    7.20
  -1  -3   3   69.19    7.80
   1  -3  -3   49.90    6.60
  -1  -3   3   53.79    8.30
  -1  -3   3   57.39    8.80
   1  -3  -3   55.69    7.80
  -1   3   3   59.09    4.60
  -1   3   3   59.99    6.30
  -1   3   3   69.69    7.10
   1   3  -3   61.39    7.90
   1   3  -3   61.19    7.30
  -1   3   3   66.39    7.20
   0  -3  -3  505.35   24.70
   0  -3   3  468.45   25.60
   0  -3  -3  484.45   22.20
   0  -3   3  470.65   25.80
   0  -3   3  509.35   24.90
   0  -3  -3  501.95   24.20
   0  -3  -3  501.05   25.50
   0  -3  -3  518.05   21.00
   0   3   3  456.25   23.90
   0   3  -3  509.35   24.90
   0   3   3  508.55   21.90
   0   3   3  469.95   24.60
   0   3  -3  471.95   25.00
   0   3  -3  482.65   24.60
   1  -3   3  521.85   25.00
   1  -3   3  513.95   26.80
  -1  -3  -3  579.24   27.90
   1  -3   3  507.45   27.30
  -1  -3  -3  456.65   24.00
  -1  -3  -3  509.85   24.80
   1  -3   3  473.55   25.50
  -1  -3  -3  533.15   25.40
   1   3   3  514.85   21.80
  -1   3  -3  502.85   25.60
   1   3   3  510.35   23.60
  -1   3  -3  496.45   25.60
   1   3   3  503.15   26.50
  -1   3  -3  493.75   26.30
   1   3   3  523.05   22.70
   1   3   3  527.15   24.00
   2  -3   3 1533.05   69.59
  -2  -3  -3 1567.94   66.79
   2  -3   3 1651.83   69.19
   2  -3   3 1653.23   67.69
  -2  -3  -3 1611.94   67.69
   2  -3   3 1504.15   69.79
  -2  -3  -3 1543.25   67.99
  -2  -3  -3 1587.74   70.49
   2  -3   3 1581.14   67.59
   2   3   3 1482.95   69.19
  -2   3  -3 1637.64   68.39
   2   3   3 1676.23   64.89
   2   3   3 1524.55   66.89
   2   3   3 1675.83   66.29
  -2   3  -3 1439.86   69.19
  -2   3  -3 1639.54   68.29
   3  -3   3  120.49   13.10
   3  -3   3  125.39   13.80
   3  -3   3  108.29   14.00
  -3  -3  -3  125.59   11.10
  -3  -3  -3  114.39    9.80
  -3  -3  -3  117.49   13.00
   3  -3   3  123.29   11.40
   3   3   3  117.09   13.50
   3   3   3  121.89    8.00
  -3   3  -3  141.09   12.30
   3   3   3  133.39   12.10
  -3   3  -3  101.69   11.50
   3   3   3  134.69   10.00
  -3   3  -3  131.69   14.40
   4  -3   3  754.12   36.90
  -4  -3  -3  746.03   39.20
   4  -3   3  697.43   39.40
  -4  -3  -3  754.32   35.00
   4  -3   3  784.02   39.40
   4  -3   3  687.63   38.40
  -4  -3  -3  671.83   36.00
  -4  -3  -3  703.83   34.10
   4  -3   3  740.23   35.60
   4  -3   3  782.32   39.30
  -4   3  -3  740.53   36.30
   4   3   3  647.84   37.50
   4   3   3  797.22   32.40
   4   3   3  752.72   37.80
   4   3   3  768.52   33.90
  -4   3  -3  689.13   38.70
  -4   3  -3  729.33   36.80
  -4   3  -3  720.03   39.60
   5  -3   3    8.50    9.40
  -5  -3  -3   36.30    7.80
  -5  -3  -3   30.90   11.30
   5  -3   3   -1.40    8.20
  -5  -3  -3   17.40    5.70
  -5  -3  -3   18.50    9.20
   5  -3   3   14.90   10.40
   5  -3   3    7.20    7.50
   5  -3   3    2.60    8.90
   5  -3   3   24.40   10.70
   5   3   3   15.00    8.40
  -5   3  -3   37.20    9.10
  -5   3  -3   15.40    9.70
  -5   3  -3   20.90    9.30
   5   3   3   30.50    6.40
   5   3   3   16.20    5.60
  -5   3  -3   19.90   10.00
  -6  -3  -3   51.79   12.20
   6  -3   3   49.10   12.90
  -6  -3  -3   48.60   11.00
   6  -3   3   56.49   13.90
   6  -3   3   49.10   14.00
  -6  -3  -3   47.20   14.00
   6  -3   3   28.80   12.30
  -6  -3  -3   57.49    9.20
  -6   3  -3   22.60   11.20
  -6   3  -3   46.70   14.90
   6   3   3   48.70    9.30
  -6   3  -3   62.89   16.40
   6   3   3   19.20   10.60
  -7  -3  -3  -12.10   15.50
   7  -3   3    3.70   14.60
   7  -3   3   24.20   13.80
  -7  -3  -3   15.80   13.10
   7  -3   3   -7.60   17.00
  -7   3  -3    5.70   15.10
  -7   3  -3   11.60   15.50
   7   3   3   -6.10   10.60
   8  -3   3   54.49   18.50
  -8  -3  -3   37.30   22.50
  -8  -3  -3   62.79   23.40
  -8   3  -3   18.70   23.40
   8   3   3   17.30   15.40
  -8   3  -3   39.80   23.30
  10  -4  -3  708.83   41.60
 -10  -4   3  679.83   41.40
 -10  -4   3  698.93   52.39
 -10  -4   3  734.83   51.49
 -10   4   3  732.83   50.69
 -10   4   3  809.42   52.29
 -10   4   3  777.52   45.40
   9  -4  -3   17.20    9.60
   9  -4  -3    7.80   11.30
  -9  -4   3   -4.10   15.40
   9  -4  -3   48.20   24.40
  -9  -4   3   22.00   15.30
  -9  -4   3   23.60    9.10
  -9   4   3    9.80   10.40
  -9   4   3   37.60   15.50
  -9   4   3    5.70   13.10
   9   4  -3    5.50    8.20
   8  -4  -3  111.79   14.70
  -8  -4   3  107.59   16.70
   8  -4  -3  105.19   20.50
   8  -4  -3   89.19   13.60
  -8  -4   3  135.29   15.60
  -8  -4   3  105.49   16.30
  -8   4   3  132.79   19.90
  -8   4   3  123.69   17.20
   8   4  -3  113.29   13.30
  -8   4   3  153.48   22.70
  -7  -4   3  130.39   19.40
  -7  -4   3  159.58   15.70
  -7  -4   3  168.68   24.70
   7  -4  -3  159.38   15.00
   7  -4  -3  196.98   17.80
   7  -4  -3  175.78   25.20
   7  -4  -3  157.78   22.90
   7   4  -3  189.38   19.00
  -7   4   3  182.18   18.20
   7   4  -3  171.88   10.40
  -7   4   3  164.28   20.00
  -7   4   3  179.28   17.10
   7   4  -3  174.28   13.00
   6  -4  -3  750.72   37.70
   6  -4  -3  854.81   44.50
  -6  -4   3  756.72   42.90
   6  -4  -3  751.42   41.90
  -6  -4   3  810.32   32.50
  -6  -4   3  767.72   38.70
  -6  -4   3  793.32   41.80
  -6   4   3  763.32   38.90
   6   4  -3  848.52   39.10
   6   4  -3  811.32   36.60
  -6   4   3  787.92   41.70
   6   4  -3  769.72   34.00
  -6   4   3  743.53   39.00
  -5  -4   3   -7.50    6.40
  -5  -4   3    3.10    4.50
   5  -4  -3   -1.40    8.80
   5  -4  -3    4.60    7.00
   5  -4  -3    6.60    2.70
  -5  -4   3    4.70    6.30
   5   4  -3    3.70    5.00
  -5   4   3    6.60    4.30
   5   4  -3    1.10    4.60
  -5   4   3    4.90    5.10
  -5   4   3    3.80    4.10
  -4  -4   3 4357.46  186.78
   4  -4  -3 4964.40  189.98
  -4  -4   3 4439.06  188.18
   4  -4  -3 4428.26  183.28
   4  -4  -3 4765.32  188.58
   4   4  -3 4879.91  185.98
  -4   4   3 4428.16  187.98
  -4   4   3 4576.44  186.58
  -4   4   3 4369.66  184.58
   4   4  -3 4723.93  186.38
   3  -4  -3 1937.81   80.99
  -3  -4   3 1904.51   83.69
  -3  -4   3 1974.60   84.89
   3  -4  -3 2013.10   85.09
   3  -4  -3 1981.50   83.99
  -3  -4   3 2092.09   83.89
  -3   4   3 1803.32   83.49
   3   4  -3 2119.89   83.29
   3   4  -3 1824.42   82.99
   3   4  -3 2008.30   82.69
  -2  -4   3  288.27   16.80
  -2  -4   3  293.97   18.60
   2  -4  -3  293.17   17.30
   2  -4  -3  303.17   18.40
  -2  -4   3  293.27   17.80
   2  -4  -3  277.87   15.80
   2   4  -3  254.27   16.30
   2   4  -3  296.67   16.70
   2   4  -3  318.17   17.30
  -2   4   3  288.87   16.10
  -2   4   3  272.47   15.00
  -2   4   3  287.37   16.90
  -1  -4   3   66.19    8.50
   1  -4  -3   49.10    7.40
   1  -4  -3   40.70    6.30
  -1  -4   3   68.09    8.30
  -1  -4   3   41.00    7.20
   1  -4  -3   45.00    6.80
   1   4  -3   57.99    7.10
   1   4  -3   43.10    6.60
  -1   4   3   49.10    3.80
   1   4  -3   46.30    6.60
  -1   4   3   50.59    5.90
  -1   4   3   44.20    6.50
  -1   4   3   47.60    6.50
  -1   4   3   49.40    3.40
   0  -4  -3  922.21   41.00
   0  -4   3  900.51   42.90
   0  -4  -3  914.71   40.40
   0  -4   3  867.21   42.30
   0  -4  -3  907.21   38.30
   0  -4  -3  899.01   42.00
   0  -4  -3  910.91   37.70
   0  -4   3  906.71   41.60
   0   4   3  878.91   41.10
   0   4  -3  946.71   41.30
   0   4   3  926.81   37.80
   0   4  -3  912.01   41.20
   0   4   3  971.10   38.80
   0   4  -3  841.62   41.70
   0   4   3  905.51   39.40
   1  -4   3  363.76   23.20
  -1  -4  -3  421.06   20.40
  -1  -4  -3  413.26   21.30
   1  -4   3  393.76   21.00
  -1  -4  -3  405.76   19.60
   1  -4   3  388.36   23.40
  -1  -4  -3  391.86   19.90
   1   4   3  402.96   19.20
   1   4   3  390.86   22.00
  -1   4  -3  412.46   21.70
   1   4   3  435.16   19.20
  -1   4  -3  389.26   22.70
  -2  -4  -3 2394.16   95.09
  -2  -4  -3 2271.97   95.99
   2  -4   3 2150.38   95.99
   2  -4   3 2308.27   99.19
   2  -4   3 2482.75   98.19
   2  -4   3 2213.28   99.09
  -2  -4  -3 2352.36   95.89
  -2  -4  -3 2355.86   99.39
  -2  -4  -3 2270.87   96.29
   2   4   3 2379.56   92.49
   2   4   3 2267.17   97.89
  -2   4  -3 2219.48   96.69
   2   4   3 2433.16   95.59
   2   4   3 2316.17   93.39
  -2   4  -3 2230.98   96.29
  -2   4  -3 2267.47   98.79
   3  -4   3 3200.38  140.39
  -3  -4  -3 3427.06  136.79
   3  -4   3 3587.14  139.99
   3  -4   3 3256.77  140.69
  -3  -4  -3 3084.19  138.59
  -3  -4  -3 3342.67  139.29
  -3  -4  -3 3548.94  141.79
  -3  -4  -3 3223.58  135.49
   3  -4   3 3376.76  137.49
   3  -4   3 3466.15  138.39
   3   4   3 3398.96  133.99
  -3   4  -3 3290.87  138.29
   3   4   3 3430.66  137.89
   3   4   3 3176.48  139.19
  -3   4  -3 3465.15  138.09
   3   4   3 3313.17  132.99
  -3   4  -3 3290.87  140.89
  -4  -4  -3  240.28   16.70
  -4  -4  -3  234.68   19.70
   4  -4   3  248.98   18.60
   4  -4   3  204.98   20.90
  -4  -4  -3  224.28   15.90
  -4  -4  -3  210.68   14.50
   4  -4   3  270.37   21.20
   4  -4   3  218.58   17.20
   4  -4   3  232.88   21.10
  -4   4  -3  246.28   18.10
   4   4   3  240.98   12.70
   4   4   3  220.48   18.40
  -4   4  -3  237.88   20.60
  -4   4  -3  240.98   20.90
  -4   4  -3  224.38   18.20
   4   4   3  235.78   11.80
   5  -4   3  136.89   19.70
  -5  -4  -3  127.09   16.00
   5  -4   3  128.49   17.20
   5  -4   3  122.49   17.50
  -5  -4  -3  133.39   19.00
   5  -4   3  125.59   18.90
  -5  -4  -3  105.39   11.20
  -5  -4  -3  132.99   13.70
  -5  -4  -3  138.49   19.30
   5  -4   3  123.19   19.20
  -5   4  -3  128.39   18.10
   5   4   3  110.79   16.00
  -5   4  -3  142.19   15.90
  -5   4  -3   97.09   15.30
  -5   4  -3  137.99   17.00
  -6  -4  -3  408.56   30.10
   6  -4   3  495.95   34.80
   6  -4   3  457.65   33.40
  -6  -4  -3  423.36   24.40
   6  -4   3  377.76   32.10
  -6  -4  -3  482.55   26.70
  -6  -4  -3  444.86   34.60
   6  -4   3  407.76   32.20
  -6   4  -3  395.36   34.30
  -6   4  -3  443.66   30.10
  -6   4  -3  371.36   33.10
   6   4   3  384.86   28.40
  -7  -4  -3  277.17   28.00
   7  -4   3  324.17   30.70
  -7  -4  -3  223.48   33.90
   7  -4   3  282.27   31.60
  -7   4  -3  227.38   33.00
   7   4   3  294.17   26.50
  -7   4  -3  307.77   50.79
  -8  -4  -3  -39.50   18.60
   8  -4   3    8.10   19.10
   8  -4   3   -4.30   19.30
  -8  -4  -3   18.40   21.90
  -8   4  -3  -44.60   20.90
  -8   4  -3   16.50   23.00
   8   4   3   38.40   15.40
  10  -5  -3  166.98   24.40
 -10  -5   3  172.18   21.10
 -10  -5   3  142.19   26.60
 -10  -5   3  231.88   35.20
 -10   5   3  126.09   26.00
 -10   5   3  197.78   27.20
 -10   5   3  148.59   23.90
   9  -5  -3   87.39   16.60
  -9  -5   3   61.89   18.40
  -9  -5   3   83.39   12.90
  -9  -5   3  119.49   20.30
   9  -5  -3   65.49   12.50
   9   5  -3   76.49   11.00
  -9   5   3   71.89   17.10
  -9   5   3   83.39   27.60
  -9   5   3   76.19   16.00
  -8  -5   3  327.37   23.50
  -8  -5   3  388.36   30.20
   8  -5  -3  336.97   23.60
  -8  -5   3  369.46   30.10
   8  -5  -3  354.46   38.10
   8  -5  -3  388.36   27.80
  -8   5   3  410.96   29.30
  -8   5   3  329.87   25.80
   8   5  -3  384.66   21.10
  -8   5   3  351.16   30.20
   7  -5  -3  654.73   34.80
  -7  -5   3  623.54   34.70
   7  -5  -3  662.53   41.40
   7  -5  -3  695.43   36.40
   7  -5  -3  643.34   43.40
  -7  -5   3  799.02   44.50
  -7  -5   3  625.34   38.20
   7   5  -3  640.94   34.50
  -7   5   3  633.24   38.80
  -7   5   3  706.13   36.90
  -7   5   3  657.63   35.80
  -6  -5   3    1.20    3.10
   6  -5  -3    9.00    9.20
  -6  -5   3    5.00    6.10
  -6  -5   3   -1.60    8.20
   6  -5  -3    5.60   10.40
   6  -5  -3   -4.30    4.90
  -6  -5   3   13.40   10.80
  -6   5   3    5.40    7.50
   6   5  -3    6.30    3.90
  -6   5   3    6.60    6.10
  -6   5   3   -2.40    4.70
   6   5  -3    4.20    2.80
   6   5  -3   -5.20    6.10
   5  -5  -3   31.00    8.60
  -5  -5   3   39.70    9.00
   5  -5  -3   30.00    4.60
  -5  -5   3   20.90    8.10
  -5  -5   3   19.50    6.20
   5  -5  -3   26.80    9.60
   5   5  -3   29.70    5.10
  -5   5   3   16.80    6.10
   5   5  -3   26.10    6.10
  -5   5   3   23.30    6.00
  -5   5   3   28.10    7.10
   4  -5  -3  266.67   18.80
   4  -5  -3  288.17   21.20
  -4  -5   3  258.37   19.90
  -4  -5   3  288.57   19.20
  -4  -5   3  246.78   17.60
   4  -5  -3  294.57   15.20
   4   5  -3  301.37   17.50
   4   5  -3  261.37   18.60
   4   5  -3  295.37   15.90
  -4   5   3  272.17   18.90
  -4   5   3  274.67   15.60
  -4   5   3  271.97   17.20
  -3  -5   3   58.19    9.40
   3  -5  -3   65.69    7.20
   3  -5  -3   66.29    9.50
  -3  -5   3   63.39    9.20
  -3  -5   3   48.90    7.70
  -3   5   3   60.49    8.70
  -3   5   3   54.69    5.40
  -3   5   3   54.19    7.60
   3   5  -3   60.39    7.60
   3   5  -3   63.79    9.20
  -2  -5   3   10.40    5.20
   2  -5  -3   10.70    3.80
   2  -5  -3   12.10    4.00
   2  -5  -3   11.40    5.40
  -2  -5   3    9.00    4.40
  -2  -5   3   13.70    5.00
   2   5  -3   10.00    3.80
  -2   5   3    8.80    3.10
   2   5  -3   16.00    5.40
  -2   5   3   14.10    4.20
   2   5  -3   11.80    3.80
  -1  -5   3    2.90    4.40
   1  -5  -3    2.00    3.30
   1  -5  -3    3.70    3.90
   1  -5  -3   -0.60    2.60
  -1  -5   3    3.10    4.20
  -1  -5   3    7.30    4.50
   1   5  -3    5.10    3.70
  -1   5   3    1.10    0.90
  -1   5   3    0.50    2.80
   1   5  -3    0.40    3.90
   1   5  -3    1.10    3.30
  -1   5   3    1.20    2.80
  -1   5   3    1.90    1.90
   0  -5   3  220.18   16.10
   0  -5  -3  228.48   11.30
   0  -5  -3  224.08   15.70
   0  -5  -3  248.08   12.10
   0  -5   3  237.08   15.20
   0  -5  -3  219.88   14.20
   0  -5   3  230.98   16.60
   0  -5  -3  227.38   13.90
   0   5   3  206.98   14.30
   0   5   3  235.88   10.90
   0   5  -3  204.18   15.30
   0   5  -3  210.28   14.10
   0   5   3  233.38   12.30
   0   5   3  240.08   11.20
   0   5  -3  243.48   14.60
   1  -5   3  321.17   21.00
   1  -5   3  334.47   19.80
  -1  -5  -3  318.87   17.30
  -1  -5  -3  338.27   20.80
   1  -5   3  299.17   20.50
  -1  -5  -3  358.26   18.30
   1  -5   3  318.17   21.00
  -1  -5  -3  336.77   18.00
   1   5   3  342.87   15.50
  -1   5  -3  290.77   19.80
  -1   5  -3  311.67   18.30
  -1   5  -3  325.57   18.90
   1   5   3  349.37   16.30
   1   5   3  330.37   19.60
  -2  -5  -3  440.76   23.70
  -2  -5  -3  430.76   23.50
   2  -5   3  511.85   25.10
   2  -5   3  500.55   24.80
  -2  -5  -3  430.46   22.10
   2  -5   3  429.16   26.70
   2  -5   3  483.25   25.90
  -2  -5  -3  442.56   23.10
  -2  -5  -3  441.76   27.00
   2  -5   3  480.05   27.90
   2   5   3  442.46   25.50
  -2   5  -3  466.75   24.30
   2   5   3  464.95   19.30
  -2   5  -3  425.36   26.10
  -2   5  -3  441.86   24.50
   3  -5   3   19.90    8.70
  -3  -5  -3   17.20    6.50
  -3  -5  -3   18.70    5.80
  -3  -5  -3   18.60    4.30
   3  -5   3   10.60    7.40
  -3  -5  -3   22.50    6.70
   3  -5   3   22.10    6.50
  -3  -5  -3   14.40    8.10
   3  -5   3   16.50    7.90
   3  -5   3   11.30    7.00
  -3   5  -3    7.50    5.90
  -3   5  -3    6.20    6.60
   3   5   3   13.00    6.50
  -3   5  -3    8.60    5.50
   4  -5   3  399.26   26.30
  -4  -5  -3  417.16   27.00
   4  -5   3  449.06   26.70
  -4  -5  -3  406.06   21.30
   4  -5   3  456.85   25.10
  -4  -5  -3  390.76   27.20
   4  -5   3  418.76   28.50
   4  -5   3  440.46   30.60
  -4  -5  -3  397.26   22.90
  -4   5  -3  438.76   25.60
  -4   5  -3  394.76   27.30
  -4   5  -3  437.46   26.00
   4   5   3  390.76   25.40
  -4   5  -3  411.76   28.50
   5  -5   3   43.30   10.80
  -5  -5  -3    1.90   11.90
   5  -5   3   21.40   10.70
  -5  -5  -3   17.10    6.60
  -5  -5  -3   21.00   11.00
  -5  -5  -3   15.10    8.60
  -5  -5  -3   32.10    7.30
  -5   5  -3   18.00   10.00
   5   5   3   21.10    8.80
  -5   5  -3   31.80   12.10
  -5   5  -3   52.89   11.70
  -6  -5  -3   10.80    8.40
   6  -5   3   -7.10   13.70
  -6  -5  -3    5.50    9.20
   6  -5   3  -19.80   11.50
  -6  -5  -3   12.10   13.30
   6  -5   3  -14.50   12.10
   6   5   3  -12.70    8.80
  -6   5  -3  -20.40   11.30
  -6   5  -3   23.90   12.00
  -6   5  -3   10.30   14.30
  -7  -5  -3   51.19   21.90
  -7  -5  -3   40.60   16.00
   7  -5   3   39.20   19.50
   7  -5   3   48.10   18.50
   7  -5   3   71.99   18.10
  -7  -5  -3   82.89   20.80
  -7   5  -3   64.19   19.40
  -7   5  -3   67.09   21.80
   7   5   3   54.89   14.30
   8  -5   3   12.40   21.80
  -8  -5  -3   -7.80   21.20
   8  -5   3   65.39   21.00
  -8  -5  -3  -12.30   19.00
  -8   5  -3   57.79   24.00
  -8   5  -3   43.40   24.80
 -10  -6   3  371.36   28.40
  10  -6  -3  375.36   32.00
 -10  -6   3  382.16   40.10
 -10  -6   3  370.16   40.20
 -10   6   3  376.06   33.90
 -10   6   3  404.56   40.40
 -10   6   3  339.77   39.50
   9  -6  -3   14.00    9.90
  -9  -6   3   20.40    9.80
  -9  -6   3   12.30   15.30
  -9  -6   3   19.00   13.70
   9  -6  -3   18.60   14.50
  -9   6   3   49.70   20.40
   9   6  -3   19.10    8.70
  -9   6   3   27.20   16.10
  -8  -6   3  186.18   17.60
   8  -6  -3  134.69   26.20
  -8  -6   3  213.58   24.00
   8  -6  -3  185.08   17.70
   8  -6  -3  184.38   21.80
  -8  -6   3  177.28   24.60
  -8   6   3  203.98   22.40
  -8   6   3  192.18   24.20
  -8   6   3  198.88   20.50
   8   6  -3  189.48   14.40
   7  -6  -3  103.19    8.40
  -7  -6   3  116.29    9.80
   7  -6  -3  101.49   18.10
   7  -6  -3  123.69   21.20
   7  -6  -3  116.19   16.10
  -7  -6   3   63.19   19.60
  -7  -6   3  121.69   14.20
   7  -6  -3  108.39   14.10
  -7  -6   3  102.69   15.60
  -7   6   3   79.19   13.90
  -7   6   3  112.29   16.00
  -7   6   3  117.39   16.70
   7   6  -3  116.59   15.60
   7   6  -3  123.99   10.40
   6  -6  -3  149.79   19.00
   6  -6  -3  138.59   13.60
  -6  -6   3  157.48   11.10
   6  -6  -3  136.09   10.80
  -6  -6   3  123.09   17.60
  -6  -6   3  204.88   22.00
  -6  -6   3  156.48   14.80
   6  -6  -3  131.39   18.60
  -6   6   3  149.09   14.90
   6   6  -3  163.58   14.50
  -6   6   3  141.29   14.70
  -6   6   3  161.78   17.30
  -5  -6   3   -3.90    7.30
   5  -6  -3    5.60    3.90
  -5  -6   3   13.30    7.70
   5  -6  -3    1.80    4.70
  -5  -6   3    5.30    5.50
   5  -6  -3  -14.10    8.40
   5  -6  -3    6.00    7.70
  -5   6   3    8.80    4.90
   5   6  -3    1.00    2.90
   5   6  -3   -0.50    2.50
  -5   6   3   -3.00    5.10
  -5   6   3   10.20    5.00
   5   6  -3    5.80    4.80
  -4  -6   3 2265.77  103.59
   4  -6  -3 2611.14  104.79
   4  -6  -3 2453.75   99.99
   4  -6  -3 2467.65  105.69
  -4  -6   3 2269.97  102.39
  -4  -6   3 2509.15  104.59
  -4   6   3 2480.65  103.49
  -4   6   3 2396.66   99.59
  -4   6   3 2405.16  101.79
   4   6  -3 2558.44  101.09
   4   6  -3 2322.67  104.09
   4   6  -3 2399.46   98.89
  -3  -6   3 2184.88   96.79
   3  -6  -3 2289.87   98.09
   3  -6  -3 2284.07   93.99
  -3  -6   3 2264.77   96.19
   3  -6  -3 2308.67   97.79
  -3  -6   3 2296.27  106.89
  -3   6   3 2234.78   94.39
  -3   6   3 2300.77   91.69
   3   6  -3 2299.67   94.29
   3   6  -3 2299.97   96.99
   3   6  -3 2210.88   92.89
  -3   6   3 2215.28   95.39
   2  -6  -3  170.28   12.20
  -2  -6   3  185.08   14.10
   2  -6  -3  161.78   12.60
   2  -6  -3  190.28   14.60
  -2  -6   3  150.58   13.90
  -2  -6   3  162.78   13.50
   2   6  -3  164.18   13.60
  -2   6   3  161.88   11.90
  -2   6   3  174.68   11.30
   2   6  -3  174.48   13.50
   2   6  -3  169.38   11.20
  -2   6   3  175.18    7.90
  -1  -6   3  981.70   47.60
  -1  -6   3 1045.90   47.20
   1  -6  -3 1007.20   46.30
   1  -6  -3 1051.59   46.60
   1  -6  -3 1015.80   45.60
  -1  -6   3 1024.10   47.70
   1   6  -3  951.70   45.40
  -1   6   3  986.20   43.60
   1   6  -3 1106.49   45.40
  -1   6   3 1055.89   43.40
   1   6  -3 1034.30   47.30
   0  -6  -3  538.75   32.40
   0  -6   3  600.34   31.30
   0  -6  -3  580.84   24.80
   0  -6  -3  616.54   28.20
   0  -6  -3  608.94   28.70
   0  -6  -3  601.34   26.70
   0  -6   3  566.44   30.80
   0  -6   3  540.45   32.60
   0   6   3  622.04   26.20
   0   6   3  556.74   28.60
   0   6  -3  561.54   30.20
   0   6  -3  590.94   30.60
   0   6   3  599.54   24.40
   0   6   3  617.34   26.80
   0   6  -3  630.74   29.30
   0   6  -3  603.44   28.40
   1  -6   3   35.90    8.30
  -1  -6  -3   40.80    6.20
   1  -6   3   45.80    7.00
   1  -6   3   38.70    8.70
  -1  -6  -3   38.50    5.90
  -1  -6  -3   44.50    8.20
  -1  -6  -3   46.60    5.60
  -1  -6  -3   35.30    5.70
   1  -6   3   43.30    7.50
   1   6   3   48.30    3.80
  -1   6  -3   45.90    7.30
  -1   6  -3   33.60    7.10
  -1   6  -3   52.69    8.30
   1   6   3   33.90    6.80
  -2  -6  -3  796.32   35.80
   2  -6   3  832.62   38.70
   2  -6   3  831.52   40.10
  -2  -6  -3  844.32   41.60
  -2  -6  -3  787.12   37.10
  -2  -6  -3  797.22   36.60
   2  -6   3  795.32   42.10
  -2  -6  -3  806.22   38.00
   2  -6   3  872.71   39.50
   2  -6   3  763.42   41.30
  -2   6  -3  750.22   40.20
  -2   6  -3  796.02   38.60
   2   6   3  735.53   38.60
  -2   6  -3  845.42   38.10
  -3  -6  -3 1279.17   53.59
  -3  -6  -3 1174.08   53.99
  -3  -6  -3 1250.17   59.59
   3  -6   3 1295.97   56.99
   3  -6   3 1237.48   55.59
  -3  -6  -3 1166.68   55.89
  -3  -6  -3 1253.97   56.59
   3  -6   3 1228.28   59.49
   3  -6   3 1202.88   59.99
   3  -6   3 1261.77   58.09
   3   6   3 1216.18   56.49
  -3   6  -3 1183.08   58.59
  -3   6  -3 1199.28   55.19
  -3   6  -3 1224.38   56.19
   4  -6   3  576.94   36.20
   4  -6   3  534.65   29.80
   4  -6   3  510.45   33.40
  -4  -6  -3  576.54   35.60
  -4  -6  -3  518.05   32.40
  -4  -6  -3  541.25   32.40
  -4  -6  -3  514.85   25.40
   4  -6   3  518.15   33.00
  -4  -6  -3  563.74   27.40
   4  -6   3  512.95   31.40
   4   6   3  516.05   30.20
  -4   6  -3  577.84   31.60
  -4   6  -3  516.85   33.20
  -4   6  -3  571.14   30.60
  -5  -6  -3   66.69   10.00
  -5  -6  -3   52.99   13.70
   5  -6   3   67.29   17.40
  -5  -6  -3   75.59   11.80
   5  -6   3   53.19   12.80
  -5  -6  -3   78.29   17.10
  -5  -6  -3   63.29   10.60
   5  -6   3   63.99   14.70
   5   6   3   64.89   11.90
  -5   6  -3   57.49   14.10
  -5   6  -3   66.99   14.30
  -5   6  -3   85.79   15.30
   6  -6   3   65.69   17.40
   6  -6   3   73.19   20.20
  -6  -6  -3   72.19   17.20
  -6  -6  -3   78.69   11.10
   6  -6   3   60.49   15.00
  -6  -6  -3   43.90   12.00
   6  -6   3   56.69   17.60
   6   6   3   59.39   11.80
  -6   6  -3   63.09   15.30
  -6   6  -3   33.40   24.60
  -6   6  -3   58.39   15.50
   7  -6   3   54.39   17.50
  -7  -6  -3   94.09   24.40
  -7  -6  -3   62.39   18.80
   7  -6   3   74.69   20.50
  -7   6  -3   60.49   20.90
  -7   6  -3   63.39   20.00
  -8  -6  -3   13.10   21.90
   8  -6   3   31.30   25.60
  -8  -6  -3  -25.10   19.00
  -8   6  -3   43.50   24.00
  -8   6  -3    5.50   24.80
 -10  -7   3  238.68   32.10
 -10  -7   3  243.88   38.40
  10  -7  -3  232.08   29.50
 -10  -7   3  195.78   23.10
 -10   7   3  216.68   27.40
 -10   7   3  201.58   28.10
 -10   7   3  267.17   36.80
  -9  -7   3  342.47   34.30
  -9  -7   3  352.46   25.10
  -9  -7   3  300.37   33.10
   9  -7  -3  339.67   31.30
   9  -7  -3  352.46   27.80
  -9   7   3  356.26   35.90
   8  -7  -3  109.49   16.20
   8  -7  -3  130.99   20.30
  -8  -7   3  144.49   19.30
  -8  -7   3  157.48   16.20
  -8   7   3  110.59   17.30
   8   7  -3  127.79   11.20
  -8   7   3  121.79   17.90
  -8   7   3  107.89   15.70
   7  -7  -3    5.30    8.40
   7  -7  -3    4.50    7.50
  -7  -7   3   17.20    7.60
  -7  -7   3   -0.30    5.40
   7  -7  -3    3.90   12.60
  -7  -7   3   -0.10   10.00
   7  -7  -3    5.00   17.90
   7  -7  -3    7.90    5.60
  -7   7   3    7.90    7.50
   7   7  -3    8.40    7.60
   7   7  -3   -1.70    4.50
  -7   7   3  -12.10    7.80
  -7   7   3    6.30    8.80
  -6  -7   3  641.14   28.90
  -6  -7   3  623.14   35.70
  -6  -7   3  621.34   38.70
   6  -7  -3  652.13   29.00
   6  -7  -3  586.64   39.80
  -6  -7   3  569.74   32.10
   6  -7  -3  567.04   31.70
   6  -7  -3  563.94   32.20
   6  -7  -3  580.14   36.80
  -6   7   3  576.64   31.70
  -6   7   3  617.84   33.00
  -6   7   3  635.44   35.60
   6   7  -3  584.54   29.80
   5  -7  -3  874.01   45.30
  -5  -7   3  861.41   42.00
   5  -7  -3  812.62   41.40
  -5  -7   3  842.92   44.10
   5  -7  -3  908.41   47.40
  -5  -7   3  903.71   46.10
   5  -7  -3  915.71   39.80
  -5   7   3  781.92   42.80
   5   7  -3  882.61   35.50
  -5   7   3  900.11   40.50
  -5   7   3  833.72   41.70
   5   7  -3  869.61   35.40
   5   7  -3  906.81   39.90
  -4  -7   3  114.99   12.20
  -4  -7   3  102.79   14.90
  -4  -7   3  120.99   15.00
   4  -7  -3  114.79   14.00
   4  -7  -3  126.59   15.70
   4  -7  -3  122.29   11.10
   4   7  -3  120.89   13.80
  -4   7   3  110.19    9.40
  -4   7   3  123.89   12.60
   4   7  -3  111.89    7.80
  -4   7   3  109.49   11.00
   4   7  -3  118.49   10.60
   3  -7  -3  353.26   21.60
   3  -7  -3  343.27   23.00
  -3  -7   3  349.07   22.30
  -3  -7   3  350.66   21.30
   3  -7  -3  356.26   19.70
  -3  -7   3  353.36   22.70
   3   7  -3  349.27   17.40
  -3   7   3  360.36   16.50
   3   7  -3  334.97   19.10
  -3   7   3  371.36   19.60
   3   7  -3  329.57   21.70
  -3   7   3  300.37   19.70
   2  -7  -3 2425.46   99.89
  -2  -7   3 2431.36  105.09
  -2  -7   3 2232.28  100.59
   2  -7  -3 2500.75   99.49
  -2  -7   3 2263.97  100.09
   2   7  -3 2412.66   97.09
  -2   7   3 2307.37   97.69
   2   7  -3 2474.35   98.39
  -2   7   3 2429.56   97.59
   2   7  -3 2175.58  100.39
   1  -7  -3 1619.44   68.89
  -1  -7   3 1551.44   70.99
  -1  -7   3 1581.64   70.69
  -1  -7   3 1673.63   70.59
   1  -7  -3 1576.34   73.09
   1  -7  -3 1710.13   69.89
  -1   7   3 1650.73   67.09
  -1   7   3 1597.94   66.09
   1   7  -3 1525.85   70.59
  -1   7   3 1690.33   66.69
   1   7  -3 1407.26   70.09
   1   7  -3 1648.94   67.59
   0  -7  -3   -2.40    3.30
   0  -7   3   -1.80    4.80
   0  -7   3   -3.30    4.50
   0  -7  -3    6.90    4.90
   0  -7  -3   -1.60    3.00
   0  -7   3    1.80    4.70
   0  -7  -3    4.80    3.90
   0  -7  -3    1.10    1.40
   0  -7   3    2.30    4.30
   0   7  -3    7.90    5.00
   0   7   3    0.50    2.00
  -1  -7  -3  999.10   43.10
   1  -7   3 1034.50   46.70
   1  -7   3  986.30   49.50
  -1  -7  -3 1031.90   45.10
  -1  -7  -3 1044.30   44.40
  -1  -7  -3 1082.19   49.20
   1  -7   3 1015.80   49.70
  -1  -7  -3 1013.00   44.60
   1  -7   3 1130.29   48.40
  -1   7  -3  889.71   48.10
  -1   7  -3 1011.50   45.50
   1   7   3  925.01   46.10
   1   7   3 1022.70   40.50
  -1   7  -3 1005.10   48.40
  -2  -7  -3 1634.84   68.59
   2  -7   3 1701.83   72.89
   2  -7   3 1546.65   74.69
  -2  -7  -3 1581.04   69.49
  -2  -7  -3 1616.24   70.49
   2  -7   3 1729.33   72.09
  -2  -7  -3 1732.53   74.29
   2  -7   3 1595.94   71.19
   2  -7   3 1584.94   74.99
   2   7   3 1556.94   71.39
  -2   7  -3 1680.93   70.69
  -2   7  -3 1610.74   73.69
   3  -7   3   13.40    7.10
   3  -7   3    8.90    9.90
  -3  -7  -3    0.90    3.20
   3  -7   3   15.50    8.90
  -3  -7  -3    5.80    6.90
  -3  -7  -3    1.10    5.00
  -3  -7  -3   -1.60    6.10
   3  -7   3   -1.10    7.80
   3  -7   3   -9.70    7.00
  -3  -7  -3   22.00    9.90
  -3   7  -3    3.50    7.90
   3   7   3    1.40    5.40
  -3   7  -3    5.00    6.40
  -3   7  -3   11.80    6.50
   4  -7   3  872.11   45.00
  -4  -7  -3  785.22   43.50
   4  -7   3  895.31   48.80
   4  -7   3  785.82   41.70
  -4  -7  -3  857.41   47.10
  -4  -7  -3  799.72   36.30
   4  -7   3  835.22   47.10
  -4  -7  -3  838.32   44.20
   4  -7   3  855.51   43.90
  -4  -7  -3  861.51   38.40
  -4   7  -3  870.61   42.80
   4   7   3  829.12   42.20
  -4   7  -3  809.32   45.50
  -4   7  -3  811.12   43.10
   5  -7   3   33.30   11.90
   5  -7   3   43.60   16.40
  -5  -7  -3   15.70   12.10
  -5  -7  -3   35.40    6.10
  -5  -7  -3   -5.60   14.90
  -5  -7  -3   25.10    7.20
   5  -7   3   39.70   12.60
  -5   7  -3   48.50   13.60
   5   7   3   33.60    9.60
  -5   7  -3   26.80   13.80
  -6  -7  -3   54.79   12.10
   6  -7   3   52.89   21.80
  -6  -7  -3   55.69   10.30
   6  -7   3   58.89   17.00
   6  -7   3   55.89   17.90
  -6  -7  -3   53.79   16.80
  -6   7  -3   39.20   15.90
  -6   7  -3   43.40   15.10
  -6   7  -3   50.89   15.70
  -7  -7  -3   79.89   16.00
   7  -7   3   71.99   21.90
  -7  -7  -3   82.89   22.60
   7  -7   3   98.59   30.10
   7  -7   3   50.39   19.00
  -7   7  -3   39.70   20.40
  -7   7  -3   75.29   23.10
 -10  -8   3  -30.70   19.40
  10  -8  -3   14.00   14.70
 -10  -8   3    1.60   11.00
 -10  -8   3    6.90   21.00
 -10   8   3  -13.80   20.10
 -10   8   3    3.80   16.20
 -10   8   3    6.70   19.70
   9  -8  -3    0.80   10.80
   9  -8  -3   31.20   15.30
  -9  -8   3    5.80   15.40
  -9  -8   3   22.90   16.30
  -9  -8   3   18.00    9.80
  -9   8   3   19.20   15.10
  -9   8   3   -6.70   15.20
  -8  -8   3  130.19   19.30
   8  -8  -3  147.59   18.00
   8  -8  -3  181.08   13.40
  -8  -8   3  204.58   16.10
  -8  -8   3  152.48   17.10
   8  -8  -3  160.48   21.30
  -8   8   3  162.48   21.30
  -8   8   3  108.69   27.20
  -8   8   3  107.79   17.70
   7  -8  -3  211.88   19.30
   7  -8  -3  223.18   29.50
  -7  -8   3  208.28   18.30
   7  -8  -3  183.88   31.50
   7  -8  -3  202.88   20.80
  -7  -8   3  222.98   16.70
   7  -8  -3  246.28   16.20
  -7  -8   3  207.38   23.70
  -7   8   3  229.18   23.20
  -7   8   3  194.98   20.10
   7   8  -3  210.48   15.10
  -7   8   3  191.68   19.70
   6  -8  -3   49.30   16.10
  -6  -8   3   35.50    6.50
  -6  -8   3   22.60    8.20
  -6  -8   3   20.50   11.20
   6  -8  -3   19.80    6.40
   6  -8  -3   13.30   11.20
   6  -8  -3   29.10    7.90
   6  -8  -3   16.80    8.50
  -6  -8   3   21.10   12.60
   6   8  -3   17.30    6.30
  -6   8   3   16.60    7.10
  -6   8   3   26.50    8.10
  -6   8   3   20.60    7.20
   5  -8  -3  170.08   18.80
  -5  -8   3  183.88   15.40
  -5  -8   3  185.88   19.50
   5  -8  -3  164.48   14.00
   5  -8  -3  167.38   21.90
   5  -8  -3  147.09   13.90
  -5  -8   3  147.19   17.90
  -5   8   3  153.88   13.40
  -5   8   3  156.28   16.10
  -5   8   3  151.88   14.30
   5   8  -3  157.18   12.50
   4  -8  -3   47.80   11.00
   4  -8  -3   78.69   10.40
  -4  -8   3   54.99   10.40
   4  -8  -3   43.10    9.00
  -4  -8   3   67.69   10.40
  -4  -8   3   46.60    9.40
  -4   8   3   58.59    9.00
   4   8  -3   65.89    8.40
  -4   8   3   70.69   11.10
   4   8  -3   61.59    5.00
  -4   8   3   61.99    7.90
   4   8  -3   59.89   11.20
  -3  -8   3   15.00    7.10
  -3  -8   3    5.50    5.40
   3  -8  -3    1.80    6.30
  -3  -8   3    0.10    5.70
   3  -8  -3   12.20    6.30
   3   8  -3    8.30    6.40
   3   8  -3    1.70    2.80
  -3   8   3    2.70    4.80
  -3   8   3    4.80    3.90
  -3   8   3    1.80    2.40
   3   8  -3    7.00    4.50
  -2  -8   3  157.58   15.90
   2  -8  -3  216.38   15.70
   2  -8  -3  222.38   17.30
  -2  -8   3  178.68   16.50
  -2  -8   3  225.08   16.60
   2  -8  -3  197.58   15.10
  -2   8   3  208.58   13.80
   2   8  -3  203.68   16.70
   2   8  -3  216.98   13.60
  -2   8   3  219.58   13.00
   2   8  -3  211.68   12.40
  -2   8   3  193.08   13.00
   1  -8  -3   22.60    6.50
  -1  -8   3   20.40    6.60
  -1  -8   3   11.60    6.30
   1  -8  -3   15.10    5.00
   1  -8  -3   19.10    6.20
  -1  -8   3   17.90    7.00
  -1   8   3   20.30    3.60
   1   8  -3    8.00    4.60
   1   8  -3   26.10    7.10
  -1   8   3   15.30    4.40
   1   8  -3   21.70    4.70
  -1   8   3   13.90    3.70
   0  -8   3   12.20    6.50
   0  -8   3    3.80    6.00
   0  -8   3   10.90    5.00
   0  -8  -3    5.50    3.90
   0  -8  -3    0.00    6.10
   0  -8   3   15.10    6.30
   0  -8  -3    5.40    4.70
   0   8   3    3.40    3.80
   0   8  -3    4.90    3.60
   0   8   3    6.20    2.30
   0   8  -3    9.80    6.00
   0   8  -3    8.50    4.70
   1  -8   3   53.19   11.00
  -1  -8  -3   58.59   10.40
  -1  -8  -3   56.29    6.00
  -1  -8  -3   63.39    9.00
   1  -8   3   53.39    9.90
   1  -8   3   61.59    9.70
   1  -8   3   52.99    8.10
  -1  -8  -3   52.39    7.70
  -1  -8  -3   51.79    7.20
  -1   8  -3   75.89    9.60
  -1   8  -3   51.29    9.20
  -1   8  -3   66.99   10.10
   2  -8   3   35.50    7.60
   2  -8   3   37.60    8.10
  -2  -8  -3   34.70    7.70
   2  -8   3   29.80   10.50
   2  -8   3   38.20    8.70
   2  -8   3   39.50   10.90
  -2  -8  -3   36.90    6.00
  -2  -8  -3   30.30    6.40
  -2  -8  -3   39.60    9.50
  -2  -8  -3   31.80    5.20
  -2   8  -3   35.50    9.40
  -2   8  -3   41.20    8.10
  -2   8  -3   31.90    7.00
   3  -8   3  282.27   25.80
  -3  -8  -3  283.17   15.50
   3  -8   3  313.87   23.90
  -3  -8  -3  305.77   17.70
  -3  -8  -3  286.27   20.50
   3  -8   3  303.87   24.70
  -3  -8  -3  284.57   25.40
  -3  -8  -3  311.17   22.10
   3  -8   3  281.47   22.30
   3  -8   3  327.57   21.80
  -3   8  -3  306.27   20.90
  -3   8  -3  273.27   23.00
  -3   8  -3  333.87   22.30
  -4  -8  -3   27.90    9.90
   4  -8   3   29.00   12.10
  -4  -8  -3   43.00    7.60
   4  -8   3   45.90   11.90
  -4  -8  -3   45.70   13.50
   4  -8   3   45.00   13.40
  -4  -8  -3   34.20    4.90
   4  -8   3   43.70   13.30
   4  -8   3   38.90   10.70
  -4  -8  -3   38.70   13.70
  -4   8  -3   41.80   11.40
  -4   8  -3   59.19   12.10
  -4   8  -3   36.20   10.40
   5  -8   3   30.30   14.10
  -5  -8  -3   16.20   17.00
  -5  -8  -3   12.90    4.80
   5  -8   3    3.00   11.80
  -5  -8  -3    7.80    6.00
  -5  -8  -3    8.30   11.70
   5  -8   3   13.70   15.40
  -5  -8  -3    9.40   16.40
  -5   8  -3    6.50   12.50
  -5   8  -3   -9.00   12.40
  -6  -8  -3   18.60    8.80
   6  -8   3  -23.20   17.30
  -6  -8  -3   -8.20   12.90
   6  -8   3   -3.40   13.40
  -6   8  -3  -10.20   15.00
  -6   8  -3  -15.90   15.10
  -7  -8  -3   21.90   20.20
   7  -8   3   10.30   21.20
   7  -8   3    9.40   31.80
   7  -8   3   18.60   18.30
  -7   8  -3  -23.50   18.60
 -10  -9   3  147.49   22.10
 -10  -9   3  202.08   30.30
  10  -9  -3  160.98   23.30
 -10  -9   3  205.28   33.50
 -10   9   3  166.18   28.10
 -10   9   3  135.69   25.10
 -10   9   3  145.99   23.60
  -9  -9   3  601.54   43.50
   9  -9  -3  610.64   41.40
  -9  -9   3  591.34   43.60
  -9  -9   3  503.25   32.60
   9  -9  -3  542.25   36.50
  -9   9   3  456.65   43.90
  -9   9   3  475.35   40.70
  -9   9   3  588.44   42.40
   8  -9  -3   60.59   15.30
  -8  -9   3   16.60   10.70
   8  -9  -3   48.30    9.30
  -8  -9   3   71.49   17.30
  -8  -9   3   22.80   14.10
  -8   9   3   31.70   13.80
  -8   9   3   44.00   14.10
   7  -9  -3   16.30    7.50
   7  -9  -3    7.80    9.80
   7  -9  -3    2.20    7.60
  -7  -9   3   20.60   11.40
  -7  -9   3    3.60    7.70
   7  -9  -3   20.00   17.60
  -7   9   3    2.60    8.70
  -7   9   3    1.40    9.70
  -7   9   3   -1.00    7.90
   6  -9  -3  282.97   32.20
   6  -9  -3  233.28   19.40
   6  -9  -3  265.57   21.00
  -6  -9   3  240.78   27.60
   6  -9  -3  229.98   21.60
  -6  -9   3  262.77   17.80
  -6  -9   3  260.27   24.20
   6  -9  -3  289.27   28.20
  -6  -9   3  228.38   19.10
  -6   9   3  277.57   22.80
  -6   9   3  246.58   19.50
   6   9  -3  245.58   14.50
  -6   9   3  241.88   20.10
   5  -9  -3 1465.45   64.09
   5  -9  -3 1475.15   71.89
  -5  -9   3 1426.96   69.49
  -5  -9   3 1483.45   65.19
  -5  -9   3 1423.56   67.29
   5  -9  -3 1296.77   63.89
   5  -9  -3 1547.35   69.99
   5   9  -3 1412.46   69.09
  -5   9   3 1489.25   62.99
  -5   9   3 1414.56   65.99
   5   9  -3 1428.86   60.49
  -5   9   3 1387.16   64.49
   4  -9  -3  454.95   31.60
  -4  -9   3  466.85   28.30
  -4  -9   3  509.95   30.50
   4  -9  -3  462.25   29.20
   4  -9  -3  484.95   26.30
  -4  -9   3  397.46   25.50
  -4   9   3  454.45   24.90
   4   9  -3  399.96   27.60
   4   9  -3  453.15   19.10
  -4   9   3  437.86   22.50
   4   9  -3  446.36   22.50
  -4   9   3  446.66   26.00
   3  -9  -3  542.65   28.50
  -3  -9   3  491.15   28.40
   3  -9  -3  541.55   30.20
  -3  -9   3  469.65   29.30
   3  -9  -3  544.35   31.60
  -3  -9   3  560.54   31.60
  -3   9   3  493.15   26.80
   3   9  -3  500.15   25.30
  -3   9   3  537.95   26.40
  -3   9   3  498.85   23.00
   3   9  -3  509.45   30.70
   3   9  -3  526.25   23.20
   2  -9  -3 1792.72   77.89
  -2  -9   3 1756.52   79.69
   2  -9  -3 1895.21   79.59
  -2  -9   3 1690.53   78.59
   2  -9  -3 1861.71   78.29
  -2  -9   3 1757.32   78.39
  -2  -9   3 1781.12   78.59
   2   9  -3 1767.12   79.79
   2   9  -3 1753.62   73.59
  -2   9   3 1724.23   75.99
   2   9  -3 1810.92   75.19
  -2   9   3 1736.03   74.59
  -2   9   3 1809.72   74.69
  -1  -9   3  593.34   34.20
  -1  -9   3  625.74   33.20
  -1  -9   3  587.24   33.70
   1  -9  -3  635.64   33.50
   1  -9  -3  642.94   31.60
  -1   9   3  653.63   28.60
  -1   9   3  627.94   27.70
   1   9  -3  633.84   29.40
   1   9  -3  651.93   34.70
  -1   9   3  621.84   30.80
   1   9  -3  667.53   31.10
   0  -9   3  162.58   16.70
   0  -9  -3  172.78   16.60
   0  -9   3  187.08   14.80
   0  -9   3  188.68   17.40
   0  -9   3  178.38   16.10
   0  -9  -3  182.68   14.10
   0  -9  -3  184.58   12.70
   0   9  -3  180.28   13.60
   0   9   3  187.18   13.50
   0   9  -3  176.28   12.70
   0   9  -3  161.58   16.70
   0   9   3  173.48    9.60
   1  -9   3 1181.08   54.49
  -1  -9  -3 1154.18   50.79
   1  -9   3 1208.18   57.59
  -1  -9  -3 1156.78   52.39
  -1  -9  -3 1113.39   48.50
  -1  -9  -3 1196.28   56.39
   1  -9   3 1098.69   56.69
   1  -9   3 1184.08   53.29
  -1  -9  -3 1194.68   50.49
  -1   9  -3 1150.38   51.59
  -1   9  -3 1175.58   53.09
  -1   9  -3 1133.89   55.49
   1   9   3 1153.08   52.59
  -2  -9  -3  662.23   31.20
   2  -9   3  706.13   40.50
  -2  -9  -3  676.73   30.60
  -2  -9  -3  676.03   34.80
   2  -9   3  685.13   35.30
   2  -9   3  743.13   35.60
   2  -9   3  675.03   36.40
  -2  -9  -3  672.83   32.40
  -2  -9  -3  636.94   37.80
   2  -9   3  612.04   38.70
  -2   9  -3  682.73   33.90
  -2   9  -3  684.03   38.20
  -2   9  -3  650.73   34.60
   3  -9   3   -3.80    7.80
  -3  -9  -3    9.10    3.70
  -3  -9  -3    8.90    8.80
  -3  -9  -3    2.60    5.20
   3  -9   3    1.10   10.60
  -3  -9  -3   11.50   11.70
   3  -9   3   18.30    9.30
  -3  -9  -3    7.60    7.10
   3  -9   3   14.00   10.70
   3  -9   3   16.30   10.80
  -3   9  -3   10.50    8.20
  -3   9  -3   -0.20    8.00
  -3   9  -3   11.00    9.50
   4  -9   3  616.64   41.90
  -4  -9  -3  656.03   31.10
  -4  -9  -3  711.33   40.40
  -4  -9  -3  588.74   37.10
  -4  -9  -3  650.33   28.40
   4  -9   3  709.53   44.60
   4  -9   3  611.44   36.80
  -4  -9  -3  654.23   43.70
   4  -9   3  706.03   40.00
  -4   9  -3  662.73   41.30
  -4   9  -3  688.33   38.90
   5  -9   3  559.04   42.60
   5  -9   3  515.85   39.50
  -5  -9  -3  518.75   40.30
  -5  -9  -3  488.95   35.60
  -5   9  -3  554.24   38.80
  -5   9  -3  427.66   36.10
   6  -9   3   20.90   20.20
  -6  -9  -3   17.10   15.70
  -6  -9  -3   30.20    9.20
  -6   9  -3   31.10   18.70
   7  -9   3  172.68   29.00
  -7  -9  -3  181.28   28.80
  -7   9  -3  156.08   29.30
   9 -10  -3   35.70   13.90
  -9 -10   3   47.70   11.20
   9 -10  -3   49.20   18.50
  -9 -10   3   43.30   20.10
  -9 -10   3   67.59   19.40
  -9  10   3   46.90   15.80
  -9  10   3   -1.40   18.00
  -9  10   3   21.80   15.90
   8 -10  -3    0.00   12.10
  -8 -10   3   10.70    8.90
   8 -10  -3   19.10   10.10
  -8 -10   3   16.40   14.60
  -8  10   3   -8.50   11.90
  -8  10   3    9.40   13.20
  -8  10   3   -1.80   12.60
  -7 -10   3  145.79   17.50
   7 -10  -3   90.39   15.50
  -7 -10   3  122.29   17.40
   7 -10  -3  112.29   24.10
   7 -10  -3  110.09   15.20
  -7 -10   3  111.19   18.70
   7 -10  -3  121.59   14.50
  -7  10   3  136.89   19.40
  -7  10   3   92.69   16.00
  -7  10   3  104.89   15.20
  -6 -10   3   82.39   11.80
   6 -10  -3   90.69   12.90
  -6 -10   3   89.59   15.00
  -6 -10   3  105.49   14.90
   6 -10  -3   68.99   12.20
   6 -10  -3   91.69   18.40
   6 -10  -3   98.29   12.30
  -6  10   3   95.99   14.30
   6  10  -3  101.69    7.40
  -6  10   3  103.89   15.70
  -6  10   3  104.39   14.70
   5 -10  -3  141.69   15.60
   5 -10  -3  112.29   13.50
   5 -10  -3  121.09   18.60
   5 -10  -3  119.99   18.40
  -5 -10   3  119.19   14.70
   5 -10  -3  116.09   14.00
  -5 -10   3  122.79   18.60
  -5 -10   3  141.49   19.10
   5  10  -3   90.99    9.50
   5  10  -3  120.29   17.20
  -5  10   3  115.09   13.80
  -5  10   3  104.59   15.30
  -5  10   3  118.39   12.70
   4 -10  -3  281.97   19.80
  -4 -10   3  356.86   27.30
   4 -10  -3  307.77   22.30
  -4 -10   3  312.67   23.40
  -4 -10   3  301.67   21.30
   4 -10  -3  332.37   27.10
   4 -10  -3  295.47   25.30
  -4  10   3  314.07   17.60
   4  10  -3  316.47   24.20
  -4  10   3  311.97   20.60
   4  10  -3  308.57   17.10
  -4  10   3  312.87   20.00
  -3 -10   3  416.06   29.10
  -3 -10   3  453.05   28.30
   3 -10  -3  517.55   28.40
  -3 -10   3  456.55   27.40
   3 -10  -3  443.86   28.70
   3 -10  -3  511.15   31.10
  -3  10   3  505.35   24.80
   3  10  -3  461.75   23.40
   3  10  -3  463.25   29.40
  -3  10   3  451.25   24.90
   3  10  -3  486.15   21.20
  -3  10   3  444.06   21.00
   2 -10  -3  123.49   13.60
   2 -10  -3  118.49   14.20
  -2 -10   3   94.69   14.00
   2 -10  -3  133.89   16.00
  -2 -10   3  113.09   14.50
  -2 -10   3   91.39   14.10
   2  10  -3  117.19   10.40
   2  10  -3  109.29    8.70
  -2  10   3  105.39    9.40
  -2  10   3   99.89    9.80
   2  10  -3  124.99   14.70
  -2  10   3  112.79   12.00
  -1 -10   3  517.85   28.80
   1 -10  -3  492.75   26.70
  -1 -10   3  463.75   29.60
   1 -10  -3  500.35   29.20
   1 -10  -3  520.05   28.40
  -1 -10   3  441.76   28.80
   1  10  -3  487.35   29.60
   1  10  -3  511.65   25.60
  -1  10   3  483.75   21.90
  -1  10   3  453.05   25.80
  -1  10   3  488.35   23.10
   1  10  -3  492.85   23.90
   0 -10   3  206.18   16.30
   0 -10  -3  189.88   14.00
   0 -10   3  188.38   18.70
   0 -10  -3  212.98   19.10
   0 -10  -3  208.18   15.60
   0 -10   3  178.78   17.60
   0 -10   3  175.18   18.00
   0  10  -3  197.08   13.80
   0  10  -3  193.78   17.90
   0  10  -3  198.48   15.20
   0  10   3  209.68   15.60
   0  10   3  197.28   10.50
   1 -10   3  117.29   14.40
   1 -10   3  138.69   13.60
   1 -10   3  131.99   16.00
   1 -10   3  122.09   17.70
  -1 -10  -3  141.29   18.50
  -1 -10  -3  107.79   12.00
   1 -10   3  132.69   18.00
  -1 -10  -3  118.89   13.40
  -1 -10  -3  116.19    8.30
  -1  10  -3  115.59   13.60
  -1  10  -3  126.39   15.80
  -1  10  -3  132.59   16.40
   1  10   3  114.39   13.30
  -1  10  -3  125.09   12.50
   2 -10   3  596.94   35.10
  -2 -10  -3  595.24   28.30
  -2 -10  -3  622.54   33.50
   2 -10   3  631.24   33.60
   2 -10   3  616.94   34.30
  -2 -10  -3  620.04   29.30
   2 -10   3  611.14   38.30
  -2 -10  -3  573.64   29.80
  -2 -10  -3  605.84   36.60
   2 -10   3  590.04   38.50
  -2  10  -3  644.44   36.50
  -2  10  -3  618.94   32.00
  -2  10  -3  645.94   33.70
   3 -10   3  822.32   48.70
   3 -10   3  797.72   49.00
   3 -10   3  850.91   45.90
  -3 -10  -3  795.92   44.00
  -3 -10  -3  849.32   37.70
  -3 -10  -3  825.62   47.50
   3 -10   3  883.41   43.20
  -3 -10  -3  809.52   35.30
  -3 -10  -3  752.12   41.20
   3 -10   3  895.11   45.80
  -3  10  -3  923.81   44.00
  -3  10  -3  794.12   45.60
  -3  10  -3  831.92   42.60
  -4 -10  -3  172.38   22.20
   4 -10   3  191.98   27.20
  -4 -10  -3  157.88   23.00
  -4 -10  -3  242.88   15.70
  -4 -10  -3  168.18   21.40
   4 -10   3  252.67   30.20
   4 -10   3  258.67   23.20
  -4  10  -3  207.28   25.40
  -4  10  -3  224.58   25.10
   5 -10   3   11.50   16.80
  -5 -10  -3   10.70   13.10
  -5 -10  -3   26.80    6.70
   5 -10   3   28.50   15.10
  -5  10  -3   -3.80   14.70
  -5  10  -3   17.40   15.80
   6 -10   3   16.90   18.70
  -6 -10  -3   13.60   17.80
   6 -10   3   -0.20   21.70
  -6  10  -3   23.10   18.40
  -7 -10  -3   54.99   22.60
   7 -10   3   44.00   25.00
  -7  10  -3   93.79   26.70
   9 -11  -3   27.80   19.30
  -9 -11   3   42.40   11.20
  -9 -11   3   37.10   20.60
   9 -11  -3   15.50   14.10
  -9 -11   3   12.30   20.50
  -9  11   3   45.20   19.40
  -9  11   3    9.20   19.50
  -9  11   3   27.30   17.70
  -8 -11   3   82.09   12.90
   8 -11  -3  116.29   20.20
  -8 -11   3  116.89   19.40
  -8 -11   3  108.69   20.30
   8 -11  -3   97.09   16.20
  -8  11   3   85.59   17.00
  -8  11   3   73.79   15.80
  -8  11   3   84.99   18.20
  -7 -11   3   46.90   12.00
   7 -11  -3   43.20   11.60
   7 -11  -3   28.30   11.60
   7 -11  -3   30.90   20.90
   7 -11  -3   38.10   12.40
  -7 -11   3   44.30   10.70
  -7 -11   3   36.20   15.00
  -7  11   3   29.70   12.00
  -7  11   3   25.50   10.90
  -7  11   3   12.00   11.30
   6 -11  -3  165.48   18.70
   6 -11  -3  159.98   17.10
   6 -11  -3  180.38   20.00
  -6 -11   3  133.99   18.00
  -6 -11   3  136.69   19.10
  -6 -11   3  147.49   17.20
   6 -11  -3  141.59   22.50
  -6  11   3  202.78   17.90
  -6  11   3  150.88   19.80
  -6  11   3  178.08   19.10
   5 -11  -3  463.45   28.20
   5 -11  -3  403.96   33.40
  -5 -11   3  395.46   29.20
   5 -11  -3  396.66   25.70
   5 -11  -3  385.76   25.00
  -5 -11   3  470.65   35.60
   5 -11  -3  358.46   34.90
  -5 -11   3  361.96   25.30
  -5  11   3  420.46   25.80
   5  11  -3  400.76   19.20
  -5  11   3  409.36   23.50
   5  11  -3  399.86   30.30
  -5  11   3  386.56   26.70
   4 -11  -3    1.10    8.70
  -4 -11   3    9.30    8.30
  -4 -11   3    4.90    6.30
   4 -11  -3   -8.10   12.30
   4 -11  -3  -12.40    9.10
  -4 -11   3    1.10   11.10
   4 -11  -3   10.40    6.30
  -4  11   3   -2.60    4.80
  -4  11   3    5.00    5.70
  -4  11   3   10.10    6.50
   4  11  -3    7.40    4.60
   4  11  -3   -0.60    8.10
  -3 -11   3  373.26   26.50
  -3 -11   3  438.16   29.80
  -3 -11   3  382.66   25.50
   3 -11  -3  430.86   30.30
   3 -11  -3  424.96   27.20
   3 -11  -3  363.26   27.30
  -3  11   3  405.26   22.80
  -3  11   3  400.26   22.40
   3  11  -3  417.36   21.10
  -3  11   3  409.86   18.60
   3  11  -3  397.26   18.50
   3  11  -3  392.36   27.90
  -2 -11   3  414.86   28.70
   2 -11  -3  485.55   31.60
   2 -11  -3  478.25   29.00
  -2 -11   3  504.85   30.40
  -2 -11   3  528.25   30.50
   2 -11  -3  542.35   30.70
  -2  11   3  481.85   27.80
   2  11  -3  470.85   25.30
  -2  11   3  501.15   24.60
   2  11  -3  526.15   23.70
   2  11  -3  492.75   31.30
  -1 -11   3   28.60    9.20
   1 -11  -3   20.60    8.70
   1 -11  -3   27.80    9.30
  -1 -11   3    8.30    7.80
  -1 -11   3   14.10    7.90
   1 -11  -3   17.80    6.60
   1  11  -3   20.30    8.40
  -1  11   3   27.10    7.70
   1  11  -3   34.20    7.30
   1  11  -3   17.80    6.20
  -1  11   3   20.40    4.60
   0 -11   3   31.00    9.90
   0 -11   3   36.40    9.50
   0 -11  -3   39.20    6.90
   0 -11   3   32.90    8.10
   0 -11   3   34.10   10.80
   0 -11  -3   56.79   12.70
   0  11  -3   32.60    7.50
   0  11  -3   39.40    7.10
   0  11  -3   35.70   10.40
   0  11   3   33.60    8.10
   1 -11   3   87.79   12.50
  -1 -11  -3   87.39   13.50
  -1 -11  -3   85.99   10.60
  -1 -11  -3   82.99    7.20
  -1 -11  -3   82.29   14.90
   1 -11   3  116.79   16.90
   1 -11   3   94.99   13.70
  -1 -11  -3  110.59   12.70
   1 -11   3  100.49   16.00
   1 -11   3   83.79   14.30
  -1  11  -3  109.89   14.40
  -1  11  -3  111.49   17.40
   1  11   3  121.09   14.10
  -1  11  -3   83.89   12.80
  -1  11  -3  120.99   13.40
   2 -11   3  315.67   29.00
  -2 -11  -3  343.87   19.40
   2 -11   3  342.27   26.20
  -2 -11  -3  302.87   28.20
   2 -11   3  297.77   22.90
  -2 -11  -3  334.77   24.40
   2 -11   3  346.87   28.80
  -2 -11  -3  331.97   17.80
   2 -11   3  291.97   24.10
  -2 -11  -3  296.17   19.10
  -2  11  -3  356.16   23.10
  -2  11  -3  347.77   26.70
  -2  11  -3  315.57   23.20
  -3 -11  -3   -2.10    9.90
  -3 -11  -3    5.10    6.00
   3 -11   3  -17.70   12.90
  -3 -11  -3   -8.80    7.70
   3 -11   3   -2.40   12.60
   3 -11   3   -6.00    9.30
   3 -11   3   11.50   12.60
  -3 -11  -3    0.10    3.50
   3 -11   3   -0.70   11.30
  -3 -11  -3   -7.60   14.10
  -3  11  -3    2.30    9.70
  -3  11  -3   21.60    9.80
  -3  11  -3    6.60   10.10
  -4 -11  -3  357.86   30.00
  -4 -11  -3  435.56   23.10
   4 -11   3  430.76   32.40
   4 -11   3  440.56   36.30
  -4 -11  -3  470.85   36.10
   4 -11   3  452.65   39.30
  -4  11  -3  444.36   34.30
  -4  11  -3  466.15   34.20
  -5 -11  -3  200.18   14.10
   5 -11   3  249.08   37.70
  -5 -11  -3  184.58   23.60
   5 -11   3  156.28   34.80
  -5  11  -3  159.68   40.00
  -5  11  -3  226.18   25.80
   6 -11   3   21.00   26.10
   6 -11   3   16.90   19.60
  -6 -11  -3   14.30   17.70
  -6  11  -3   24.50   18.50
   7 -11   3    2.20   25.50
  -7 -11  -3  -21.90   21.10
  -7  11  -3   26.10   23.90
   9 -12  -3  -10.40   18.30
   9 -12  -3    9.80   15.30
  -9 -12   3    9.60    9.80
  -9 -12   3  -25.50   20.20
  -9 -12   3  -13.90   21.40
  -9  12   3   -1.90   20.00
  -9  12   3   57.69   21.10
  -9  12   3  -10.80   19.10
   8 -12  -3  113.69   18.30
  -8 -12   3  109.59   13.90
   8 -12  -3   92.29   19.80
  -8 -12   3  126.19   22.20
  -8  12   3  124.39   20.70
  -8  12   3   62.19   16.90
  -8  12   3  118.79   21.20
  -7 -12   3  750.92   47.80
  -7 -12   3  819.32   44.40
   7 -12  -3  955.90   89.29
   7 -12  -3  768.42   43.30
   7 -12  -3  858.01   45.50
  -7 -12   3  751.62   46.50
   7 -12  -3  731.43   44.60
  -7  12   3  795.22   44.80
  -7  12   3  781.12   46.60
  -7  12   3  799.12   44.10
   6 -12  -3  653.53   37.00
  -6 -12   3  595.84   33.80
   6 -12  -3  544.25   34.80
   6 -12  -3  535.05   33.00
   6 -12  -3  570.84   45.80
  -6 -12   3  561.94   38.30
  -6 -12   3  531.25   32.20
  -6  12   3  556.24   35.50
  -6  12   3  553.94   34.60
  -6  12   3  575.94   32.40
  -5 -12   3   98.09   15.60
  -5 -12   3   76.99   11.70
   5 -12  -3   79.89   19.40
   5 -12  -3   68.19   11.20
   5 -12  -3   94.29   14.70
   5 -12  -3   88.89   14.00
  -5  12   3   90.49   13.70
  -5  12   3   73.49   11.40
  -5  12   3   97.99   14.60
   5  12  -3   61.39   15.20
   5  12  -3   94.79    7.60
  -4 -12   3  659.83   41.30
   4 -12  -3  609.64   41.30
   4 -12  -3  572.44   31.90
   4 -12  -3  583.94   32.10
  -4 -12   3  615.44   35.70
   4 -12  -3  619.74   36.10
   4 -12  -3  552.04   38.20
  -4 -12   3  567.04   33.20
  -4  12   3  568.54   31.50
   4  12  -3  613.74   37.80
  -4  12   3  604.04   28.70
   4  12  -3  572.14   27.30
  -4  12   3  572.14   32.20
   3 -12  -3  379.76   31.30
   3 -12  -3  378.36   28.20
  -3 -12   3  355.16   27.30
  -3 -12   3  388.36   25.90
  -3 -12   3  345.87   29.80
   3 -12  -3  440.26   28.90
  -3  12   3  436.56   26.90
  -3  12   3  398.26   22.90
   3  12  -3  392.06   20.90
  -3  12   3  392.76   22.60
   3  12  -3  409.76   29.30
  -2 -12   3   36.80   11.50
   2 -12  -3   38.10   10.60
  -2 -12   3   28.20   10.10
  -2 -12   3   38.20    9.60
   2 -12  -3   37.70    9.40
   2 -12  -3   51.29   12.60
   2  12  -3   41.50   11.00
  -2  12   3   22.10    8.50
   2  12  -3   43.70    5.90
  -2  12   3   35.40    6.20
   2  12  -3   41.90    7.20
   1 -12  -3  348.77   26.80
  -1 -12   3  316.97   24.70
   1 -12  -3  364.86   25.60
  -1 -12   3  330.17   22.50
  -1 -12   3  333.87   25.50
  -1 -12   3  363.96   25.20
   1 -12  -3  313.37   21.80
   1  12  -3  318.57   20.40
  -1  12   3  332.37   18.10
  -1  12   3  339.37   22.60
   1  12  -3  349.87   26.30
   0 -12   3  779.72   40.20
   0 -12   3  730.43   44.10
   0 -12   3  813.22   42.50
   0 -12  -3  867.61   45.00
   0 -12  -3  763.22   38.10
   0 -12  -3  778.12   40.40
   0 -12   3  773.12   43.60
   0  12   3  743.43   39.80
   0  12  -3  763.72   38.40
   0  12  -3  742.33   43.70
   0  12  -3  862.31   37.80
  -1 -12  -3   87.29    7.00
   1 -12   3  101.39   15.30
  -1 -12  -3   83.69   12.20
  -1 -12  -3  104.59   11.90
   1 -12   3  120.99   15.40
  -1 -12  -3  119.59   18.50
  -1 -12  -3  117.99   13.90
   1 -12   3  124.19   17.00
   1 -12   3   86.89   15.80
   1 -12   3  118.59   18.10
  -1  12  -3   93.09   15.10
  -1  12  -3   88.99   13.80
  -1  12  -3  120.89   16.20
   1  12   3   97.19   13.70
   2 -12   3  759.12   42.50
  -2 -12  -3  722.73   34.60
  -2 -12  -3  818.62   46.60
   2 -12   3  793.02   47.70
   2 -12   3  779.52   40.70
   2 -12   3  780.42   46.70
   2 -12   3  710.03   42.30
  -2 -12  -3  681.03   35.80
  -2 -12  -3  808.92   36.70
  -2 -12  -3  757.52   42.10
  -2  12  -3  803.52   43.60
  -2  12  -3  759.02   39.20
  -2  12  -3  824.02   41.40
   3 -12   3 2236.88  103.19
   3 -12   3 2263.27   96.29
  -3 -12  -3 2209.78   89.49
   3 -12   3 2202.28  103.19
  -3 -12  -3 1834.72   91.99
  -3 -12  -3 2144.39   97.39
  -3  12  -3 2214.68   96.89
  -3  12  -3 2154.78   99.19
  -4 -12  -3  156.68   23.30
   4 -12   3  197.28   26.80
  -4 -12  -3  186.18   14.90
   4 -12   3  172.28   25.70
  -4 -12  -3  153.78   23.00
   4 -12   3  213.88   32.00
  -4  12  -3  201.68   26.30
  -4  12  -3  199.58   24.00
  -5 -12  -3  115.09   20.00
  -5 -12  -3  122.09   11.10
   5 -12   3  121.79   27.40
   5 -12   3   84.49   21.90
  -5  12  -3  136.29   23.10
   6 -12   3   32.40   28.10
   6 -12   3   74.19   23.00
  -6 -12  -3   28.20   18.80
  -6  12  -3   75.79   23.10
  -8 -13   3   -6.20   18.40
   8 -13  -3   27.00   13.00
  -8 -13   3   -1.40   10.20
   8 -13  -3   23.80   15.50
  -8  13   3  -11.90   16.40
  -8  13   3   10.50   16.10
  -8  13   3   -6.40   17.50
  -7 -13   3   24.50   10.40
  -7 -13   3   38.00   17.00
   7 -13  -3   32.60   13.80
  -7 -13   3   20.70   16.90
   7 -13  -3   25.00   10.70
   7 -13  -3   46.70   16.50
  -7  13   3   19.80   13.90
  -7  13   3   35.20   14.70
  -7  13   3   44.20   15.50
   6 -13  -3    4.70    8.80
  -6 -13   3    9.60    9.50
  -6 -13   3   -6.00   13.60
   6 -13  -3   47.30   14.60
   6 -13  -3    9.50    9.80
   6 -13  -3  -17.00   18.80
  -6 -13   3   18.50   12.00
  -6  13   3   -3.70    9.80
  -6  13   3   -3.30    9.70
  -6  13   3   20.00    9.90
   5 -13  -3   29.70   18.00
  -5 -13   3   70.49   12.70
   5 -13  -3   74.19   13.00
   5 -13  -3   59.29   11.80
  -5 -13   3   82.49   15.50
  -5  13   3   75.09   10.90
   5  13  -3   58.69   16.00
  -5  13   3   80.09   13.10
  -5  13   3   65.39   12.50
   4 -13  -3   -1.70   14.40
   4 -13  -3    6.90    6.90
  -4 -13   3    4.40    7.80
   4 -13  -3   -3.60    6.70
   4 -13  -3  -15.60   11.60
   4 -13  -3   -4.90   11.10
  -4 -13   3   -9.90    9.90
   4  13  -3    1.90    4.90
   4  13  -3    2.40    9.70
  -4  13   3    2.20    7.50
  -4  13   3    9.00    6.10
  -4  13   3    8.50    7.50
   3 -13  -3   20.30   10.90
   3 -13  -3   11.40    7.10
   3 -13  -3   29.90   11.60
  -3 -13   3   21.20    9.10
  -3 -13   3   23.80   15.00
  -3 -13   3   25.40   10.50
   3 -13  -3   22.40   14.80
  -3 -13   3   44.00   12.30
   3 -13  -3   19.80    6.80
  -3  13   3   29.40    7.40
  -3  13   3   28.20    7.20
  -3  13   3   24.30    9.90
   3  13  -3   31.10   11.70
   3  13  -3   23.00    5.80
   2 -13  -3   -7.60    8.30
  -2 -13   3   -2.20    9.30
  -2 -13   3    1.10    7.10
  -2 -13   3   -1.10   10.40
   2 -13  -3   38.00   12.70
   2 -13  -3   21.00   10.80
  -2  13   3   -4.20    7.70
   2  13  -3   -0.50    4.00
   2  13  -3    7.30    8.90
  -2  13   3    3.20    4.50
   2  13  -3   10.20    6.20
  -2  13   3   12.40    5.90
   1 -13  -3   78.59   15.50
  -1 -13   3   37.90   12.30
   1 -13  -3   44.10    9.70
  -1 -13   3   30.40   10.30
   1 -13  -3   51.49   12.00
  -1 -13   3   41.30    9.70
  -1 -13   3   53.19   12.30
  -1  13   3   51.29   10.30
   1  13  -3   53.29    8.90
   1  13  -3   53.79   12.90
   0 -13   3   18.60   11.00
   0 -13  -3   37.10   11.00
   0 -13   3   31.10    8.80
   0 -13   3   24.50    9.80
   0 -13  -3   25.00   13.80
   0 -13   3   37.70   11.60
   0 -13   3   21.60   11.20
   0 -13  -3    8.60    6.60
   0  13   3   18.00    8.70
   0  13  -3   22.80    7.40
   0  13  -3   32.40    9.30
   0  13  -3    6.20   10.20
   1 -13   3  204.38   22.30
   1 -13   3  155.08   23.30
  -1 -13  -3  132.89   14.30
   1 -13   3  137.69   17.50
   1 -13   3  156.18   23.40
  -1 -13  -3  163.08   17.40
  -1 -13  -3  215.98   27.30
  -1  13  -3  126.89   17.30
   1  13   3  134.19   18.20
  -1  13  -3  153.38   21.30
  -1  13  -3  173.08   17.00
   2 -13   3    7.50   10.90
  -2 -13  -3   -0.70    6.40
   2 -13   3    7.50   12.00
   2 -13   3    0.30   10.40
  -2 -13  -3    0.50    5.80
  -2 -13  -3    2.10   10.90
   2 -13   3   20.40   13.00
  -2 -13  -3    2.80    3.20
  -2 -13  -3   16.30    7.80
  -2  13  -3    7.80   11.10
  -2  13  -3   15.40   10.70
  -2  13  -3    1.90    9.60
  -2  13  -3    3.20   11.00
  -3 -13  -3   55.59   11.70
   3 -13   3   91.29   19.60
   3 -13   3   51.99   14.90
  -3 -13  -3   92.69   13.50
   3 -13   3   64.69   20.50
  -3  13  -3   65.29   15.00
  -4 -13  -3   -3.30   11.30
  -4 -13  -3   -2.70    7.60
  -4 -13  -3   32.00   21.80
   4 -13   3   10.50   19.30
   4 -13   3    1.20   17.50
  -4  13  -3   16.70   15.10
   5 -13   3    6.10   18.90
   5 -13   3   -5.40   21.20
  -5 -13  -3  -13.40   14.00
  -5  13  -3   -2.60   16.60
   6 -13   3   18.30   27.30
   6 -13   3   -5.90   23.50
  -6 -13  -3   -6.30   19.40
  -6  13  -3   28.30   22.40
   8 -14  -3  384.36   57.49
  -8 -14   3  359.06   40.70
   8 -14  -3  308.77   31.30
  -8 -14   3  270.17   24.60
  -8  14   3  307.47   36.50
  -8  14   3  278.57   35.50
  -8  14   3  391.66   38.80
  -7 -14   3  234.48   28.50
   7 -14  -3  182.18   28.80
  -7 -14   3  321.57   35.70
  -7 -14   3  277.47   24.00
   7 -14  -3  252.27   25.20
  -7  14   3  260.87   29.80
  -7  14   3  224.48   28.80
  -7  14   3  285.97   30.20
   6 -14  -3  225.48   31.70
  -6 -14   3  188.88   26.80
  -6 -14   3  218.78   29.20
  -6 -14   3  203.58   27.60
   6 -14  -3  173.28   23.10
   6 -14  -3  277.57   33.30
   6 -14  -3  169.98   21.20
  -6  14   3  184.88   22.80
  -6  14   3  218.88   22.30
  -6  14   3  204.48   24.70
   5 -14  -3   13.00    8.80
   5 -14  -3   10.60   17.40
  -5 -14   3   14.30    9.30
  -5 -14   3    3.60   13.50
   5 -14  -3   -2.60    8.60
   5 -14  -3   14.80   14.60
  -5  14   3    4.60   10.60
   5  14  -3    2.90   13.80
  -5  14   3   40.90   12.00
  -5  14   3   15.60    8.90
   4 -14  -3  471.85   29.80
   4 -14  -3  450.05   29.20
  -4 -14   3  492.95   34.50
   4 -14  -3  501.25   39.00
  -4 -14   3  521.65   32.30
   4 -14  -3  511.85   38.20
  -4  14   3  550.54   25.80
   4  14  -3  510.15   37.50
   4  14  -3  479.65   24.10
  -4  14   3  466.65   38.40
  -4  14   3  518.25   34.90
  -4  14   3  515.95   29.70
   3 -14  -3  688.43   47.00
   3 -14  -3  634.34   35.60
   3 -14  -3  603.54   41.40
   3 -14  -3  654.93   35.60
  -3 -14   3  659.23   40.20
  -3 -14   3  640.24   38.60
   3 -14  -3  749.33   44.30
  -3 -14   3  662.03   41.80
   3  14  -3  695.13   43.50
  -3  14   3  730.93   35.60
   3  14  -3  657.43   32.60
  -3  14   3  757.92   40.60
  -3  14   3  713.93   34.60
   2 -14  -3   74.49   17.30
  -2 -14   3   68.09   14.50
   2 -14  -3   66.59   16.10
   2 -14  -3   46.10   12.80
  -2 -14   3   64.99   16.00
   2 -14  -3   50.59    8.80
   2 -14  -3   51.99    9.40
  -2 -14   3   37.50   12.10
  -2  14   3   44.30   11.30
   2  14  -3   53.19   14.60
   2  14  -3   62.59    9.20
  -1 -14   3  629.84   39.40
  -1 -14   3  676.43   36.10
  -1 -14   3  620.44   38.30
  -1 -14   3  640.94   38.10
   1 -14  -3  582.54   35.00
   1 -14  -3  612.44   31.10
   1 -14  -3  719.73   42.10
   1 -14  -3  566.94   39.60
   1  14  -3  595.84   39.30
  -1  14   3  676.03   36.70
   1  14  -3  615.94   32.60
   1  14  -3  582.74   35.60
   0 -14   3  763.32   46.70
   0 -14   3  778.52   45.50
   0 -14  -3  744.13   43.00
   0 -14  -3  707.03   35.50
   0 -14   3  860.21   44.30
   0 -14   3  787.82   40.40
   0 -14  -3  760.32   39.10
   0 -14   3  750.42   41.40
   0 -14  -3  869.71   55.79
   0  14  -3  777.92   40.10
   0  14  -3  813.32   37.90
   0  14  -3  695.93   44.80
   0  14   3  746.43   42.10
   1 -14   3   49.00   16.20
  -1 -14  -3   57.79   12.30
   1 -14   3   41.90   14.40
  -1 -14  -3   37.20    8.70
   1 -14   3   43.60   13.40
   1 -14   3   52.99   13.80
  -1 -14  -3   59.09    8.60
  -1  14  -3   37.20   13.40
   1  14   3   39.00   11.40
  -1  14  -3   34.00    9.90
   2 -14   3   27.30   15.10
  -2 -14  -3   55.19    8.50
  -2 -14  -3   19.70   13.10
   2 -14   3   66.89   17.00
   2 -14   3   51.59   14.20
  -2 -14  -3   53.39    7.30
  -2 -14  -3   47.70    8.00
  -2  14  -3   29.40   11.80
  -2  14  -3   67.49   16.40
   3 -14   3  306.97   34.30
  -3 -14  -3  230.38   21.20
   3 -14   3  282.47   27.60
  -3 -14  -3  298.37   34.10
  -3 -14  -3  203.38   19.50
   3 -14   3  224.88   33.30
  -3  14  -3  292.07   30.00
  -4 -14  -3  135.89   18.50
  -4 -14  -3  140.09   15.70
   4 -14   3  156.48   25.30
   4 -14   3  124.89   24.70
  -4  14  -3  125.69   39.50
   5 -14   3   60.29   28.90
   5 -14   3   53.39   22.90
  -5 -14  -3   20.50   16.60
  -5  14  -3   70.49   22.20
  -6 -14  -3  247.08   31.00
   6 -14   3  221.58   35.30
  -6  14  -3  264.27   35.90
  -8 -15   3  212.68   46.40
  -8 -15   3  177.98   20.80
   8 -15  -3  144.99   22.10
   8 -15  -3  170.98   25.70
  -8  15   3  241.88   36.10
  -8  15   3  213.88   30.70
  -8  15   3  150.28   26.20
  -7 -15   3   16.60   12.30
   7 -15  -3   -1.00   12.00
  -7 -15   3   10.30   19.60
   7 -15  -3    7.00   16.80
  -7  15   3   -4.60   15.20
  -7  15   3   20.30   16.40
  -7  15   3   30.40   16.60
   6 -15  -3  179.78   25.40
   6 -15  -3  126.69   33.20
   6 -15  -3  209.28   23.10
  -6 -15   3  211.98   32.10
  -6 -15   3  220.68   23.00
  -6  15   3  174.78   26.90
  -6  15   3  216.18   24.00
  -6  15   3  205.98   27.40
  -5 -15   3  225.18   22.50
   5 -15  -3  244.98   23.10
   5 -15  -3  212.28   22.50
   5 -15  -3  138.09   28.60
  -5 -15   3  261.67   30.10
  -5  15   3  250.27   23.00
  -5  15   3  231.98   24.60
  -5  15   3  209.98   20.80
   4 -15  -3    2.90    8.60
  -4 -15   3    8.70    9.80
  -4 -15   3    9.30   12.30
   4 -15  -3    4.60    8.20
   4  15  -3   -2.00   12.90
  -4  15   3   23.50   14.00
  -4  15   3    6.00    9.10
  -4  15   3    7.80    8.60
  -3 -15   3  320.57   28.30
  -3 -15   3  303.47   25.70
   3 -15  -3  290.27   29.90
   3 -15  -3  265.37   21.60
   3 -15  -3  306.57   22.30
   3  15  -3  342.07   30.80
  -3  15   3  331.97   22.50
  -3  15   3  290.17   20.50
  -3  15   3  334.97   28.40
   2 -15  -3  838.02   50.69
  -2 -15   3  933.01   51.59
   2 -15  -3  906.21   44.90
  -2 -15   3  976.90   50.59
  -2 -15   3  925.21   51.79
  -2 -15   3 1011.80   47.90
   2 -15  -3  913.51   45.10
   2 -15  -3  917.81   56.29
  -2  15   3  954.50   49.90
   2  15  -3  973.20   54.19
  -1 -15   3  435.26   32.40
  -1 -15   3  425.16   30.80
  -1 -15   3  326.77   28.20
  -1 -15   3  427.46   32.60
   1 -15  -3  360.76   34.90
   1 -15  -3  407.36   23.10
   1 -15  -3  374.76   27.40
   1  15  -3  350.16   31.60
  -1  15   3  434.16   29.90
   0 -15  -3   27.30   13.30
   0 -15   3   -1.50   12.10
   0 -15  -3   16.10    8.70
   0 -15   3   36.10   15.10
   0 -15  -3   16.10    6.00
   0 -15   3   41.10   11.30
   0 -15   3   19.70   14.00
   0  15  -3   14.90    7.80
   0  15  -3    0.80   11.90
   0  15   3   16.10   10.30
  -1 -15  -3  386.56   21.10
   1 -15   3  435.36   35.60
   1 -15   3  429.36   36.50
   1 -15   3  384.86   28.90
  -1 -15  -3  332.37   30.30
  -1 -15  -3  412.86   24.80
   1 -15   3  367.26   32.70
  -1  15  -3  402.36   33.60
   1  15   3  421.16   30.50
  -1  15  -3  398.86   26.90
   2 -15   3  190.68   25.70
  -2 -15  -3  213.48   22.50
  -2 -15  -3  194.78   12.50
   2 -15   3  209.78   30.30
  -2 -15  -3  188.08   24.10
  -2 -15  -3  191.68   14.30
   2 -15   3  164.48   24.10
  -2 -15  -3  196.58   15.90
  -2  15  -3  200.68   28.50
  -2  15  -3  197.28   27.10
  -3 -15  -3   25.60   10.10
   3 -15   3   29.30   18.60
  -3 -15  -3   32.70   13.00
   3 -15   3    8.90   16.40
   3 -15   3   36.30   16.50
  -3 -15  -3   42.00   22.20
  -3  15  -3   45.70   16.10
  -3  15  -3   44.00   17.60
   4 -15   3  167.48   28.30
  -4 -15  -3  160.68   24.40
   4 -15   3  144.69   26.60
  -4  15  -3  177.38   26.50
   5 -15   3   96.99   26.10
  -5 -15  -3   52.09   19.10
   5 -15   3   87.29   32.40
  -5  15  -3   96.89   25.00
   7 -16  -3   34.00   17.60
  -7 -16   3   61.99   22.80
   7 -16  -3   62.69   16.80
  -7 -16   3   73.49   14.60
  -7  16   3   88.69   18.60
  -7  16   3   33.60   19.60
   6 -16  -3    6.10   11.20
  -6 -16   3    0.40   19.60
   6 -16  -3   20.10   13.80
  -6 -16   3   29.80   12.60
  -6  16   3    0.00   13.10
  -6  16   3   -2.30   15.70
  -6  16   3   29.10   13.90
   5 -16  -3   19.40   10.90
  -5 -16   3    6.90   11.30
  -5 -16   3   10.90   16.40
   5 -16  -3  -13.20   23.00
  -5  16   3   27.70   12.30
  -5  16   3   35.10   14.20
  -5  16   3   39.90   11.20
  -5  16   3   57.39   18.10
   5  16  -3   17.90   16.90
  -4 -16   3   28.60   16.00
   4 -16  -3   -2.50   18.00
  -4 -16   3    8.50   12.20
   4 -16  -3   29.40   10.30
   4 -16  -3   16.60    9.70
  -4  16   3   -3.90   13.40
  -4  16   3    7.10    9.10
  -3 -16   3   20.10   12.20
   3 -16  -3   13.40    9.10
  -3 -16   3   30.90   13.60
   3 -16  -3   -2.70   14.20
   3 -16  -3    6.60    9.30
   3  16  -3   -3.50   11.60
  -3  16   3    3.70   12.40
  -2 -16   3  -25.90   15.60
   2 -16  -3    8.60    7.70
   2 -16  -3   15.00   12.70
   2 -16  -3   12.90    7.70
  -2 -16   3   18.10   13.90
  -2 -16   3   14.40   12.70
  -2 -16   3   18.00   11.20
   2 -16  -3  -59.79   30.90
   2  16  -3   -1.60   12.40
  -2  16   3    4.00   11.00
   1 -16  -3  229.58   23.30
  -1 -16   3  188.78   20.30
  -1 -16   3  207.58   31.10
  -1 -16   3  219.98   25.50
   1 -16  -3  195.28   16.70
  -1 -16   3  223.68   27.10
   1 -16  -3  205.08   18.20
   1 -16  -3  245.08   34.50
   1  16  -3  227.68   27.50
  -1  16   3  224.28   24.20
   0 -16   3   -5.90   13.50
   0 -16  -3   15.50    9.70
   0 -16  -3  -25.30   15.70
   0 -16  -3    6.90    6.40
   0 -16   3   14.70   14.50
   0 -16   3   24.80   11.20
   0 -16  -3    0.80    7.00
   0 -16   3   13.30   16.00
   0  16   3   12.90   11.50
   0  16  -3   12.70   13.40
  -1 -16  -3    0.10    8.60
  -1 -16  -3   -2.60   14.30
   1 -16   3   22.70   12.90
  -1 -16  -3   -4.70    5.00
   1 -16   3  -10.40   14.00
   1 -16   3   -5.70   14.60
   1  16   3   -9.90   11.20
  -1  16  -3   -7.90   12.50
  -2 -16  -3   18.70    7.70
   2 -16   3   22.40   16.90
  -2 -16  -3   24.90    6.50
   2 -16   3   12.90   14.60
  -2 -16  -3   28.10    5.90
  -2 -16  -3   31.00   14.30
  -2 -16  -3   27.90    5.80
  -2  16  -3   17.90   17.20
  -3 -16  -3   67.09   12.00
  -3 -16  -3   83.99   14.10
   3 -16   3   74.39   21.70
   3 -16   3   79.79   24.30
   3 -16   3   58.29   21.50
  -3  16  -3   97.49   22.90
   4 -16   3   46.60   23.20
   4 -16   3    7.40   27.60
  -4 -16  -3   14.90   14.20
  -4  16  -3   40.10   21.60
   5 -16   3   76.89   27.50
   5 -16   3   77.89   33.30
  -5 -16  -3   57.19   21.10
  -5  16  -3   44.90   25.00
   7 -17  -3   10.50   18.80
  -7 -17   3   19.80   32.80
   7 -17  -3    9.20   13.90
  -7 -17   3   27.50   13.60
  -7  17   3   14.70   20.40
  -7  17   3   28.50   18.60
   6 -17  -3  180.28   22.60
  -6 -17   3  185.38   29.70
  -6 -17   3  164.98   24.40
   6 -17  -3  204.08   30.50
  -6  17   3  182.28   20.70
  -6  17   3  251.17   29.10
   5 -17  -3  263.27   28.20
   5 -17  -3  309.47   27.50
  -5 -17   3  279.77   28.30
  -5 -17   3  299.67   37.00
   5  17  -3  257.07   36.10
  -5  17   3  290.77   27.50
  -5  17   3  395.76   40.10
   4 -17  -3   62.79   13.90
  -4 -17   3   87.19   16.30
  -4 -17   3   78.99   18.80
   4  17  -3   59.29   19.60
  -4  17   3   79.49   12.60
  -4  17   3   84.29   19.60
  -3 -17   3   76.79   16.40
   3 -17  -3   67.19   12.40
   3 -17  -3   34.50   21.00
   3 -17  -3   61.99   14.20
  -3 -17   3   94.89   19.50
   3  17  -3   47.10   18.30
  -3  17   3   77.49   17.80
   2 -17  -3  415.56   38.60
  -2 -17   3  469.65   29.50
   2 -17  -3  440.06   28.30
  -2 -17   3  389.96   50.19
   2 -17  -3  418.16   36.90
  -2 -17   3  493.45   38.20
  -2  17   3  511.25   36.20
   1 -17  -3  182.18   28.50
  -1 -17   3  156.98   24.60
  -1 -17   3  195.58   21.60
   1 -17  -3  177.28   23.60
   1 -17  -3  174.58   17.80
  -1 -17   3  152.08   22.70
   1 -17  -3  149.59   16.80
   1  17  -3  131.49   27.90
  -1  17   3  200.68   25.50
   0 -17  -3  141.29   15.60
   0 -17   3  152.08   18.80
   0 -17   3  163.08   25.90
   0 -17  -3  200.28   26.70
   0 -17   3  210.78   29.10
   0 -17  -3  150.18   15.20
   0 -17  -3  149.19   22.20
   0  17   3  176.58   25.10
  -1 -17  -3  721.83   35.30
   1 -17   3  756.32   45.40
   1 -17   3  820.12   55.69
   1 -17   3  750.92   52.39
  -1 -17  -3  715.03   39.80
  -1 -17  -3  692.83   35.80
  -1 -17  -3  689.83   48.30
   1  17   3  838.02   47.40
  -1  17  -3  695.53   50.59
   2 -17   3  323.27   33.20
  -2 -17  -3  316.07   20.30
  -2 -17  -3  295.47   21.70
  -2 -17  -3  305.17   18.20
  -2 -17  -3  393.76   34.00
   2 -17   3  332.57   41.50
  -2  17  -3  364.06   40.50
   2  17   3  330.17   34.00
   3 -17   3    4.60   21.90
   3 -17   3   21.20   21.40
  -3 -17  -3    7.60   10.20
  -3 -17  -3    4.60    7.00
  -3  17  -3   -4.00   20.40
   4 -17   3  274.97   39.60
   4 -17   3  276.67   37.20
  -4 -17  -3  264.47   29.40
  -4  17  -3  318.17   44.10
  -4  17  -3  228.68   35.20
   6 -18  -3   19.00   13.90
  -6 -18   3   71.49   16.40
   6 -18  -3   15.70   16.10
  -6 -18   3   44.50   26.80
  -6  18   3   35.30   18.60
  -6  18   3   44.60   27.40
   5 -18  -3   66.29   16.10
  -5 -18   3   71.49   22.40
   5 -18  -3   53.99   14.40
  -5 -18   3   49.90   16.30
   5  18  -3   43.90   22.00
  -5  18   3   40.70   25.00
   4 -18  -3   38.10   12.80
  -4 -18   3   54.09   19.60
   4 -18  -3   46.50   13.50
  -4 -18   3   49.80   15.00
  -4  18   3    9.00   18.60
   4  18  -3   41.00   20.90
  -3 -18   3  114.59   14.80
  -3 -18   3  104.89   18.90
  -3 -18   3  140.19   22.50
   3 -18  -3   99.49   15.30
   3 -18  -3   54.49   22.20
   3 -18  -3   98.49   15.30
  -3  18   3  103.39   20.90
   3  18  -3   56.99   22.40
  -2 -18   3   49.50   12.50
   2 -18  -3   14.80   16.90
  -2 -18   3   33.40   16.40
  -2 -18   3   27.90   15.70
   2 -18  -3   29.20    9.60
   2 -18  -3   26.90   10.40
   2  18  -3   71.99   20.90
  -2  18   3   37.70   15.70
   1 -18  -3   -6.50    8.20
   1 -18  -3   16.30   13.80
   1 -18  -3   11.10    8.00
  -1 -18   3   -9.70   11.50
  -1 -18   3    3.50   13.50
  -1 -18   3    1.80   14.60
   1  18  -3    2.20   14.30
  -1  18   3   -9.00   14.40
   0 -18  -3  116.29   15.90
   0 -18  -3   96.49   26.10
   0 -18   3  104.29   22.30
   0 -18  -3   77.79   18.60
   0 -18  -3  109.89   15.10
   0 -18   3  133.59   23.10
   0 -18   3   96.49   17.70
   0  18  -3   89.09   21.40
   0  18   3  101.99   19.00
   1 -18   3   -2.80   19.80
  -1 -18  -3   38.30    8.20
  -1 -18  -3   40.90   13.10
   1 -18   3   13.00   19.20
   1 -18   3   34.50   18.80
  -1 -18  -3   26.10    9.00
  -1 -18  -3    5.90   22.40
  -1  18  -3    5.40   18.60
   1  18   3   45.90   16.20
  -2 -18  -3  407.86   27.50
  -2 -18  -3  417.86   25.90
  -2 -18  -3  452.95   23.80
   2 -18   3  393.76   45.10
   2 -18   3  577.44   50.59
   2  18   3  534.95   42.00
  -2  18  -3  478.85   47.50
   3 -18   3   83.59   30.90
   3 -18   3  109.39   29.70
  -3  18  -3   66.49   26.20
   4 -18   3   21.30   25.30
   4 -18   3   12.80   28.70
  -4  18  -3   29.40   27.00
  -5 -19   3  242.38   31.80
   5 -19  -3  299.37   32.20
  -5 -19   3  313.07   45.20
   5 -19  -3  277.37   30.10
   5  19  -3  264.27   43.00
  -5  19   3  274.77   36.40
  -4 -19   3   23.70   15.90
  -4 -19   3   68.49   23.10
   4 -19  -3   20.00   13.10
   4 -19  -3    7.40   12.60
   4  19  -3   38.00   22.40
  -4  19   3   43.50   20.70
  -3 -19   3   41.60   20.20
   3 -19  -3   71.49   14.90
  -3 -19   3   57.89   18.20
  -3  19   3   57.79   18.20
   3  19  -3   42.70   21.50
  -2 -19   3  111.79   24.20
   2 -19  -3  134.49   20.80
  -2 -19   3  111.69   21.90
   2 -19  -3  150.38   19.40
  -2  19   3  132.69   21.90
   2  19  -3  135.29   28.40
  -1 -19   3  120.89   23.50
   1 -19  -3  127.49   21.40
   1 -19  -3  138.29   19.50
  -1 -19   3  128.49   22.40
   1 -19  -3  148.29   18.30
  -1  19   3  151.38   23.70
   1  19  -3  112.29   24.40
   0 -19   3   -5.90   17.60
   0 -19   3    4.00   18.50
   0 -19  -3    7.70   15.80
   0 -19  -3   -4.30    9.30
   0 -19  -3    8.90    8.70
   0  19   3   11.40   17.10
   0  19  -3  -27.30   19.00
  -1 -19  -3  153.58   19.30
  -1 -19  -3  157.28   18.60
   1 -19   3  129.29   28.50
   1 -19   3  199.58   28.50
  -1 -19  -3  149.29   16.80
  -1  19  -3  109.09   27.70
   1  19   3  176.18   25.00
   2 -19   3  190.48   32.40
   2 -19   3  128.49   28.60
  -2 -19  -3  152.98   18.50
  -2 -19  -3  167.28   15.70
  -2 -19  -3  137.79   21.00
  -2  19  -3  134.69   28.30
   3 -19   3  -14.30   27.00
   3 -19   3   36.30   27.60
  -3  19  -3   26.90   29.60
  -4 -20   3  520.85   51.49
   4 -20  -3  432.96   34.90
   4 -20  -3  441.36   35.50
  -4 -20   3  433.56   42.50
   4  20  -3  483.05   49.90
  -4  20   3  445.16   48.50
  -3 -20   3  273.77   35.00
  -3 -20   3  287.37   34.10
   3 -20  -3  240.58   27.40
   3 -20  -3  206.28   27.40
  -3  20   3  220.98   36.60
   3  20  -3  259.57   37.60
   2 -20  -3    5.00   11.50
   2 -20  -3    5.10   11.20
  -2 -20   3    2.50   18.80
  -2 -20   3  -35.00   20.10
   2  20  -3   -4.80   21.80
  -1 -20   3  102.49   22.80
   1 -20  -3   96.39   15.20
  -1 -20   3  117.09   27.00
   1 -20  -3   90.79   14.60
  -1  20   3  133.29   28.00
   1  20  -3  140.99   29.70
   0 -20  -3  294.07   25.10
   0 -20   3  346.67   40.60
   0 -20  -3  277.07   23.80
   0 -20   3  264.77   42.60
   0  20   3  301.67   50.99
   0  20  -3  285.67   42.70
  -1 -20  -3   54.49   12.00
   1 -20   3   35.00   22.20
   1 -20   3   32.30   24.80
  -1 -20  -3   65.59   13.00
  -1 -20  -3   32.80   17.00
  -1  20  -3   42.60   25.30
   1  20   3   14.80   22.80
  -2 -20  -3  282.07   21.40
   2 -20   3  391.26   50.69
  -2 -20  -3  260.97   26.30
   2 -20   3  268.97   39.30
  -2  20  -3  317.67   49.50
   3 -21  -3    5.70   15.80
   3 -21  -3   20.20   14.70
  -3 -21   3  -17.40   19.20
  -3  21   3   28.20   24.30
   3  21  -3   11.40   26.60
  -2 -21   3  -29.00   22.00
   2 -21  -3    9.70   13.10
  -2 -21   3   29.80   21.90
   2 -21  -3   35.20   13.20
   2  21  -3   -5.90   23.10
  -2  21   3  -26.10   21.40
  -1 -21   3  -16.00   25.30
   1 -21  -3   -2.70   11.00
   1 -21  -3    6.00   12.50
  -1 -21   3  -45.50   19.70
   1  21  -3   15.10   24.30
  -1  21   3   -7.70   21.90
   0 -21  -3   12.50   12.70
   0 -21   3    8.30   23.10
   0 -21   3   40.20   26.50
   0 -21  -3   23.00   12.50
   0  21   3  -12.30   23.10
   0  21  -3    2.40   24.10
 -11   0   4  615.94   45.00
 -11   0   4  734.73   57.79
 -11   0   4  695.73   53.49
 -10   0   4  366.46   39.20
  10   0  -4  409.06   26.70
 -10   0   4  494.95   33.90
 -10   0   4  436.06   41.70
  -9   0   4  692.23   43.90
   9   0  -4  705.53   37.60
  -9   0   4  599.84   44.00
  -9   0   4  733.03   46.60
   9   0  -4  660.83   34.20
   9   0  -4  730.13   46.30
  -8   0   4  992.00   49.70
  -8   0   4  934.51   53.69
  -8   0   4 1007.60   57.39
   8   0  -4  934.71   44.90
  -8   0   4  974.80   51.39
   8   0  -4  978.80   53.59
  -7   0   4  288.97   25.70
  -7   0   4  295.97   21.60
   7   0  -4  287.47   26.00
  -7   0   4  245.48   24.20
   7   0  -4  264.07   25.70
   7   0  -4  266.67   18.00
   6   0  -4  742.63   40.30
  -6   0   4  688.93   37.30
  -6   0   4  744.63   38.80
   6   0  -4  688.23   38.30
  -6   0   4  683.33   39.40
  -5   0   4  220.28   18.10
   5   0  -4  254.47   19.50
   5   0  -4  255.87   21.60
  -5   0   4  259.17   20.50
  -4   0   4  935.21   41.20
  -4   0   4  852.71   44.30
   4   0  -4  893.51   52.49
   4   0  -4  843.02   47.50
  -4   0   4  912.41   43.30
  -4   0   4  932.51   38.60
  -3   0   4   12.90    3.90
   3   0  -4   26.60    6.20
  -3   0   4   10.50    5.60
   3   0  -4   19.70    7.00
  -3   0   4   25.60    4.60
  -3   0   4   16.00    6.20
  -2   0   4 4372.96  182.98
  -2   0   4 4375.76  182.08
  -2   0   4 4468.75  177.38
   2   0  -4 4643.14  183.08
  -2   0   4 4398.36  180.48
   2   0  -4 4468.05  182.08
  -1   0   4 4154.98  167.58
  -1   0   4 4069.19  170.38
   1   0  -4 4377.56  170.88
  -1   0   4 4002.10  169.28
  -1   0   4 4041.50  169.68
   1   0  -4 4311.57  169.88
   1   0  -4 4080.69  164.78
   0   0   4    4.30    4.80
   0   0   4    5.00    4.50
   0   0  -4    7.50    4.50
   0   0  -4   10.20    4.90
   0   0  -4   16.80    6.10
   0   0   4    9.60    3.60
   0   0   4   10.10    5.80
   1   0   4  781.12   34.70
  -1   0  -4  801.12   37.90
   1   0   4  722.13   38.30
   1   0   4  747.83   37.10
   1   0   4  736.53   37.50
  -1   0  -4  784.42   36.80
   1   0   4  765.72   37.60
  -1   0  -4  752.62   36.90
   2   0   4  847.12   39.00
   2   0   4  818.42   36.60
   2   0   4  763.72   41.40
  -2   0  -4  811.72   38.90
   2   0   4  782.62   39.40
  -2   0  -4  793.72   40.20
  -2   0  -4  895.21   40.30
   2   0   4  778.42   39.70
   3   0   4  954.00   42.50
   3   0   4  961.10   45.60
  -3   0  -4  905.31   47.00
   3   0   4  939.71   45.00
   3   0   4  955.60   42.00
  -3   0  -4  970.70   44.50
   3   0   4  862.91   47.30
  -3   0  -4  924.71   44.80
  -4   0  -4   95.09   14.60
   4   0   4  107.79   11.30
  -4   0  -4   96.39   15.10
   4   0   4  115.09   12.50
   4   0   4  125.49   17.70
   4   0   4  114.59   15.10
   4   0   4  127.69   17.90
  -4   0  -4  119.79   13.50
   4   0   4  104.09   14.80
   5   0   4 1644.74   70.19
   5   0   4 1683.73   78.89
  -5   0  -4 1655.33   80.69
  -5   0  -4 1628.64   74.29
   5   0   4 1714.23   75.59
  -5   0  -4 1625.94   74.39
   5   0   4 1639.44   71.39
  -6   0  -4  192.58   23.40
   6   0   4  210.68   26.90
   6   0   4  204.78   25.80
  -7   0  -4  126.59   26.70
   7   0   4  113.69   20.70
 -11  -1   4  -50.19   22.00
 -11  -1   4   -2.70   14.70
 -11   1   4   -1.50   14.90
 -11   1   4   -8.50   23.10
  10  -1  -4   87.59   13.30
 -10  -1   4   98.89   16.90
 -10  -1   4   97.69   22.80
 -10  -1   4   99.09   24.00
 -10   1   4  122.29   17.60
  10   1  -4   94.09   11.70
 -10   1   4   98.89   20.90
 -10   1   4   70.49   21.20
  -9  -1   4   19.80   15.80
   9  -1  -4   28.60    8.60
  -9  -1   4   73.19   25.50
   9  -1  -4   43.40   19.60
   9  -1  -4   38.70   10.90
   9   1  -4   21.40    9.40
   9   1  -4   57.09   16.90
  -9   1   4   27.00   14.10
   9   1  -4   38.50    7.70
  -9   1   4   40.60   17.60
  -9   1   4   42.10   11.90
  -8  -1   4    8.20   10.30
  -8  -1   4   -3.30    8.30
  -8  -1   4    4.60   11.60
  -8  -1   4    7.90   24.20
   8  -1  -4    5.90   14.20
   8  -1  -4    5.60    6.10
   8   1  -4   -6.20   11.90
   8   1  -4   -1.40    5.70
  -8   1   4    3.10    9.00
  -8   1   4    4.70    9.40
  -8   1   4    3.50   11.60
  -7  -1   4   37.70    9.60
   7  -1  -4   36.40    7.30
   7  -1  -4   26.40   12.20
  -7  -1   4   33.50   13.50
  -7  -1   4   42.50   11.60
   7  -1  -4   39.60   14.20
  -7   1   4   49.00   12.30
   7   1  -4   41.70   11.90
  -7   1   4   40.60    9.90
   7   1  -4   52.09   12.10
   7   1  -4   35.60    7.20
  -7   1   4   25.00    8.80
  -6  -1   4  147.39   15.90
  -6  -1   4  161.08   18.90
   6  -1  -4  164.38   17.70
  -6  -1   4  167.08   18.00
   6  -1  -4  223.38   22.30
  -6   1   4  137.89   17.60
  -6   1   4  156.08   15.70
   6   1  -4  142.99   17.60
   6   1  -4  139.79   19.00
   5  -1  -4   90.39   13.30
  -5  -1   4   89.19   13.70
   5  -1  -4  129.59   16.40
  -5  -1   4   91.59   11.70
  -5  -1   4   88.29   12.50
  -5  -1   4   80.79    5.20
  -5   1   4   86.79   13.10
   5   1  -4   69.69   11.70
   5   1  -4  107.09   14.00
  -5   1   4   80.99   11.70
   4  -1  -4   14.40    6.40
  -4  -1   4   11.90    3.50
   4  -1  -4   12.70    7.10
  -4  -1   4   21.70    7.60
  -4  -1   4   24.00    6.00
  -4  -1   4   17.40    6.00
  -4   1   4   20.00    3.50
  -4   1   4   18.10    6.90
   4   1  -4   22.20    7.50
  -4   1   4   15.30    5.50
  -4   1   4   18.80    4.90
   4   1  -4   18.30    6.40
   3  -1  -4  107.89   14.50
  -3  -1   4  124.99    9.70
  -3  -1   4  117.49   12.40
   3  -1  -4  142.09   12.70
  -3  -1   4  104.59   12.70
  -3  -1   4  117.79    9.60
  -3   1   4  119.49   11.50
   3   1  -4  123.29   12.70
  -3   1   4  112.69   12.80
  -3   1   4  117.19    9.40
  -3   1   4  117.59    8.50
   3   1  -4  121.69   12.10
  -2  -1   4   28.80    7.30
   2  -1  -4   15.60    5.70
   2  -1  -4   20.30    5.30
  -2  -1   4   15.10    5.40
  -2  -1   4   25.20    4.00
   2   1  -4   19.80    5.20
   2   1  -4   22.40    4.00
   2   1  -4   13.50    6.00
  -2   1   4   16.40    4.90
  -2   1   4   19.90    4.60
  -2   1   4   26.50    6.90
  -2   1   4   22.10    5.00
  -2   1   4   25.10    3.30
  -1  -1   4 1059.89   50.29
   1  -1  -4 1089.29   44.10
  -1  -1   4 1106.09   48.70
   1  -1  -4 1171.38   51.29
  -1  -1   4 1044.40   51.19
   1  -1  -4 1094.59   49.99
   1   1  -4 1166.08   50.49
   1   1  -4 1086.29   46.30
  -1   1   4 1083.39   49.70
  -1   1   4 1121.69   47.70
  -1   1   4 1052.19   50.39
   1   1  -4 1102.79   50.79
  -1   1   4 1123.59   49.99
   0  -1   4  783.72   38.60
   0  -1   4  778.82   39.70
   0  -1  -4  772.52   36.80
   0  -1  -4  829.92   38.10
   0  -1  -4  765.12   38.50
   0  -1   4  831.22   37.20
   0  -1   4  788.12   39.00
   0   1   4  818.02   38.00
   0   1   4  789.32   38.80
   0   1   4  819.02   36.20
   0   1   4  802.72   38.40
   0   1  -4  747.13   37.50
   0   1  -4  828.62   38.40
   1  -1   4    3.10    4.30
   1  -1   4   13.90    5.40
  -1  -1  -4    5.20    4.70
   1  -1   4    6.60    4.20
   1  -1   4    6.00    6.10
   1  -1   4    2.20    5.20
  -1  -1  -4   -4.30    4.00
   1   1   4    9.80    5.50
   1   1   4    4.50    4.00
  -1   1  -4    6.00    4.80
   1   1   4    5.60    3.40
   1   1   4    4.60    5.20
   1   1   4    3.70    4.70
  -1   1  -4   -0.50    5.10
  -1   1  -4   -2.10    4.00
   2  -1   4    2.00    6.40
   2  -1   4   -1.00    4.20
   2  -1   4   -0.50    5.60
   2  -1   4    2.00    5.90
   2  -1   4   -7.60    4.90
  -2  -1  -4   -2.90    4.00
  -2  -1  -4   -4.00    4.90
  -2  -1  -4   -0.60    5.10
   2   1   4   -4.10    5.50
   2   1   4    4.30    8.60
   2   1   4   -3.10    5.40
  -2   1  -4    1.20    4.70
   2   1   4    3.40    4.90
  -2   1  -4    3.50    5.90
   2   1   4    1.90    3.60
  -2   1  -4   -8.00    5.80
   3  -1   4   36.10    8.50
   3  -1   4   37.00    8.70
  -3  -1  -4   41.90    7.90
   3  -1   4   32.00    8.90
  -3  -1  -4   42.10    8.50
   3  -1   4   38.50    7.50
  -3  -1  -4   40.20   10.70
   3  -1   4   36.60    9.50
   3  -1   4   34.10    6.90
   3   1   4   48.30   10.00
   3   1   4   35.90    6.10
  -3   1  -4   37.40    8.20
  -3   1  -4   39.20    9.20
   3   1   4   41.60    6.00
  -3   1  -4   42.30    9.20
   3   1   4   36.40    8.50
   3   1   4   50.49    8.50
   3   1   4   33.20    8.30
  -4  -1  -4  576.94   35.40
   4  -1   4  555.44   29.30
   4  -1   4  527.95   32.60
  -4  -1  -4  570.74   31.00
  -4  -1  -4  580.34   30.20
   4  -1   4  546.95   29.50
   4  -1   4  574.44   35.30
   4  -1   4  613.74   35.00
   4   1   4  574.14   28.40
   4   1   4  569.94   31.10
   4   1   4  572.54   34.20
  -4   1  -4  587.04   31.20
  -4   1  -4  507.65   35.10
   4   1   4  614.04   35.60
   4   1   4  585.74   26.60
   4   1   4  553.14   27.90
  -4   1  -4  584.34   32.00
  -5  -1  -4   94.29   12.60
   5  -1   4  134.69   21.10
  -5  -1  -4   96.19   18.90
   5  -1   4  137.49   16.30
   5  -1   4  113.79   15.10
   5  -1   4   82.29   14.10
  -5   1  -4  126.99   16.80
   5   1   4  102.39   14.10
   5   1   4  107.19   16.00
  -5   1  -4  125.29   19.80
  -5   1  -4   86.89   15.00
   6  -1   4  151.08   17.10
  -6  -1  -4   81.19   22.90
   6  -1   4  108.99   19.50
   6  -1   4  102.49   14.40
  -6  -1  -4   88.29   14.10
   6  -1   4   94.29   17.60
  -6   1  -4  112.29   17.50
  -6   1  -4   78.99   21.70
   6   1   4  105.29   18.80
   6   1   4  101.89   16.40
  -7  -1  -4  -27.30   19.00
   7  -1   4   22.40   17.00
  -7   1  -4   20.30   21.50
   7   1   4    4.20   14.20
 -10  -2   4  -14.80   17.20
 -10  -2   4   21.70   13.00
  10  -2  -4   25.50   10.70
 -10   2   4   19.30   21.00
 -10   2   4   29.80   17.60
 -10   2   4   30.60   13.80
  10   2  -4   12.20    8.40
  -9  -2   4  436.36   36.30
   9  -2  -4  415.46   25.10
  -9  -2   4  332.77   35.80
   9  -2  -4  418.66   42.90
   9   2  -4  401.86   25.90
   9   2  -4  446.86   40.10
  -9   2   4  418.86   30.00
  -9   2   4  380.16   35.70
  -9   2   4  410.86   32.50
   9   2  -4  376.86   22.20
   8  -2  -4  603.74   32.30
  -8  -2   4  626.94   36.10
   8  -2  -4  630.74   43.70
  -8  -2   4  625.64   40.30
  -8  -2   4  610.74   38.40
  -8   2   4  610.74   35.90
   8   2  -4  571.94   36.10
   8   2  -4  606.04   30.10
  -8   2   4  639.84   40.00
  -8   2   4  639.54   37.50
  -7  -2   4   64.29   13.70
  -7  -2   4   84.69   14.50
   7  -2  -4   84.19   11.90
   7  -2  -4   76.59   16.20
  -7  -2   4   72.59   11.90
   7  -2  -4   86.99   14.80
  -7   2   4   72.29   11.80
   7   2  -4   78.29    9.80
   7   2  -4   90.29   14.40
   7   2  -4  109.29   17.10
  -7   2   4   82.39   14.00
  -7   2   4   76.89   12.10
  -6  -2   4  196.88   18.60
  -6  -2   4  188.18   17.90
   6  -2  -4  196.88   19.70
   6  -2  -4  229.98   22.50
  -6  -2   4  210.48   20.30
   6   2  -4  178.28   18.20
  -6   2   4  192.88   16.80
   6   2  -4  161.98   20.50
  -6   2   4  184.38   19.30
  -5  -2   4 1256.47   59.99
  -5  -2   4 1303.77   62.09
  -5  -2   4 1382.46   60.39
   5  -2  -4 1279.17   62.39
   5  -2  -4 1323.37   61.19
  -5  -2   4 1332.37   53.69
   5   2  -4 1286.17   64.39
   5   2  -4 1343.97   60.49
  -5   2   4 1274.27   61.39
  -5   2   4 1272.37   59.69
  -4  -2   4  504.65   28.60
  -4  -2   4  530.45   27.10
   4  -2  -4  559.94   29.50
   4  -2  -4  517.15   30.20
  -4  -2   4  525.05   30.40
   4   2  -4  487.55   28.20
   4   2  -4  549.54   29.40
  -4   2   4  491.45   27.90
  -4   2   4  503.25   29.20
  -4   2   4  528.55   23.50
  -3  -2   4   61.99   10.40
   3  -2  -4   70.99   10.20
  -3  -2   4   54.09    7.80
  -3  -2   4   48.30    8.40
  -3   2   4   80.19   10.20
   3   2  -4   56.59    7.20
   3   2  -4   63.79    9.50
  -3   2   4   57.89    7.10
  -3   2   4   66.89    6.20
  -3   2   4   68.89   10.80
   3   2  -4   92.89   11.30
   2  -2  -4  506.85   27.90
   2  -2  -4  518.45   26.80
  -2  -2   4  457.45   26.60
  -2  -2   4  508.95   25.80
  -2  -2   4  496.65   28.50
  -2  -2   4  491.05   23.80
  -2   2   4  505.55   25.00
  -2   2   4  508.55   26.10
  -2   2   4  446.46   26.20
   2   2  -4  514.25   26.60
  -2   2   4  502.75   23.80
  -1  -2   4 1460.85   61.49
   1  -2  -4 1485.65   63.69
   1  -2  -4 1402.16   62.19
  -1  -2   4 1327.77   63.69
  -1  -2   4 1398.36   63.19
  -1   2   4 1429.46   61.79
  -1   2   4 1409.46   61.89
  -1   2   4 1383.76   59.29
   1   2  -4 1430.86   63.09
  -1   2   4 1362.66   62.09
   1   2  -4 1480.25   62.89
   1   2  -4 1387.96   59.89
   0  -2   4   64.59   10.00
   0  -2   4   82.19    9.50
   0  -2  -4   78.59    8.50
   0  -2  -4   63.59    9.40
   0  -2   4   80.99   10.50
   0  -2  -4   81.59    9.40
   0   2   4   73.29    8.90
   0   2   4   78.19   10.30
   0   2   4   74.09    7.50
   0   2  -4   83.39   10.00
   0   2   4   93.59    9.80
   0   2  -4   71.79   10.30
   0   2  -4   76.39    9.70
  -1  -2  -4  217.48   16.50
   1  -2   4  203.18   15.90
   1  -2   4  183.88   16.90
  -1  -2  -4  212.08   14.70
  -1  -2  -4  202.08   14.60
   1  -2   4  205.38   15.10
   1  -2   4  223.78   14.10
   1   2   4  213.48   11.90
   1   2   4  222.28   13.90
  -1   2  -4  211.88   16.50
  -1   2  -4  228.88   15.60
   1   2   4  217.78   14.50
  -1   2  -4  217.98   16.40
   1   2   4  182.98   16.30
   2  -2   4  138.59   16.30
  -2  -2  -4  161.98   14.40
   2  -2   4  147.99   16.10
   2  -2   4  159.48   12.70
   2  -2   4  146.89   15.00
  -2  -2  -4  140.49   14.60
  -2  -2  -4  146.89   12.70
  -2   2  -4  178.78   16.00
   2   2   4  174.78   13.40
  -2   2  -4  154.58   14.80
   2   2   4  156.68    9.90
   2   2   4  159.38   12.10
   2   2   4  144.89   15.20
   2   2   4  178.38   13.60
  -2   2  -4  152.98   13.50
  -3  -2  -4  185.38   17.20
   3  -2   4  167.48   18.50
  -3  -2  -4  198.78   18.50
  -3  -2  -4  214.18   15.10
   3  -2   4  184.18   15.50
   3  -2   4  160.78   16.90
   3  -2   4  182.18   17.30
   3  -2   4  197.28   19.90
  -3   2  -4  209.08   16.50
   3   2   4  187.48   19.10
  -3   2  -4  189.28   18.80
  -3   2  -4  228.18   17.10
   3   2   4  198.58   12.80
   3   2   4  225.68   17.50
   3   2   4  198.68   10.90
   3   2   4  198.78   15.70
   4  -2   4  250.47   23.20
   4  -2   4  268.37   22.30
   4  -2   4  292.47   19.10
   4  -2   4  271.27   23.60
   4  -2   4  247.58   24.20
  -4  -2  -4  247.88   17.90
  -4  -2  -4  251.67   19.80
  -4  -2  -4  248.18   23.70
   4  -2   4  292.57   20.20
  -4   2  -4  254.47   21.10
  -4   2  -4  269.17   19.90
  -4   2  -4  280.47   24.30
   4   2   4  242.18   21.40
   4   2   4  281.17   18.90
   4   2   4  254.27   22.60
   4   2   4  251.97   16.20
  -5  -2  -4 1322.47   59.49
   5  -2   4 1249.47   62.49
  -5  -2  -4 1335.37   66.89
   5  -2   4 1276.57   65.29
  -5  -2  -4 1310.57   60.29
   5   2   4 1337.07   59.29
  -5   2  -4 1280.77   61.29
  -5   2  -4 1214.38   66.49
   5   2   4 1328.67   64.39
   6  -2   4   36.10   14.40
   6  -2   4   27.60   12.40
  -6  -2  -4   59.79   11.60
   6  -2   4   43.40   15.20
   6  -2   4   43.20   15.70
  -6  -2  -4   29.20   16.40
  -6   2  -4   44.30   13.80
  -6   2  -4   16.10   16.00
   6   2   4   47.50   14.20
   6   2   4   28.10   13.10
  -7  -2  -4   73.99   26.60
   7  -2   4   96.79   22.00
   7  -2   4   98.29   18.10
  -7   2  -4   62.79   22.50
   7   2   4   67.29   18.10
 -10  -3   4  360.06   30.30
  10  -3  -4  374.36   27.80
 -10  -3   4  270.97   37.00
 -10  -3   4  416.56   46.70
 -10   3   4  391.16   32.20
 -10   3   4  381.76   37.40
 -10   3   4  412.96   41.00
  -9  -3   4  469.95   38.60
  -9  -3   4  450.85   35.40
   9  -3  -4  418.46   49.00
   9  -3  -4  436.36   27.80
   9  -3  -4  495.15   32.30
  -9  -3   4  460.45   30.70
  -9   3   4  483.05   34.60
  -9   3   4  434.96   31.20
   9   3  -4  436.96   28.40
   9   3  -4  415.96   27.10
   9   3  -4  440.06   23.00
  -9   3   4  410.86   37.10
   8  -3  -4  129.39   21.00
   8  -3  -4  125.09   15.30
  -8  -3   4  143.89   17.40
  -8  -3   4  124.39   19.60
  -8   3   4  149.99   18.60
   8   3  -4  111.59   11.20
   8   3  -4  130.79   19.10
  -8   3   4  124.19   18.70
  -8   3   4  115.19   17.90
   7  -3  -4 1454.55   72.29
  -7  -3   4 1589.34   71.69
   7  -3  -4 1501.05   70.69
  -7  -3   4 1312.67   68.89
   7  -3  -4 1348.97   63.89
  -7  -3   4 1494.95   66.89
   7   3  -4 1431.26   67.39
   7   3  -4 1470.95   65.89
  -7   3   4 1434.16   66.39
  -7   3   4 1407.56   69.49
  -7   3   4 1355.46   65.79
   7   3  -4 1413.36   61.39
  -6  -3   4 1081.89   51.09
   6  -3  -4 1020.50   54.39
   6  -3  -4 1022.40   52.79
  -6  -3   4 1031.50   52.99
  -6  -3   4 1120.49   52.99
  -6   3   4 1028.50   48.90
   6   3  -4 1077.09   50.29
  -6   3   4 1056.49   52.79
   6   3  -4  967.80   50.49
  -6   3   4 1019.10   50.09
   5  -3  -4   92.59   13.80
  -5  -3   4   63.39   11.20
  -5  -3   4   92.19   13.10
   5  -3  -4  108.29   15.50
  -5  -3   4   92.89   13.10
  -5   3   4   91.29   13.30
   5   3  -4  110.09   13.30
   5   3  -4   69.89   10.40
  -5   3   4   95.99   12.20
   4  -3  -4  336.67   23.00
   4  -3  -4  285.77   15.60
  -4  -3   4  266.47   19.50
  -4  -3   4  285.17   18.60
   4  -3  -4  282.07   19.70
  -4  -3   4  286.17   21.00
   4   3  -4  272.27   19.60
  -4   3   4  272.87   18.60
  -4   3   4  305.87   20.40
   4   3  -4  264.67   18.70
  -3  -3   4 1455.65   66.29
   3  -3  -4 1500.35   61.99
   3  -3  -4 1419.16   64.39
  -3  -3   4 1545.65   62.99
  -3  -3   4 1442.36   64.99
   3  -3  -4 1419.56   65.69
   3   3  -4 1502.95   64.59
  -3   3   4 1341.47   64.09
  -3   3   4 1496.45   63.69
  -3   3   4 1409.26   60.69
   3   3  -4 1259.17   61.69
   3   3  -4 1493.25   64.39
  -2  -3   4  487.25   27.70
   2  -3  -4  469.55   25.90
  -2  -3   4  451.15   26.50
  -2  -3   4  489.95   25.40
   2  -3  -4  498.15   25.00
   2  -3  -4  522.25   27.80
  -2  -3   4  505.55   24.00
  -2   3   4  427.66   25.50
  -2   3   4  471.05   24.80
   2   3  -4  462.05   26.00
  -2   3   4  461.55   24.00
   2   3  -4  483.45   25.90
   2   3  -4  431.56   23.40
  -2   3   4  487.75   22.40
   1  -3  -4  593.44   29.00
   1  -3  -4  567.44   29.90
  -1  -3   4  556.24   30.90
  -1  -3   4  524.05   29.60
  -1  -3   4  557.44   28.30
   1  -3  -4  567.64   29.10
  -1   3   4  543.65   28.20
  -1   3   4  577.54   25.50
  -1   3   4  571.54   28.00
   1   3  -4  545.65   32.40
  -1   3   4  528.45   28.10
   1   3  -4  554.24   29.00
   1   3  -4  586.44   27.40
   0  -3  -4  885.11   40.70
   0  -3  -4  922.11   44.20
   0  -3  -4  923.81   37.90
   0  -3   4  949.01   43.60
   0  -3  -4  924.71   42.70
   0  -3  -4  941.51   43.80
   0  -3   4  911.81   44.40
   0  -3   4  868.01   44.90
   0   3  -4  862.91   43.20
   0   3   4  889.41   41.40
   0   3   4  933.61   43.60
   0   3   4  955.80   40.10
   0   3  -4  971.40   43.60
   0   3  -4  946.21   43.90
  -1  -3  -4   63.59    8.90
   1  -3   4   65.89   11.20
   1  -3   4   62.39    9.20
   1  -3   4   64.29    9.00
   1  -3   4   54.69   11.20
  -1  -3  -4   65.79    9.00
  -1  -3  -4   62.79    9.40
  -1   3  -4   61.89    9.70
   1   3   4   62.09    7.90
   1   3   4   77.79   10.40
  -1   3  -4   92.69   11.90
  -1   3  -4   59.39    9.80
   1   3   4   53.29    7.60
   1   3   4   66.29    6.10
   1   3   4   62.79    8.20
   2  -3   4   72.49   11.20
  -2  -3  -4   74.89    9.90
  -2  -3  -4   60.09    9.10
   2  -3   4   55.69   10.90
  -2  -3  -4   71.19   10.10
   2  -3   4   74.59   10.50
   2  -3   4   57.59    9.70
   2   3   4   63.09    5.30
   2   3   4   77.89    9.40
   2   3   4   75.59    6.50
  -2   3  -4   52.29    8.60
  -2   3  -4   68.49   11.10
   2   3   4   88.09   13.20
  -2   3  -4   68.89   10.10
   2   3   4   88.09   10.00
  -3  -3  -4 1065.79   48.40
  -3  -3  -4 1007.60   51.59
   3  -3   4 1025.80   52.49
   3  -3   4 1077.69   51.69
  -3  -3  -4 1096.09   49.99
   3  -3   4 1037.40   53.89
   3  -3   4 1096.99   49.70
   3  -3   4 1070.89   52.79
   3  -3   4 1043.80   49.10
  -3   3  -4 1090.79   50.59
  -3   3  -4 1040.10   49.99
  -3   3  -4 1037.60   53.09
   3   3   4 1099.79   52.99
   3   3   4 1109.09   50.19
   3   3   4 1077.29   45.70
   3   3   4 1131.99   48.40
   4  -3   4 1669.73   75.19
   4  -3   4 1484.65   70.49
   4  -3   4 1465.95   73.59
   4  -3   4 1621.34   76.39
  -4  -3  -4 1575.44   75.09
   4  -3   4 1512.85   69.99
  -4  -3  -4 1579.24   69.29
   4  -3   4 1538.95   74.09
  -4  -3  -4 1661.23   70.99
  -4   3  -4 1532.05   75.59
  -4   3  -4 1612.34   72.09
   4   3   4 1653.33   68.69
   4   3   4 1666.83   72.89
   4   3   4 1700.53   66.79
  -4   3  -4 1627.04   71.89
   4   3   4 1593.14   74.19
   5  -3   4   32.30   13.30
   5  -3   4   49.80   13.30
   5  -3   4   28.60   10.60
  -5  -3  -4   25.10    8.40
  -5  -3  -4   43.20   14.00
  -5  -3  -4   31.80    9.90
   5  -3   4   18.80   12.20
   5   3   4   26.00   11.10
  -5   3  -4   28.40   14.30
  -5   3  -4   29.00   10.50
   5   3   4   35.40   11.50
  -6  -3  -4  355.06   26.10
   6  -3   4  364.26   33.90
   6  -3   4  425.76   31.70
  -6  -3  -4  447.56   38.00
   6  -3   4  400.66   33.70
  -6   3  -4  370.66   32.10
  -6   3  -4  375.36   36.40
   6   3   4  349.87   31.30
   6   3   4  425.76   24.60
  -7  -3  -4  123.49   27.60
   7  -3   4   82.59   20.60
  -7   3  -4  107.59   25.40
  10  -4  -4   -4.60   11.70
 -10  -4   4   12.50   18.30
 -10  -4   4   12.00   11.70
 -10  -4   4  -12.90   18.90
 -10   4   4   25.00   14.50
 -10   4   4   19.90   18.50
 -10   4   4  -16.30   16.60
  -9  -4   4   68.29   18.20
   9  -4  -4   90.79   15.80
   9  -4  -4   56.09   11.80
  -9  -4   4   55.79   12.70
   9  -4  -4  125.89   31.70
  -9  -4   4   97.59   18.30
  -9   4   4   54.09   15.30
   9   4  -4   63.09    8.70
  -9   4   4   90.79   15.50
   9   4  -4   63.59   11.20
   9   4  -4   68.29   10.60
  -8  -4   4   26.80    9.20
   8  -4  -4   15.30    7.40
   8  -4  -4   59.19   18.80
  -8  -4   4    6.40   12.40
   8  -4  -4   15.80    9.90
  -8   4   4    9.70   10.50
   8   4  -4    4.10    8.70
   8   4  -4    7.60    4.70
  -8   4   4    2.80    8.10
  -8   4   4   19.70   12.10
  -7  -4   4  190.38   23.20
   7  -4  -4  216.28   17.70
   7  -4  -4  198.48   25.80
   7  -4  -4  204.28   27.60
  -7  -4   4  226.58   19.80
  -7  -4   4  248.98   27.90
  -7   4   4  235.88   19.70
   7   4  -4  235.38   19.10
   7   4  -4  221.28   14.20
   7   4  -4  197.98   21.90
  -7   4   4  223.58   19.00
  -7   4   4  243.78   23.70
  -6  -4   4  380.96   16.60
   6  -4  -4  354.06   27.50
  -6  -4   4  380.46   27.80
   6  -4  -4  416.36   29.60
  -6  -4   4  350.76   24.50
  -6  -4   4  382.66   27.80
   6   4  -4  382.86   24.00
  -6   4   4  359.56   26.10
   6   4  -4  399.36   25.60
  -6   4   4  346.87   23.70
  -6   4   4  374.86   22.70
   5  -4  -4   13.50    8.60
  -5  -4   4   10.40    6.80
   5  -4  -4    8.20    8.40
  -5  -4   4   -2.70    6.00
  -5  -4   4   13.20    8.50
   5  -4  -4   10.00    3.80
   5   4  -4   -1.10    5.90
  -5   4   4   10.10    5.10
  -5   4   4   17.40    6.40
  -5   4   4    2.80    6.40
   5   4  -4    5.70    6.10
  -4  -4   4   18.90    7.60
  -4  -4   4   23.90    8.60
   4  -4  -4   35.80    9.10
  -4  -4   4   19.40    8.20
   4  -4  -4   19.30    4.60
   4  -4  -4   30.40    7.80
  -4   4   4   34.30    8.10
   4   4  -4   22.80    7.00
  -4   4   4   20.50    6.30
   4   4  -4   24.90    7.00
  -3  -4   4  440.96   23.70
   3  -4  -4  422.56   22.20
   3  -4  -4  443.96   24.70
  -3  -4   4  410.66   26.40
   3  -4  -4  457.05   26.70
  -3  -4   4  393.36   24.70
   3   4  -4  424.36   24.00
   3   4  -4  408.26   23.00
  -3   4   4  426.46   24.50
  -3   4   4  402.66   20.80
   3   4  -4  406.46   24.10
  -2  -4   4    7.70    4.60
  -2  -4   4    9.20    7.40
   2  -4  -4   13.00    5.00
  -2  -4   4    8.10    5.50
  -2  -4   4    4.90    5.90
   2  -4  -4   11.70    4.70
   2   4  -4   13.90    4.80
  -2   4   4   20.30    5.40
   2   4  -4    3.40    4.40
  -2   4   4    7.20    4.00
   2   4  -4    4.10    4.90
  -2   4   4    5.20    4.70
  -2   4   4   12.20    3.30
  -1  -4   4   11.20    4.80
   1  -4  -4    4.40    4.10
   1  -4  -4   12.10    6.70
  -1  -4   4    7.80    6.00
  -1  -4   4   13.40    6.80
   1  -4  -4   15.10    6.00
  -1   4   4   12.10    4.90
   1   4  -4   15.80    4.90
   1   4  -4   10.50    5.20
   1   4  -4   16.60    7.20
  -1   4   4   10.30    4.30
  -1   4   4   14.30    4.60
  -1   4   4   16.20    3.00
   0  -4  -4   66.19   10.00
   0  -4  -4   50.79    8.50
   0  -4   4   46.80    8.80
   0  -4  -4   42.90    7.00
   0  -4   4   56.19    8.60
   0  -4   4   59.59   10.50
   0  -4  -4   48.00    7.30
   0  -4  -4   56.39    4.80
   0   4   4   59.19    9.60
   0   4  -4   46.30    8.30
   0   4  -4   60.69    9.60
   0   4   4   55.89    6.10
   0   4  -4   50.79    7.90
   0   4   4   54.19    7.20
   0   4   4   49.40    7.20
  -1  -4  -4  144.09   15.90
   1  -4   4  146.29   13.30
  -1  -4  -4  142.79   13.60
   1  -4   4  132.39   15.40
  -1  -4  -4  143.79   12.10
  -1  -4  -4  144.99   11.70
  -1  -4  -4  142.59    9.90
   1  -4   4  148.19   12.70
   1   4   4  139.79   10.60
  -1   4  -4  158.68   14.10
  -1   4  -4  128.29   12.70
   1   4   4  144.89   14.00
   1   4   4  147.39   10.90
   1   4   4  162.98    8.90
   1   4   4  146.39    8.00
  -1   4  -4  144.29   14.50
   2  -4   4   17.30    9.00
   2  -4   4   10.60    6.30
   2  -4   4   14.60    9.10
  -2  -4  -4    9.70    5.10
   2  -4   4   17.80    6.80
  -2  -4  -4   15.50    6.50
  -2   4  -4   14.60    6.40
   2   4   4    9.70    7.50
  -2   4  -4   15.40    7.40
   2   4   4   14.60    4.70
   2   4   4   10.40    3.80
  -2   4  -4    1.20    6.20
   3  -4   4   22.20    9.10
  -3  -4  -4   25.60    6.10
   3  -4   4   20.70    9.60
   3  -4   4   27.80    8.40
  -3  -4  -4   29.30    8.60
   3  -4   4   27.30    8.00
   3  -4   4   38.70   11.10
  -3  -4  -4   28.70    8.50
  -3  -4  -4   30.20    8.30
  -3   4  -4   29.90    8.00
   3   4   4   27.20    8.60
   3   4   4   25.20    7.20
   3   4   4   33.70    5.90
  -3   4  -4   23.00    8.90
   3   4   4   33.80    4.70
  -3   4  -4   25.80    7.90
  -4  -4  -4   33.50   11.30
   4  -4   4   23.60   11.00
   4  -4   4   18.20   11.70
   4  -4   4   10.90    8.10
   4  -4   4   10.80   10.40
   4  -4   4   26.00    9.60
  -4  -4  -4   29.80    6.80
  -4  -4  -4   33.50   10.10
  -4  -4  -4   24.60    9.20
   4  -4   4   17.10   11.30
   4   4   4   11.80    9.50
  -4   4  -4   14.90    8.90
  -4   4  -4   14.90   10.80
   4   4   4   21.10    9.10
   4   4   4   28.70    5.00
  -4   4  -4   20.80   10.10
  -5  -4  -4   52.89   16.30
  -5  -4  -4   61.79   16.30
   5  -4   4   93.19   14.60
  -5  -4  -4   77.49   12.60
   5  -4   4   64.79   14.90
   5  -4   4   55.89   13.70
   5  -4   4   63.09   16.00
  -5  -4  -4   60.79    9.80
   5   4   4   48.70   12.70
  -5   4  -4   49.80   12.70
  -5   4  -4   54.49   15.90
   5   4   4   52.19    8.00
  -6  -4  -4  -17.70    7.70
   6  -4   4   17.50   16.30
   6  -4   4  -35.70   16.00
   6  -4   4  -12.60   14.00
   6  -4   4    5.90   14.30
  -6  -4  -4   11.20   16.00
  -6   4  -4   -3.60   14.70
   6   4   4   -1.40   12.50
  -6   4  -4    6.10   15.20
   7  -4   4   22.60   19.70
  -7  -4  -4   10.50   20.50
   7  -4   4   25.00   21.30
   7   4   4   -2.10   16.40
  -7   4  -4  -29.10   18.40
  10  -5  -4  500.55   34.50
 -10  -5   4  536.05   46.50
 -10  -5   4  544.95   36.50
 -10  -5   4  521.85   44.90
 -10   5   4  563.14   44.70
 -10   5   4  519.85   39.00
 -10   5   4  502.45   42.20
   9  -5  -4  688.53   39.50
  -9  -5   4  761.22   47.80
  -9  -5   4  710.83   47.60
  -9  -5   4  709.33   41.20
   9  -5  -4  726.73   43.60
  -9   5   4  757.82   48.30
   9   5  -4  780.72   37.60
  -9   5   4  701.03   45.10
  -9   5   4  799.82   44.30
  -8  -5   4  198.58   20.40
   8  -5  -4  308.47   37.40
  -8  -5   4  199.28   26.40
   8  -5  -4  208.58   19.20
   8  -5  -4  251.07   22.80
   8   5  -4  236.28   15.10
  -8   5   4  243.98   22.30
   8   5  -4  227.68   12.80
  -8   5   4  196.48   26.90
  -8   5   4  231.98   22.60
   7  -5  -4 1183.38   60.89
  -7  -5   4 1097.09   55.79
  -7  -5   4 1129.39   59.69
   7  -5  -4 1169.58   62.79
   7  -5  -4 1127.69   54.19
  -7  -5   4 1233.18   62.69
   7   5  -4 1132.69   49.30
  -7   5   4 1210.48   56.79
  -7   5   4 1189.58   55.59
  -7   5   4 1141.79   58.99
   7   5  -4 1206.38   51.89
   7   5  -4 1114.09   55.49
  -6  -5   4   70.09   14.20
  -6  -5   4   76.69   12.60
   6  -5  -4   89.29   14.10
  -6  -5   4   63.69   11.30
   6  -5  -4   77.19   15.90
   6  -5  -4   59.99    7.40
   6   5  -4   90.69   12.60
   6   5  -4   64.99   11.70
  -6   5   4   82.19   13.80
  -6   5   4   67.39   10.20
  -6   5   4   51.29    9.90
  -5  -5   4   38.10    9.00
   5  -5  -4   64.19   13.00
   5  -5  -4   59.59    7.80
   5  -5  -4   78.49   13.40
  -5  -5   4   53.19   10.90
  -5  -5   4   72.19   12.90
  -5   5   4   65.49   10.70
  -5   5   4   52.79   10.70
   5   5  -4   49.60    8.80
  -5   5   4   71.69    9.40
   5   5  -4   85.69   12.10
   4  -5  -4  501.45   28.80
  -4  -5   4  511.75   28.60
  -4  -5   4  514.05   31.20
   4  -5  -4  522.25   25.10
   4  -5  -4  489.85   30.80
  -4  -5   4  466.15   28.10
   4   5  -4  452.35   27.50
  -4   5   4  516.75   28.90
   4   5  -4  506.55   27.60
  -4   5   4  511.65   27.20
  -4   5   4  477.45   24.00
   4   5  -4  494.75   26.80
  -3  -5   4 2646.54  114.39
  -3  -5   4 2732.83  113.49
   3  -5  -4 2732.63  114.49
   3  -5  -4 2614.94  110.29
   3  -5  -4 2560.54  112.49
  -3  -5   4 2672.63  112.09
   3   5  -4 2740.03  111.99
  -3   5   4 2675.63  111.09
  -3   5   4 2540.25  111.89
   3   5  -4 2571.14  111.59
   3   5  -4 2758.72  111.39
  -2  -5   4 1220.18   58.99
  -2  -5   4 1244.78   60.19
  -2  -5   4 1352.56   58.79
   2  -5  -4 1308.67   57.49
   2  -5  -4 1289.57   58.19
  -2  -5   4 1300.07   57.39
   2  -5  -4 1384.66   60.29
  -2   5   4 1348.77   53.09
  -2   5   4 1257.37   55.99
  -2   5   4 1241.68   56.39
  -2   5   4 1219.58   56.79
   2   5  -4 1315.97   57.69
  -2   5   4 1349.66   52.29
   2   5  -4 1201.58   57.19
  -1  -5   4  307.27   20.00
   1  -5  -4  309.57   19.70
   1  -5  -4  310.07   20.10
  -1  -5   4  310.97   21.30
   1  -5  -4  323.07   19.20
  -1  -5   4  298.47   20.50
   1   5  -4  318.47   19.30
  -1   5   4  281.67   17.20
  -1   5   4  306.57   14.20
   1   5  -4  278.57   18.80
  -1   5   4  287.97   18.30
   1   5  -4  331.47   19.70
  -1   5   4  314.17   17.70
   0  -5   4 1198.68   53.29
   0  -5  -4 1126.89   48.60
   0  -5  -4 1144.99   47.40
   0  -5  -4 1114.79   51.59
   0  -5   4 1149.78   55.09
   0  -5  -4 1222.58   53.09
   0  -5  -4 1249.57   54.79
   0  -5   4 1055.19   53.89
   0   5   4 1173.18   49.90
   0   5   4 1132.69   48.60
   0   5  -4 1201.68   52.69
   0   5   4 1141.79   47.90
   0   5  -4 1119.69   52.29
   0   5  -4 1118.19   53.29
   0   5  -4 1164.58   52.39
   0   5   4 1065.79   51.89
  -1  -5  -4  502.75   29.40
  -1  -5  -4  450.25   23.60
   1  -5   4  433.76   28.50
  -1  -5  -4  461.75   22.50
   1  -5   4  440.86   28.80
  -1  -5  -4  486.85   26.10
  -1  -5  -4  478.15   24.60
   1  -5   4  472.45   27.00
   1  -5   4  446.66   25.20
   1   5   4  499.15   22.70
  -1   5  -4  431.26   25.60
  -1   5  -4  491.95   26.00
  -1   5  -4  440.36   27.10
   1   5   4  469.55   22.70
   1   5   4  451.85   26.00
  -2  -5  -4   -3.00    5.80
  -2  -5  -4    5.90    5.00
  -2  -5  -4    7.90    6.60
   2  -5   4   24.80    7.40
   2  -5   4    4.90    6.10
  -2  -5  -4   17.10    9.20
   2  -5   4   16.60    9.40
  -2  -5  -4    0.80    5.00
   2  -5   4    9.30    8.70
  -2   5  -4    7.50    6.50
   2   5   4    7.80    6.90
  -2   5  -4    1.80    6.60
   2   5   4   10.10    4.80
   2   5   4    8.50    3.90
   2   5   4   11.60    3.30
  -2   5  -4   15.50    6.90
   3  -5   4 1353.46   61.09
   3  -5   4 1290.97   64.69
  -3  -5  -4 1397.16   61.19
  -3  -5  -4 1387.86   60.19
   3  -5   4 1331.77   65.29
   3  -5   4 1335.27   62.99
   3  -5   4 1292.47   60.29
  -3  -5  -4 1317.47   58.09
  -3  -5  -4 1320.87   61.99
  -3   5  -4 1325.17   60.89
  -3   5  -4 1337.37   61.49
   3   5   4 1239.58   61.99
  -3   5  -4 1278.47   64.09
   3   5   4 1362.76   53.99
   3   5   4 1345.77   55.09
   3   5   4 1353.96   59.89
  -4  -5  -4 1532.65   65.09
   4  -5   4 1441.36   66.99
   4  -5   4 1450.25   71.19
  -4  -5  -4 1477.95   62.89
   4  -5   4 1346.27   65.79
  -4  -5  -4 1419.46   69.69
  -4  -5  -4 1553.54   68.99
   4  -5   4 1420.06   71.69
  -4   5  -4 1490.25   67.69
   4   5   4 1352.76   67.69
  -4   5  -4 1396.86   70.89
  -4   5  -4 1489.35   69.29
  -5  -5  -4   53.39   17.30
  -5  -5  -4   10.20    9.90
   5  -5   4   18.10   14.00
  -5  -5  -4    3.40   12.80
  -5  -5  -4   -7.50   10.60
   5  -5   4   -1.40   12.10
   5  -5   4    1.10   12.90
   5   5   4   17.20   11.10
  -5   5  -4   -7.40   12.60
  -5   5  -4    7.80   13.10
   6  -5   4  385.86   37.00
  -6  -5  -4  270.07   34.20
   6  -5   4  300.67   32.60
  -6  -5  -4  270.67   22.30
   6  -5   4  369.06   33.80
  -6  -5  -4  302.37   27.00
   6  -5   4  291.27   34.00
   6   5   4  216.08   27.50
  -6   5  -4  268.87   33.40
  -6   5  -4  252.27   32.50
  -7  -5  -4   98.49   24.70
   7  -5   4   71.39   24.00
   7  -5   4  117.39   23.20
   7   5   4   88.89   18.40
  -7   5  -4  117.09   25.10
 -10  -6   4    7.70   21.00
 -10  -6   4   15.20   18.60
  10  -6  -4   11.10   21.70
  10  -6  -4    3.90   12.60
 -10  -6   4   14.50   11.40
 -10   6   4   17.40   15.70
 -10   6   4   12.60   19.40
 -10   6   4  -23.70   18.00
   9  -6  -4   46.90   14.80
  -9  -6   4   16.40   10.60
  -9  -6   4   42.80   18.00
  -9  -6   4   29.70   14.90
  -9   6   4   37.10   16.40
  -9   6   4   11.70   12.40
  -9   6   4   27.90   15.40
   8  -6  -4  384.96   26.40
  -8  -6   4  456.45   34.40
   8  -6  -4  420.26   29.30
  -8  -6   4  414.06   28.60
  -8   6   4  414.06   29.40
  -8   6   4  379.46   32.70
  -8   6   4  440.86   29.70
   7  -6  -4  207.28   31.80
  -7  -6   4  185.38   10.90
   7  -6  -4  220.78   26.90
  -7  -6   4  223.98   24.60
  -7  -6   4  228.48   28.30
  -7  -6   4  162.38   18.70
   7  -6  -4  195.68   10.80
   7  -6  -4  159.48   16.90
  -7   6   4  165.28   21.30
   7   6  -4  177.78   20.80
  -7   6   4  191.58   18.80
   7   6  -4  178.48   12.50
  -7   6   4  159.98   18.10
   7   6  -4  189.18   11.10
  -6  -6   4  390.86   29.20
   6  -6  -4  372.36   32.60
   6  -6  -4  425.46   29.30
  -6  -6   4  388.66   29.40
   6  -6  -4  347.77   19.30
  -6  -6   4  360.46   24.60
   6   6  -4  382.46   24.60
  -6   6   4  379.56   22.80
   6   6  -4  368.36   20.60
  -6   6   4  372.96   26.90
  -6   6   4  379.26   24.90
   5  -6  -4  656.03   30.90
  -5  -6   4  634.04   37.60
  -5  -6   4  639.34   35.40
   5  -6  -4  632.64   39.40
  -5  -6   4  707.33   37.30
   5  -6  -4  666.83   37.50
  -5   6   4  637.34   33.80
  -5   6   4  633.94   31.40
   5   6  -4  655.13   34.10
  -5   6   4  599.04   35.40
   5   6  -4  679.83   32.00
  -4  -6   4  115.89   13.40
  -4  -6   4  107.49   13.90
   4  -6  -4  108.69   14.10
   4  -6  -4  101.59   16.30
   4  -6  -4  101.09   10.60
  -4  -6   4   79.89   13.00
  -4   6   4   97.89   13.00
   4   6  -4  120.99   11.70
  -4   6   4   85.99   11.20
   4   6  -4  118.99   12.80
  -4   6   4   90.19    8.60
   4   6  -4   96.99   12.70
   3  -6  -4   22.60    7.00
   3  -6  -4   23.60    5.80
  -3  -6   4   28.40    7.60
  -3  -6   4   21.40    8.00
   3  -6  -4   14.00    8.40
  -3  -6   4   18.50    7.40
  -3   6   4   30.40    6.20
  -3   6   4   23.20    3.30
  -3   6   4   21.90    6.30
   3   6  -4   29.00    7.20
   3   6  -4   31.80    7.10
   3   6  -4   26.20    6.30
   2  -6  -4  578.04   31.20
  -2  -6   4  554.44   30.10
  -2  -6   4  543.75   32.00
   2  -6  -4  515.25   31.70
  -2  -6   4  560.94   31.30
   2  -6  -4  563.74   29.60
  -2   6   4  568.14   28.10
   2   6  -4  591.84   30.90
   2   6  -4  511.45   29.20
  -2   6   4  571.44   23.60
  -2   6   4  536.15   27.40
   2   6  -4  584.54   29.60
  -2   6   4  562.74   24.50
   1  -6  -4  485.95   30.60
  -1  -6   4  477.75   30.00
  -1  -6   4  577.44   29.40
   1  -6  -4  560.84   29.10
   1  -6  -4  513.35   27.70
   1   6  -4  550.84   29.00
  -1   6   4  533.35   25.50
  -1   6   4  500.55   26.90
  -1   6   4  548.75   22.10
   1   6  -4  526.25   27.60
   1   6  -4  531.95   28.10
   0  -6  -4   84.19    7.00
   0  -6   4   62.89   11.00
   0  -6  -4   78.39   11.60
   0  -6  -4   85.39    6.70
   0  -6   4  115.29   14.90
   0  -6  -4   79.79    9.90
   0  -6   4   89.09   12.30
   0  -6  -4   71.39   11.20
   0   6   4   80.69    6.20
   0   6  -4   86.59   10.50
   0   6  -4   87.29   12.00
   0   6   4   85.79    7.80
   0   6   4   82.69    6.00
   0   6   4   78.39   10.30
   0   6  -4   66.69   10.70
   1  -6   4   14.50    8.40
  -1  -6  -4    9.10    5.00
   1  -6   4    8.30    7.70
  -1  -6  -4   19.60    6.70
  -1  -6  -4   15.30    5.00
  -1  -6  -4    5.70    4.20
   1  -6   4   15.00    6.30
   1  -6   4   22.60    7.20
  -1  -6  -4    0.70    8.00
  -1   6  -4   15.00    5.90
   1   6   4   13.20    5.70
  -1   6  -4    3.70    6.30
  -1   6  -4   10.80    7.50
   1   6   4   15.30    3.80
   1   6   4    6.30    3.40
   2  -6   4  301.67   25.70
   2  -6   4  307.87   21.30
   2  -6   4  316.47   23.40
  -2  -6  -4  342.47   19.00
  -2  -6  -4  298.57   20.00
  -2  -6  -4  317.77   25.90
  -2  -6  -4  329.07   20.90
   2  -6   4  288.57   25.70
  -2  -6  -4  333.17   19.90
   2  -6   4  321.37   21.40
   2   6   4  290.97   21.10
  -2   6  -4  315.17   24.20
   2   6   4  322.97   14.20
  -2   6  -4  326.67   21.10
   2   6   4  331.67   14.70
  -2   6  -4  312.27   23.60
  -3  -6  -4   66.39   11.30
   3  -6   4   65.39   14.70
   3  -6   4   90.29   12.50
  -3  -6  -4   55.99    7.70
   3  -6   4   61.89   11.50
  -3  -6  -4   57.29   11.10
   3  -6   4   43.60   12.60
  -3  -6  -4   72.79   11.20
  -3  -6  -4   49.70   14.10
   3  -6   4   34.10   12.30
   3   6   4   47.50    9.90
  -3   6  -4   72.59   14.10
  -3   6  -4   49.99   10.50
  -3   6  -4   62.09   16.00
   4  -6   4  364.46   27.00
   4  -6   4  316.07   29.80
   4  -6   4  337.17   37.80
  -4  -6  -4  340.57   27.90
  -4  -6  -4  355.06   20.60
  -4  -6  -4  402.46   24.60
   4  -6   4  385.56   32.10
  -4  -6  -4  328.17   27.40
  -4   6  -4  374.66   29.50
  -4   6  -4  362.16   26.90
   4   6   4  349.17   25.40
   5  -6   4  714.33   48.70
   5  -6   4  741.93   46.10
  -5  -6  -4  711.03   35.30
   5  -6   4  655.13   42.20
  -5  -6  -4  685.63   44.50
  -5  -6  -4  730.23   37.20
  -5  -6  -4  731.63   47.30
   5  -6   4  704.33   46.20
  -5   6  -4  686.23   45.60
   5   6   4  681.23   40.50
  -5   6  -4  793.22   43.80
  -6  -6  -4  105.89   21.80
   6  -6   4  114.69   26.40
   6  -6   4   58.09   20.90
  -6  -6  -4  116.19   16.00
   6  -6   4   84.79   21.10
  -6  -6  -4  129.29   16.80
   6  -6   4   94.49   22.10
  -6   6  -4   93.29   22.50
  -6   6  -4  112.69   35.50
   6   6   4   94.69   16.80
  -7  -6  -4   13.20   23.70
   7  -6   4   17.10   23.40
   7  -6   4   20.10   20.30
  -7   6  -4   42.90   24.70
   7   6   4   43.40   16.00
 -10  -7   4  215.08   29.40
 -10  -7   4  244.58   26.10
 -10  -7   4  291.77   39.70
  10  -7  -4  198.38   26.50
  10  -7  -4  189.48   31.90
 -10   7   4  208.98   28.10
 -10   7   4  229.08   36.50
 -10   7   4  295.47   32.80
  -9  -7   4   37.60   11.30
   9  -7  -4   18.10   14.90
  -9  -7   4   52.19   18.20
   9  -7  -4   17.00   10.90
  -9  -7   4   49.30   16.40
  -9   7   4   33.40   15.60
  -9   7   4   30.40   13.50
  -9   7   4   24.70   15.20
  -8  -7   4  116.39   17.40
   8  -7  -4  102.29   14.90
  -8  -7   4   77.79   18.20
   8  -7  -4   93.59   15.40
  -8   7   4  134.69   19.20
  -8   7   4  104.19   18.50
  -8   7   4   81.89   15.00
  -7  -7   4   33.00    6.10
   7  -7  -4   24.50    5.60
  -7  -7   4   34.00   14.10
   7  -7  -4   49.60   20.00
  -7  -7   4   28.80   10.00
   7  -7  -4   25.00   14.90
   7  -7  -4   27.30    9.00
  -7   7   4   28.80   11.50
  -7   7   4   27.20    9.70
  -7   7   4   30.30    9.30
   6  -7  -4   21.90   12.50
  -6  -7   4   24.60   13.20
   6  -7  -4   43.80    6.80
  -6  -7   4   20.00    9.00
  -6  -7   4   45.20   12.50
   6  -7  -4   -3.90   15.20
   6  -7  -4   27.50    8.00
  -6   7   4   15.90    7.20
   6   7  -4   27.90    5.00
  -6   7   4   31.80   11.00
   6   7  -4   25.70    9.10
  -6   7   4   22.60    7.10
  -5  -7   4   -6.60    6.10
  -5  -7   4   -9.50    8.30
   5  -7  -4   11.60   11.10
   5  -7  -4    5.40    5.30
   5  -7  -4   -2.00    8.10
  -5  -7   4    2.30    9.00
  -5   7   4    1.20    5.70
  -5   7   4   -3.40    7.00
  -5   7   4    6.20    5.10
   5   7  -4   11.10    4.60
   5   7  -4    5.30    6.20
   4  -7  -4  426.76   23.20
  -4  -7   4  344.87   25.00
  -4  -7   4  398.16   27.60
   4  -7  -4  395.26   29.30
   4  -7  -4  448.46   27.20
  -4  -7   4  462.15   27.40
  -4   7   4  394.06   19.80
  -4   7   4  384.06   22.90
   4   7  -4  394.16   23.10
   4   7  -4  419.96   21.90
   4   7  -4  347.27   24.80
  -4   7   4  409.26   25.00
  -3  -7   4  835.72   42.60
   3  -7  -4  856.11   42.40
  -3  -7   4  813.52   44.00
   3  -7  -4  865.11   41.20
  -3  -7   4  778.02   42.00
   3  -7  -4  850.81   46.00
  -3   7   4  874.31   35.20
   3   7  -4  865.61   39.00
   3   7  -4  770.42   41.70
  -3   7   4  838.22   40.40
  -3   7   4  829.52   39.30
   3   7  -4  900.21   40.70
   2  -7  -4  186.38   15.70
   2  -7  -4  195.28   15.80
  -2  -7   4  199.78   17.70
   2  -7  -4  235.48   18.20
  -2  -7   4  195.48   18.00
  -2  -7   4  203.68   18.50
  -2   7   4  183.68   13.90
  -2   7   4  215.48   11.80
   2   7  -4  203.68   15.70
  -2   7   4  196.68   13.50
   2   7  -4  216.28   17.00
  -1  -7   4  259.17   18.50
  -1  -7   4  196.08   19.30
   1  -7  -4  209.68   17.50
  -1  -7   4  196.78   18.30
   1  -7  -4  210.88   15.40
   1  -7  -4  209.48   17.30
   1   7  -4  197.58   17.00
   1   7  -4  196.08   15.00
  -1   7   4  223.08   11.70
   1   7  -4  210.98   15.90
  -1   7   4  210.78   15.20
  -1   7   4  223.08   13.30
  -1   7   4  230.18   13.00
   0  -7  -4  605.44   30.30
   0  -7  -4  603.84   27.20
   0  -7  -4  611.44   31.20
   0  -7   4  576.44   34.50
   0  -7   4  569.24   34.10
   0  -7   4  639.74   33.20
   0  -7  -4  573.34   25.70
   0  -7  -4  623.64   33.50
   0  -7   4  585.64   31.00
   0   7  -4  572.34   32.50
   0   7   4  608.14   27.20
   0   7  -4  573.54   30.70
   0   7  -4  608.04   30.40
   0   7   4  578.04   30.60
   1  -7   4   20.60    9.50
   1  -7   4   35.10    8.00
  -1  -7  -4   27.80    5.80
  -1  -7  -4   26.80    5.10
   1  -7   4   19.30    9.80
   1  -7   4   39.70    9.10
  -1  -7  -4   18.30    7.10
  -1  -7  -4   14.10    5.60
  -1  -7  -4   19.40    9.40
  -1   7  -4   28.70    8.30
  -1   7  -4   14.20    8.30
   1   7   4   24.90    6.80
   1   7   4   25.20    3.60
  -1   7  -4   27.70    6.40
  -2  -7  -4   17.20   11.40
  -2  -7  -4   27.40    6.50
  -2  -7  -4   36.00    7.60
   2  -7   4   35.10   11.40
   2  -7   4   18.90    8.20
  -2  -7  -4   27.60    7.10
  -2  -7  -4   34.20    7.30
   2  -7   4   22.50   10.60
   2  -7   4   32.40    9.50
   2  -7   4    7.70    8.90
  -2   7  -4   28.50    8.30
   2   7   4   24.90    7.60
  -2   7  -4   20.00    8.70
  -2   7  -4   16.20    7.10
  -3  -7  -4   13.80    5.80
   3  -7   4   35.60   12.20
  -3  -7  -4   19.50    8.60
  -3  -7  -4   12.00    8.60
   3  -7   4   18.00    9.00
  -3  -7  -4   14.10   14.40
  -3  -7  -4   19.10    8.90
   3  -7   4   19.00   11.50
   3  -7   4   26.50   11.90
   3  -7   4   19.00    9.70
  -3   7  -4    6.40    8.60
   3   7   4   19.40    8.70
  -3   7  -4   38.10   10.10
  -3   7  -4    8.00    9.70
   4  -7   4  450.65   35.80
  -4  -7  -4  514.85   33.40
  -4  -7  -4  444.86   23.80
   4  -7   4  455.05   32.40
   4  -7   4  475.05   36.90
  -4  -7  -4  445.06   31.20
  -4  -7  -4  509.85   27.60
  -4   7  -4  412.86   33.30
   4   7   4  408.46   29.10
   5  -7   4   22.70   16.50
  -5  -7  -4    1.20    5.80
   5  -7   4   17.60   16.90
  -5  -7  -4   20.30   13.20
  -5  -7  -4   -0.20    8.90
  -5  -7  -4   11.90   18.10
  -5   7  -4   18.30   13.90
   6  -7   4  363.56   49.00
   6  -7   4  435.26   41.40
   6  -7   4  387.56   41.00
  -6  -7  -4  403.66   35.60
  -6  -7  -4  381.06   39.90
   6   7   4  401.76   32.30
  -6   7  -4  420.06   41.20
   7  -7   4   77.49   24.40
  -7  -7  -4  110.19   29.30
   7  -7   4   25.40   25.30
  -7   7  -4   36.90   26.60
  10  -8  -4   10.50   14.20
 -10  -8   4   20.20   12.70
  10  -8  -4   17.60   36.10
 -10  -8   4   40.70   21.80
 -10  -8   4    7.40   23.70
 -10   8   4   19.50   21.50
 -10   8   4   24.40   19.40
 -10   8   4   11.00   16.50
   9  -8  -4  459.95   38.30
   9  -8  -4  538.95   33.40
  -9  -8   4  515.05   32.70
  -9  -8   4  459.25   41.40
  -9   8   4  501.95   36.30
  -9   8   4  524.75   39.00
  -9   8   4  536.55   40.50
   8  -8  -4 1581.14   77.49
   8  -8  -4 1554.14   75.99
  -8  -8   4 1691.83   81.69
  -8  -8   4 1766.72   69.09
   8  -8  -4 1603.84   67.79
  -8   8   4 1659.53   77.89
  -8   8   4 1699.03   77.89
   7  -8  -4  231.58   20.20
  -7  -8   4  253.47   27.30
   7  -8  -4  265.97   16.80
   7  -8  -4  224.28   28.10
  -7  -8   4  264.77   21.70
   7  -8  -4  265.57   21.80
  -7  -8   4  257.17   16.70
  -7   8   4  197.38   23.50
  -7   8   4  234.78   20.70
  -7   8   4  215.68   21.70
  -6  -8   4   34.20   13.50
   6  -8  -4   34.60   15.20
   6  -8  -4   45.30    9.30
   6  -8  -4   47.30   18.10
  -6  -8   4   57.09   13.00
   6  -8  -4   44.00    8.40
   6   8  -4   53.69    5.30
  -6   8   4   55.99    9.00
   6   8  -4   37.10    9.50
  -6   8   4   61.39   11.50
   6   8  -4   47.00    6.30
  -6   8   4   49.60   11.30
  -5  -8   4   50.69    9.80
   5  -8  -4   65.79   16.30
  -5  -8   4   55.39   13.10
  -5  -8   4   32.80   12.30
   5  -8  -4   38.00   12.40
   5  -8  -4   49.00   12.90
   5   8  -4   46.80   11.30
   5   8  -4   57.99    7.50
   5   8  -4   39.00    8.50
  -5   8   4   66.79    9.90
  -5   8   4   53.09   11.10
  -5   8   4   55.59   10.00
   4  -8  -4  283.17   27.00
  -4  -8   4  261.37   23.80
  -4  -8   4  294.37   22.00
   4  -8  -4  268.47   23.10
   4  -8  -4  282.57   19.80
  -4  -8   4  336.67   24.80
   4   8  -4  280.07   19.30
  -4   8   4  275.37   19.30
   4   8  -4  285.37   16.50
   4   8  -4  304.17   22.20
  -4   8   4  270.67   15.20
  -4   8   4  299.07   20.50
  -3  -8   4   49.70   10.10
   3  -8  -4   58.99   10.70
  -3  -8   4   52.09   11.70
   3  -8  -4   76.99   13.00
   3  -8  -4   68.69   10.30
  -3  -8   4   56.49   10.20
   3   8  -4   49.40    8.20
   3   8  -4   59.09   11.10
  -3   8   4   71.69   10.20
  -3   8   4   60.79    8.60
   3   8  -4   71.49    8.80
  -3   8   4   57.49    4.60
  -2  -8   4 4450.55  170.78
  -2  -8   4 4031.30  170.58
  -2  -8   4 4044.40  171.58
   2  -8  -4 4117.19  169.18
   2  -8  -4 4197.68  169.38
   2  -8  -4 4260.57  170.88
   2   8  -4 4009.20  170.18
   2   8  -4 4228.48  168.38
  -2   8   4 4230.28  166.08
   2   8  -4 3610.84  167.78
  -2   8   4 3828.42  165.48
   1  -8  -4 1486.15   64.99
   1  -8  -4 1457.15   66.59
   1  -8  -4 1429.46   65.99
  -1  -8   4 1432.66   68.99
  -1  -8   4 1374.76   67.49
  -1  -8   4 1248.18   65.49
  -1   8   4 1524.55   61.39
  -1   8   4 1512.95   61.79
   1   8  -4 1544.15   64.89
  -1   8   4 1439.26   60.49
   1   8  -4 1488.35   67.29
   1   8  -4 1549.45   63.89
   0  -8  -4   86.89   16.00
   0  -8   4  114.89   16.10
   0  -8  -4  122.19   15.90
   0  -8   4  101.79   16.50
   0  -8   4  145.69   13.80
   0  -8  -4  115.69   11.80
   0  -8   4  141.99   16.90
   0   8  -4  107.89   12.20
   0   8  -4  102.39   13.30
   0   8  -4   99.99   14.10
   0   8   4  113.59    8.10
   1  -8   4  381.36   28.40
  -1  -8  -4  335.57   25.80
   1  -8   4  358.46   23.10
  -1  -8  -4  357.86   22.20
  -1  -8  -4  357.76   20.50
   1  -8   4  382.06   25.10
  -1  -8  -4  364.36   20.90
   1  -8   4  381.66   28.20
  -1   8  -4  331.27   21.90
   1   8   4  362.26   15.70
   1   8   4  357.26   22.80
  -1   8  -4  389.26   26.40
  -1   8  -4  396.86   23.60
  -2  -8  -4  629.34   32.00
  -2  -8  -4  654.43   34.00
   2  -8   4  644.34   40.40
   2  -8   4  622.24   35.40
   2  -8   4  671.23   35.30
   2  -8   4  667.73   40.50
  -2  -8  -4  643.44   33.90
   2  -8   4  661.63   37.90
  -2  -8  -4  629.74   32.50
  -2  -8  -4  701.43   40.30
  -2   8  -4  656.13   38.50
  -2   8  -4  647.44   35.40
  -2   8  -4  676.23   34.60
   2   8   4  625.14   35.10
  -3  -8  -4  368.36   32.40
  -3  -8  -4  313.07   23.20
  -3  -8  -4  264.17   21.30
   3  -8   4  298.17   27.60
   3  -8   4  313.47   30.10
  -3  -8  -4  228.78   28.20
   3  -8   4  280.27   24.90
   3  -8   4  243.58   22.60
   3  -8   4  283.67   28.60
  -3  -8  -4  282.47   17.20
  -3   8  -4  269.97   23.50
  -3   8  -4  222.18   22.80
   3   8   4  292.17   22.50
  -3   8  -4  281.67   26.10
  -4  -8  -4  232.18   25.60
   4  -8   4  189.28   27.10
  -4  -8  -4  172.78   13.90
   4  -8   4  172.08   25.70
   4  -8   4  189.28   30.00
  -4  -8  -4  201.68   22.90
  -4  -8  -4  203.38   19.40
   4   8   4  179.18   19.90
  -4   8  -4  203.08   25.90
  -4   8  -4  202.48   24.10
  -5  -8  -4  982.30   44.90
  -5  -8  -4  903.51   53.29
  -5  -8  -4  948.11   41.60
   5  -8   4  937.01   59.59
   5  -8   4  904.01   56.79
  -5  -8  -4  863.21   56.69
  -5   8  -4  945.21   54.79
  -5   8  -4  832.82   55.69
   6  -8   4  465.55   45.00
   6  -8   4  361.46   49.30
  -6  -8  -4  446.96   43.30
   6  -8   4  379.36   45.80
  -6   8  -4  476.65   43.90
  -7  -8  -4    3.30   24.40
   7  -8   4    9.90   24.60
   7  -8   4   -3.90   26.90
  -7   8  -4   72.49   27.40
 -10  -9   4    8.10   20.20
 -10  -9   4   62.09   14.20
  10  -9  -4   25.60   16.00
 -10  -9   4   28.60   24.70
 -10   9   4   24.50   18.10
 -10   9   4   37.10   20.90
 -10   9   4   25.70   20.30
  -9  -9   4   80.69   14.30
   9  -9  -4   50.99   16.50
   9  -9  -4   63.69   14.30
  -9  -9   4   36.00   20.10
  -9   9   4   60.79   18.30
  -9   9   4   45.60   17.20
  -9   9   4   58.99   16.40
  -8  -9   4    4.60   14.70
  -8  -9   4    2.90    9.30
  -8  -9   4    7.20    8.70
   8  -9  -4    3.20   10.00
   8  -9  -4    8.60    7.40
   8  -9  -4   19.20   11.30
  -8   9   4   -1.60   11.20
  -8   9   4   -5.20   10.40
   8   9  -4   -8.20    5.90
  -8   9   4   12.10   13.10
   7  -9  -4   69.69   19.70
   7  -9  -4   68.19   13.20
   7  -9  -4   65.79   10.30
  -7  -9   4   81.79   11.00
  -7  -9   4   49.60   11.40
  -7  -9   4   63.49   16.90
   7  -9  -4   53.99   11.60
  -7   9   4   57.09   11.30
  -7   9   4   38.90   11.90
  -7   9   4   84.29   15.70
  -6  -9   4  121.09   16.50
   6  -9  -4  141.69   19.70
   6  -9  -4  137.89   15.20
   6  -9  -4  101.49   22.90
  -6  -9   4  111.19   19.30
  -6  -9   4  128.89   18.40
   6  -9  -4  100.49   14.60
   6   9  -4  104.19   12.10
  -6   9   4  143.89   18.60
  -6   9   4  140.69   16.80
  -6   9   4  132.79   14.90
   5  -9  -4  267.57   28.90
  -5  -9   4  206.58   24.50
   5  -9  -4  221.38   18.30
   5  -9  -4  191.68   23.10
  -5  -9   4  222.18   24.40
  -5  -9   4  199.18   19.50
  -5   9   4  206.48   19.20
  -5   9   4  195.98   14.60
   5   9  -4  192.88   21.20
   5   9  -4  212.38   11.60
   5   9  -4  193.28   16.30
  -5   9   4  219.18   17.80
  -4  -9   4    3.50    8.60
   4  -9  -4    4.70    9.30
   4  -9  -4  -10.90   11.80
  -4  -9   4    7.70    7.70
  -4  -9   4    2.80    9.60
   4  -9  -4    4.50    6.80
   4   9  -4    2.60    7.60
  -4   9   4    9.50    6.00
  -4   9   4    3.30    6.40
   4   9  -4    6.30    6.20
  -4   9   4    3.40    4.50
   4   9  -4    1.70    3.60
   3  -9  -4  143.99   17.50
  -3  -9   4  176.28   17.60
  -3  -9   4  150.38   18.70
   3  -9  -4  186.08   21.50
  -3  -9   4  151.58   18.90
   3  -9  -4  200.28   17.80
   3   9  -4  167.18   17.70
  -3   9   4  181.98   14.30
  -3   9   4  176.88   13.30
   3   9  -4  171.78   14.60
   3   9  -4  184.28   12.70
  -3   9   4  184.08   14.20
  -2  -9   4  154.08   19.00
  -2  -9   4  167.38   17.90
   2  -9  -4  216.78   20.60
  -2  -9   4  213.78   19.60
   2  -9  -4  177.78   15.90
   2  -9  -4  196.88   17.50
   2   9  -4  174.98   13.40
   2   9  -4  190.28   17.80
  -2   9   4  165.38   12.60
  -2   9   4  160.78   12.80
   2   9  -4  174.78   14.80
  -2   9   4  173.88   12.80
   1  -9  -4   41.50   10.10
  -1  -9   4   41.90   10.20
  -1  -9   4   41.50   11.10
   1  -9  -4   72.99   10.80
  -1  -9   4   47.90   10.10
   1  -9  -4   58.19   11.00
  -1   9   4   54.29    7.10
   1   9  -4   42.10    7.90
  -1   9   4   64.89    6.00
   1   9  -4   41.20    9.50
   1   9  -4   51.09    7.80
  -1   9   4   50.49    8.10
   0  -9  -4   74.29   10.30
   0  -9   4   53.89   12.20
   0  -9  -4   44.50    9.90
   0  -9  -4   51.69   10.80
   0  -9   4   79.99   13.00
   0  -9   4   81.29   11.30
   0  -9   4   59.79   13.30
   0   9   4   64.29    6.30
   0   9  -4   49.50   11.20
   0   9  -4   85.79   13.00
   0   9  -4   77.59   11.10
   1  -9   4   18.10   11.00
   1  -9   4    6.80   10.40
   1  -9   4   39.80   10.50
  -1  -9  -4   30.10   11.00
  -1  -9  -4   20.90    7.50
  -1  -9  -4   16.90    6.00
  -1  -9  -4   22.80    4.50
  -1  -9  -4   20.50    6.70
   1  -9   4    8.10    7.90
  -1   9  -4   25.40    7.70
  -1   9  -4   27.10    7.60
  -1   9  -4   21.50    9.20
  -2  -9  -4   -7.30    5.40
   2  -9   4   15.30    9.30
   2  -9   4   24.60   11.70
  -2  -9  -4    3.90    7.90
  -2  -9  -4    5.30    5.60
   2  -9   4   22.20   10.60
  -2  -9  -4   16.70    7.30
   2  -9   4    0.60   11.10
  -2  -9  -4  -20.80   10.40
   2  -9   4    8.80    9.60
  -2   9  -4    6.30    9.50
  -2   9  -4   -0.50    7.70
  -2   9  -4   -6.10    7.90
  -3  -9  -4  125.09   19.30
   3  -9   4  231.68   22.10
   3  -9   4  194.68   27.30
   3  -9   4  175.08   26.60
  -3  -9  -4  155.98   13.30
  -3  -9  -4  121.39   22.20
  -3  -9  -4  150.18   17.60
   3  -9   4  194.98   23.90
  -3   9  -4  206.28   22.00
  -3   9  -4  168.18   22.50
  -4  -9  -4  222.68   26.40
  -4  -9  -4  168.08   21.80
   4  -9   4  155.78   23.80
  -4  -9  -4  197.48   18.70
  -4  -9  -4  163.38   12.60
   4  -9   4  218.38   33.00
  -4   9  -4  192.68   26.60
  -4   9  -4  181.68   21.90
   5  -9   4  105.29   38.60
  -5  -9  -4  120.19   14.60
  -5  -9  -4  119.19   20.30
  -5  -9  -4  132.89   12.00
   5  -9   4  172.78   29.40
  -5   9  -4  108.39   22.40
  -5   9  -4  126.89   23.50
   6  -9   4   43.50   26.60
   6  -9   4    8.60   23.10
  -6  -9  -4   54.89   21.00
  -6   9  -4   40.70   21.10
  -9 -10   4  345.57   41.20
  -9 -10   4  473.15   31.30
   9 -10  -4  424.16   32.10
   9 -10  -4  398.96   36.50
  -9  10   4  416.26   43.40
  -9  10   4  423.36   39.00
  -9  10   4  396.76   38.90
   8 -10  -4 1152.08   58.79
   8 -10  -4 1135.49   55.19
  -8 -10   4 1224.48   58.29
   8 -10  -4 1205.38   61.49
  -8 -10   4 1071.49   63.79
  -8  10   4 1222.68   60.79
  -8  10   4 1127.79   62.89
  -8  10   4 1236.28   59.79
  -7 -10   4   75.99   13.40
   7 -10  -4   61.59   11.50
   7 -10  -4   60.19   12.00
   7 -10  -4   37.60   22.30
   7 -10  -4   74.99   13.70
  -7 -10   4   77.29   11.00
  -7 -10   4   90.49   19.90
  -7  10   4   47.50   12.30
  -7  10   4   71.09   12.80
  -7  10   4   85.69   16.00
   6 -10  -4  178.98   18.10
   6 -10  -4  214.78   26.90
  -6 -10   4  184.38   26.00
   6 -10  -4  212.68   20.70
  -6 -10   4  170.88   19.60
  -6  10   4  220.38   19.80
  -6  10   4  221.18   17.60
   6  10  -4  195.38   17.10
  -6  10   4  223.68   21.90
  -5 -10   4  143.59   17.40
   5 -10  -4  151.48   24.30
  -5 -10   4  136.89   18.70
   5 -10  -4  160.98   21.80
  -5 -10   4  174.38   26.20
   5 -10  -4  179.98   19.30
   5  10  -4  184.38   15.40
  -5  10   4  144.19   16.10
   5  10  -4  147.89   20.00
   5  10  -4  142.39    8.10
  -5  10   4  143.89   12.70
  -5  10   4  132.79   17.40
   4 -10  -4  280.97   29.50
   4 -10  -4  316.37   23.50
  -4 -10   4  295.57   26.70
   4 -10  -4  267.17   25.00
  -4 -10   4  318.07   26.40
  -4 -10   4  273.07   22.20
   4  10  -4  269.67   23.30
  -4  10   4  271.27   14.70
  -4  10   4  287.77   19.60
   4  10  -4  262.37   18.70
   4  10  -4  284.27   15.10
  -4  10   4  261.27   19.90
   3 -10  -4   11.00   11.00
   3 -10  -4    3.30    7.60
  -3 -10   4   12.60    8.90
  -3 -10   4   -5.30    9.40
  -3 -10   4    1.10    8.10
  -3 -10   4    3.80    9.60
   3 -10  -4    1.10    7.90
  -3  10   4   -0.60    4.40
   3  10  -4   12.40    6.00
  -3  10   4    1.00    5.50
   3  10  -4   11.30    4.40
  -3  10   4    6.10    5.90
   3  10  -4   12.60    8.50
  -2 -10   4 1199.78   58.09
   2 -10  -4 1200.78   58.29
   2 -10  -4 1172.08   55.99
   2 -10  -4 1207.78   57.39
  -2 -10   4 1200.58   57.69
  -2 -10   4 1119.39   58.69
   2  10  -4 1201.88   53.49
  -2  10   4 1150.28   50.89
   2  10  -4 1150.78   57.79
  -2  10   4 1120.29   51.99
   2  10  -4 1174.08   51.49
   1 -10  -4  695.33   36.00
  -1 -10   4  639.94   40.50
   1 -10  -4  776.82   38.80
   1 -10  -4  692.53   39.00
  -1 -10   4  689.93   40.10
  -1  10   4  663.63   33.70
   1  10  -4  730.43   39.60
  -1  10   4  704.63   31.70
   1  10  -4  691.73   33.70
   1  10  -4  722.13   36.00
   0 -10   4   16.00   10.80
   0 -10  -4   28.10    7.50
   0 -10   4   13.90    8.50
   0 -10  -4   28.80    8.50
   0 -10   4   33.30   10.70
   0 -10   4   14.80   10.20
   0 -10  -4   27.80   10.40
   0  10   4   29.50    7.40
   0  10   4   25.80    3.90
   0  10  -4   33.60    9.20
   0  10  -4   36.10    8.00
   0  10  -4   26.70    9.70
   1 -10   4  123.39   18.80
  -1 -10  -4  139.29   22.30
   1 -10   4  139.49   17.30
   1 -10   4  128.39   19.20
  -1 -10  -4  141.29   14.20
  -1 -10  -4  140.49   15.40
  -1 -10  -4  120.99    8.90
   1 -10   4  149.29   21.70
  -1  10  -4  137.49   19.20
  -1  10  -4  149.09   15.80
  -1  10  -4  107.09   15.60
  -1  10  -4  130.29   19.00
   2 -10   4  879.11   52.79
  -2 -10  -4  893.31   44.80
  -2 -10  -4  845.12   41.20
  -2 -10  -4  912.91   51.49
   2 -10   4  949.40   46.40
  -2 -10  -4  943.01   45.10
  -2 -10  -4  878.71   41.10
   2 -10   4  845.72   46.70
   2 -10   4  849.12   52.19
   2 -10   4  903.01   48.20
  -2  10  -4  987.80   45.10
  -2  10  -4  908.31   46.30
  -2  10  -4  870.41   49.60
  -3 -10  -4  191.48   18.90
  -3 -10  -4  142.19   12.80
   3 -10   4  158.08   23.00
   3 -10   4  199.18   27.40
   3 -10   4  221.78   24.40
  -3 -10  -4  164.08   22.40
  -3  10  -4  188.68   23.40
  -3  10  -4  200.98   25.30
   4 -10   4  218.08   29.10
  -4 -10  -4  190.88   23.60
  -4 -10  -4  203.38   19.70
   4 -10   4  222.28   35.00
  -4 -10  -4  167.78   23.30
  -4 -10  -4  209.88   12.90
  -4  10  -4  299.17   30.10
  -4  10  -4  178.78   25.90
   5 -10   4  186.88   28.90
  -5 -10  -4  154.68   19.50
  -5 -10  -4  199.38   29.10
   5 -10   4  203.58   33.20
  -5  10  -4  234.78   29.10
  -5  10  -4  165.78   26.00
   6 -10   4   -3.70   25.40
  -6 -10  -4   43.50   20.10
   6 -10   4   66.29   31.10
  -6  10  -4    7.10   23.40
   9 -11  -4   77.49   17.30
  -9 -11   4   41.60   22.80
   9 -11  -4   33.40   18.40
  -9 -11   4   80.79   15.90
  -9  11   4   66.09   19.90
  -8 -11   4   25.20   17.30
  -8 -11   4   30.10   11.90
   8 -11  -4   -5.40   10.70
   8 -11  -4   12.30   13.80
  -8  11   4   23.90   12.70
  -8  11   4    8.10   13.50
  -8  11   4   23.40   13.00
  -7 -11   4  762.72   50.09
   7 -11  -4  729.53   43.40
  -7 -11   4  700.43   44.50
  -7 -11   4  838.12   40.20
   7 -11  -4  653.53   56.59
   7 -11  -4  861.41   42.80
  -7  11   4  770.32   43.40
  -7  11   4  702.93   46.60
  -7  11   4  771.32   41.10
   6 -11  -4  563.54   35.20
  -6 -11   4  548.75   34.00
  -6 -11   4  570.54   39.40
   6 -11  -4  537.15   32.80
   6 -11  -4  576.44   44.90
   6 -11  -4  494.85   31.70
  -6  11   4  544.55   34.70
  -6  11   4  535.55   33.10
  -6  11   4  571.24   30.60
  -5 -11   4   22.60   18.20
   5 -11  -4   34.80    9.10
   5 -11  -4   45.40   12.10
  -5 -11   4   33.90   12.50
  -5 -11   4   38.20   10.80
   5 -11  -4   27.60   15.50
  -5  11   4   34.30    8.20
  -5  11   4   42.70    7.50
   5  11  -4   47.40    8.10
   5  11  -4   24.20   11.00
  -5  11   4   47.80   11.10
  -4 -11   4  523.55   37.00
   4 -11  -4  575.04   40.60
  -4 -11   4  462.45   34.50
  -4 -11   4  509.25   31.80
   4 -11  -4  575.54   34.30
   4 -11  -4  473.15   34.30
  -4  11   4  489.35   28.60
  -4  11   4  513.85   23.20
   4  11  -4  505.95   23.40
   4  11  -4  475.75   33.90
   4  11  -4  523.65   27.20
   3 -11  -4  838.22   45.70
  -3 -11   4  908.31   46.00
   3 -11  -4  867.01   49.20
  -3 -11   4  801.92   46.30
  -3 -11   4  831.82   46.10
  -3 -11   4  767.32   46.60
   3 -11  -4  888.21   45.80
   3  11  -4  823.92   40.10
  -3  11   4  816.92   41.40
   3  11  -4  832.22   37.30
  -3  11   4  819.62   39.70
  -3  11   4  867.11   39.70
   3  11  -4  831.72   45.90
   2 -11  -4  493.65   30.60
   2 -11  -4  389.66   27.50
  -2 -11   4  406.96   30.90
  -2 -11   4  421.46   30.50
   2 -11  -4  479.35   31.70
  -2 -11   4  417.16   29.80
   2  11  -4  415.16   29.60
  -2  11   4  444.36   24.60
   2  11  -4  425.76   22.40
  -2  11   4  408.86   21.80
   2  11  -4  422.26   25.50
  -2  11   4  405.76   22.20
  -1 -11   4   -5.70    9.30
  -1 -11   4    8.20    9.20
   1 -11  -4   17.70    9.40
   1 -11  -4   11.90    6.60
  -1 -11   4    9.50   10.50
   1 -11  -4    4.10   10.30
  -1  11   4    6.50    3.80
   1  11  -4   -5.30    7.10
   1  11  -4    3.70    5.40
   1  11  -4    8.60    7.30
  -1  11   4   -1.00    5.50
   0 -11  -4  218.88   24.20
   0 -11   4  183.58   23.10
   0 -11  -4  209.68   16.80
   0 -11   4  198.28   19.60
   0 -11  -4  197.08   20.40
   0 -11   4  246.18   22.50
   0 -11   4  221.48   24.30
   0  11   4  209.18   16.60
   0  11  -4  215.18   21.90
   0  11   4  218.38   11.20
   0  11  -4  206.88   17.10
   0  11  -4  187.98   18.70
   1 -11   4  159.98   23.40
   1 -11   4  188.18   25.10
   1 -11   4  161.18   19.20
  -1 -11  -4  171.98   17.10
  -1 -11  -4  230.78   27.20
  -1 -11  -4  188.18   10.00
   1 -11   4  174.58   20.50
   1 -11   4  203.18   23.20
  -1 -11  -4  182.68   16.50
  -1 -11  -4  190.18   18.50
  -1  11  -4  185.38   18.90
  -1  11  -4  204.48   17.90
  -1  11  -4  209.68   22.80
   2 -11   4    2.80   15.80
  -2 -11  -4    0.80    8.80
   2 -11   4    3.90   13.50
   2 -11   4   16.50   11.10
  -2 -11  -4   12.90    6.50
   2 -11   4  -10.60   12.70
  -2 -11  -4    9.00    6.40
  -2  11  -4   11.00   11.10
  -2  11  -4    7.50    9.70
  -2  11  -4  -15.20    9.40
   3 -11   4  544.35   44.00
   3 -11   4  535.85   37.00
  -3 -11  -4  562.84   26.80
  -3 -11  -4  556.94   36.40
  -3 -11  -4  535.35   32.30
   3 -11   4  589.64   44.50
  -3  11  -4  594.94   37.70
  -3  11  -4  578.14   40.40
  -4 -11  -4  421.46   32.50
  -4 -11  -4  468.55   21.20
   4 -11   4  534.45   46.40
  -4 -11  -4  488.95   29.10
  -4 -11  -4  419.76   39.40
  -4  11  -4  496.65   41.10
  -4  11  -4  407.36   56.69
  -5 -11  -4   22.60   16.10
   5 -11   4   -6.70   19.50
   5 -11   4   20.40   25.60
  -5  11  -4   -1.70   19.40
   6 -11   4  500.55   62.29
  -6 -11  -4  379.66   43.00
   6 -11   4  373.06   52.09
  -6  11  -4  440.96   48.90
   9 -12  -4  -20.60   13.30
  -9 -12   4   14.50   13.70
   9 -12  -4    0.90   17.70
  -9  12   4   37.90   17.90
  -9  12   4    3.20   20.60
  -9  12   4   -5.40   27.80
  -8 -12   4    9.40   13.00
   8 -12  -4    9.00   13.40
  -8 -12   4   26.20   19.30
   8 -12  -4    5.80   11.50
  -8  12   4   23.30   15.70
  -8  12   4   19.60   14.30
  -8  12   4    5.40   14.40
   7 -12  -4    1.70    9.80
  -7 -12   4   16.30   16.20
  -7 -12   4   27.80   12.10
  -7 -12   4   15.70   11.00
   7 -12  -4   11.10   11.00
   7 -12  -4   68.79   29.60
   7 -12  -4   36.80   15.40
  -7  12   4    6.40   11.90
  -7  12   4   13.70   12.30
  -7  12   4   41.50   11.60
   6 -12  -4   16.20    9.40
   6 -12  -4  -11.60   17.40
   6 -12  -4   -6.80   13.30
  -6 -12   4   13.10   10.80
  -6 -12   4  -32.20   14.00
   6 -12  -4   15.50    9.30
  -6  12   4   21.10    9.90
  -6  12   4    3.50    9.60
  -6  12   4    8.40    8.10
   5 -12  -4   54.79   16.90
  -5 -12   4   68.39   17.10
  -5 -12   4   51.49   11.40
   5 -12  -4   68.79   16.00
   5 -12  -4   52.59   11.10
  -5  12   4   50.69   10.60
  -5  12   4   59.29   10.40
  -5  12   4   67.19    8.90
   5  12  -4   55.99   14.50
  -4 -12   4   -5.70   15.30
   4 -12  -4   28.00   13.70
  -4 -12   4   24.40   12.10
   4 -12  -4   39.60   18.30
  -4 -12   4    4.50    8.60
   4 -12  -4   26.20   13.90
  -4  12   4   25.30    7.30
  -4  12   4   18.50    8.30
  -4  12   4   17.90    4.00
   4  12  -4    3.90    9.70
   4  12  -4   22.70    4.10
   4  12  -4   34.00    8.30
   3 -12  -4   34.00   11.50
   3 -12  -4   40.00   16.40
   3 -12  -4   49.70   13.60
  -3 -12   4   15.90   13.00
  -3 -12   4   30.70   11.70
  -3 -12   4   35.90   10.40
  -3  12   4   24.30    6.80
  -3  12   4   33.10    8.90
   3  12  -4   22.30    8.00
   3  12  -4   27.70    5.90
  -3  12   4   37.10    7.00
   3  12  -4   24.50   11.50
  -2 -12   4  101.49   16.40
   2 -12  -4  103.19   16.40
  -2 -12   4  138.89   20.40
   2 -12  -4   79.99   15.50
  -2 -12   4   97.79   17.50
   2 -12  -4   92.39   14.80
   2  12  -4   78.09   14.30
  -2  12   4   87.29   13.60
   2  12  -4   73.29   10.80
   2  12  -4  103.89   11.10
  -2  12   4   84.99    9.40
  -2  12   4   72.99   10.00
   1 -12  -4   22.10   11.00
  -1 -12   4   31.00    9.30
   1 -12  -4   17.60    7.00
  -1 -12   4    9.80   11.80
  -1 -12   4   17.10   10.40
   1 -12  -4    8.10   13.30
  -1 -12   4    6.30   11.90
   1  12  -4   29.30    8.90
   1  12  -4   30.10    7.20
  -1  12   4   20.40    5.30
  -1  12   4    9.70    7.20
   1  12  -4    9.20   10.10
   0 -12   4   11.70   12.00
   0 -12   4  -20.90   11.20
   0 -12  -4   -6.10   11.90
   0 -12   4   -8.60    9.80
   0 -12   4  -12.90    9.80
   0 -12  -4    3.30    6.30
   0 -12  -4    6.20   10.50
   0  12  -4    0.70    7.10
   0  12  -4   -3.30    9.00
   0  12   4   -0.10    7.50
   0  12  -4   -5.70    8.70
  -1 -12  -4   19.90    8.00
   1 -12   4   20.60   10.50
   1 -12   4   25.90   14.00
   1 -12   4   13.30   13.00
  -1 -12  -4   10.60    9.40
   1 -12   4   59.39   14.50
  -1  12  -4   24.90   10.40
  -1  12  -4   15.50   12.40
  -1  12  -4   36.50   12.00
  -2 -12  -4  210.88   14.70
   2 -12   4  214.98   31.00
  -2 -12  -4  191.28   16.00
   2 -12   4  242.48   24.40
   2 -12   4  196.58   29.10
  -2 -12  -4  172.28   23.00
  -2 -12  -4  182.48   20.20
  -2  12  -4  228.28   26.90
  -2  12  -4  231.18   26.70
  -2  12  -4  174.08   24.30
  -3 -12  -4  208.08   23.00
   3 -12   4  220.98   29.00
  -3 -12  -4  202.58   13.90
   3 -12   4  218.28   30.10
  -3 -12  -4  214.28   28.40
  -3 -12  -4  208.78   20.30
   3 -12   4  249.18   32.50
  -3  12  -4  180.38   23.60
  -3  12  -4  238.68   30.90
   4 -12   4   -5.00   18.40
   4 -12   4   11.00   21.40
  -4 -12  -4   19.40   11.50
  -4 -12  -4   11.00   11.70
  -4 -12  -4  -21.00   17.80
  -4  12  -4   16.00   17.10
   5 -12   4   25.20   27.00
   5 -12   4    6.60   22.20
  -5 -12  -4    2.00   16.30
  -5  12  -4    3.40   19.60
  -6 -12  -4   16.10   22.70
   6 -12   4  -41.90   26.80
   6 -12   4   35.60   39.50
  -6  12  -4   -6.90   25.20
  -8 -13   4    8.20   20.70
   8 -13  -4   12.80   12.90
   8 -13  -4   22.20   16.60
  -8 -13   4    7.90   13.10
  -8  13   4   -2.40   15.20
  -8  13   4   11.90   16.60
  -8  13   4   -8.50   15.00
   7 -13  -4  713.53   45.70
  -7 -13   4  690.93   51.69
   7 -13  -4  845.92   51.69
  -7 -13   4  816.52   45.10
   7 -13  -4  995.10   86.19
  -7 -13   4  752.92   44.90
   7 -13  -4  737.63   44.10
  -7  13   4  805.22   46.60
  -7  13   4  848.62   47.80
  -7  13   4  818.22   43.60
  -6 -13   4  383.86   36.90
  -6 -13   4  387.46   32.70
   6 -13  -4  338.07   46.80
   6 -13  -4  402.96   29.20
   6 -13  -4  364.96   29.10
   6 -13  -4  319.47   37.80
  -6  13   4  410.96   25.40
  -6  13   4  373.96   28.70
  -6  13   4  463.65   30.00
   5 -13  -4    5.80    8.00
   5 -13  -4   26.00   15.50
   5 -13  -4   33.10   10.60
   5 -13  -4    8.10   17.80
  -5 -13   4    6.70    8.90
  -5 -13   4   17.30   15.40
   5  13  -4    6.90   12.20
  -5  13   4   20.10   10.70
  -5  13   4    6.00    9.40
  -5  13   4    7.10    6.80
  -4 -13   4  111.19   18.50
   4 -13  -4  147.09   22.50
  -4 -13   4  137.39   20.80
   4 -13  -4   91.39   19.60
  -4  13   4  141.89   15.50
  -4  13   4  171.08   20.70
  -4  13   4  138.59   16.50
   4  13  -4  143.59   20.80
   3 -13  -4  815.92   48.00
  -3 -13   4  796.92   49.50
   3 -13  -4  954.90   52.19
  -3 -13   4  811.62   47.20
   3 -13  -4  805.02   53.89
  -3 -13   4  845.12   49.10
  -3  13   4  900.31   41.00
   3  13  -4  914.31   50.59
  -3  13   4  847.32   40.60
   3  13  -4  863.21   37.80
   3  13  -4  826.12   48.90
  -3  13   4  831.72   44.00
  -2 -13   4   57.89   14.10
   2 -13  -4   59.59   17.70
   2 -13  -4   54.79   17.00
  -2 -13   4   56.39   15.40
  -2 -13   4   57.19   14.60
   2 -13  -4   66.09   13.10
  -2  13   4   66.39    8.50
  -2  13   4   61.19    8.70
   2  13  -4   40.80    9.60
   2  13  -4   56.29   13.50
   2  13  -4   71.69   11.20
  -2  13   4   55.99   10.90
  -1 -13   4  615.84   40.30
   1 -13  -4  624.24   35.50
  -1 -13   4  589.94   41.20
   1 -13  -4  668.73   41.50
   1 -13  -4  611.44   43.20
  -1 -13   4  650.33   41.00
  -1 -13   4  657.73   37.00
   1  13  -4  599.24   34.70
   1  13  -4  706.93   32.70
   1  13  -4  645.84   40.60
  -1  13   4  652.93   29.80
  -1  13   4  597.74   34.00
   0 -13  -4  690.63   39.70
   0 -13   4  631.24   42.80
   0 -13  -4  684.73   35.50
   0 -13   4  666.03   41.60
   0 -13   4  603.54   43.30
   0  13  -4  588.54   35.70
   0  13  -4  688.73   34.70
   0  13  -4  671.03   41.90
   0  13   4  674.43   36.00
   1 -13   4  401.56   35.60
   1 -13   4  362.66   36.50
  -1 -13  -4  470.05   30.00
  -1 -13  -4  410.86   25.50
   1 -13   4  404.16   29.70
  -1  13  -4  400.16   34.20
  -1  13  -4  419.96   28.60
  -2 -13  -4   13.70   10.30
   2 -13   4  -27.50   13.00
   2 -13   4  -10.40   15.30
   2 -13   4   18.00   16.70
  -2 -13  -4   -3.50   11.90
  -2 -13  -4   15.40    7.00
  -2  13  -4    3.10   13.50
  -2  13  -4   -9.60   12.60
  -3 -13  -4  684.03   44.90
   3 -13   4  716.13   53.39
  -3 -13  -4  607.94   34.80
   3 -13   4  686.83   45.80
  -3 -13  -4  619.64   29.00
   3 -13   4  607.34   51.49
  -3 -13  -4  682.43   37.50
  -3  13  -4  675.23   46.00
  -4 -13  -4  239.48   26.90
   4 -13   4  317.57   40.60
   4 -13   4  204.08   32.50
  -4  13  -4  224.08   34.40
  -5 -13  -4    7.50   18.20
   5 -13   4   15.00   23.70
   5 -13   4   67.59   29.80
  -5  13  -4    6.20   20.70
  -8 -14   4  366.86   30.90
   8 -14  -4  348.87   31.40
   8 -14  -4  294.67   37.50
  -8  14   4  281.37   37.10
  -8  14   4  343.57   35.30
  -8  14   4  277.57   35.90
  -7 -14   4  148.09   19.90
   7 -14  -4  170.88   22.10
  -7 -14   4  141.19   26.10
   7 -14  -4  123.89   19.90
  -7 -14   4  139.09   28.10
  -7  14   4  150.78   21.20
  -7  14   4  158.38   24.10
  -7  14   4  174.68   26.00
  -6 -14   4   57.79   19.50
   6 -14  -4   94.69   27.40
   6 -14  -4  -15.80   19.60
   6 -14  -4   44.30   12.30
   6 -14  -4    9.00   10.40
  -6 -14   4    5.90   11.50
  -6  14   4    4.10   10.10
   6  14  -4   49.00   15.90
  -6  14   4    1.20   12.40
  -6  14   4   15.30   12.60
  -5 -14   4    3.20   10.70
  -5 -14   4   36.30   17.10
   5 -14  -4   18.90   18.20
   5 -14  -4   13.00    9.40
   5 -14  -4   14.20   19.50
   5 -14  -4   24.90    9.40
  -5  14   4    3.70    9.90
  -5  14   4   12.40    7.30
  -5  14   4   -8.00    8.40
   5  14  -4  -20.20   11.10
  -4 -14   4  135.99   20.40
   4 -14  -4  142.89   16.20
   4 -14  -4  122.29   22.00
   4 -14  -4   85.59   13.70
  -4 -14   4  112.09   17.00
   4 -14  -4  101.39   23.30
   4  14  -4   91.09   17.50
  -4  14   4  127.39   17.10
  -4  14   4  134.39   16.50
  -4  14   4  127.99   17.40
   3 -14  -4  131.99   20.40
   3 -14  -4  165.98   29.90
  -3 -14   4  151.08   21.70
  -3 -14   4  170.88   22.40
  -3 -14   4  138.69   24.00
  -3  14   4  162.38   14.60
   3  14  -4  165.18   23.80
  -3  14   4  134.59   19.40
   3  14  -4  173.78   12.30
  -2 -14   4  109.89   19.80
   2 -14  -4  117.89   22.10
  -2 -14   4   87.59   16.40
   2 -14  -4  146.09   21.00
  -2 -14   4  134.79   20.40
  -2  14   4  137.19   17.90
   2  14  -4  162.88   22.60
  -2  14   4  123.59   13.10
  -1 -14   4  281.17   32.90
  -1 -14   4  407.36   34.50
   1 -14  -4  376.26   27.30
   1 -14  -4  349.37   35.30
  -1 -14   4  371.76   32.70
   1  14  -4  445.56   24.00
   1  14  -4  401.86   32.60
  -1  14   4  382.16   26.90
   0 -14   4  114.09   21.10
   0 -14  -4  141.69   17.60
   0 -14   4   99.59   21.40
   0 -14   4  125.39   17.30
   0 -14  -4  168.18   26.50
   0  14   4  164.68   19.00
   0  14  -4  134.59   21.50
   0  14  -4  127.79   14.90
  -1 -14  -4  150.98   17.50
   1 -14   4  133.59   22.60
   1 -14   4  108.09   23.20
  -1 -14  -4  149.29   19.40
   1 -14   4  144.09   19.10
  -1  14  -4  131.09   22.30
  -1  14  -4  166.08   20.50
  -2 -14  -4  333.57   27.70
   2 -14   4  414.86   32.90
  -2 -14  -4  330.07   21.40
  -2 -14  -4  339.47   17.30
   2 -14   4  393.66   41.40
   2 -14   4  293.37   36.90
  -2 -14  -4  369.76   32.00
  -2  14  -4  324.77   34.30
  -3 -14  -4   74.59   12.20
   3 -14   4   87.29   26.60
   3 -14   4  112.89   27.60
  -3 -14  -4   95.19   21.90
  -3 -14  -4  117.19   16.10
  -3  14  -4   99.69   20.40
  -3  14  -4  104.39   23.30
   4 -14   4  -27.70   20.70
  -4 -14  -4  -21.70   13.20
   4 -14   4   10.50   25.80
  -4  14  -4   27.50   19.10
   5 -14   4   64.49   33.00
   5 -14   4   68.29   32.50
  -5 -14  -4   78.99   23.00
  -5  14  -4  140.99   30.00
   8 -15  -4   19.80   15.70
  -8 -15   4   18.90   27.20
  -8 -15   4    4.30   14.80
   8 -15  -4   19.60   18.30
  -8  15   4   39.60   23.20
  -8  15   4   30.40   19.20
  -8  15   4    8.10   20.10
   7 -15  -4  195.68   25.70
   7 -15  -4  292.57   30.20
  -7 -15   4  225.48   27.50
  -7 -15   4  325.27   42.00
  -7  15   4  250.47   31.90
  -7  15   4  212.38   32.10
  -7  15   4  211.38   27.70
  -6 -15   4   18.90   19.30
  -6 -15   4   21.20   13.20
   6 -15  -4   15.60   32.00
   6 -15  -4   35.40   23.10
   6 -15  -4   34.60   12.40
   6  15  -4   49.50   18.40
  -6  15   4   30.60   15.10
  -6  15   4   53.19   12.20
  -6  15   4   26.20   14.60
   5 -15  -4   23.30   10.20
   5 -15  -4   10.30   11.10
  -5 -15   4   10.20   12.20
  -5 -15   4   56.59   20.40
   5 -15  -4   69.69   26.60
  -5  15   4   33.10   13.10
  -5  15   4   46.50   17.00
  -5  15   4   21.50   12.80
   5  15  -4   20.50   14.80
  -4 -15   4    8.30   11.80
   4 -15  -4    0.40    9.00
   4 -15  -4   13.30    9.70
  -4 -15   4   22.30   15.60
   4 -15  -4   37.10   18.90
  -4  15   4   20.60   10.60
  -4  15   4    5.50    8.30
  -4  15   4    3.50   11.80
   4  15  -4   -5.80   11.40
   3 -15  -4  493.35   41.20
  -3 -15   4  526.85   41.10
  -3 -15   4  558.54   37.90
   3 -15  -4  570.94   31.70
  -3  15   4  579.14   36.60
  -3  15   4  576.64   40.50
   3  15  -4  581.54   41.20
  -3  15   4  537.55   28.80
  -2 -15   4   92.39   17.20
   2 -15  -4   90.39   24.50
   2 -15  -4   91.69   17.20
  -2 -15   4   68.79   18.30
   2  15  -4  109.99   20.10
  -2  15   4   95.89   14.90
   2  15  -4  113.79   14.80
  -2  15   4   82.79   11.40
   1 -15  -4  299.47   26.00
   1 -15  -4  296.17   36.80
  -1 -15   4  318.47   33.70
  -1 -15   4  275.57   30.90
   1  15  -4  240.88   29.30
   1  15  -4  315.27   21.70
  -1  15   4  297.17   25.10
   0 -15   4  171.48   26.90
   0 -15   4  145.69   23.20
   0 -15  -4  167.48   23.40
   0 -15   4  145.69   23.10
   0  15  -4  161.08   20.30
   0  15   4  168.88   20.10
   0  15  -4  153.08   23.20
  -1 -15  -4   45.30   10.60
   1 -15   4   36.60   18.40
   1 -15   4   87.19   16.90
   1 -15   4   54.69   19.30
  -1 -15  -4   72.19   17.70
  -1  15  -4   36.30   14.80
  -1  15  -4   76.29   19.00
  -2 -15  -4    8.80   14.90
   2 -15   4   -9.60   18.40
   2 -15   4    1.80   16.90
  -2 -15  -4    4.30    4.90
   2 -15   4  -21.90   17.10
  -2 -15  -4  -12.30    7.60
  -2  15  -4    4.50   15.30
  -3 -15  -4  196.88   31.60
   3 -15   4  188.98   32.40
   3 -15   4  161.28   32.50
  -3 -15  -4  146.49   17.70
  -3  15  -4  220.28   34.30
  -3  15  -4  136.79   26.90
   4 -15   4   32.20   29.90
  -4 -15  -4   77.79   15.60
   4 -15   4   47.30   26.70
  -4  15  -4   85.09   24.30
   7 -16  -4  107.89   21.60
  -7 -16   4   58.49   25.40
   7 -16  -4   91.29   16.60
  -7 -16   4   68.29   17.40
  -7  16   4   82.09   24.00
  -7  16   4  117.19   22.80
  -7  16   4  106.99   20.20
   6 -16  -4   58.09   16.20
   6 -16  -4   82.49   16.60
  -6 -16   4   32.30   23.10
  -6 -16   4   51.49   15.60
  -6  16   4   64.49   13.80
   6  16  -4   59.09   22.40
  -6  16   4   91.19   18.40
  -6  16   4   83.19   18.40
   5 -16  -4  305.27   27.70
   5 -16  -4  316.07   27.70
  -5 -16   4  339.77   30.30
   5 -16  -4  317.87   49.70
  -5 -16   4  281.77   38.30
  -5  16   4  353.06   30.10
  -5  16   4  298.17   34.60
   5  16  -4  294.67   35.60
  -5  16   4  332.97   27.50
  -4 -16   4   76.89   20.50
   4 -16  -4   81.99   24.30
   4 -16  -4   38.90   12.10
   4 -16  -4   51.09   13.60
  -4 -16   4   57.09   16.60
  -4  16   4   27.00   15.20
  -4  16   4   45.20   10.90
   4  16  -4   17.90   16.50
  -4  16   4   47.60   11.90
   3 -16  -4   67.39   19.70
  -3 -16   4  114.99   22.30
   3 -16  -4   70.09   12.50
  -3  16   4  111.69   16.80
  -3  16   4  108.69   14.30
  -2 -16   4  544.65   39.30
  -2 -16   4  522.35   42.10
   2 -16  -4  510.15   30.10
   2 -16  -4  501.55   38.20
  -2  16   4  513.75   35.00
   2  16  -4  527.15   40.00
  -1 -16   4  621.34   45.10
   1 -16  -4  554.34   51.69
  -1 -16   4  707.43   49.50
   1 -16  -4  637.74   33.40
   1 -16  -4  635.14   40.30
   1  16  -4  731.33   35.40
   1  16  -4  575.54   44.30
  -1  16   4  627.74   39.60
   0 -16  -4   53.59    9.00
   0 -16   4   47.70   22.40
   0 -16  -4  102.89   21.60
   0 -16  -4   73.79   15.00
   0 -16   4   28.20   18.70
   0 -16   4   44.20   15.30
   0  16   4   48.50   13.50
   0  16  -4   76.19   14.10
   1 -16   4  230.18   34.60
   1 -16   4  167.68   32.10
  -1 -16  -4  185.18   21.50
  -1 -16  -4  221.88   15.70
  -1 -16  -4  276.77   34.00
   1 -16   4  201.88   24.90
  -1  16  -4  189.68   31.10
  -2 -16  -4  347.47   34.20
   2 -16   4  282.87   38.90
  -2 -16  -4  355.56   23.40
   2 -16   4  434.56   48.10
   2 -16   4  390.66   45.80
  -2 -16  -4  371.16   19.50
  -2  16  -4  432.16   41.80
  -3 -16  -4  146.69   17.80
   3 -16   4  247.28   37.00
   3 -16   4  205.28   61.49
  -3  16  -4  208.28   30.30
   4 -16   4   -4.60   29.10
   4 -16   4  -15.90   26.50
  -4  16  -4   31.20   24.90
  -4  16  -4   46.30   26.10
   7 -17  -4   32.30   17.20
   7 -17  -4   21.90   18.50
  -7 -17   4   28.60   29.70
  -7 -17   4   -0.70   16.30
  -7  17   4   45.30   19.80
   6 -17  -4   -4.70   13.50
   6 -17  -4    4.20   13.40
  -6 -17   4   -3.10   16.30
  -6 -17   4   -9.60   24.30
   6  17  -4   11.30   19.40
  -6  17   4   15.20   15.50
  -6  17   4   13.00   22.20
  -5 -17   4    5.80   22.50
   5 -17  -4   -2.10   11.90
  -5 -17   4    2.70   13.90
   5 -17  -4   15.60   11.80
  -5  17   4    3.40   18.20
  -5  17   4   13.80   19.80
   5  17  -4   -9.30   15.80
  -5  17   4   28.40   13.30
   4 -17  -4   -6.90   22.60
   4 -17  -4   20.90   10.70
  -4 -17   4   16.20   15.00
   4 -17  -4    3.00   16.30
  -4 -17   4   24.80   19.60
  -4  17   4    2.40   15.60
   4  17  -4  -16.70   15.80
  -4  17   4   -2.50   10.50
   3 -17  -4   -0.80    8.90
  -3 -17   4    2.70   13.30
  -3 -17   4  -22.30   17.20
   3 -17  -4   10.00   19.40
   3 -17  -4    3.80    8.00
   3  17  -4   -3.90   15.10
  -3  17   4   11.10   13.60
   2 -17  -4    1.10    8.00
  -2 -17   4   21.20   15.60
  -2 -17   4    0.60   17.00
   2 -17  -4   21.50   16.10
   2 -17  -4    3.70    8.90
  -2  17   4    4.70   12.10
   2  17  -4   20.60   14.60
  -1 -17   4   35.60   19.80
   1 -17  -4    4.60    7.00
   1 -17  -4    5.00   13.90
  -1 -17   4   11.10   15.50
  -1 -17   4   -2.40   13.80
   1  17  -4   18.20   16.20
  -1  17   4   11.30   13.10
   0 -17   4   13.10   17.10
   0 -17  -4   26.40   13.20
   0 -17  -4   53.19   25.00
   0 -17   4   16.30   16.10
   0 -17  -4   30.40    8.70
   0  17  -4   50.39   14.10
   0  17  -4   -9.80   16.10
   0  17   4   33.40   14.00
   1 -17   4   38.50   19.40
   1 -17   4   22.40   19.40
  -1 -17  -4   67.89   22.70
  -1 -17  -4   41.80    7.90
   1 -17   4   34.40   23.70
  -1 -17  -4   23.30   12.50
  -1  17  -4   15.40   18.60
  -2 -17  -4   36.80    7.10
   2 -17   4   -3.30   24.60
   2 -17   4   63.89   26.80
  -2 -17  -4   28.60   10.00
  -2  17  -4   42.70   24.20
   3 -17   4   23.90   25.70
   3 -17   4  -11.70   25.80
  -3  17  -4    1.00   22.90
   6 -18  -4  120.39   19.80
   6 -18  -4  114.39   22.70
  -6 -18   4  107.19   21.70
  -6 -18   4  126.39   34.10
   6  18  -4  127.09   29.20
  -6  18   4  117.29   29.60
  -6  18   4  120.29   20.60
  -5 -18   4  346.87   48.70
   5 -18  -4  390.16   32.40
  -5 -18   4  399.76   36.70
   5 -18  -4  359.46   32.90
   5  18  -4  359.26   44.10
  -5  18   4  385.46   46.90
  -5  18   4  416.76   33.50
  -4 -18   4  294.37   36.10
   4 -18  -4  319.67   27.60
   4 -18  -4  276.87   27.00
  -4 -18   4  307.67   34.50
  -4  18   4  265.27   35.60
   4  18  -4  239.98   37.20
   3 -18  -4   -1.50   10.30
  -3 -18   4   13.20   15.90
  -3 -18   4  -20.00   19.70
   3 -18  -4  -17.90    9.30
  -3  18   4    2.90   16.00
   3  18  -4   17.80   18.00
   2 -18  -4  237.88   22.90
  -2 -18   4  308.17   40.40
  -2 -18   4  232.18   33.90
   2 -18  -4  278.87   24.30
  -2 -18   4  279.97   34.90
   2 -18  -4  236.38   28.80
   2  18  -4  293.57   37.30
  -2  18   4  293.67   32.40
   1 -18  -4  160.88   20.70
  -1 -18   4  166.78   26.30
   1 -18  -4  208.18   19.10
   1 -18  -4  220.08   29.60
   1  18  -4  190.88   28.60
  -1  18   4  215.18   30.40
   0 -18   4    2.40   21.60
   0 -18  -4    9.50    8.30
   0 -18  -4    8.10    9.90
   0 -18   4  -21.60   19.20
   0 -18  -4   24.10   15.80
   0  18  -4    7.10   17.40
   0  18   4   27.00   16.10
   1 -18   4  113.09   27.10
   1 -18   4  101.49   29.20
  -1 -18  -4  132.29   15.20
  -1 -18  -4  137.89   17.80
  -1  18  -4  103.49   26.80
  -2 -18  -4  257.67   21.90
   2 -18   4  323.57   50.69
   2 -18   4  359.16   49.60
  -2 -18  -4  269.47   17.30
  -2  18  -4  269.57   38.30
   3 -18   4   35.40   31.90
   3 -18   4  -20.60   27.90
  -3  18  -4   25.90   26.70
   5 -19  -4   14.50   14.20
  -5 -19   4  -23.40   27.70
  -5 -19   4    0.10   18.40
   5 -19  -4   -5.30   14.50
  -5  19   4  -38.70   22.10
   5  19  -4    5.50   23.10
  -4 -19   4  246.18   34.70
   4 -19  -4  200.88   26.40
  -4 -19   4  263.27   36.70
   4 -19  -4  245.68   28.50
  -4  19   4  240.68   37.90
   4  19  -4  206.08   31.60
  -3 -19   4   66.99   21.40
  -3 -19   4   71.79   25.50
   3 -19  -4   69.89   15.10
   3 -19  -4   71.19   15.90
   3  19  -4   69.59   25.30
  -3  19   4   79.99   21.10
   2 -19  -4   61.29   13.10
  -2 -19   4   75.99   21.80
   2 -19  -4   93.39   15.20
  -2 -19   4   67.09   31.00
  -2  19   4   52.69   20.40
   2  19  -4   63.39   22.60
  -1 -19   4  -16.60   18.70
  -1 -19   4   57.09   24.90
   1 -19  -4   16.50   11.30
   1 -19  -4   16.70   10.20
   1  19  -4    2.20   19.20
  -1  19   4   28.50   18.10
   0 -19   4  140.69   28.20
   0 -19   4  105.89   31.20
   0 -19  -4  157.98   23.30
   0 -19  -4  148.39   20.60
   0 -19  -4  171.28   19.20
   0  19  -4  153.38   28.80
   0  19   4  172.58   25.10
  -1 -19  -4   50.39   12.60
   1 -19   4   53.89   28.00
  -1 -19  -4   56.29   10.20
   1 -19   4    4.80   29.00
  -1 -19  -4   52.39   16.80
  -1  19  -4   23.20   24.40
  -2 -19  -4   51.19    9.10
  -2 -19  -4   74.79   12.80
   2 -19   4   84.79   35.80
   2 -19   4   87.09   33.00
  -2  19  -4   44.10   28.50
  -4 -20   4  206.18   30.30
   4 -20  -4  127.39   20.90
  -4 -20   4  169.98   54.29
   4 -20  -4  187.88   27.80
  -4  20   4  159.88   29.60
   4  20  -4  144.19   32.10
  -3 -20   4   14.20   25.70
   3 -20  -4    1.60   11.90
   3 -20  -4   19.80   15.00
  -3 -20   4   46.00   22.40
   3  20  -4  -23.80   22.00
  -2 -20   4   54.79   24.30
   2 -20  -4   15.70   11.30
  -2 -20   4   -4.10   26.90
   2  20  -4   58.29   27.20
  -2  20   4   -6.50   21.00
   1 -20  -4   -9.10   10.20
   1 -20  -4   -5.20   12.90
  -1 -20   4   38.50   26.70
  -1 -20   4  -22.30   22.80
  -1  20   4   48.50   21.20
   1  20  -4    4.50   20.70
   0 -20  -4    7.40   12.80
   0 -20  -4   40.30   11.40
   0 -20   4  -20.80   22.70
   0 -20   4  -48.70   27.00
   0  20  -4   11.20   22.40
   0  20   4   -8.50   22.30
   1 -20   4   60.29   30.20
  -1 -20  -4   76.49   12.10
   1 -20   4   76.89   34.30
  -1  20  -4  108.99   29.60
 -11   0   5  -19.60   26.30
 -11   0   5    4.20   15.60
 -11   0   5  -13.50   20.60
  10   0  -5  -12.30    8.70
 -10   0   5   13.50   14.30
 -10   0   5   -0.30   16.40
 -10   0   5    7.80   20.30
   9   0  -5   42.20   19.80
   9   0  -5    9.30    8.00
  -9   0   5   -2.50   11.80
  -9   0   5   -3.50   11.80
  -9   0   5   -2.60   15.00
   8   0  -5    4.00    6.70
  -8   0   5   16.70   17.30
  -8   0   5    6.30    9.20
  -8   0   5    7.60   12.00
  -8   0   5  -12.30    9.60
   8   0  -5   19.60   16.10
   7   0  -5    4.50   12.10
  -7   0   5   18.10   10.70
   7   0  -5  -23.20   12.70
  -7   0   5    6.50   10.50
  -7   0   5   -4.60    7.70
   6   0  -5    6.50    9.80
  -6   0   5    5.50    9.60
  -6   0   5    1.50    7.30
  -6   0   5   -5.60    7.40
   6   0  -5   -3.10   10.10
   5   0  -5    9.20    8.20
  -5   0   5    3.50    7.30
  -5   0   5   -5.20    5.10
  -5   0   5   -6.90    5.80
   5   0  -5   -4.70    9.20
  -4   0   5    0.50    6.30
   4   0  -5   -8.10    6.90
  -4   0   5    2.00    4.10
   4   0  -5   11.60    8.30
  -4   0   5    4.30    6.50
  -4   0   5    3.10    4.20
  -3   0   5   -0.80    4.10
   3   0  -5   -3.40    7.20
  -3   0   5   12.30    7.70
  -3   0   5    0.70    6.20
   3   0  -5   -4.20    5.10
  -3   0   5    4.90    3.50
   2   0  -5    1.70    6.20
   2   0  -5   -0.10    2.00
   2   0  -5  -10.70    6.20
  -2   0   5    4.50    5.90
  -2   0   5   -3.80    6.00
  -2   0   5    5.30    5.20
  -2   0   5   -2.10    4.80
   1   0  -5    2.70    2.50
  -1   0   5    1.20    5.40
  -1   0   5    0.20    5.20
  -1   0   5   -4.10    5.90
  -1   0   5    4.50    5.10
   1   0  -5   -0.10    6.60
   0   0  -5   -2.00    5.10
   0   0   5   -1.50    4.90
   0   0   5    5.00    6.80
   0   0   5   -4.20    5.60
   0   0  -5   -5.70    6.10
   0   0  -5    1.60    5.20
   0   0   5   -1.80    5.30
   1   0   5    1.30    6.20
   1   0   5   -2.40    6.30
  -1   0  -5    5.50    7.90
   1   0   5    3.80    6.30
   1   0   5  -10.00    4.20
   1   0   5    2.90    6.00
  -1   0  -5    2.30    5.70
  -1   0  -5   -2.00    6.30
   2   0   5  -12.50    6.90
   2   0   5    7.90    7.60
   2   0   5    5.20    4.70
   2   0   5   -3.20    6.70
  -2   0  -5   11.60    9.50
  -2   0  -5   -4.20    5.50
  -2   0  -5    3.70    7.90
   2   0   5   12.10    8.10
   3   0   5    0.60    5.40
  -3   0  -5   -6.30    9.00
   3   0   5   -1.20    7.20
  -3   0  -5   -0.10    6.80
   3   0   5  -18.80    8.40
  -3   0  -5   -0.30    9.30
   3   0   5    6.50    8.70
   3   0   5    9.60    9.60
  -4   0  -5  -15.90   10.20
   4   0   5    5.30    9.30
  -4   0  -5    9.00    8.70
  -4   0  -5  -12.20   10.70
   4   0   5    0.20    6.60
   4   0   5    4.90   11.20
  -5   0  -5   -5.50   14.00
   5   0   5    4.10    6.50
   5   0   5   11.90   14.90
   5   0   5    9.00   14.30
  -5   0  -5   -6.20   10.40
   5   0   5    6.30    8.40
   6   0   5  -27.40   14.60
  -6   0  -5    7.60   19.60
 -11  -1   5  335.37   36.30
 -11  -1   5  299.97   41.60
 -11  -1   5  268.07   37.50
 -11   1   5  310.87   43.40
 -11   1   5  310.37   33.70
 -10  -1   5   13.60   14.50
 -10  -1   5  -10.50   19.70
  10  -1  -5    8.30    9.40
 -10  -1   5   30.90   17.20
 -10   1   5   -2.30   19.50
 -10   1   5   35.00   13.90
  10   1  -5   24.40    9.10
 -10   1   5   10.40   16.10
  -9  -1   5  103.29   22.30
   9  -1  -5  112.69   15.70
  -9  -1   5   86.79   28.80
   9  -1  -5   65.79   23.80
   9   1  -5   69.49   11.20
  -9   1   5   92.29   20.60
   9   1  -5   88.19   20.60
  -9   1   5   64.29   15.20
  -9   1   5   85.09   15.00
   8  -1  -5  557.94   31.90
   8  -1  -5  604.84   44.50
  -8  -1   5  581.34   41.10
  -8  -1   5  586.84   42.60
  -8  -1   5  581.44   36.50
  -8   1   5  595.24   42.10
   8   1  -5  570.24   31.10
   8   1  -5  618.14   41.00
  -8   1   5  627.64   36.70
  -8   1   5  578.14   40.70
  -8   1   5  571.94   36.20
  -7  -1   5 1871.01   82.29
  -7  -1   5 1803.12   80.69
   7  -1  -5 1796.42   84.49
  -7  -1   5 1608.34   82.49
   7  -1  -5 1797.62   83.59
  -7   1   5 1805.12   81.29
   7   1  -5 1671.73   81.59
   7   1  -5 1658.23   81.29
  -7   1   5 1744.73   79.89
  -7   1   5 1634.54   82.39
   6  -1  -5   57.69   13.30
   6  -1  -5   66.99   16.60
  -6  -1   5   58.29   13.40
  -6  -1   5   79.09   12.60
  -6  -1   5   62.39   12.10
   6   1  -5   62.79   12.20
  -6   1   5   55.69   10.80
   6   1  -5   83.09   15.10
  -6   1   5   77.09   11.90
   5  -1  -5 1195.28   56.39
  -5  -1   5 1156.88   54.99
   5  -1  -5 1072.19   56.89
  -5  -1   5 1107.59   56.79
   5   1  -5 1144.69   55.49
  -5   1   5 1023.00   53.69
  -5   1   5 1133.69   51.59
  -5   1   5 1169.78   56.59
   5   1  -5 1164.88   56.79
  -4  -1   5  446.56   23.00
  -4  -1   5  393.16   22.10
  -4  -1   5  448.76   26.80
   4  -1  -5  462.65   29.10
   4  -1  -5  381.76   26.20
  -4  -1   5  363.36   27.00
  -4   1   5  387.86   27.00
  -4   1   5  437.06   21.80
   4   1  -5  432.16   28.00
  -4   1   5  395.46   25.60
   4   1  -5  418.26   26.30
  -4   1   5  406.66   21.60
   3  -1  -5    4.00    5.70
   3  -1  -5   -3.00    7.90
  -3  -1   5    0.50    5.80
  -3  -1   5    4.40    4.40
  -3  -1   5    5.40    7.00
  -3  -1   5    0.70    3.50
  -3   1   5    8.40    7.20
  -3   1   5    1.00    5.50
  -3   1   5    1.80    3.00
   3   1  -5   11.30    6.50
   3   1  -5    1.30    6.50
  -3   1   5    1.10    4.00
   2  -1  -5  944.71   47.90
  -2  -1   5  972.30   46.00
  -2  -1   5  971.80   48.60
   2  -1  -5 1035.90   47.50
  -2  -1   5  852.41   46.30
  -2  -1   5  805.02   51.39
   2   1  -5 1089.19   49.00
  -2   1   5 1007.10   44.10
  -2   1   5  969.40   45.40
  -2   1   5  938.31   46.60
   2   1  -5 1040.90   47.40
  -2   1   5  915.61   47.40
   2   1  -5  982.30   41.40
   1  -1  -5 3667.53  156.38
  -1  -1   5 3758.92  154.38
  -1  -1   5 3515.85  155.58
   1  -1  -5 3655.33  147.89
  -1  -1   5 3648.54  155.58
   1  -1  -5 3849.51  155.58
  -1  -1   5 3525.35  156.68
   1   1  -5 3758.82  155.58
  -1   1   5 3843.52  152.58
   1   1  -5 3967.70  156.98
  -1   1   5 3694.53  155.28
  -1   1   5 3811.72  155.48
  -1   1   5 3802.82  156.28
   1   1  -5 3847.22  150.58
   0  -1   5  194.58   19.00
   0  -1  -5  220.98   18.80
   0  -1  -5  209.38   16.20
   0  -1   5  241.08   18.40
   0  -1   5  238.28   16.30
   0  -1  -5  230.68   17.70
   0  -1   5  224.08   18.60
   0   1   5  232.78   17.60
   0   1   5  223.18   17.10
   0   1  -5  237.18   19.80
   0   1  -5  235.88   17.50
   0   1  -5  214.58   17.20
   0   1   5  220.58   18.20
   0   1   5  220.18   18.00
   1  -1   5  319.17   24.30
  -1  -1  -5  352.06   22.50
   1  -1   5  394.66   21.20
   1  -1   5  341.97   25.10
   1  -1   5  342.97   22.30
  -1  -1  -5  392.46   25.50
   1  -1   5  345.57   23.90
  -1  -1  -5  360.96   22.70
  -1   1  -5  342.07   24.50
  -1   1  -5  359.86   23.80
   1   1   5  356.66   21.70
   1   1   5  382.76   19.70
   1   1   5  344.97   24.30
  -1   1  -5  370.06   23.30
   1   1   5  319.87   22.50
   1   1   5  350.86   22.90
  -2  -1  -5  339.27   24.30
   2  -1   5  283.47   22.60
  -2  -1  -5  325.47   21.60
   2  -1   5  346.77   26.00
   2  -1   5  292.87   20.00
   2  -1   5  334.97   23.40
   2  -1   5  299.87   24.80
  -2  -1  -5  314.17   23.30
   2   1   5  354.66   21.80
  -2   1  -5  308.97   24.50
   2   1   5  332.07   18.30
  -2   1  -5  350.96   22.50
   2   1   5  340.77   24.40
   2   1   5  315.67   21.80
  -2   1  -5  322.37   24.30
   3  -1   5  307.37   21.60
   3  -1   5  301.07   27.10
  -3  -1  -5  316.17   26.50
   3  -1   5  359.56   25.40
  -3  -1  -5  311.07   24.70
   3  -1   5  315.37   25.50
  -3  -1  -5  364.06   23.10
   3  -1   5  364.46   27.10
   3   1   5  326.07   20.20
   3   1   5  323.97   27.40
   3   1   5  343.67   24.60
   3   1   5  327.27   18.40
   3   1   5  329.07   21.80
  -3   1  -5  334.27   27.50
  -3   1  -5  371.56   26.30
   3   1   5  372.46   24.10
  -3   1  -5  314.77   23.50
   4  -1   5   -2.80   11.70
   4  -1   5   -7.80    7.30
   4  -1   5   -5.90   10.80
  -4  -1  -5   13.30   11.60
  -4  -1  -5    1.40    8.10
  -4  -1  -5   11.20   12.30
  -4   1  -5    6.90    9.10
   4   1   5    3.40    7.10
   4   1   5   -5.10   11.00
   4   1   5    5.10   10.10
   4   1   5   32.00   13.00
   4   1   5    0.90    5.30
  -4   1  -5   -1.00   11.30
   5  -1   5  415.76   28.70
   5  -1   5  388.66   26.10
   5  -1   5  391.16   35.30
  -5  -1  -5  387.66   28.00
  -5  -1  -5  402.16   36.50
   5  -1   5  389.56   32.50
  -5   1  -5  385.56   37.40
   5   1   5  376.86   33.80
   5   1   5  372.36   31.30
  -5   1  -5  369.26   29.40
   6  -1   5  201.98   33.80
  -6  -1  -5  271.57   39.80
  -6   1  -5  280.27   38.90
   6   1   5  199.98   32.20
 -10  -2   5  158.88   27.30
 -10  -2   5  146.89   20.60
  10  -2  -5  144.09   19.40
 -10  -2   5  175.78   26.90
 -10   2   5  161.08   27.20
 -10   2   5  118.59   22.00
  10   2  -5  121.19   16.50
 -10   2   5  129.79   20.90
  -9  -2   5  143.59   27.20
   9  -2  -5  147.19   30.20
  -9  -2   5  186.48   25.70
   9  -2  -5  190.58   19.30
  -9  -2   5  167.68   23.20
  -9   2   5  196.88   26.30
   9   2  -5  251.67   31.60
   9   2  -5  197.38   16.90
  -9   2   5  219.38   24.70
  -9   2   5  169.78   26.20
   8  -2  -5    8.70    7.30
  -8  -2   5   25.00   18.70
   8  -2  -5   14.00   19.30
  -8  -2   5    0.40   13.80
  -8  -2   5    7.00    9.40
  -8   2   5   -6.40   12.50
   8   2  -5    5.70    6.60
   8   2  -5   28.20   13.50
  -8   2   5   13.20    9.70
  -8   2   5    5.80   15.00
  -8   2   5    3.30    9.30
  -7  -2   5  234.98   25.40
   7  -2  -5  229.88   31.20
  -7  -2   5  230.28   25.40
  -7  -2   5  260.57   22.30
   7  -2  -5  237.98   27.20
  -7   2   5  228.88   24.20
  -7   2   5  240.98   24.20
  -7   2   5  225.68   21.00
   7   2  -5  205.78   24.70
   7   2  -5  213.28   24.90
  -6  -2   5  561.04   23.50
   6  -2  -5  554.74   35.20
  -6  -2   5  507.75   34.50
  -6  -2   5  535.45   32.40
  -6  -2   5  545.95   32.90
   6  -2  -5  572.24   38.30
   6   2  -5  546.75   34.30
  -6   2   5  516.85   31.90
  -6   2   5  590.94   31.40
   6   2  -5  516.35   34.00
  -6   2   5  493.05   33.80
  -5  -2   5  438.46   28.90
  -5  -2   5  479.65   31.50
   5  -2  -5  454.05   33.10
  -5  -2   5  483.75   23.60
   5  -2  -5  484.55   30.40
  -5  -2   5  491.05   27.90
   5   2  -5  463.45   29.40
   5   2  -5  462.85   30.40
  -5   2   5  526.15   26.50
  -5   2   5  448.06   29.80
  -5   2   5  449.46   28.10
   4  -2  -5    1.60    8.60
  -4  -2   5   14.20    7.30
   4  -2  -5   10.30    8.40
  -4  -2   5   10.00    5.20
  -4  -2   5    3.00    7.80
  -4  -2   5    8.10    5.40
   4   2  -5   15.80    8.50
  -4   2   5    9.20    6.60
  -4   2   5   15.20    4.50
   4   2  -5    7.00    7.00
  -4   2   5   10.00    6.50
  -4   2   5    7.10    4.20
  -3  -2   5  755.52   39.90
  -3  -2   5  828.52   36.10
   3  -2  -5  811.92   42.00
  -3  -2   5  707.03   40.90
   3  -2  -5  775.92   39.70
  -3   2   5  752.72   40.00
  -3   2   5  774.82   36.70
   3   2  -5  750.62   43.30
  -3   2   5  818.12   32.80
  -3   2   5  735.33   38.70
   3   2  -5  751.32   35.30
   3   2  -5  759.62   40.40
   2  -2  -5  207.68   19.70
  -2  -2   5  208.78   17.70
   2  -2  -5  218.08   17.30
  -2  -2   5  202.08   16.20
  -2  -2   5  193.98   18.80
  -2   2   5  215.98   13.80
  -2   2   5  184.08   15.60
  -2   2   5  198.08   15.70
   2   2  -5  206.58   18.90
   2   2  -5  179.18   16.30
   2   2  -5  198.38   12.70
  -2   2   5  193.28   17.50
  -1  -2   5  253.67   17.50
  -1  -2   5  247.78   19.70
   1  -2  -5  274.27   20.00
   1  -2  -5  255.57   18.30
  -1  -2   5  225.98   20.50
   1   2  -5  224.98   19.50
  -1   2   5  224.58   18.30
  -1   2   5  256.67   15.30
  -1   2   5  244.38   18.10
   1   2  -5  249.18   18.50
  -1   2   5  263.47   17.90
   1   2  -5  231.58   14.60
   0  -2  -5  609.44   34.00
   0  -2  -5  588.44   30.70
   0  -2  -5  587.14   32.20
   0  -2   5  609.04   34.90
   0  -2   5  617.54   31.70
   0  -2   5  609.94   34.30
   0   2   5  586.14   33.00
   0   2   5  607.34   31.90
   0   2   5  624.64   29.50
   0   2  -5  589.94   32.30
   0   2   5  583.84   31.90
   0   2  -5  662.13   34.00
   0   2  -5  615.64   32.70
   1  -2   5  343.77   23.60
   1  -2   5  301.77   23.60
   1  -2   5  344.67   21.30
  -1  -2  -5  305.17   23.00
   1  -2   5  300.67   23.40
  -1  -2  -5  287.67   20.70
   1  -2   5  325.97   19.70
  -1  -2  -5  297.87   20.80
   1   2   5  340.67   19.80
  -1   2  -5  353.66   23.40
  -1   2  -5  340.67   21.70
   1   2   5  299.87   20.20
   1   2   5  314.47   22.80
   1   2   5  315.57   17.10
  -1   2  -5  259.47   21.30
  -2  -2  -5   14.60    8.60
   2  -2   5   10.20    8.90
   2  -2   5   18.50    6.60
   2  -2   5   -6.90    6.90
  -2  -2  -5   10.00    6.50
  -2  -2  -5   14.70    8.10
   2  -2   5   11.70    7.80
   2  -2   5   -3.70    8.20
  -2   2  -5    6.40    7.90
  -2   2  -5   12.20    7.20
   2   2   5    9.20    6.30
   2   2   5   -4.20    5.70
   2   2   5    7.60    7.80
   2   2   5    9.10    4.40
  -2   2  -5   12.50    8.80
   2   2   5   12.30    6.80
  -3  -2  -5  179.28   21.70
   3  -2   5  219.98   22.60
  -3  -2  -5  212.88   17.50
   3  -2   5  203.58   18.00
  -3  -2  -5  202.08   21.30
   3  -2   5  206.08   19.20
   3  -2   5  191.38   21.90
   3  -2   5  199.78   24.00
   3  -2   5  193.58   20.60
   3   2   5  194.78   22.50
   3   2   5  229.38   20.90
   3   2   5  193.78   17.70
  -3   2  -5  200.38   19.50
  -3   2  -5  192.58   22.20
   3   2   5  225.38   14.40
   3   2   5  203.18   12.10
   3   2   5  203.98   15.50
  -3   2  -5  197.08   21.60
   4  -2   5  615.74   33.40
  -4  -2  -5  576.04   39.20
   4  -2   5  594.14   37.60
   4  -2   5  593.04   39.50
  -4  -2  -5  577.84   35.90
  -4  -2  -5  592.34   33.20
   4  -2   5  584.34   37.70
  -4   2  -5  571.74   34.80
   4   2   5  541.95   37.00
  -4   2  -5  642.24   41.60
   4   2   5  582.04   38.30
   4   2   5  602.44   33.70
  -5  -2  -5  358.56   27.40
  -5  -2  -5  376.36   36.60
   5  -2   5  447.56   34.10
   5  -2   5  429.76   29.20
   5  -2   5  356.66   45.40
   5  -2   5  369.46   35.10
   5   2   5  391.86   33.90
   5   2   5  397.66   29.50
  -5   2  -5  415.46   31.60
   6  -2   5   35.20   15.20
   6  -2   5    8.00   17.50
  -6  -2  -5  -12.50   19.90
  -6   2  -5  -26.00   19.10
   6   2   5  -15.50   13.50
  10  -3  -5   57.19   18.70
 -10  -3   5   55.19   21.70
 -10  -3   5   56.19   15.80
 -10  -3   5   12.50   18.60
  10  -3  -5   58.59   13.50
  10   3  -5   56.99    9.20
 -10   3   5   10.60   16.50
 -10   3   5   43.70   14.70
 -10   3   5   -1.50   20.30
  -9  -3   5  -19.20   13.00
   9  -3  -5   14.60    9.40
  -9  -3   5    0.10   10.50
  -9  -3   5   10.40   15.80
   9   3  -5   31.80   15.60
  -9   3   5   13.70   12.90
   9   3  -5    4.00    6.90
  -9   3   5   11.50   11.50
  -8  -3   5  140.89   19.90
  -8  -3   5  123.19   20.00
   8  -3  -5  128.39   16.50
   8  -3  -5  162.38   25.20
   8   3  -5  110.69   13.10
  -8   3   5   95.29   17.80
  -8   3   5  162.98   20.20
  -8   3   5  153.08   20.70
   7  -3  -5  102.19   16.50
   7  -3  -5  142.99   22.10
  -7  -3   5   91.29   17.00
  -7  -3   5  104.69   18.60
  -7  -3   5  101.69   15.70
  -7   3   5   96.89   16.40
   7   3  -5  141.49   20.90
  -7   3   5  116.39   16.90
  -7   3   5   81.19   13.00
   7   3  -5   89.09   15.70
  -6  -3   5   66.89    7.50
  -6  -3   5   63.69   12.80
   6  -3  -5   66.59   12.70
   6  -3  -5  103.29   18.70
  -6  -3   5   66.89   12.50
  -6  -3   5   54.69   13.70
  -6   3   5   83.89   14.60
  -6   3   5   73.99   11.50
   6   3  -5   75.09   13.30
   6   3  -5  114.39   17.90
   5  -3  -5  346.67   25.10
  -5  -3   5  281.77   23.20
  -5  -3   5  321.57   25.80
   5  -3  -5  331.27   27.70
  -5  -3   5  321.67   22.40
   5   3  -5  309.27   23.70
   5   3  -5  352.66   25.10
  -5   3   5  320.17   24.40
  -5   3   5  319.67   22.60
   4  -3  -5   21.50    8.20
  -4  -3   5   23.10    7.60
  -4  -3   5   33.20    7.30
   4  -3  -5   48.60   11.20
  -4  -3   5   16.90    9.00
  -4   3   5   40.90    9.20
  -4   3   5   36.40    5.70
   4   3  -5   31.70    9.50
  -4   3   5   23.50    8.50
   4   3  -5   32.70    8.10
  -4   3   5   30.40    5.50
  -3  -3   5    3.30    7.40
  -3  -3   5   -0.30    4.50
  -3  -3   5    0.80    5.50
   3  -3  -5    2.80    6.00
   3  -3  -5   -1.00    8.10
  -3   3   5    3.30    6.20
  -3   3   5    1.80    4.20
   3   3  -5    4.50    6.30
  -3   3   5    0.40    5.60
   3   3  -5   -2.90    6.80
   3   3  -5    3.00    4.00
  -3   3   5   -0.70    2.20
   2  -3  -5  278.57   22.10
  -2  -3   5  285.27   19.50
   2  -3  -5  273.47   19.80
  -2  -3   5  286.77   20.70
  -2  -3   5  277.57   22.70
   2   3  -5  284.87   20.60
  -2   3   5  255.57   18.00
  -2   3   5  278.07   19.80
  -2   3   5  276.87   15.70
   2   3  -5  300.97   20.50
  -2   3   5  261.47   18.10
   2   3  -5  261.87   16.40
   1  -3  -5 1087.39   51.99
  -1  -3   5 1009.90   52.79
   1  -3  -5 1060.59   50.49
  -1  -3   5 1105.29   50.09
  -1  -3   5 1066.59   51.99
  -1   3   5 1042.80   49.99
  -1   3   5 1110.99   46.40
  -1   3   5 1002.70   49.30
  -1   3   5 1096.49   49.50
   1   3  -5  980.60   47.20
   1   3  -5 1078.49   50.59
   1   3  -5 1110.79   51.49
   0  -3   5  255.07   22.10
   0  -3   5  241.98   19.00
   0  -3   5  267.67   20.80
   0  -3  -5  248.88   18.60
   0  -3  -5  263.87   20.60
   0  -3  -5  248.18   12.10
   0  -3  -5  248.38   16.80
   0   3  -5  281.37   19.70
   0   3   5  258.07   17.90
   0   3   5  260.37   15.70
   0   3  -5  242.78   20.20
   0   3   5  260.87   19.10
   0   3   5  240.58   17.20
   0   3  -5  268.77   19.60
  -1  -3  -5   -9.00    6.90
   1  -3   5   12.50    6.50
   1  -3   5   11.70    9.10
   1  -3   5   -0.80    8.00
   1  -3   5    7.50    6.50
  -1  -3  -5   10.20    6.20
  -1  -3  -5    0.40    6.00
   1   3   5    6.10    6.70
   1   3   5    1.50    3.80
   1   3   5   -0.40    4.80
  -1   3  -5    0.80    6.80
  -1   3  -5   -3.50    5.80
   1   3   5    8.40    5.80
   1   3   5    5.00    5.20
   2  -3   5   61.39   12.80
  -2  -3  -5   57.49    9.80
  -2  -3  -5   71.19   11.50
   2  -3   5   97.09   13.00
   2  -3   5  103.69   16.00
   2  -3   5   81.29   14.20
  -2  -3  -5   72.29   12.00
   2  -3   5   46.20   10.70
   2   3   5   64.79    9.90
   2   3   5   65.09    9.40
  -2   3  -5   44.10   11.50
   2   3   5   68.69    6.60
  -2   3  -5   48.10   11.10
   2   3   5   56.09    8.80
   2   3   5   61.99   11.70
  -2   3  -5   81.09   11.70
  -3  -3  -5  162.18   20.50
  -3  -3  -5  155.98   19.80
   3  -3   5  141.79   22.10
   3  -3   5  178.08   18.30
   3  -3   5  165.98   21.00
   3  -3   5  140.09   20.60
  -3  -3  -5  157.58   15.40
   3  -3   5  190.68   18.30
   3  -3   5  143.89   22.80
   3   3   5  169.68   21.60
  -3   3  -5  168.38   19.00
  -3   3  -5  173.88   19.90
  -3   3  -5  158.68   21.10
   3   3   5  182.58   19.10
   3   3   5  168.68   13.20
   3   3   5  177.78   16.30
  -4  -3  -5   -0.70   11.20
   4  -3   5  -12.40   11.40
   4  -3   5    5.90   11.00
   4  -3   5  -18.20   11.00
  -4  -3  -5   -4.30   12.00
  -4  -3  -5    5.20    7.90
  -4   3  -5    6.80   12.10
   4   3   5   -0.20   11.90
   4   3   5  -11.20   10.00
   4   3   5   12.90    8.90
  -4   3  -5   -4.60   10.60
   5  -3   5  175.28   27.70
   5  -3   5  155.98   21.30
  -5  -3  -5  134.69   22.80
  -5  -3  -5  122.99   18.80
   5  -3   5  108.39   19.90
   5  -3   5  172.68   23.20
  -5   3  -5  167.58   25.20
   5   3   5  150.28   21.10
   5   3   5  128.89   19.60
  -5   3  -5  145.09   25.10
  -6  -3  -5   66.49   25.90
   6  -3   5  137.29   22.50
   6  -3   5  121.29   22.60
   6   3   5  118.49   20.50
  -6   3  -5  109.29   25.50
 -10  -4   5   16.80   22.50
  10  -4  -5   55.49   18.70
  10  -4  -5   40.10   12.00
 -10  -4   5   62.19   21.80
 -10  -4   5   29.40   13.90
 -10   4   5   58.99   17.80
 -10   4   5   68.39   20.00
  10   4  -5   52.49   12.40
 -10   4   5   27.40   21.60
  -9  -4   5  131.39   23.00
  -9  -4   5  152.88   22.50
   9  -4  -5  147.49   19.10
   9   4  -5  162.28   22.90
  -9   4   5  158.38   22.40
   9   4  -5  133.19   13.00
  -9   4   5  116.19   18.50
  -9   4   5  133.79   22.90
  -8  -4   5  146.39   21.80
   8  -4  -5  121.19   16.40
   8  -4  -5  157.78   27.40
  -8  -4   5   95.99   19.40
  -8   4   5  124.99   19.40
   8   4  -5  107.19   12.70
  -8   4   5  119.89   16.90
   8   4  -5  151.98   21.60
  -8   4   5  157.38   24.80
  -7  -4   5  664.53   42.10
   7  -4  -5  638.54   43.20
   7  -4  -5  642.44   46.70
  -7  -4   5  706.23   43.00
  -7  -4   5  660.43   39.40
  -7   4   5  635.94   37.50
   7   4  -5  753.62   45.80
   7   4  -5  682.83   38.20
  -7   4   5  664.23   36.10
  -7   4   5  598.14   39.90
  -6  -4   5 3284.57  137.39
   6  -4  -5 3050.69  140.39
   6  -4  -5 3142.39  138.69
  -6  -4   5 3292.67  140.49
  -6  -4   5 3078.29  136.79
  -6   4   5 3077.09  138.19
  -6   4   5 3156.18  133.29
   6   4  -5 3195.78  136.39
  -6   4   5 3356.46  136.49
   6   4  -5 3348.26  136.19
  -5  -4   5  248.58   19.70
   5  -4  -5  214.48   21.30
  -5  -4   5  226.78   22.90
   5  -4  -5  201.78   23.10
  -5  -4   5  207.48   19.60
  -5   4   5  189.98   19.40
   5   4  -5  183.78   19.20
  -5   4   5  207.98   17.80
   5   4  -5  243.28   20.30
  -4  -4   5  858.61   46.50
  -4  -4   5  928.51   45.50
  -4  -4   5  916.41   49.00
   4  -4  -5  973.00   49.40
   4  -4  -5  940.61   47.40
   4  -4  -5  914.31   42.70
  -4   4   5  939.51   46.80
   4   4  -5  922.21   46.00
   4   4  -5  844.32   43.50
   4   4  -5  946.61   46.20
  -4   4   5  941.41   41.30
  -4   4   5  938.91   45.20
   3  -4  -5  895.01   46.50
   3  -4  -5 1013.70   49.10
  -3  -4   5  975.50   44.30
  -3  -4   5  957.70   47.80
  -3  -4   5  897.71   48.90
   3   4  -5  894.81   43.60
  -3   4   5  894.51   45.80
   3   4  -5  955.20   46.30
  -3   4   5  877.31   44.80
  -3   4   5  964.10   38.40
  -3   4   5  916.61   42.90
   3   4  -5  985.20   46.90
   2  -4  -5 1074.89   53.99
  -2  -4   5 1017.80   54.39
  -2  -4   5 1079.99   53.69
   2  -4  -5 1167.68   52.19
  -2  -4   5 1168.58   52.59
   2  -4  -5 1095.19   52.09
  -2   4   5 1090.29   51.39
   2   4  -5 1177.58   52.69
   2   4  -5 1042.40   49.50
   2   4  -5 1081.99   52.39
  -2   4   5 1136.79   47.30
  -2   4   5 1037.30   50.59
  -2   4   5 1094.39   50.29
  -1  -4   5   56.59   11.20
   1  -4  -5   38.90    9.30
  -1  -4   5   38.10    8.70
   1  -4  -5   43.70    8.50
   1  -4  -5   57.19   10.40
  -1  -4   5   38.50   10.20
   1   4  -5   42.60    8.90
   1   4  -5   35.30    7.70
  -1   4   5   38.70    7.60
  -1   4   5   44.80    6.50
  -1   4   5   33.90    6.40
   1   4  -5   33.70    7.70
   0  -4   5 1597.44   70.19
   0  -4   5 1545.65   73.49
   0  -4  -5 1602.14   69.79
   0  -4   5 1523.35   72.49
   0  -4  -5 1548.84   62.79
   0  -4  -5 1501.35   66.89
   0  -4  -5 1576.64   71.39
   0   4  -5 1517.75   70.99
   0   4   5 1557.74   67.19
   0   4   5 1508.75   70.29
   0   4   5 1745.53   66.59
   0   4   5 1491.25   75.59
   0   4  -5 1460.25   68.49
   0   4  -5 1649.23   70.89
   0   4  -5 1596.64   70.69
  -1  -4  -5 1197.38   58.09
   1  -4   5 1277.07   63.89
  -1  -4  -5 1306.27   59.69
  -1  -4  -5 1281.17   55.39
   1  -4   5 1392.76   59.69
  -1  -4  -5 1346.27   61.49
   1  -4   5 1265.47   63.19
   1  -4   5 1374.06   61.09
   1   4   5 1268.27   61.49
  -1   4  -5 1403.46   61.59
   1   4   5 1341.07   57.99
   1   4   5 1302.77   54.19
  -1   4  -5 1267.47   61.99
   1   4   5 1319.07   55.59
   1   4   5 1335.37   57.29
  -1   4  -5 1225.48   60.09
  -2  -4  -5   21.20    7.20
  -2  -4  -5   29.10    7.80
  -2  -4  -5   23.50    8.50
   2  -4   5   31.40    8.40
   2  -4   5   12.50   10.50
  -2  -4  -5   27.90   10.40
   2  -4   5   13.70    9.40
   2  -4   5   12.50    9.40
   2   4   5   24.20    6.70
  -2   4  -5   24.80    9.10
  -2   4  -5    1.30    7.90
   2   4   5   26.70   10.40
  -2   4  -5   35.40   11.30
   2   4   5   31.10    7.90
  -3  -4  -5  357.76   27.30
  -3  -4  -5  361.46   22.80
  -3  -4  -5  399.46   25.70
   3  -4   5  380.76   31.20
   3  -4   5  313.07   38.00
   3  -4   5  364.26   25.50
   3  -4   5  380.36   25.90
  -3  -4  -5  396.96   28.10
   3  -4   5  348.77   30.00
   3  -4   5  318.87   27.30
   3   4   5  336.97   19.10
   3   4   5  348.77   24.60
   3   4   5  348.47   21.30
   3   4   5  362.76   27.90
  -3   4  -5  430.56   27.80
  -3   4  -5  376.86   29.30
   4  -4   5  604.34   34.90
   4  -4   5  543.35   39.70
   4  -4   5  629.24   39.60
  -4  -4  -5  583.44   31.80
  -4  -4  -5  560.44   38.50
  -4  -4  -5  560.14   37.90
  -4  -4  -5  599.14   36.10
   4  -4   5  540.75   40.00
   4   4   5  510.75   36.00
  -4   4  -5  503.15   39.20
   4   4   5  599.24   29.40
  -4   4  -5  587.54   35.90
   4   4   5  531.15   36.10
   5  -4   5  100.39   20.30
   5  -4   5   95.39   20.00
   5  -4   5   96.89   19.80
  -5  -4  -5   72.99   12.90
   5  -4   5  107.99   18.00
  -5  -4  -5   56.89   18.40
  -5  -4  -5   52.19   21.80
   5   4   5  103.09   12.10
   5   4   5   86.89   17.60
  -5   4  -5  108.59   21.90
  -5   4  -5   95.49   18.40
   6  -4   5   39.10   21.60
  -6  -4  -5   -7.80   20.70
   6  -4   5   32.00   18.90
   6   4   5   40.80   16.70
  -6   4  -5   65.09   23.60
 -10  -5   5  -50.49   22.70
  10  -5  -5    0.80   11.00
 -10  -5   5    1.00   17.60
  10  -5  -5   26.50   18.20
 -10  -5   5  -10.70   13.10
 -10   5   5    9.00   20.00
 -10   5   5   14.80   17.30
 -10   5   5    0.50   16.50
  -9  -5   5   -1.70   17.30
   9  -5  -5   14.80   12.80
  -9  -5   5    1.10   10.90
   9   5  -5   -3.10    8.80
  -9   5   5    4.50   12.80
  -9   5   5    0.70   14.40
  -9   5   5  -13.20   13.20
   9   5  -5    9.00    5.40
   8  -5  -5   78.09   12.70
  -8  -5   5   59.69   12.70
  -8  -5   5   75.19   19.10
  -8   5   5   93.89   15.80
   8   5  -5   91.79   11.30
  -8   5   5  106.89   16.20
  -8   5   5   77.19   16.70
  -7  -5   5  139.69   20.80
   7  -5  -5  104.89   22.20
  -7  -5   5  157.68    8.40
  -7  -5   5  146.49   19.70
  -7  -5   5  179.98   26.70
   7  -5  -5  166.68   24.60
  -7   5   5  123.79   17.90
  -7   5   5  136.89   17.60
  -7   5   5  160.88   17.50
  -6  -5   5   69.69   15.30
   6  -5  -5   66.59   14.20
   6  -5  -5   75.49   18.60
  -6  -5   5   51.39   11.70
  -6  -5   5   36.50   12.10
  -6   5   5   56.39    9.20
   6   5  -5   54.09   11.10
  -6   5   5   94.09   14.50
  -6   5   5   43.70   11.40
   6   5  -5   64.89   12.00
   5  -5  -5  165.98   22.10
  -5  -5   5  110.89   16.50
   5  -5  -5  119.19   18.70
  -5  -5   5  116.79   16.50
   5  -5  -5  122.49   12.20
  -5  -5   5   86.19   15.40
  -5   5   5  126.99   14.20
   5   5  -5  138.29   17.40
   5   5  -5  138.29   16.70
  -5   5   5  107.39   16.40
  -4  -5   5  190.68   18.20
  -4  -5   5  178.88   20.70
   4  -5  -5  188.38   18.50
   4  -5  -5  183.78   15.00
   4  -5  -5  154.18   20.20
  -4  -5   5  188.28   18.30
  -4   5   5  189.88   18.20
   4   5  -5  197.38   18.50
  -4   5   5  190.98   16.90
   4   5  -5  195.18   17.60
   4   5  -5  157.78   15.10
  -3  -5   5  401.36   28.40
   3  -5  -5  376.26   23.30
  -3  -5   5  348.87   25.10
   3  -5  -5  352.16   24.40
   3  -5  -5  444.66   27.60
   3   5  -5  361.26   22.40
  -3   5   5  341.77   23.70
   3   5  -5  389.66   24.40
  -3   5   5  390.26   16.80
  -3   5   5  369.56   21.10
   3   5  -5  376.46   24.30
  -3   5   5  365.86   23.60
  -3   5   5  371.56   19.40
   2  -5  -5  575.04   32.40
   2  -5  -5  628.64   34.80
  -2  -5   5  608.84   33.00
   2  -5  -5  598.24   32.40
  -2  -5   5  592.54   34.10
  -2  -5   5  565.14   34.70
  -2   5   5  567.64   30.10
   2   5  -5  583.14   32.10
   2   5  -5  586.14   32.50
  -2   5   5  584.94   30.40
  -2   5   5  555.04   30.60
   2   5  -5  582.84   30.60
  -2   5   5  596.14   26.60
  -1  -5   5  128.99   15.20
   1  -5  -5  159.58   16.40
  -1  -5   5  127.49   17.90
   1  -5  -5  138.29   14.30
   1  -5  -5  157.48   17.00
  -1  -5   5  134.59   16.50
  -1   5   5  131.39   12.50
  -1   5   5  128.99   12.30
   1   5  -5  153.08   15.50
  -1   5   5  142.59    9.30
   1   5  -5  155.38   15.30
  -1   5   5  120.59   13.50
   1   5  -5  124.49   13.60
   0  -5   5  772.52   42.00
   0  -5  -5  723.93   35.10
   0  -5  -5  768.12   31.70
   0  -5   5  813.92   40.10
   0  -5  -5  728.23   38.30
   0  -5  -5  821.72   42.20
   0  -5   5  755.12   43.00
   0  -5  -5  715.63   40.00
   0   5  -5  758.52   38.70
   0   5   5  792.12   34.30
   0   5  -5  779.32   40.70
   0   5  -5  719.73   42.50
   0   5  -5  771.82   39.50
   0   5   5  743.93   34.90
   0   5   5  828.62   36.90
   0   5   5  756.62   38.80
   1  -5   5   26.30    8.10
  -1  -5  -5   21.20    7.70
  -1  -5  -5   20.10   10.00
   1  -5   5   30.90   11.40
  -1  -5  -5   39.10    9.60
   1  -5   5   37.10   10.20
   1  -5   5   20.00   11.40
  -1  -5  -5   27.10    7.00
  -1  -5  -5   27.80    5.40
   1   5   5   30.70    4.20
   1   5   5   28.10    6.40
   1   5   5   28.20    4.50
  -1   5  -5   38.70    9.60
   1   5   5   35.00    6.50
   1   5   5   33.00    8.90
  -1   5  -5   15.90    8.80
  -2  -5  -5  206.68   18.30
  -2  -5  -5  197.18   20.20
   2  -5   5  164.08   20.60
  -2  -5  -5  184.48   16.00
   2  -5   5  212.98   24.10
   2  -5   5  224.38   23.50
   2  -5   5  241.08   19.30
  -2  -5  -5  200.48   16.80
  -2   5  -5  213.08   27.40
  -2   5  -5  202.58   19.60
  -2   5  -5  185.58   20.10
   2   5   5  200.88   19.60
   2   5   5  191.88   14.00
   2   5   5  180.98   12.80
   2   5   5  191.88   15.80
  -3  -5  -5   11.20    8.80
  -3  -5  -5    2.60    9.10
   3  -5   5    1.30   10.40
   3  -5   5    9.00   12.80
  -3  -5  -5   32.80   11.30
   3  -5   5    0.20   10.00
  -3  -5  -5   21.40    7.20
   3  -5   5    4.00   11.40
   3   5   5   16.00    8.50
   3   5   5   21.00    4.80
  -3   5  -5   10.50   10.00
   3   5   5   16.40    9.80
   4  -5   5    3.70   13.60
   4  -5   5   11.30   15.80
  -4  -5  -5   20.00    8.10
   4  -5   5    8.70   11.70
   4  -5   5   18.70   14.00
  -4  -5  -5   11.20   12.30
  -4  -5  -5   -2.00   11.60
  -4  -5  -5   -0.60   13.40
  -4   5  -5  -16.90   12.20
   4   5   5   -9.70   10.40
  -4   5  -5   22.80   14.00
   5  -5   5   49.20   19.40
  -5  -5  -5   89.99   23.40
   5  -5   5   22.90   20.30
  -5  -5  -5   46.50   19.10
  -5  -5  -5   76.49   18.20
   5  -5   5   43.10   17.80
   5  -5   5   47.60   18.80
  -5   5  -5    6.60   17.40
  -5   5  -5  105.89   19.10
   5   5   5   55.19   15.50
   6  -5   5   35.50   22.40
   6  -5   5   -5.40   18.10
  -6  -5  -5  -17.70   21.30
  -6   5  -5   32.20   22.00
   6   5   5  -14.20   14.00
  10  -6  -5  166.78   25.60
 -10  -6   5  159.58   22.50
 -10  -6   5  229.78   40.50
  10  -6  -5  245.48   34.00
 -10  -6   5  242.88   37.00
 -10   6   5  206.98   30.10
 -10   6   5  278.77   32.60
 -10   6   5  203.38   27.80
   9  -6  -5  312.57   29.80
  -9  -6   5  265.17   34.50
  -9  -6   5  238.98   27.30
   9  -6  -5  281.67   24.90
  -9   6   5  306.27   29.50
  -9   6   5  341.17   33.70
  -9   6   5  258.47   29.80
   8  -6  -5   82.79   13.90
  -8  -6   5   83.99   19.40
  -8  -6   5   96.09   15.90
   8   6  -5   92.59   11.20
  -8   6   5  132.89   18.50
  -8   6   5   95.39   15.40
   8   6  -5  102.79   10.40
  -8   6   5  103.39   19.10
   7  -6  -5  206.78   28.80
  -7  -6   5  177.58   27.10
   7  -6  -5  145.79   28.60
  -7  -6   5  173.88   21.30
  -7  -6   5  122.09   21.80
  -7   6   5  162.08   22.50
  -7   6   5  155.88   18.30
   7   6  -5  200.08   17.30
  -7   6   5  158.88   19.60
  -6  -6   5 1173.48   58.19
   6  -6  -5 1156.58   62.09
   6  -6  -5 1062.19   49.10
  -6  -6   5 1087.09   59.19
   6  -6  -5 1159.98   59.09
  -6  -6   5 1086.99   55.59
  -6   6   5 1052.69   56.09
   6   6  -5 1056.29   54.19
  -6   6   5 1120.19   51.19
  -6   6   5 1134.69   54.29
   5  -6  -5  396.26   29.90
  -5  -6   5  427.66   28.60
   5  -6  -5  389.96   32.10
  -5  -6   5  414.46   28.20
  -5  -6   5  356.96   30.10
   5  -6  -5  432.16   23.30
  -5   6   5  395.16   21.80
   5   6  -5  366.66   27.10
  -5   6   5  402.76   25.40
   5   6  -5  410.96   25.10
  -5   6   5  387.46   26.80
  -4  -6   5   12.80    8.70
   4  -6  -5    2.30    5.70
   4  -6  -5   -4.70    9.30
  -4  -6   5    5.70    8.70
  -4  -6   5    4.10    7.40
   4  -6  -5   -1.60    7.70
   4   6  -5   21.50    7.50
  -4   6   5    6.30    6.90
  -4   6   5    4.20    7.20
   4   6  -5    2.60    6.70
   4   6  -5    3.30    7.70
   3  -6  -5  577.54   35.00
  -3  -6   5  528.45   35.00
  -3  -6   5  541.25   33.40
   3  -6  -5  569.84   31.10
  -3  -6   5  599.24   32.30
   3  -6  -5  573.24   32.80
  -3  -6   5  611.14   34.00
   3   6  -5  586.34   31.80
   3   6  -5  513.45   30.60
  -3   6   5  548.85   24.60
  -3   6   5  581.04   26.00
  -3   6   5  556.64   31.30
   3   6  -5  592.44   31.80
  -3   6   5  562.94   30.20
   2  -6  -5  883.61   45.70
   2  -6  -5  867.81   43.60
  -2  -6   5  826.42   46.60
   2  -6  -5  856.91   43.90
  -2  -6   5  896.21   46.20
  -2  -6   5  933.71   45.30
   2   6  -5  846.62   42.40
  -2   6   5  828.72   41.20
  -2   6   5  891.11   41.40
  -2   6   5  849.81   36.50
   2   6  -5  839.22   43.00
   2   6  -5  929.41   43.30
  -2   6   5  856.61   41.50
   1  -6  -5  128.39   17.30
  -1  -6   5   87.49   14.40
  -1  -6   5  106.89   15.80
   1  -6  -5  107.89   16.00
  -1  -6   5  116.19   15.60
   1  -6  -5  130.39   14.20
  -1   6   5  101.19   10.80
   1   6  -5  110.49   14.40
   1   6  -5   93.89   13.40
  -1   6   5  100.19   12.30
  -1   6   5  111.69    7.50
   1   6  -5  118.89   14.40
   0  -6   5 1140.79   54.09
   0  -6   5 1086.69   51.99
   0  -6  -5 1110.09   54.09
   0  -6   5 1079.39   55.79
   0  -6   5 1078.39   56.79
   0  -6  -5 1141.09   55.59
   0  -6  -5 1042.30   47.90
   0  -6  -5 1046.20   51.79
   0   6  -5 1198.68   53.19
   0   6   5 1098.19   46.30
   0   6   5 1153.98   47.20
   0   6   5 1099.99   47.00
   0   6  -5 1160.68   53.29
   0   6   5 1072.39   52.59
   0   6   5 1130.19   49.20
   0   6  -5 1086.99   53.09
   1  -6   5   96.19   13.80
  -1  -6  -5  108.09   16.20
  -1  -6  -5   93.99    9.80
   1  -6   5  124.19   14.70
   1  -6   5   80.99   16.50
  -1  -6  -5   87.49   11.50
  -1  -6  -5   84.49   14.80
  -1  -6  -5   82.59   12.60
   1  -6   5   78.49   14.10
   1   6   5   96.29    9.90
  -1   6  -5   96.59   15.10
   1   6   5   85.09   13.90
  -1   6  -5   67.19   12.60
   1   6   5   84.19    9.60
  -1   6  -5   91.79   12.40
  -2  -6  -5    3.50   13.50
   2  -6   5   13.00   10.90
   2  -6   5    9.50   11.70
  -2  -6  -5   26.80   11.00
  -2  -6  -5   25.10    7.20
  -2  -6  -5    9.40    7.30
   2  -6   5    9.40    9.20
  -2  -6  -5    4.60    6.80
   2  -6   5   16.00   11.80
   2   6   5   10.20    4.40
  -2   6  -5   15.10    9.40
   2   6   5   16.50    4.80
   2   6   5   18.70    6.40
  -2   6  -5   18.50    9.70
   2   6   5   10.60    8.60
  -2   6  -5   21.70    9.40
   3  -6   5  100.99   19.00
  -3  -6  -5  121.19   13.90
   3  -6   5  128.69   19.40
  -3  -6  -5  102.49   14.90
  -3  -6  -5  172.08   20.50
  -3  -6  -5  111.89   14.90
   3  -6   5  111.79   15.80
  -3   6  -5  115.69   15.80
  -3   6  -5  102.79   17.00
   3   6   5  120.99   18.70
  -4  -6  -5  462.55   29.80
  -4  -6  -5  465.15   35.30
   4  -6   5  448.56   41.40
   4  -6   5  456.15   37.90
  -4  -6  -5  399.86   34.20
   4  -6   5  405.16   33.60
  -4  -6  -5  457.45   32.30
  -4   6  -5  459.55   36.30
  -4   6  -5  500.55   34.90
   4   6   5  501.75   32.80
  -5  -6  -5  138.09   24.30
  -5  -6  -5  148.99   18.30
  -5  -6  -5  130.49   18.30
   5  -6   5  109.99   24.30
   5  -6   5   71.69   25.00
   5  -6   5   97.29   21.20
  -5   6  -5   94.39   19.10
  -5   6  -5  136.49   23.10
  -6  -6  -5   37.90   23.50
   6  -6   5   51.39   27.10
   6  -6   5   53.59   22.20
   6   6   5   34.60   16.70
  -6   6  -5   40.10   24.30
 -10  -7   5  129.49   25.30
  10  -7  -5   27.60   21.30
  10  -7  -5   76.39   16.80
 -10  -7   5   65.59   30.20
 -10  -7   5   76.69   17.10
 -10   7   5   82.89   23.30
 -10   7   5   64.29   20.10
 -10   7   5  104.09   20.70
   9  -7  -5  107.99   15.80
  -9  -7   5  125.89   18.60
   9  -7  -5  132.59   20.50
  -9  -7   5  166.68   25.90
  -9   7   5  138.99   20.30
  -9   7   5  118.09   18.70
  -9   7   5  109.99   21.10
   8  -7  -5  813.22   44.80
  -8  -7   5  829.52   52.59
  -8  -7   5  809.32   62.19
   8   7  -5  831.32   36.40
  -8   7   5  891.41   48.00
  -8   7   5  817.92   68.39
  -8   7   5  869.71   45.80
   8   7  -5  837.02   35.70
   7  -7  -5  652.33   46.80
   7  -7  -5  612.94   28.90
  -7  -7   5  574.44   36.90
  -7  -7   5  550.94   40.80
   7   7  -5  572.04   29.80
  -7   7   5  584.74   35.70
  -7   7   5  596.54   33.40
  -7   7   5  560.34   37.80
  -6  -7   5  185.28   20.50
  -6  -7   5  183.98   25.50
  -6  -7   5  179.58   22.40
   6  -7  -5  179.48   15.20
   6  -7  -5  161.08   22.60
   6  -7  -5  204.68   27.20
  -6   7   5  181.58   15.70
   6   7  -5  170.48   15.80
  -6   7   5  191.18   20.70
   6   7  -5  141.49   21.10
  -6   7   5  178.18   18.90
  -5  -7   5  132.19   20.80
   5  -7  -5   84.69   15.00
  -5  -7   5   84.39   13.70
   5  -7  -5   77.49   16.80
  -5  -7   5   58.39   14.30
  -5   7   5   96.89   13.20
  -5   7   5   79.69   12.60
   5   7  -5   91.89   12.90
   5   7  -5   69.59   15.10
  -5   7   5   84.39   10.30
   5   7  -5   94.89   14.00
   4  -7  -5  522.65   35.10
  -4  -7   5  556.04   32.50
  -4  -7   5  478.65   31.50
   4  -7  -5  481.45   28.20
  -4  -7   5  533.95   35.50
   4  -7  -5  522.15   32.60
  -4   7   5  498.55   23.70
  -4   7   5  490.15   28.40
   4   7  -5  483.45   29.80
   4   7  -5  510.45   28.40
  -4   7   5  503.45   29.90
   4   7  -5  465.75   29.30
  -3  -7   5  158.58   18.50
   3  -7  -5  155.28   21.00
  -3  -7   5  216.58   20.50
   3  -7  -5  220.78   18.10
  -3  -7   5  237.88   21.20
  -3  -7   5  185.08   21.50
   3  -7  -5  180.08   18.30
  -3   7   5  201.08   10.20
  -3   7   5  186.58   16.20
  -3   7   5  226.28   11.20
   3   7  -5  175.88   17.50
   3   7  -5  194.68   17.20
  -3   7   5  190.58   15.50
   3   7  -5  182.88   17.40
  -3   7   5  196.48   11.40
   2  -7  -5 1609.54   76.09
  -2  -7   5 1657.93   78.59
  -2  -7   5 1695.43   80.19
   2  -7  -5 1718.23   76.69
   2  -7  -5 1658.03   77.99
  -2  -7   5 1743.33   77.59
  -2   7   5 1733.73   73.59
  -2   7   5 1584.14   73.79
   2   7  -5 1714.13   75.09
  -2   7   5 1769.72   67.79
  -2   7   5 1709.53   73.49
   2   7  -5 1737.43   76.49
   2   7  -5 1744.23   75.99
   1  -7  -5  898.11   47.40
  -1  -7   5  957.50   48.10
  -1  -7   5  905.51   50.19
   1  -7  -5  909.21   48.20
   1  -7  -5  932.11   46.40
  -1  -7   5  921.21   49.30
  -1   7   5  919.71   41.90
   1   7  -5 1002.30   46.90
  -1   7   5  894.51   45.20
   1   7  -5  967.90   47.10
  -1   7   5  950.30   43.00
   1   7  -5  997.70   46.20
  -1   7   5 1001.00   38.80
   0  -7   5  511.75   34.00
   0  -7  -5  509.05   29.60
   0  -7  -5  561.54   32.40
   0  -7   5  552.94   30.50
   0  -7   5  495.75   31.80
   0  -7   5  493.45   34.40
   0  -7  -5  578.44   34.80
   0   7  -5  497.35   31.30
   0   7   5  551.94   26.40
   0   7   5  531.35   30.40
   0   7  -5  581.34   31.10
   0   7   5  548.55   24.20
   0   7   5  523.15   22.50
   0   7   5  535.75   22.70
   0   7  -5  541.15   30.40
  -1  -7  -5   33.60   12.70
  -1  -7  -5   23.70    7.10
   1  -7   5   16.30    9.30
   1  -7   5   25.90   12.40
  -1  -7  -5   33.90    7.00
  -1  -7  -5   26.60    9.90
  -1  -7  -5   27.80    6.20
   1  -7   5   42.80   12.50
   1  -7   5   36.90   13.00
  -1   7  -5   52.99   11.20
   1   7   5   23.40    7.50
  -1   7  -5   28.50   10.50
  -1   7  -5   38.00   10.50
   1   7   5   21.20    4.80
  -2  -7  -5  663.73   33.60
  -2  -7  -5  664.13   34.40
  -2  -7  -5  682.33   43.20
   2  -7   5  628.24   42.80
  -2  -7  -5  653.63   37.30
   2  -7   5  714.93   37.90
   2  -7   5  628.24   39.90
  -2  -7  -5  629.04   34.70
   2  -7   5  610.94   42.70
   2  -7   5  685.83   37.50
  -2   7  -5  677.43   38.20
   2   7   5  689.23   27.90
  -2   7  -5  650.73   40.10
  -2   7  -5  707.23   38.20
   2   7   5  659.83   27.70
   2   7   5  650.13   37.40
  -3  -7  -5  108.99   15.70
  -3  -7  -5  114.79   16.90
   3  -7   5  107.29   19.90
  -3  -7  -5  151.78   19.30
   3  -7   5  107.19   21.40
   3  -7   5  128.49   18.10
  -3  -7  -5  160.48   22.00
  -3   7  -5  129.59   19.70
  -3   7  -5  122.79   16.90
   3   7   5   89.59   14.50
  -4  -7  -5    9.40    8.30
   4  -7   5   -1.70   15.20
   4  -7   5   44.90   19.40
   4  -7   5    3.70   15.20
  -4  -7  -5  -19.70   15.00
  -4  -7  -5    6.70   12.90
  -4  -7  -5    3.50   13.10
   4   7   5   12.10    9.60
  -4   7  -5    9.10   13.80
   5  -7   5  283.87   37.50
  -5  -7  -5  292.47   29.50
  -5  -7  -5  227.58   29.40
  -5  -7  -5  286.87   22.50
   5  -7   5  296.27   38.10
   5  -7   5  266.57   35.10
  -5   7  -5  319.87   36.70
   5   7   5  268.47   28.40
  -6  -7  -5  737.23   59.49
   6  -7   5  792.22   61.69
   6  -7   5  805.52   60.89
   6   7   5  824.62   50.59
  -6   7  -5  819.72   60.59
 -10  -8   5    9.30   27.50
 -10  -8   5   41.80   21.30
 -10  -8   5   32.30   15.00
  10  -8  -5   26.70   14.10
  10  -8  -5   27.00   22.90
 -10   8   5  -17.00   16.50
 -10   8   5   66.99   22.80
 -10   8   5   24.40   19.50
   9  -8  -5   69.79   15.40
  -9  -8   5   66.69   23.40
   9  -8  -5   88.09   18.50
  -9  -8   5   72.39   15.80
  -9   8   5   96.99   19.40
  -9   8   5   56.79   17.30
  -9   8   5   77.89   19.00
  -8  -8   5    7.70    5.80
  -8  -8   5    6.60   16.50
   8  -8  -5    3.60   10.50
  -8  -8   5   -4.40   11.10
  -8   8   5   -6.00   11.10
  -8   8   5   12.60   11.10
  -8   8   5    4.10   12.50
   7  -8  -5   -4.30    6.90
  -7  -8   5   -0.70   10.00
   7  -8  -5   38.50   19.20
   7  -8  -5   -0.60    8.70
  -7  -8   5   20.00   13.80
   7   8  -5    5.60    4.50
  -7   8   5    5.80   10.90
   7   8  -5   15.80    5.70
  -7   8   5    9.00    8.90
  -7   8   5    9.00    9.40
  -6  -8   5   50.99   16.40
  -6  -8   5   49.00   16.10
   6  -8  -5   60.69   18.00
   6  -8  -5   42.80   24.80
  -6  -8   5   45.20   12.20
  -6   8   5   79.79   12.00
  -6   8   5   53.99   14.30
  -6   8   5   55.99   12.10
   6   8  -5   50.29    8.10
  -5  -8   5   99.09   17.50
   5  -8  -5   80.49   17.20
  -5  -8   5   69.19   15.50
   5  -8  -5   54.89   17.00
  -5  -8   5   85.79   14.30
   5  -8  -5   90.89   14.40
  -5   8   5   96.49   10.00
  -5   8   5   53.09   12.20
   5   8  -5  102.99   13.80
   5   8  -5   69.79    9.70
   5   8  -5  114.79   17.30
  -5   8   5   92.19   14.20
   4  -8  -5   -7.60   11.10
  -4  -8   5   -5.60    8.00
   4  -8  -5   -9.30    7.20
   4  -8  -5   -2.50    9.20
  -4  -8   5   -3.80   10.70
  -4  -8   5   -3.50   10.10
  -4   8   5    3.90    6.30
  -4   8   5    4.80    5.00
   4   8  -5    3.00    8.00
  -4   8   5    8.80    7.10
   4   8  -5    3.80    6.70
   4   8  -5    0.80    6.90
   3  -8  -5  161.48   21.40
   3  -8  -5  150.58   17.70
  -3  -8   5  180.78   22.20
  -3  -8   5  159.28   19.30
   3  -8  -5  161.98   18.90
  -3  -8   5  141.39   18.70
  -3  -8   5  121.29   18.90
  -3   8   5  184.58   11.60
   3   8  -5  166.28   17.30
   3   8  -5  159.38   17.20
   3   8  -5  183.28   15.80
  -3   8   5  189.68   14.50
  -3   8   5  143.29   14.80
   2  -8  -5  395.46   29.20
   2  -8  -5  382.36   26.30
  -2  -8   5  436.06   28.70
   2  -8  -5  425.26   27.30
  -2  -8   5  413.06   29.20
  -2  -8   5  383.56   30.40
   2   8  -5  419.76   26.30
  -2   8   5  418.66   18.40
  -2   8   5  408.66   22.80
  -2   8   5  401.56   22.70
   2   8  -5  388.86   26.50
   2   8  -5  438.76   25.30
   1  -8  -5   17.80    9.60
   1  -8  -5   36.00    9.80
  -1  -8   5   28.40   10.70
  -1  -8   5   26.00    9.80
  -1  -8   5   30.30   10.90
   1  -8  -5   27.50    8.60
   1   8  -5   14.60    7.90
  -1   8   5   26.20    5.10
  -1   8   5   19.80    6.60
   1   8  -5   30.80    8.50
   1   8  -5   17.50    7.90
  -1   8   5   17.50    5.20
   0  -8   5  125.09   16.30
   0  -8  -5   88.19   13.20
   0  -8   5  100.49   16.70
   0  -8   5   79.39   13.20
   0  -8  -5   83.39   13.50
   0  -8  -5   82.19   14.90
   0  -8   5   80.69   15.30
   0   8   5   74.09    8.60
   0   8  -5   98.89   12.90
   0   8   5   87.09   12.80
   0   8  -5  108.19   14.90
   0   8  -5   69.39   11.90
  -1  -8  -5    3.00    9.80
   1  -8   5   -9.30   10.30
  -1  -8  -5   -4.70    6.00
  -1  -8  -5   29.50   14.80
   1  -8   5   -3.80    9.90
   1  -8   5  -10.30   11.60
  -1  -8  -5    9.70    5.50
   1  -8   5  -18.40    8.40
  -1  -8  -5    8.40    5.10
   1   8   5    2.00    3.40
  -1   8  -5   13.50    9.10
  -1   8  -5    3.20    9.00
   1   8   5    3.80    7.20
  -1   8  -5    0.80    8.80
  -2  -8  -5   72.89   11.10
   2  -8   5   48.20   15.30
   2  -8   5   54.39   17.20
  -2  -8  -5   61.99   12.70
   2  -8   5   46.10   13.00
  -2  -8  -5   54.09   18.20
  -2  -8  -5   33.10    9.00
   2  -8   5   73.19   14.20
  -2  -8  -5   50.09    9.60
   2   8   5   34.20   11.10
  -2   8  -5   71.99   13.90
  -2   8  -5   50.89   12.90
  -3  -8  -5   31.00    8.50
  -3  -8  -5   26.00   11.20
  -3  -8  -5   43.30   13.60
  -3  -8  -5   49.30   11.90
   3  -8   5   48.60   17.90
   3  -8   5   34.10   16.80
   3  -8   5   50.79   19.00
   3   8   5   23.20   10.50
  -3   8  -5   52.99   15.10
  -3   8  -5   29.00   13.90
   4  -8   5   39.30   19.60
  -4  -8  -5   16.50   14.60
  -4  -8  -5   44.60    9.30
   4  -8   5   41.60   20.70
  -4  -8  -5   36.90   16.30
  -4  -8  -5   69.89   15.50
  -4   8  -5   36.10   16.00
  -4   8  -5   61.59   19.20
   4   8   5   29.90   10.90
   5  -8   5    7.20   26.40
   5  -8   5   44.70   23.20
  -5  -8  -5   16.40   17.60
  -5  -8  -5   16.20    9.40
   5   8   5    1.10   12.10
  -5   8  -5    5.60   18.80
   6  -8   5   -4.00   23.40
   6  -8   5   37.40   25.00
  -6  -8  -5   -0.40   11.60
  -6  -8  -5  -19.80   22.50
  -6   8  -5  -27.40   22.90
 -10  -9   5  145.59   28.10
 -10  -9   5  116.19   19.10
  10  -9  -5  111.59   26.20
  10  -9  -5  131.79   19.40
 -10  -9   5  141.69   32.50
 -10   9   5  101.79   24.40
 -10   9   5  116.99   25.00
 -10   9   5   63.29   24.10
   9  -9  -5   15.20   14.40
   9  -9  -5   11.10   11.90
  -9  -9   5   54.29   15.10
  -9  -9   5  -16.30   20.20
  -9   9   5   19.50   15.20
  -9   9   5  -24.60   13.40
  -9   9   5   27.80   16.30
  -8  -9   5  474.75   24.50
   8  -9  -5  413.06   31.00
   8  -9  -5  425.46   32.20
   8  -9  -5  420.66   24.80
  -8  -9   5  463.35   41.80
  -8  -9   5  437.26   33.90
  -8   9   5  448.86   33.80
  -8   9   5  416.26   32.00
  -8   9   5  449.26   36.00
   7  -9  -5  453.25   44.30
  -7  -9   5  448.06   39.20
   7  -9  -5  378.76   27.30
  -7  -9   5  383.56   29.90
  -7   9   5  417.96   30.00
  -7   9   5  389.96   26.30
  -7   9   5  384.56   31.90
   6  -9  -5   98.69   21.20
  -6  -9   5   74.29   14.10
  -6  -9   5  117.89   21.90
   6  -9  -5   89.29   12.60
  -6  -9   5   85.59   18.00
  -6   9   5   64.19   13.20
   6   9  -5   92.39   10.20
  -6   9   5   74.29   14.80
  -6   9   5   71.59   10.50
  -5  -9   5 1135.49   59.79
   5  -9  -5 1141.89   60.29
   5  -9  -5 1142.39   64.69
   5  -9  -5 1152.28   53.79
  -5  -9   5 1012.60   56.39
  -5  -9   5 1150.08   60.89
   5   9  -5 1044.80   57.39
   5   9  -5 1146.79   50.09
  -5   9   5 1124.99   48.90
   5   9  -5 1041.90   53.29
  -5   9   5 1170.58   54.29
  -5   9   5 1180.48   55.99
   4  -9  -5  880.11   62.19
   4  -9  -5  945.81   47.10
  -4  -9   5  952.20   52.29
  -4  -9   5  927.01   50.19
   4  -9  -5  965.50   50.99
  -4  -9   5  897.31   49.60
  -4   9   5  939.31   38.80
   4   9  -5  944.91   43.30
  -4   9   5  924.11   45.30
   4   9  -5  852.01   48.40
  -4   9   5  946.11   46.10
   4   9  -5  894.31   45.70
  -3  -9   5   22.30   12.70
   3  -9  -5   17.30    9.30
   3  -9  -5   -1.00   11.70
  -3  -9   5   20.70   12.50
   3  -9  -5   10.90    9.00
  -3  -9   5   26.70   10.30
  -3   9   5   25.90    6.90
   3   9  -5   26.70    9.80
  -3   9   5   27.80    7.80
   3   9  -5   26.60    7.20
  -3   9   5   19.40    5.90
   3   9  -5   24.00    8.80
  -2  -9   5  494.35   34.50
   2  -9  -5  509.45   30.50
  -2  -9   5  531.35   33.60
   2  -9  -5  482.85   32.90
   2  -9  -5  527.35   32.30
  -2  -9   5  498.55   33.20
   2   9  -5  478.55   29.10
  -2   9   5  503.35   23.20
   2   9  -5  448.16   30.70
   2   9  -5  495.25   27.80
  -2   9   5  491.15   25.40
  -1  -9   5 1314.37   67.39
  -1  -9   5 1301.87   66.09
   1  -9  -5 1381.86   63.99
   1  -9  -5 1331.47   64.59
   1  -9  -5 1278.17   61.49
  -1  -9   5 1225.78   63.49
   1   9  -5 1341.27   61.59
  -1   9   5 1276.67   54.59
  -1   9   5 1363.66   56.99
   1   9  -5 1404.26   60.59
   1   9  -5 1272.07   63.49
   0  -9   5  482.15   35.00
   0  -9  -5  418.06   32.40
   0  -9  -5  448.36   29.90
   0  -9   5  430.26   33.10
   0  -9  -5  451.95   27.40
   0  -9   5  461.95   29.60
   0  -9   5  420.66   31.10
   0   9  -5  471.45   28.80
   0   9   5  472.65   21.90
   0   9  -5  456.55   28.00
   0   9  -5  438.36   30.70
  -1  -9  -5  110.69   18.30
  -1  -9  -5   87.79   14.30
  -1  -9  -5  137.49   19.30
   1  -9   5  118.79   20.60
  -1  -9  -5  129.29   11.80
  -1  -9  -5  141.99   13.00
   1  -9   5  132.79   19.00
   1  -9   5  109.99   15.00
   1  -9   5  119.39   19.70
  -1   9  -5  108.49   14.70
  -1   9  -5  151.28   19.30
   1   9   5  122.19   15.90
  -1   9  -5  147.99   19.70
   1   9   5  139.19    7.10
  -1   9  -5  180.18   22.00
   2  -9   5  524.55   41.80
   2  -9   5  596.04   40.70
  -2  -9  -5  546.65   33.40
  -2  -9  -5  525.65   30.30
  -2  -9  -5  507.15   28.90
   2  -9   5  509.15   41.30
   2  -9   5  583.84   35.10
  -2  -9  -5  552.24   29.70
  -2   9  -5  459.55   34.10
  -2   9  -5  479.85   36.40
   2   9   5  530.85   32.70
  -3  -9  -5  171.88   20.60
   3  -9   5  177.38   25.60
  -3  -9  -5  207.98   24.50
  -3  -9  -5  177.88   16.30
  -3  -9  -5  161.88   23.30
   3  -9   5  178.58   26.70
   3   9   5  176.78   20.70
  -3   9  -5  168.28   26.50
  -3   9  -5  162.58   21.20
  -4  -9  -5   -1.60    7.20
  -4  -9  -5   10.70   14.10
  -4  -9  -5  -33.30   15.70
  -4  -9  -5   27.70   14.80
   4  -9   5    4.00   21.10
  -4   9  -5    6.90   15.50
  -4   9  -5   -9.00   18.50
   5  -9   5  444.66   56.39
   5  -9   5  477.25   50.79
  -5  -9  -5  423.06   41.40
  -5  -9  -5  467.45   26.10
  -5   9  -5  490.85   45.90
   6  -9   5  603.64   58.39
   6  -9   5  592.64   61.29
  -6   9  -5  576.74   57.29
  -9 -10   5   42.40   14.90
   9 -10  -5   36.80   17.30
  -9 -10   5   21.80   21.70
   9 -10  -5   26.60   13.40
  -9  10   5   30.80   17.20
  -9  10   5   16.70   19.10
  -9  10   5    5.30   15.90
   8 -10  -5   19.10   11.40
  -8 -10   5   11.60   19.20
   8 -10  -5   29.20   13.20
  -8 -10   5   11.30   12.40
  -8  10   5  -17.60   11.80
  -8  10   5   18.70   14.00
  -8  10   5   -9.60   12.00
   7 -10  -5   80.79   26.60
   7 -10  -5   46.90   12.40
  -7 -10   5   51.29   15.30
  -7 -10   5   49.50   19.10
   7 -10  -5   37.60   14.50
  -7  10   5   44.20   13.40
  -7  10   5   34.40   13.70
  -7  10   5   28.20    9.80
  -6 -10   5  306.37   28.00
   6 -10  -5  389.26   38.90
  -6 -10   5  330.37   32.50
   6 -10  -5  358.46   25.90
  -6  10   5  347.87   26.40
  -6  10   5  340.47   21.50
   6  10  -5  353.56   17.60
  -6  10   5  340.97   27.40
   5 -10  -5  795.22   49.50
   5 -10  -5  823.12   43.50
  -5 -10   5  867.91   50.69
  -5 -10   5  826.02   50.49
  -5 -10   5  821.82   46.20
  -5  10   5  771.52   36.20
  -5  10   5  797.62   42.80
   5  10  -5  826.02   37.00
   5  10  -5  772.22   46.50
  -5  10   5  780.72   41.90
   4 -10  -5   62.69   15.60
   4 -10  -5  102.29   19.40
   4 -10  -5   70.29   13.20
  -4 -10   5   46.40   15.40
  -4 -10   5   65.69   15.50
  -4 -10   5   58.29   13.00
   4  10  -5   48.00   12.40
  -4  10   5   57.29    9.40
  -4  10   5   52.79   10.20
   4  10  -5   49.30   10.80
   4  10  -5   59.49    9.10
  -3 -10   5 1202.28   59.79
   3 -10  -5 1170.68   57.79
  -3 -10   5 1166.08   59.39
   3 -10  -5 1187.98   62.59
  -3 -10   5 1075.29   60.79
   3 -10  -5 1243.18   59.09
  -3  10   5 1093.09   52.39
  -3  10   5 1104.79   50.89
  -3  10   5 1209.28   52.89
   3  10  -5 1226.48   52.59
   3  10  -5 1133.69   54.49
   3  10  -5 1054.19   57.69
   2 -10  -5   21.50   11.50
  -2 -10   5   30.00   11.10
  -2 -10   5   30.70   13.00
  -2 -10   5   65.09   13.50
   2 -10  -5   13.80   12.30
   2 -10  -5   48.40   10.60
  -2  10   5   32.90    6.80
   2  10  -5   32.90   11.20
   2  10  -5   40.20    8.90
  -2  10   5   41.50    7.00
   2  10  -5   48.80   10.50
   1 -10  -5   43.50   15.60
  -1 -10   5   57.19   14.80
   1 -10  -5   56.39   13.70
  -1 -10   5   44.00   12.40
  -1 -10   5   46.60   14.30
   1 -10  -5   27.00    9.20
   1  10  -5   42.50   11.90
  -1  10   5   56.99    8.30
   1  10  -5   29.30   10.20
   1  10  -5   39.90   10.10
   0 -10   5   84.19   13.80
   0 -10   5   64.79   14.90
   0 -10  -5   40.80   14.20
   0 -10  -5   93.99   14.00
   0 -10   5   34.40   13.40
   0 -10  -5   61.69   13.50
   0 -10   5   74.29   16.60
   0  10  -5   57.99   11.80
   0  10  -5   95.39   12.70
   0  10  -5   63.49   14.60
   0  10   5   64.49    7.50
  -1 -10  -5  216.28   12.40
  -1 -10  -5  199.48   16.30
  -1 -10  -5  166.28   17.10
   1 -10   5  195.18   29.30
  -1 -10  -5  166.58   22.40
   1 -10   5  147.59   22.10
   1 -10   5  217.88   29.20
  -1  10  -5  230.98   24.40
  -1  10  -5  198.68   24.60
  -1  10  -5  187.68   20.60
  -1  10  -5  222.28   22.40
  -2 -10  -5    3.40   12.80
  -2 -10  -5   23.10    8.20
   2 -10   5   17.40   16.60
   2 -10   5    3.00   15.70
  -2 -10  -5   20.20   10.90
   2 -10   5   37.20   14.40
  -2 -10  -5   11.00    7.80
  -2  10  -5   13.20   12.60
  -2  10  -5   29.40   14.40
   3 -10   5  158.98   28.00
  -3 -10  -5  124.19   17.60
   3 -10   5  136.99   26.80
  -3 -10  -5   93.89   13.90
  -3 -10  -5  111.29   15.20
  -3  10  -5  118.89   23.60
  -3  10  -5   97.89   18.90
   4 -10   5  -13.50   24.10
  -4 -10  -5    9.20    7.30
   4 -10   5   -3.60   20.10
  -4 -10  -5    5.10   15.20
  -4 -10  -5   -3.60   12.80
  -4 -10  -5   -0.40   19.40
  -4  10  -5  -25.50   19.60
  -4  10  -5   14.50   16.20
  -5 -10  -5   44.00   19.80
   5 -10   5   28.90   29.50
   5 -10   5   34.80   26.60
  -5  10  -5   74.29   24.00
   9 -11  -5   27.90   13.80
   9 -11  -5   38.10   19.60
  -9 -11   5   26.00   23.50
  -9 -11   5    9.40   14.60
  -9  11   5   16.90   17.80
  -9  11   5    8.50   16.60
  -9  11   5  -15.10   17.90
   8 -11  -5  142.79   19.90
   8 -11  -5  210.48   26.30
  -8 -11   5  135.09   26.50
  -8 -11   5  159.38   24.60
  -8  11   5  154.38   19.50
  -8  11   5  168.68   22.00
  -8  11   5  158.18   23.80
  -7 -11   5   33.50   20.20
   7 -11  -5   48.40   13.00
  -7 -11   5   43.60   14.80
   7 -11  -5   77.09   28.80
   7 -11  -5   45.60   14.30
  -7  11   5   63.59   26.80
  -7  11   5   48.60   14.30
  -7  11   5   39.30   11.40
  -6 -11   5  141.09   23.20
   6 -11  -5  140.89   23.10
   6 -11  -5  136.79   26.50
  -6 -11   5  135.19   18.50
  -6  11   5  163.18   20.10
  -6  11   5  149.69   21.40
  -6  11   5  163.08   15.50
  -5 -11   5  475.05   34.80
   5 -11  -5  526.05   35.30
  -5 -11   5  544.65   39.90
   5 -11  -5  554.24   41.90
   5  11  -5  508.65   24.90
  -5  11   5  503.65   31.00
   5  11  -5  494.85   36.70
  -5  11   5  502.55   24.70
  -5  11   5  533.55   31.70
  -4 -11   5  720.93   43.20
  -4 -11   5  726.53   46.90
   4 -11  -5  759.32   43.70
  -4 -11   5  672.63   44.90
   4 -11  -5  676.13   51.29
  -4 -11   5  781.42   47.20
   4 -11  -5  740.03   45.80
  -4  11   5  707.43   37.90
  -4  11   5  752.42   37.50
   4  11  -5  716.13   43.50
  -4  11   5  727.03   37.60
   3 -11  -5  375.36   35.90
  -3 -11   5  391.16   32.70
  -3 -11   5  401.56   30.80
   3 -11  -5  352.96   29.10
  -3 -11   5  352.76   32.30
   3 -11  -5  430.46   31.60
  -3  11   5  379.36   22.70
   3  11  -5  379.76   30.10
  -3  11   5  376.56   22.40
   3  11  -5  398.76   22.50
  -3  11   5  370.36   22.70
   3  11  -5  332.17   25.10
   2 -11  -5  -10.90   12.80
  -2 -11   5   12.60   11.60
   2 -11  -5   17.20   12.20
  -2 -11   5   -1.10   12.80
   2 -11  -5    0.80    8.40
  -2 -11   5  -14.70   12.30
  -2  11   5    5.50    5.10
   2  11  -5    6.80    7.10
  -2  11   5    9.00    4.50
  -2  11   5    0.20    5.20
   2  11  -5    3.90   10.00
  -1 -11   5   98.39   17.20
   1 -11  -5  132.49   17.70
   1 -11  -5  103.19   18.80
  -1 -11   5   98.29   18.00
  -1 -11   5  117.59   19.20
  -1 -11   5   99.19   14.80
   1 -11  -5   97.99   13.80
   1  11  -5  105.79   17.30
  -1  11   5  118.99   11.80
  -1  11   5  109.99   10.00
   1  11  -5  123.09   19.20
   1  11  -5  110.59   13.40
   0 -11   5    8.10   13.40
   0 -11  -5    1.70   10.60
   0 -11  -5   12.90    8.10
   0 -11   5   26.80   13.90
   0 -11   5   11.90   13.30
   0  11  -5   29.70   12.10
   0  11  -5    1.70    8.90
   0  11  -5   19.70   11.10
  -1 -11  -5  177.58   18.30
   1 -11   5  167.68   25.80
  -1 -11  -5  195.48   24.10
   1 -11   5  197.58   28.20
  -1  11  -5  177.68   24.80
  -1  11  -5  141.79   22.70
  -2 -11  -5  249.88   20.60
  -2 -11  -5  187.48   27.30
   2 -11   5  283.97   29.30
  -2 -11  -5  277.37   24.10
   2 -11   5  246.38   36.50
  -2 -11  -5  300.57   19.00
   2 -11   5  304.77   36.90
  -2  11  -5  253.47   29.10
  -2  11  -5  277.77   30.10
   3 -11   5   42.10   22.80
  -3 -11  -5   38.20   15.40
  -3 -11  -5   45.60   11.80
  -3 -11  -5   70.29   16.60
   3 -11   5   44.30   22.10
  -3 -11  -5   54.09    9.40
  -3  11  -5   69.89   22.20
  -3  11  -5   61.49   19.00
   4 -11   5    6.80   24.00
  -4 -11  -5   -2.30    6.40
   4 -11   5  -17.60   25.40
  -4 -11  -5   -4.20   14.10
  -4 -11  -5    2.70   25.20
  -4  11  -5   -5.80   18.30
   5 -11   5   79.39   30.80
   5 -11   5   75.09   37.20
  -5 -11  -5    6.30   21.30
  -5  11  -5   70.89   26.20
  -9 -12   5  350.26   34.40
  -9 -12   5  386.16   49.10
   9 -12  -5  296.07   33.70
  -9  12   5  352.06   37.70
  -9  12   5  291.37   40.80
  -9  12   5  392.86   38.70
  -8 -12   5   87.79   25.70
   8 -12  -5   64.19   16.90
  -8 -12   5  102.99   18.20
   8 -12  -5   57.49   15.20
  -8  12   5   52.19   17.30
  -8  12   5   63.09   16.60
  -8  12   5   69.79   17.90
   7 -12  -5  158.98   34.80
  -7 -12   5  200.28   25.80
  -7 -12   5  139.29   27.60
   7 -12  -5  160.68   23.80
   7 -12  -5  252.87   30.20
   7 -12  -5  176.98   22.10
  -7  12   5  172.98   20.20
  -7  12   5  210.58   26.80
  -7  12   5  223.48   25.40
  -6 -12   5  568.94   44.30
   6 -12  -5  483.25   49.80
   6 -12  -5  476.95   32.90
   6 -12  -5  538.35   38.50
  -6 -12   5  535.35   40.40
  -6  12   5  550.24   28.20
  -6  12   5  555.54   33.90
  -6  12   5  493.55   34.40
   6  12  -5  518.45   40.30
   5 -12  -5  200.18   27.60
   5 -12  -5  255.57   28.90
  -5 -12   5  180.88   23.90
  -5 -12   5  183.28   25.80
  -5  12   5  192.38   11.90
  -5  12   5  192.18   20.00
   5  12  -5  154.98   25.40
   5  12  -5  189.28   12.60
  -5  12   5  179.68   20.80
   4 -12  -5  434.06   36.80
  -4 -12   5  421.46   37.20
   4 -12  -5  504.05   36.50
  -4 -12   5  392.66   31.60
  -4  12   5  409.26   26.30
   4  12  -5  439.36   22.60
  -4  12   5  392.66   26.80
  -4  12   5  424.96   25.80
   4  12  -5  414.66   32.90
   3 -12  -5 1226.78   65.09
  -3 -12   5 1486.35   88.49
   3 -12  -5 1175.68   62.99
   3 -12  -5 1240.68   69.89
  -3 -12   5 1245.58   64.49
  -3 -12   5 1192.28   66.19
  -3  12   5 1236.18   55.69
  -3  12   5 1209.98   55.09
   3  12  -5 1209.38   63.89
   3  12  -5 1231.38   54.59
  -3  12   5 1212.78   55.99
  -2 -12   5  163.68   22.90
   2 -12  -5  222.98   28.50
  -2 -12   5  176.58   27.60
   2 -12  -5  199.98   22.60
   2 -12  -5  187.18   30.00
  -2 -12   5  161.38   22.80
  -2  12   5  195.58   12.80
  -2  12   5  184.58   16.10
  -2  12   5  170.68   14.00
   2  12  -5  222.68   24.20
   2  12  -5  199.38   16.70
   2  12  -5  145.39   22.70
  -1 -12   5   21.40   15.00
   1 -12  -5   -3.90   14.00
   1 -12  -5    6.80    8.90
  -1 -12   5   17.40   12.90
   1  12  -5   -0.50   10.60
  -1  12   5    3.40    6.60
   1  12  -5   -0.80   11.20
   1  12  -5    9.80    8.00
  -1  12   5   -8.20    4.80
   0 -12   5  281.27   32.70
   0 -12  -5  276.77   23.20
   0 -12   5  300.37   35.10
   0 -12  -5  346.17   29.50
   0  12  -5  291.27   29.00
   0  12   5  320.27   14.70
   0  12  -5  294.17   23.70
   0  12  -5  269.37   26.00
  -1 -12  -5 1092.29   54.29
   1 -12   5 1075.69   63.79
   1 -12   5  952.60   61.79
  -1 -12  -5  985.20   49.20
   1 -12   5 1018.90   54.29
  -1  12  -5 1006.00   57.89
  -2 -12  -5   18.50    9.80
  -2 -12  -5   26.60   15.30
   2 -12   5   25.90   16.70
  -2 -12  -5   17.30   11.70
   2 -12   5   12.00   18.30
   2 -12   5    6.60   18.30
  -2 -12  -5   22.10    7.20
  -2  12  -5   22.10   17.10
  -2  12  -5    9.80   15.50
  -3 -12  -5  402.36   33.50
  -3 -12  -5  411.26   22.90
   3 -12   5  311.67   47.60
  -3 -12  -5  391.46   27.40
   3 -12   5  420.06   49.00
  -3  12  -5  447.96   41.10
  -4 -12  -5  271.07   30.20
   4 -12   5  364.36   47.10
  -4 -12  -5  308.47   17.10
   4 -12   5  314.57   47.60
  -4  12  -5  261.37   40.50
   5 -12   5  178.88   42.40
   5 -12   5  208.28   39.30
  -5 -12  -5  144.19   26.30
  -5  12  -5  172.68   33.50
   8 -13  -5    7.90   13.40
  -8 -13   5    7.40   15.50
  -8 -13   5   31.70   24.00
   8 -13  -5   25.60   18.50
  -8  13   5   25.70   16.20
  -8  13   5   27.80   14.70
  -8  13   5   27.40   17.50
   7 -13  -5  102.99   17.50
  -7 -13   5  106.39   18.40
   7 -13  -5  101.89   16.00
  -7 -13   5   83.79   24.80
  -7  13   5  116.49   18.40
  -7  13   5   86.59   16.90
  -7  13   5  124.29   15.20
   6 -13  -5   -7.90   17.80
   6 -13  -5   35.50   25.00
  -6 -13   5   -3.40   19.80
  -6 -13   5  -11.60   11.60
   6 -13  -5   -9.50   10.10
  -6  13   5   13.30   11.40
  -6  13   5   -2.20    8.10
   6  13  -5   -0.10   15.70
  -6  13   5    5.30   10.90
  -5 -13   5  309.87   35.60
   5 -13  -5  259.47   33.10
   5 -13  -5  251.47   36.30
  -5 -13   5  293.37   28.60
   5  13  -5  267.67   31.00
  -5  13   5  343.17   25.70
  -5  13   5  371.56   28.60
   5  13  -5  335.77   15.80
  -5  13   5  343.07   25.20
   4 -13  -5    1.00   14.40
   4 -13  -5   25.80   17.90
  -4 -13   5    9.20   15.80
  -4 -13   5   -0.30   11.70
  -4  13   5   -1.60    7.40
  -4  13   5    1.00    7.60
   4  13  -5   -3.40    6.00
  -4  13   5   -7.30    9.20
   4  13  -5    4.80   13.00
  -3 -13   5  160.08   24.00
   3 -13  -5  183.08   25.90
   3 -13  -5  142.99   22.80
  -3 -13   5  160.88   22.20
  -3  13   5  180.78   17.80
  -3  13   5  156.28   15.10
   3  13  -5  164.38   24.80
   3  13  -5  165.78   15.00
   2 -13  -5   10.60   19.20
  -2 -13   5    1.50   13.80
  -2 -13   5    0.40   12.50
   2 -13  -5   16.60   11.40
   2  13  -5   18.20    7.50
   2  13  -5    4.50   11.30
  -2  13   5    4.50    7.50
  -2  13   5   -8.30    6.00
  -2  13   5    5.40    4.60
  -1 -13   5   17.30   13.30
   1 -13  -5    5.50   15.10
  -1 -13   5   -6.90   15.60
   1 -13  -5    1.40    9.70
   1  13  -5    5.60    8.80
   1  13  -5   14.70   13.40
  -1  13   5   19.30    6.00
  -1  13   5    4.40    7.80
   0 -13   5  207.48   30.50
   0 -13  -5  165.68   22.30
   0 -13  -5  189.68   21.00
   0 -13   5  165.68   25.90
   0  13  -5  185.58   27.30
   0  13  -5  243.48   22.50
  -1 -13  -5    3.00    8.40
   1 -13   5   -4.60   17.00
   1 -13   5   18.00   18.00
  -1 -13  -5   19.40   14.30
   1 -13   5  -26.60   14.50
  -1  13  -5    5.30   14.10
   2 -13   5   34.90   22.40
  -2 -13  -5   52.69    6.80
   2 -13   5   38.70   24.10
  -2 -13  -5  100.89   18.60
  -2 -13  -5   65.19   11.30
   2 -13   5   27.60   18.80
  -2 -13  -5   64.59   16.10
  -2  13  -5   67.49   30.50
  -3 -13  -5  -12.80   21.60
   3 -13   5   -7.10   21.50
   3 -13   5   -9.70   22.10
  -3 -13  -5    1.50   10.20
  -3 -13  -5   10.80    7.10
  -3  13  -5   17.90   19.20
   4 -13   5   63.39   32.50
  -4 -13  -5   70.09   17.60
   4 -13   5   14.20   29.50
  -4  13  -5   87.69   26.20
   8 -14  -5   54.29   15.50
  -8 -14   5  103.59   31.00
   8 -14  -5   92.49   20.60
  -8 -14   5   52.89   18.70
  -8  14   5   52.79   22.00
  -8  14   5   88.39   19.00
  -8  14   5   97.39   21.20
   7 -14  -5  139.39   19.60
  -7 -14   5  173.38   30.50
  -7 -14   5  138.99   20.40
   7 -14  -5  170.18   25.50
  -7  14   5  144.89   17.10
  -7  14   5  108.09   18.50
  -7  14   5  120.89   19.30
   6 -14  -5  248.78   38.30
   6 -14  -5  243.98   25.50
   6 -14  -5  208.58   38.60
  -6 -14   5  259.57   39.80
  -6 -14   5  243.28   28.20
  -6  14   5  232.08   28.90
   6  14  -5  223.68   33.50
  -6  14   5  223.68   18.20
  -6  14   5  250.67   26.70
  -5 -14   5    5.20   18.40
   5 -14  -5   25.50   23.00
   5 -14  -5   35.80   10.80
  -5 -14   5   30.80   14.60
  -5  14   5   31.40   13.50
  -5  14   5   25.00   11.20
  -5  14   5   27.20   12.30
  -4 -14   5   83.09   17.90
   4 -14  -5   80.99   22.50
  -4 -14   5   75.79   21.00
   4  14  -5   89.79   11.10
   4  14  -5   85.99   19.20
  -4  14   5   60.89   13.20
  -4  14   5   73.69   12.60
  -4  14   5   71.39   11.90
   3 -14  -5  258.37   32.50
  -3 -14   5  309.87   36.80
  -3 -14   5  320.37   32.70
  -3  14   5  341.67   24.90
  -3  14   5  325.67   22.30
  -3  14   5  329.17   20.60
   3  14  -5  353.26   21.60
   3  14  -5  327.07   32.90
  -2 -14   5  205.18   29.20
  -2 -14   5  153.88   23.90
   2 -14  -5  125.79   27.50
   2 -14  -5  188.88   25.00
  -2  14   5  159.78   18.80
   2  14  -5  198.48   18.50
  -2  14   5  151.48   15.80
   2  14  -5  158.38   25.30
   1 -14  -5    5.20   11.00
   1 -14  -5  -30.90   18.30
  -1 -14   5   -7.40   16.30
  -1 -14   5   12.70   15.60
  -1  14   5   -4.70    8.50
   1  14  -5    1.60   12.80
   1  14  -5    5.20   10.40
   0 -14   5  406.46   41.20
   0 -14  -5  432.16   37.50
   0 -14   5  341.27   42.80
   0 -14  -5  372.96   41.10
   0  14  -5  410.86   32.90
   0  14  -5  412.66   37.10
   1 -14   5  448.26   46.00
  -1 -14  -5  425.76   37.60
  -1 -14  -5  442.76   29.40
   1 -14   5  476.25   38.20
   1 -14   5  388.26   48.90
  -1  14  -5  450.45   40.90
  -2 -14  -5   10.70   10.00
  -2 -14  -5   20.50   18.70
   2 -14   5   51.09   26.20
   2 -14   5   12.10   23.20
  -2  14  -5   28.20   18.70
   3 -14   5  149.99   36.10
  -3 -14  -5  153.88   13.20
   3 -14   5  160.98   34.30
  -3 -14  -5  193.48   19.70
  -3  14  -5  149.79   30.10
  -3  14  -5  121.29   24.60
   4 -14   5  409.26   62.69
  -4 -14  -5  466.15   40.00
   4 -14   5  440.36   66.19
  -4  14  -5  516.85   50.59
   7 -15  -5  129.59   21.50
  -7 -15   5  171.68   30.50
   7 -15  -5  120.69   19.90
  -7 -15   5  150.28   22.40
  -7  15   5  144.89   22.70
  -7  15   5  139.09   23.30
  -6 -15   5   22.60   15.80
   6 -15  -5   22.90   13.40
   6 -15  -5   65.89   15.60
  -6 -15   5   77.59   24.90
  -6  15   5   91.39   21.20
  -6  15   5   35.10   14.90
   6  15  -5   27.10   19.40
  -6  15   5    5.10   14.60
   5 -15  -5  383.16   53.09
  -5 -15   5  419.06   37.20
   5 -15  -5  440.26   30.70
  -5 -15   5  464.45   46.90
   5 -15  -5  362.16   32.20
  -5  15   5  486.55   31.60
   5  15  -5  468.55   40.10
  -5  15   5  434.66   32.60
  -5  15   5  471.35   36.80
  -4 -15   5 1176.38   65.89
  -4 -15   5 1218.28   70.59
   4 -15  -5 1097.69   71.49
  -4  15   5 1246.48   57.59
  -4  15   5 1193.08   60.39
   4  15  -5 1239.48   51.09
   4  15  -5 1095.89   73.89
  -4  15   5 1201.08   55.99
  -3 -15   5   68.79   28.20
   3 -15  -5   69.99   19.60
  -3 -15   5   75.09   20.90
   3  15  -5   71.09   18.20
  -3  15   5   61.49    9.40
   3  15  -5   59.49   10.40
  -3  15   5   64.49   13.50
  -3  15   5   63.89   10.90
  -2 -15   5  245.28   36.10
   2 -15  -5  197.18   27.90
  -2 -15   5  170.78   25.40
   2  15  -5  151.88   19.40
  -2  15   5  180.88   16.90
  -2  15   5  152.18   20.90
   2  15  -5  174.38   28.40
  -1 -15   5   60.49   19.50
   1 -15  -5   52.69   24.70
  -1 -15   5   13.90   20.00
   1 -15  -5   55.79   14.90
   1  15  -5   44.70   14.00
  -1  15   5   41.60   12.00
   1  15  -5   55.89   17.70
   0 -15   5  -30.90   16.50
   0 -15   5   -9.90   15.70
   0 -15  -5   17.40   11.70
   0 -15  -5   11.90   19.60
  -1 -15  -5   97.29   15.20
   1 -15   5  118.89   29.70
   1 -15   5  111.09   29.00
  -1 -15  -5  121.79   22.70
   1 -15   5   98.29   23.30
  -1  15  -5  113.79   25.40
  -2 -15  -5  253.57   22.10
   2 -15   5  252.07   38.10
   2 -15   5  290.97   40.80
  -2  15  -5  241.68   39.80
   3 -15   5   35.00   28.20
   3 -15   5  -40.10   40.20
  -3  15  -5   46.00   24.20
   7 -16  -5  104.89   22.30
  -7 -16   5  129.19   32.50
  -7 -16   5  116.99   22.30
   7 -16  -5   99.39   19.20
  -7  16   5  134.89   23.60
  -6 -16   5   17.60   16.30
   6 -16  -5    7.70   12.60
   6 -16  -5   18.80   13.50
  -6 -16   5    6.10   23.70
  -6  16   5   16.50   20.10
   6  16  -5  -10.70   19.10
  -6  16   5   21.10   16.10
   5 -16  -5   34.00   12.90
   5 -16  -5   36.00   12.10
  -5 -16   5    0.60   15.00
  -5 -16   5   61.69   24.80
  -5  16   5   18.20   16.20
   5  16  -5   17.80   17.90
  -5  16   5   11.50   15.10
  -5  16   5   48.10   13.00
  -4 -16   5   34.10   22.00
  -4 -16   5    5.10   16.90
   4 -16  -5   66.99   23.70
   4 -16  -5   26.00   10.50
   4 -16  -5    8.80   10.80
  -4  16   5   42.80   11.00
  -4  16   5   22.80   11.70
  -4  16   5    8.60   14.30
   4  16  -5   18.10   15.70
   3 -16  -5  149.88   25.30
  -3 -16   5  187.68   29.70
  -3 -16   5  184.88   27.10
   3  16  -5  197.48   31.30
  -3  16   5  157.08   20.30
  -3  16   5  152.68   24.00
  -2 -16   5  139.09   25.20
   2 -16  -5  121.99   22.20
  -2 -16   5  137.09   25.70
   2  16  -5   97.69   21.40
  -2  16   5  118.59   18.10
   2  16  -5  168.58   20.40
  -1 -16   5    4.10   17.60
   1 -16  -5    1.40   14.10
   1  16  -5    0.70   16.00
   1  16  -5    5.40   13.00
  -1  16   5    3.50   11.40
   0 -16   5   27.80   23.00
   0 -16  -5   21.60   26.00
   0 -16  -5   32.90   14.90
   0 -16   5   30.00   24.70
   0 -16   5   31.30   20.00
   0  16  -5   26.40   18.80
   1 -16   5   48.60   24.60
   1 -16   5   15.10   26.10
  -1 -16  -5   45.70   13.80
  -1  16  -5   52.29   22.70
  -2 -16  -5   17.40    6.60
   2 -16   5  -10.90   27.10
   2 -16   5   12.80   25.90
  -2 -16  -5   16.10   10.70
  -2  16  -5   -9.90   21.90
   3 -16   5   29.30   29.80
   3 -16   5  -39.70   33.70
  -3  16  -5   26.40   28.30
  -6 -17   5   19.10   28.00
   6 -17  -5   -7.30   14.30
  -6 -17   5   -5.00   17.50
   6 -17  -5   -3.00   13.60
  -6  17   5   42.80   23.00
   6  17  -5    6.50   21.50
  -6  17   5   20.00   15.30
  -5 -17   5  373.06   50.19
   5 -17  -5  341.17   31.90
  -5 -17   5  422.36   39.70
   5 -17  -5  373.86   31.80
  -5  17   5  441.36   32.00
  -5  17   5  370.46   39.10
   5  17  -5  344.87   41.40
  -4 -17   5  583.54   54.79
  -4 -17   5  671.53   47.80
   4 -17  -5  544.05   37.10
   4 -17  -5  523.35   36.20
  -4  17   5  592.24   40.80
   4  17  -5  582.64   48.60
  -4  17   5  526.95   32.40
  -3 -17   5   32.20   19.30
  -3 -17   5    6.10   22.60
   3 -17  -5   26.20   11.60
   3  17  -5   18.50   18.50
  -3  17   5    2.90   14.00
   2 -17  -5  386.26   26.50
  -2 -17   5  493.45   45.00
   2 -17  -5  463.75   39.70
   2  17  -5  346.77   41.10
  -2  17   5  353.96   32.50
  -1 -17   5  580.24   55.99
  -1 -17   5  560.14   49.00
   1 -17  -5  564.04   41.30
   1  17  -5  536.45   47.90
  -1  17   5  514.85   37.30
   0 -17   5  152.18   33.10
   0 -17   5  111.99   29.50
   0 -17  -5  240.68   29.90
   0 -17  -5  168.48   16.90
   0  17  -5  136.89   25.80
  -1 -17  -5   23.60   13.90
  -1 -17  -5   20.20    8.20
   1 -17   5   32.70   26.80
   1 -17   5   10.80   28.40
  -1  17  -5   15.50   23.10
  -2 -17  -5  201.38   21.80
   2 -17   5  195.68   42.30
  -2 -17  -5  219.18   15.60
   2 -17   5  268.77   41.80
  -2  17  -5  233.88   36.30
   5 -18  -5   18.70   14.20
  -5 -18   5   19.60   18.50
   5 -18  -5  -17.30   13.40
  -5  18   5  -18.90   19.90
  -5  18   5   -6.00   14.00
   5  18  -5  -22.90   20.80
   4 -18  -5  216.68   26.90
   4 -18  -5  250.17   26.20
  -4 -18   5  222.98   30.10
  -4 -18   5  230.38   59.79
   4  18  -5  188.68   33.40
  -4  18   5  261.47   35.20
  -3 -18   5   97.29   27.70
  -3 -18   5   97.99   25.10
   3 -18  -5   87.59   15.60
   3  18  -5   79.09   24.60
  -3  18   5  110.39   20.90
  -2 -18   5   52.99   26.50
   2 -18  -5   45.70   10.90
  -2 -18   5   40.60   21.80
   2  18  -5   55.39   22.50
  -2  18   5   37.90   17.20
  -1 -18   5    8.50   26.50
   1 -18  -5    6.40    8.80
  -1 -18   5    1.70   23.10
  -1  18   5  -16.00   15.60
   1  18  -5   -6.50   19.60
   0 -18  -5   56.99   20.50
   0 -18   5   80.89   31.90
   0 -18   5   51.29   27.20
   0 -18  -5   90.49   12.40
   0  18  -5  111.39   25.80
  -1 -18  -5   76.79   11.00
   1 -18   5   68.49   35.30
   1 -18   5   36.60   30.30
  -1 -18  -5   81.19   16.90
  -1  18  -5   63.69   27.50
  -4 -19   5   18.70   29.10
   4 -19  -5   24.90   15.40
   4 -19  -5   24.20   15.70
  -4 -19   5   -5.10   20.50
  -4  19   5   22.80   20.80
   4  19  -5  -29.30   22.10
  -3 -19   5   25.80   22.80
  -3 -19   5  -17.50   27.80
   3 -19  -5   23.60   13.10
   3 -19  -5   52.29   15.20
  -3  19   5  -12.30   19.30
   3  19  -5   25.60   22.90
   2 -19  -5   48.00   12.50
  -2 -19   5   46.70   24.10
   2 -19  -5   35.20   14.80
  -2 -19   5   18.30   27.90
   2  19  -5   75.39   26.40
  -2  19   5   46.00   19.30
  -1 -19   5  245.68   40.50
   1 -19  -5  202.28   23.40
  -1 -19   5  296.67   46.30
   1 -19  -5  222.48   27.20
  -1  19   5  222.08   35.90
   1  19  -5  284.07   44.40
   0 -19   5  163.98   34.70
   0 -19  -5  192.58   20.70
   0 -19   5  158.08   40.90
   0  19  -5  225.08   36.70
   2 -20  -5   72.49   14.80
  10   0  -6  312.27   26.00
 -10   0   6  382.96   37.30
 -10   0   6  327.87   33.30
 -10   0   6  285.27   37.80
   9   0  -6  -28.50   22.80
   9   0  -6    0.00    8.90
  -9   0   6   24.70   30.30
  -8   0   6  729.23   43.50
  -8   0   6  795.82   49.10
  -8   0   6  698.83   49.50
   8   0  -6  788.12   53.19
  -7   0   6  971.20   55.09
  -7   0   6  958.90   51.49
   7   0  -6  934.51   55.69
  -7   0   6 1015.00   51.59
   7   0  -6  972.80   57.29
  -6   0   6   46.80   11.80
  -6   0   6   58.49    7.40
  -6   0   6   58.39   14.60
   6   0  -6   37.00   14.50
   6   0  -6   74.49   17.40
  -6   0   6   45.70   10.50
  -5   0   6  163.48   13.70
   5   0  -6  185.28   21.70
  -5   0   6  155.88   20.10
  -5   0   6  182.78   15.90
   5   0  -6  237.58   24.20
  -5   0   6  162.18   19.30
   4   0  -6 1250.87   62.39
  -4   0   6 1348.57   54.69
  -4   0   6 1198.68   60.19
  -4   0   6 1264.07   62.29
  -4   0   6 1193.98   56.09
   4   0  -6 1184.38   60.69
  -3   0   6 1663.03   77.89
  -3   0   6 1641.94   73.49
   3   0  -6 1644.84   77.79
  -3   0   6 1675.83   73.29
  -3   0   6 1628.94   76.09
   2   0  -6  127.99   16.60
   2   0  -6  178.48   20.20
  -2   0   6  144.59   15.80
  -2   0   6  122.09   16.40
  -2   0   6  129.09   18.10
  -2   0   6  113.79   13.80
   1   0  -6 1252.57   50.79
  -1   0   6 1151.58   59.19
  -1   0   6 1263.47   55.79
  -1   0   6 1124.29   58.89
  -1   0   6 1194.48   58.39
   1   0  -6 1327.17   60.99
   1   0  -6 1171.48   58.09
   0   0   6  287.47   22.70
   0   0   6  270.17   21.90
   0   0  -6  285.17   22.00
   0   0   6  248.38   22.80
   0   0  -6  267.67   16.10
   0   0  -6  285.17   24.90
   0   0  -6  268.87   21.00
   0   0   6  267.67   19.50
  -1   0  -6   22.10   11.70
   1   0   6   27.30    9.50
  -1   0  -6   10.00    8.10
   1   0   6   11.70    8.00
   1   0   6    1.50    8.90
  -1   0  -6   15.60    8.80
   1   0   6    0.80    5.80
   1   0   6    2.30    8.30
   2   0   6  409.76   27.40
  -2   0  -6  393.06   26.90
   2   0   6  378.26   27.80
   2   0   6  361.86   28.20
   2   0   6  428.36   30.90
  -2   0  -6  379.26   29.80
  -2   0  -6  457.85   33.00
   2   0   6  389.86   23.10
   3   0   6  823.42   47.80
   3   0   6  724.13   45.70
  -3   0  -6  742.33   46.70
   3   0   6  747.43   37.60
   3   0   6  784.42   42.00
  -3   0  -6  797.92   42.70
  -4   0  -6    0.50   11.70
  -4   0  -6   22.30   16.80
   4   0   6   32.20   11.40
   4   0   6    9.30    8.40
   4   0   6  -15.50   14.00
   4   0   6   16.30   16.40
  -5   0  -6  433.76   48.20
   5   0   6  517.95   42.90
   6   0   6  936.81   65.59
  -6   0  -6  997.80   71.49
  10  -1  -6   59.69   16.20
 -10  -1   6   64.49   26.00
 -10  -1   6   83.49   19.10
 -10  -1   6   63.99   21.30
 -10   1   6   76.79   20.80
 -10   1   6   56.59   19.70
  10   1  -6   55.19   12.90
 -10   1   6   91.09   24.00
   9  -1  -6   49.99   11.90
  -9  -1   6   69.59   15.50
  -9  -1   6   22.50   26.90
  -9   1   6   40.10   17.40
   9   1  -6   32.00   10.00
  -9   1   6   40.50   15.00
   9   1  -6  -11.30   21.40
  -9   1   6   22.30   18.30
  -8  -1   6    4.00   10.90
  -8  -1   6    3.50   14.60
  -8  -1   6  -30.20   16.60
   8  -1  -6  -48.10   21.40
   8   1  -6   16.20   18.00
  -8   1   6   -0.70   12.80
  -8   1   6   11.00   11.50
  -8   1   6   22.40   16.10
  -7  -1   6   49.60   15.00
   7  -1  -6   37.40   16.40
  -7  -1   6   48.00   12.90
   7  -1  -6   25.30   19.00
  -7  -1   6   74.39   14.50
   7   1  -6   31.40   15.70
  -7   1   6   33.20   14.20
   7   1  -6   34.40   16.10
  -7   1   6   56.49   14.60
  -7   1   6   57.99   14.00
  -6  -1   6   41.50   12.80
  -6  -1   6   46.00   13.50
  -6  -1   6   79.29   12.70
   6  -1  -6   33.20   15.80
  -6  -1   6   94.39    9.00
   6  -1  -6   86.89   16.90
   6   1  -6   85.09   17.90
   6   1  -6   60.99   14.70
  -6   1   6   69.09   13.70
  -6   1   6   72.59    7.50
  -6   1   6   71.49   12.10
  -6   1   6   50.89   13.20
  -5  -1   6   72.39   14.40
   5  -1  -6   83.79   14.30
  -5  -1   6   86.89   11.00
  -5  -1   6   60.69   12.70
   5  -1  -6   59.09   15.00
  -5  -1   6   79.09   11.40
   5   1  -6   84.99   16.20
  -5   1   6   86.59   11.80
   5   1  -6   49.70   12.20
  -5   1   6   50.49   12.80
  -5   1   6   90.39   10.10
  -5   1   6   88.29   14.00
  -4  -1   6   75.69   12.70
  -4  -1   6   92.19   15.30
   4  -1  -6   70.69   12.60
   4  -1  -6   67.79   13.40
  -4  -1   6   90.49   12.50
  -4  -1   6  108.79   11.70
  -4   1   6   72.89   14.10
  -4   1   6   67.79   11.60
  -4   1   6   95.09    9.70
   4   1  -6   67.49   12.70
  -4   1   6   84.79   11.60
   4   1  -6  101.09   15.80
   3  -1  -6  229.68   21.30
  -3  -1   6  232.18   22.80
  -3  -1   6  290.77   20.70
   3  -1  -6  276.87   23.80
  -3  -1   6  249.78   18.90
  -3  -1   6  251.97   21.60
  -3   1   6  247.58   21.30
  -3   1   6  253.47   18.90
  -3   1   6  242.98   22.00
  -3   1   6  256.27   18.50
   3   1  -6  204.38   20.10
  -2  -1   6 1521.75   70.89
  -2  -1   6 1563.34   73.79
   2  -1  -6 1605.74   73.89
  -2  -1   6 1635.64   69.59
   2  -1  -6 1524.55   71.49
  -2  -1   6 1510.65   72.39
  -2   1   6 1542.45   67.89
   2   1  -6 1504.35   72.59
   2   1  -6 1536.65   64.39
  -2   1   6 1475.95   69.99
  -2   1   6 1534.75   72.59
  -2   1   6 1586.04   71.69
   2   1  -6 1559.64   71.79
  -1  -1   6  189.98   20.60
  -1  -1   6  198.68   20.10
   1  -1  -6  152.98   17.80
   1  -1  -6  157.58   21.20
  -1  -1   6  207.98   17.50
  -1  -1   6  186.88   18.90
  -1   1   6  182.68   18.00
   1   1  -6  183.18   19.10
  -1   1   6  204.68   16.00
   1   1  -6  221.68   22.60
  -1   1   6  202.98   18.50
  -1   1   6  189.78   19.00
   0  -1  -6   88.59   13.40
   0  -1   6   70.19   13.60
   0  -1  -6   69.49    7.70
   0  -1  -6   61.99   11.00
   0  -1  -6   61.99   13.60
   0  -1   6   61.59   13.40
   0  -1   6   70.89   10.60
   0   1   6  113.09   14.70
   0   1   6   80.29   13.30
   0   1   6   64.29   11.50
   0   1   6   77.29   10.60
   0   1  -6   85.59   13.40
   0   1  -6   72.79    9.80
   0   1  -6   74.79   13.90
   0   1  -6   56.19   11.20
   1  -1   6   -8.00    8.50
  -1  -1  -6    4.00    8.50
   1  -1   6    0.50    8.10
  -1  -1  -6    5.20    8.70
  -1  -1  -6   -4.30   10.90
   1  -1   6   -9.40    6.40
   1  -1   6    3.30    8.80
   1  -1   6    2.70    8.70
  -1   1  -6   -3.50    8.40
  -1   1  -6   -1.70    8.30
   1   1   6   10.30    8.40
   1   1   6    8.60    8.60
  -1   1  -6    2.20   12.30
   1   1   6   -0.70    7.20
   1   1   6   18.80    7.90
  -2  -1  -6   34.20   13.20
   2  -1   6   18.60   10.90
  -2  -1  -6   15.80   10.40
   2  -1   6   16.30    7.80
   2  -1   6    8.50    9.00
  -2  -1  -6    6.60    8.10
   2  -1   6   20.90   12.30
   2  -1   6   19.40   11.70
   2   1   6   26.70   11.50
   2   1   6   30.90   10.40
  -2   1  -6    6.50   10.50
   2   1   6    5.60    9.20
  -2   1  -6   21.00    9.40
   2   1   6    9.90    6.20
  -2   1  -6  -11.10   13.00
  -3  -1  -6  -10.30    9.20
   3  -1   6    7.80   11.90
  -3  -1  -6    6.80   12.10
   3  -1   6    7.30   11.80
   3  -1   6   12.60   12.80
   3  -1   6   20.50    9.30
  -3   1  -6   24.30   13.40
   3   1   6   -5.50    6.70
   3   1   6   25.30   13.30
   3   1   6   -7.80   12.20
   3   1   6    6.80    9.10
   3   1   6   -5.50   10.50
  -3   1  -6  -10.30   10.00
   4  -1   6   62.79   16.80
  -4  -1  -6   81.79   15.70
   4  -1   6   67.69   19.10
   4  -1   6   49.10   15.40
  -4  -1  -6   62.39   19.40
   4   1   6   59.79   18.30
  -4   1  -6   76.09   15.10
   4   1   6   87.49   16.40
  -4   1  -6   98.39   20.10
   5  -1   6   57.79   21.10
   5  -1   6   30.50   13.90
  -5  -1  -6   24.80   20.10
   5   1   6   30.10   18.50
  -5   1  -6   27.00   23.50
  -6  -1  -6  -14.90   27.30
   6  -1   6   28.10   23.60
  -6   1  -6  -17.80   24.80
   6   1   6   -6.00   20.40
 -10  -2   6  120.79   27.40
 -10  -2   6  102.89   21.60
 -10  -2   6   47.60   17.10
  10  -2  -6   90.19   15.60
  10   2  -6   94.79   13.40
 -10   2   6  114.19   25.00
 -10   2   6   91.29   22.10
 -10   2   6   84.69   19.70
  -9  -2   6   96.09   23.50
  -9  -2   6   79.09   17.60
   9  -2  -6   79.79   13.30
  -9   2   6   53.49   15.80
  -9   2   6   59.59   16.50
   9   2  -6   50.89   10.90
  -9   2   6   53.79   21.30
   8  -2  -6  161.88   27.80
  -8  -2   6  225.18   25.60
  -8  -2   6  160.68   23.40
  -8  -2   6  283.37   35.20
   8   2  -6  278.87   32.30
  -8   2   6  274.27   30.60
  -8   2   6  193.28   23.30
  -8   2   6  173.08   22.70
  -8   2   6  205.28   28.50
  -7  -2   6  768.02   49.60
   7  -2  -6  828.12   53.89
  -7  -2   6  840.22   46.60
  -7  -2   6  805.62   46.10
   7  -2  -6  767.42   49.99
  -7   2   6  805.02   45.10
   7   2  -6  807.92   48.10
  -7   2   6  796.12   48.50
  -7   2   6  843.02   44.80
  -6  -2   6   14.20    5.30
  -6  -2   6   20.10   10.40
   6  -2  -6  -13.60   14.20
  -6  -2   6   23.00   12.60
   6  -2  -6   18.20   12.30
  -6  -2   6    8.40    9.30
   6   2  -6   18.90   12.30
   6   2  -6   22.80   13.40
  -6   2   6   -2.70    9.20
  -6   2   6    0.40    8.90
  -6   2   6   16.70    8.10
  -5  -2   6  211.18   18.00
  -5  -2   6  184.38   22.80
  -5  -2   6  161.18   20.30
  -5  -2   6  187.08   15.40
   5  -2  -6  201.18   22.20
   5  -2  -6  224.18   26.90
  -5   2   6  212.08   15.30
   5   2  -6  226.78   25.30
  -5   2   6  189.38   21.00
  -5   2   6  196.28   13.90
  -5   2   6  178.28   19.70
   5   2  -6  197.68   22.00
   4  -2  -6   71.69   17.40
  -4  -2   6   59.59   11.10
  -4  -2   6   66.69   13.70
   4  -2  -6   66.19   12.60
  -4  -2   6   87.19   12.20
  -4  -2   6   99.89   13.00
   4   2  -6   91.59   14.70
  -4   2   6   67.29   11.80
   4   2  -6   75.29   13.60
  -4   2   6   55.69   11.60
  -4   2   6   69.49    8.40
  -4   2   6   88.69   11.40
  -3  -2   6  484.95   28.30
  -3  -2   6  448.66   30.90
   3  -2  -6  476.95   29.90
  -3  -2   6  416.76   26.30
   3  -2  -6  462.75   31.80
  -3  -2   6  424.46   29.50
   3   2  -6  437.86   22.70
  -3   2   6  436.86   28.30
   3   2  -6  435.46   30.50
  -3   2   6  410.86   25.30
  -3   2   6  405.16   28.70
   3   2  -6  470.65   29.30
  -2  -2   6   59.89   11.00
  -2  -2   6   42.60    9.50
   2  -2  -6   70.79   13.60
   2  -2  -6   30.30    9.60
  -2  -2   6   34.20   10.40
  -2  -2   6   51.99   12.30
   2   2  -6   49.60    7.90
  -2   2   6   65.19    9.50
   2   2  -6   54.69   11.50
  -2   2   6   60.99   11.00
   2   2  -6   55.09   13.00
  -2   2   6   45.00   12.80
  -2   2   6   56.79   11.30
  -1  -2   6 1721.53   83.09
  -1  -2   6 1920.81   80.99
  -1  -2   6 1786.42   82.89
  -1  -2   6 1802.52   84.99
   1  -2  -6 1887.41   82.59
   1  -2  -6 1892.61   84.49
  -1   2   6 1814.32   82.29
  -1   2   6 1851.71   78.09
  -1   2   6 1786.82   81.29
  -1   2   6 1827.32   81.99
   1   2  -6 1787.12   82.09
   1   2  -6 1730.73   76.69
   1   2  -6 1874.31   83.69
   0  -2  -6  631.34   34.00
   0  -2   6  595.64   37.40
   0  -2   6  615.64   38.80
   0  -2   6  593.34   37.10
   0  -2  -6  610.94   35.50
   0  -2  -6  615.64   27.50
   0  -2  -6  663.43   39.30
   0  -2   6  630.14   34.70
   0   2  -6  636.54   36.20
   0   2   6  640.24   34.90
   0   2   6  603.24   34.90
   0   2  -6  690.23   37.80
   0   2  -6  614.34   31.50
   0   2   6  659.03   37.00
   0   2   6  654.53   32.30
   0   2  -6  611.14   35.90
   1  -2   6    3.50    7.30
  -1  -2  -6   -1.40    7.50
  -1  -2  -6   21.20   11.70
   1  -2   6   -3.50    8.50
  -1  -2  -6   10.90    8.80
   1  -2   6  -15.50    8.90
   1  -2   6    0.60   10.50
   1   2   6    5.40    7.20
   1   2   6    1.60    8.10
   1   2   6    6.50    5.20
  -1   2  -6    5.30    8.50
  -1   2  -6    6.40   11.80
  -1   2  -6   -3.40    8.70
   1   2   6   -0.20    7.90
  -2  -2  -6  443.86   28.40
   2  -2   6  512.55   32.40
   2  -2   6  433.66   26.60
   2  -2   6  407.26   32.30
   2  -2   6  397.26   30.60
  -2  -2  -6  427.56   30.80
  -2  -2  -6  413.96   33.10
   2  -2   6  447.86   33.50
   2   2   6  435.66   26.40
  -2   2  -6  440.56   31.70
  -2   2  -6  391.16   32.30
   2   2   6  441.06   22.90
   2   2   6  437.76   28.50
  -2   2  -6  431.96   28.90
   2   2   6  440.86   31.80
   2   2   6  441.06   27.80
   3  -2   6  336.27   30.30
  -3  -2  -6  398.16   32.10
   3  -2   6  338.77   31.70
  -3  -2  -6  321.87   33.70
   3  -2   6  387.26   26.20
   3  -2   6  372.56   33.30
  -3  -2  -6  374.66   26.50
   3   2   6  359.36   31.80
   3   2   6  343.97   18.60
   3   2   6  370.26   28.30
   3   2   6  368.06   29.90
  -3   2  -6  396.46   30.20
  -3   2  -6  393.26   33.50
   3   2   6  344.97   20.60
  -4  -2  -6   12.90   11.20
   4  -2   6   -6.80   13.50
  -4  -2  -6   -8.10   15.10
   4  -2   6    3.40   11.80
   4  -2   6   27.30   15.00
   4   2   6   20.30   13.20
  -4   2  -6   12.40   23.20
  -4   2  -6  -18.90   12.50
   5  -2   6   86.09   21.50
  -5  -2  -6   79.19   24.60
   5  -2   6   57.19   17.90
  -5   2  -6  102.59   26.00
   5   2   6   67.99   19.30
   6  -2   6  185.98   31.60
  -6  -2  -6  164.38   35.50
   6   2   6  143.09   27.00
  -6   2  -6  125.79   33.90
 -10  -3   6   26.70   16.90
 -10  -3   6   24.20   23.30
  10  -3  -6   40.90   13.00
 -10  -3   6   55.99   19.60
 -10   3   6   26.30   21.80
 -10   3   6   26.80   17.30
  10   3  -6   23.60    9.90
 -10   3   6   49.60   19.40
  -9  -3   6  279.07   37.00
  -9  -3   6  307.07   29.80
  -9   3   6  336.07   30.20
   9   3  -6  311.27   38.00
   9   3  -6  264.77   21.50
  -9   3   6  347.77   31.00
  -9   3   6  324.77   36.00
  -8  -3   6  261.07   32.10
  -8  -3   6  252.67   28.00
  -8   3   6  224.88   28.00
  -8   3   6  217.68   23.10
  -8   3   6  285.97   26.40
   8   3  -6  306.47   33.70
  -8   3   6  255.07   30.20
   7  -3  -6   97.79   22.50
   7  -3  -6   74.09   23.00
  -7  -3   6   65.59   13.80
  -7  -3   6  100.89   17.90
  -7  -3   6   61.89   16.60
  -7   3   6  126.49   20.40
  -7   3   6   87.59   16.70
  -7   3   6   76.49   13.80
   7   3  -6  103.29   18.30
   6  -3  -6  492.25   36.10
  -6  -3   6  538.25   33.10
  -6  -3   6  526.35   26.30
   6  -3  -6  512.55   40.30
  -6  -3   6  493.65   33.50
  -6  -3   6  514.85   37.10
  -6   3   6  498.25   29.20
  -6   3   6  494.65   32.40
  -6   3   6  497.05   35.20
   6   3  -6  503.15   35.20
   6   3  -6  526.35   36.50
   5  -3  -6  227.48   23.40
  -5  -3   6  180.08   15.60
   5  -3  -6  191.68   26.80
  -5  -3   6  168.88   22.30
  -5  -3   6  171.98   20.70
  -5  -3   6  183.68   18.20
   5   3  -6  143.39   22.80
  -5   3   6  178.78   14.00
  -5   3   6  171.78   13.00
  -5   3   6  149.39   20.20
  -5   3   6  170.18   18.60
   5   3  -6  138.69   20.80
  -4  -3   6   -0.20    6.30
  -4  -3   6   -0.70    8.90
  -4  -3   6    7.10    6.20
   4  -3  -6   -8.10    8.60
  -4  -3   6    1.70    8.40
   4  -3  -6   -0.60   12.80
   4   3  -6   -8.30    8.90
  -4   3   6    6.70    3.60
   4   3  -6    1.40    9.40
  -4   3   6    9.00    8.50
  -4   3   6    4.20    8.10
  -4   3   6    2.50    5.30
  -3  -3   6  986.90   46.60
  -3  -3   6  834.82   48.80
  -3  -3   6  917.51   48.10
   3  -3  -6  974.90   48.10
   3  -3  -6  948.11   50.59
   3   3  -6  859.31   46.40
   3   3  -6  849.12   41.40
  -3   3   6  848.62   45.50
  -3   3   6  913.11   43.70
  -3   3   6  838.82   46.20
  -3   3   6  955.20   42.60
   3   3  -6  893.01   47.80
   2  -3  -6 2639.54  115.99
   2  -3  -6 2669.23  117.99
  -2  -3   6 2599.34  118.69
  -2  -3   6 2590.34  116.79
  -2  -3   6 2830.22  115.09
  -2   3   6 2690.73  114.89
  -2   3   6 2771.62  111.09
  -2   3   6 2622.84  114.29
   2   3  -6 2682.03  116.69
   2   3  -6 2793.52  116.49
   2   3  -6 2588.44  110.69
  -2   3   6 2614.14  115.19
   1  -3  -6  259.27   21.50
  -1  -3   6  270.87   25.30
  -1  -3   6  318.67   21.90
   1  -3  -6  234.48   24.80
  -1  -3   6  268.77   23.50
   1   3  -6  264.67   25.70
   1   3  -6  262.37   17.50
  -1   3   6  253.67   20.50
  -1   3   6  272.97   20.50
  -1   3   6  246.38   20.40
   1   3  -6  291.27   23.90
  -1   3   6  288.47   17.40
   0  -3  -6  678.83   35.80
   0  -3   6  725.13   36.70
   0  -3   6  707.03   40.90
   0  -3  -6  743.63   38.70
   0  -3   6  689.53   40.30
   0  -3   6  670.83   41.70
   0  -3  -6  650.43   40.40
   0  -3   6  671.13   37.60
   0   3   6  707.03   36.40
   0   3   6  704.13   34.40
   0   3  -6  666.63   38.60
   0   3  -6  663.83   40.10
   0   3   6  704.93   38.90
   0   3   6  702.93   36.60
   0   3   6  731.53   33.40
   0   3  -6  684.73   38.80
   0   3  -6  671.23   34.90
   1  -3   6  906.11   50.69
   1  -3   6  876.61   51.39
   1  -3   6  976.70   51.89
  -1  -3  -6  957.10   41.80
   1  -3   6  921.11   46.00
   1  -3   6  949.01   48.10
  -1  -3  -6  902.61   46.90
  -1  -3  -6  936.51   50.39
  -1  -3  -6  978.10   48.00
   1   3   6  969.80   49.99
   1   3   6  924.01   44.60
   1   3   6  970.90   44.90
   1   3   6  959.80   41.90
  -1   3  -6 1010.90   50.99
  -1   3  -6  889.01   49.50
   1   3   6  995.90   46.90
  -1   3  -6  885.61   47.90
   2  -3   6  169.68   18.10
   2  -3   6  169.08   28.50
   2  -3   6  118.39   18.70
  -2  -3  -6  145.29   23.30
  -2  -3  -6  141.39   17.70
   2  -3   6  141.29   22.60
   2  -3   6  195.88   23.70
  -2  -3  -6  152.98   20.00
  -2   3  -6  162.18   22.90
   2   3   6  143.69   17.80
   2   3   6  173.38   21.60
   2   3   6  167.98   18.00
   2   3   6  160.48   13.80
  -2   3  -6  217.48   21.60
   2   3   6  146.39   10.80
   3  -3   6  105.79   17.10
  -3  -3  -6   80.59   16.60
  -3  -3  -6  137.19   17.70
   3  -3   6   77.09   19.30
   3  -3   6  102.89   19.40
   3  -3   6   94.09   14.70
  -3  -3  -6   96.69   19.50
   3   3   6   95.99   14.10
  -3   3  -6  106.49   16.70
   3   3   6  107.29   19.40
   3   3   6  149.49   22.10
  -3   3  -6   92.19   19.40
   4  -3   6  355.06   37.00
  -4  -3  -6  444.66   30.10
  -4  -3  -6  460.75   36.60
   4  -3   6  340.27   31.30
  -4  -3  -6  383.26   37.30
   4  -3   6  455.75   38.60
  -4   3  -6  403.46   39.60
  -4   3  -6  496.55   34.70
   5  -3   6  149.69   25.20
  -5  -3  -6  149.59   31.10
   5  -3   6  159.58   26.80
   5   3   6  188.18   25.80
  -5   3  -6  271.87   41.30
  10  -4  -6  109.79   21.90
 -10  -4   6  123.09   23.30
 -10  -4   6   86.49   18.60
  10  -4  -6  119.69   17.30
 -10  -4   6  105.99   27.20
 -10   4   6   78.19   19.20
 -10   4   6   53.99   19.90
 -10   4   6  120.59   26.90
  10   4  -6   80.69   11.10
  -9  -4   6  -20.40   16.40
   9  -4  -6   -7.70   10.00
  -9  -4   6   -6.30   12.60
  -9   4   6   -5.50   14.30
  -9   4   6   -0.20   16.40
   9   4  -6    5.80    8.00
  -9   4   6   14.10   14.00
  -8  -4   6  -26.20   14.80
  -8  -4   6    4.20   11.30
  -8   4   6   -5.10    9.90
  -8   4   6    2.60   12.60
  -8   4   6  -20.20   10.00
   8   4  -6   18.70   15.50
  -8   4   6    8.90   15.30
  -7  -4   6  116.29   20.40
  -7  -4   6   87.39   16.30
  -7  -4   6   60.39   16.70
   7  -4  -6  169.38   35.50
   7  -4  -6   75.09   19.20
  -7  -4   6   82.59    8.40
  -7   4   6   78.89   12.60
  -7   4   6   83.99   17.00
  -7   4   6  116.49   15.80
  -7   4   6   73.79   13.40
   7   4  -6   99.99   16.90
  -6  -4   6   21.90   12.10
   6  -4  -6   21.80   17.60
  -6  -4   6   23.10   13.80
   6  -4  -6   29.30   13.70
  -6  -4   6   21.90   10.90
  -6   4   6   23.30    9.60
   6   4  -6   12.50   12.60
  -6   4   6    5.90    9.80
  -6   4   6    0.70    7.90
   6   4  -6   -2.00   10.80
  -5  -4   6   15.90    9.90
   5  -4  -6    1.20   15.00
  -5  -4   6   21.20   12.40
   5  -4  -6   22.60   11.40
  -5  -4   6   37.50   10.30
   5   4  -6   22.00   11.50
  -5   4   6   29.20   10.00
  -5   4   6   28.50    6.30
   5   4  -6   37.80   12.00
  -5   4   6   14.00   10.00
  -4  -4   6   -5.40    9.00
  -4  -4   6   17.00    9.20
   4  -4  -6  -19.70   11.20
  -4  -4   6    2.40    7.40
   4   4  -6   -4.90    9.40
   4   4  -6   19.60   10.30
  -4   4   6    6.60    7.80
   4   4  -6    6.90    6.50
  -4   4   6    6.50    5.40
  -4   4   6    3.80    3.40
  -4   4   6    0.10    7.50
   3  -4  -6  172.78   23.40
  -3  -4   6  123.79   18.10
  -3  -4   6  105.79   16.80
  -3  -4   6  153.08   20.70
   3  -4  -6  143.99   18.60
   3   4  -6  117.49   13.40
   3   4  -6  179.48   20.20
   3   4  -6  174.88   19.00
  -3   4   6  134.19   12.30
  -3   4   6  119.19   13.70
  -3   4   6  155.18   16.80
  -3   4   6  118.09   16.10
   2  -4  -6    6.50    7.60
   2  -4  -6   -7.90    9.90
  -2  -4   6    9.10    8.10
  -2  -4   6    0.00    8.20
  -2  -4   6    9.00    9.90
  -2   4   6    1.80    4.40
   2   4  -6    7.70    6.00
   2   4  -6   -2.80    8.90
   2   4  -6   12.70    8.50
  -2   4   6    9.10    7.50
  -2   4   6    7.90    6.10
  -2   4   6    7.90    6.80
  -1  -4   6  241.08   21.40
  -1  -4   6  229.38   24.40
   1  -4  -6  248.68   21.30
  -1  -4   6  254.67   22.80
   1  -4  -6  258.27   25.00
   1   4  -6  241.38   17.50
   1   4  -6  238.18   21.20
  -1   4   6  242.28   15.40
  -1   4   6  229.38   20.00
  -1   4   6  202.48   18.70
   1   4  -6  243.98   23.10
  -1   4   6  240.18   18.40
   0  -4  -6   22.60    9.50
   0  -4   6   24.20    9.10
   0  -4   6   30.30   12.10
   0  -4   6   59.89   10.90
   0  -4  -6   48.20   13.00
   0  -4  -6   30.60    7.60
   0  -4   6   62.09   14.00
   0   4  -6   49.10   10.20
   0   4   6   20.70    9.90
   0   4  -6   25.60    8.20
   0   4  -6   47.30   13.30
   0   4   6   29.30    7.90
  -1  -4  -6   -2.00    8.30
   1  -4   6    7.50   10.90
  -1  -4  -6    0.30    8.00
   1  -4   6   -4.00    8.60
  -1  -4  -6   -9.60   10.40
  -1  -4  -6    7.10    4.70
   1  -4   6   13.60   11.70
   1  -4   6    2.40   11.10
  -1   4  -6   -5.10    8.80
   1   4   6   10.50    4.10
   1   4   6    8.80    6.80
  -1   4  -6    6.10   10.30
   1   4   6   14.00    6.80
  -1   4  -6    7.30   11.00
   1   4   6    1.90    5.60
   1   4   6    0.80    8.90
   2  -4   6    8.00   13.40
  -2  -4  -6  -18.90    7.90
   2  -4   6    4.10   11.80
   2  -4   6   -7.10   10.10
  -2  -4  -6   -4.20   12.90
   2  -4   6   13.30   10.00
  -2  -4  -6   11.90    7.40
  -2  -4  -6   -1.40    8.10
   2   4   6   14.00    9.50
   2   4   6    9.40   11.00
   2   4   6    8.90    7.80
  -2   4  -6   -0.90   12.00
  -2   4  -6   -3.00   10.70
   3  -4   6   33.90   16.60
  -3  -4  -6   19.50   11.30
  -3  -4  -6    8.00    9.30
   3  -4   6   24.50   16.10
  -3  -4  -6   25.70   13.30
   3  -4   6   25.80   12.40
  -3  -4  -6   33.50   15.20
   3  -4   6  -15.10   12.90
   3   4   6    2.90   11.50
   3   4   6   13.30   12.40
   3   4   6   13.10    9.70
  -3   4  -6   40.30   14.90
  -3   4  -6   23.30   14.60
  -4  -4  -6    2.90   16.80
   4  -4   6   -0.60   15.40
   4  -4   6   -0.10   17.40
  -4  -4  -6   15.20   16.30
  -4  -4  -6   19.30   11.10
   4  -4   6   12.50   18.00
   4  -4   6  -10.30   14.30
  -4   4  -6   31.80   19.20
   4   4   6   17.90   13.60
  -4   4  -6  -21.90   14.90
   4   4   6   40.30   11.40
   5  -4   6   66.19   23.00
   5  -4   6   35.30   21.00
  -5   4  -6   49.99   24.80
   5   4   6    1.20   16.40
 -10  -5   6   43.90   16.90
  10  -5  -6   43.10   14.70
  10  -5  -6   67.09   20.50
 -10  -5   6   -0.40   22.40
 -10   5   6   11.50   18.20
 -10   5   6   39.10   17.60
  10   5  -6   40.60   11.30
 -10   5   6   19.20   21.20
  -9  -5   6  404.26   35.10
  -9  -5   6  387.06   40.80
   9  -5  -6  387.46   29.50
   9   5  -6  405.46   23.90
  -9   5   6  372.76   34.70
  -9   5   6  377.66   33.10
  -9   5   6  403.16   38.50
  -8  -5   6  182.38   26.20
  -8  -5   6  215.58   32.20
  -8   5   6  171.28   22.80
  -8   5   6  210.68   29.80
   8   5  -6  178.58   27.80
  -8   5   6  186.58   24.00
  -7  -5   6  319.97   28.80
  -7  -5   6  332.67   33.00
  -7  -5   6  300.57   32.30
  -7  -5   6  284.37   20.80
   7  -5  -6  328.67   36.40
  -7   5   6  253.77   27.90
   7   5  -6  299.37   28.70
  -7   5   6  289.07   25.60
  -7   5   6  257.97   21.90
   6  -5  -6 1323.17   68.39
   6  -5  -6 1357.76   72.79
  -6  -5   6 1273.17   68.79
  -6  -5   6 1442.16   65.69
  -6  -5   6 1234.28   65.09
  -6   5   6 1208.48   65.09
   6   5  -6 1324.47   63.79
  -6   5   6 1304.77   63.29
   6   5  -6 1233.48   64.49
  -5  -5   6  726.83   46.30
   5  -5  -6  741.33   45.00
   5  -5  -6  718.63   48.90
  -5  -5   6  810.82   42.90
  -5  -5   6  775.92   43.90
  -5   5   6  704.53   42.70
  -5   5   6  776.62   36.10
   5   5  -6  735.83   42.70
  -5   5   6  748.53   41.40
   5   5  -6  859.11   43.70
   4  -5  -6  109.09   14.80
  -4  -5   6   84.49   15.50
   4  -5  -6  198.28   27.20
   4  -5  -6  115.59   18.00
  -4  -5   6  142.29   16.30
  -4  -5   6   96.29   16.80
  -4   5   6  123.49   16.70
  -4   5   6  113.09    7.70
  -4   5   6  115.69   15.80
   4   5  -6  104.69   16.10
   4   5  -6  109.19   14.00
   4   5  -6  132.69   19.60
  -4   5   6  103.49   12.00
  -3  -5   6  203.78   23.40
  -3  -5   6  213.28   21.60
   3  -5  -6  198.98   18.80
   3  -5  -6  182.18   26.10
   3  -5  -6  192.08   20.30
  -3  -5   6  217.98   21.10
  -3   5   6  185.98   16.10
  -3   5   6  194.98   19.10
   3   5  -6  209.48   17.10
   3   5  -6  223.38   21.10
   3   5  -6  227.88   21.00
  -3   5   6  206.58   14.10
   2  -5  -6  605.64   34.10
  -2  -5   6  580.84   37.50
  -2  -5   6  527.55   33.30
  -2  -5   6  561.24   36.00
   2  -5  -6  539.75   37.10
   2  -5  -6  592.64   34.20
   2   5  -6  541.95   33.10
  -2   5   6  564.44   26.50
  -2   5   6  538.05   30.50
   2   5  -6  550.34   33.90
  -2   5   6  518.85   30.90
  -2   5   6  533.75   31.10
   2   5  -6  551.74   30.30
  -1  -5   6    0.10   10.00
   1  -5  -6   16.60   10.80
   1  -5  -6   -1.30    6.90
  -1  -5   6   11.60   11.00
  -1  -5   6   15.40   11.10
   1   5  -6    9.20    7.30
  -1   5   6   11.20    6.90
  -1   5   6   14.80    5.00
   1   5  -6   14.00    9.10
  -1   5   6    4.40    6.60
   1   5  -6   27.10   10.00
  -1   5   6    9.70    6.40
   0  -5   6  538.35   32.50
   0  -5   6  516.25   38.20
   0  -5  -6  573.44   33.50
   0  -5  -6  555.14   36.30
   0  -5   6  565.44   37.80
   0  -5   6  618.74   35.20
   0   5  -6  525.15   33.50
   0   5   6  609.24   30.80
   0   5   6  573.94   34.00
   0   5  -6  596.24   35.70
   0   5  -6  541.05   32.20
   0   5   6  573.24   27.00
   0   5   6  575.34   29.00
   0   5   6  583.14   28.10
  -1  -5  -6 1364.96   58.09
  -1  -5  -6 1444.66   67.79
   1  -5   6 1382.76   66.49
  -1  -5  -6 1348.17   64.19
   1  -5   6 1398.56   70.09
   1  -5   6 1295.37   70.39
   1  -5   6 1390.26   64.39
  -1  -5  -6 1311.17   62.59
   1   5   6 1421.86   61.79
   1   5   6 1330.07   66.39
  -1   5  -6 1336.87   67.79
  -1   5  -6 1369.76   66.39
  -1   5  -6 1452.65   66.09
   1   5   6 1394.76   56.19
   1   5   6 1414.96   60.99
   2  -5   6  498.95   37.60
   2  -5   6  505.85   33.00
  -2  -5  -6  458.25   31.60
   2  -5   6  519.15   38.20
  -2  -5  -6  597.34   37.20
  -2  -5  -6  510.65   31.10
  -2  -5  -6  491.55   28.10
   2   5   6  484.05   33.20
  -2   5  -6  465.45   36.50
   2   5   6  516.75   27.70
   2   5   6  528.15   29.60
  -2   5  -6  485.75   33.30
  -3  -5  -6   67.29   18.30
  -3  -5  -6   96.29   15.20
   3  -5   6   69.39   19.90
  -3  -5  -6   86.99   16.20
  -3  -5  -6   82.29   12.60
   3  -5   6   54.69   15.70
   3  -5   6   85.39   19.30
   3  -5   6   67.59   19.00
   3   5   6   61.19   13.60
   3   5   6   60.99   14.80
  -3   5  -6   84.69   18.50
  -3   5  -6   93.79   18.20
   3   5   6   75.69   10.50
  -4  -5  -6  436.06   41.00
   4  -5   6  491.15   44.10
   4  -5   6  477.65   38.40
   4  -5   6  558.74   44.50
   4  -5   6  535.95   47.80
  -4  -5  -6  507.05   32.20
  -4  -5  -6  509.65   40.00
   4   5   6  438.16   37.10
  -4   5  -6  572.64   44.40
  -4   5  -6  477.35   39.80
  -5  -5  -6  252.37   35.90
   5  -5   6  291.87   44.70
   5  -5   6  271.77   35.00
  -5   5  -6  294.07   40.80
   5   5   6  307.17   34.70
  10  -6  -6  187.78   26.90
 -10  -6   6  236.68   30.80
 -10  -6   6  151.88   32.40
  10  -6  -6  153.88   21.30
 -10   6   6  168.38   27.20
 -10   6   6  230.38   33.00
 -10   6   6  179.58   25.50
   9  -6  -6    7.90   11.40
  -9  -6   6    4.00   15.00
  -9  -6   6   40.60   20.80
  -9   6   6   18.60   17.50
   9   6  -6   12.00    7.30
  -9   6   6    1.60   13.60
  -9   6   6   13.40   14.80
  -8  -6   6  324.37   35.40
  -8   6   6  186.98   29.00
  -8   6   6  260.27   25.10
  -8   6   6  279.87   27.40
   8   6  -6  283.37   25.70
   7  -6  -6  213.08   28.20
  -7  -6   6  192.38   30.70
  -7  -6   6  155.98   24.30
  -7   6   6  178.08   25.10
  -7   6   6  176.18   22.10
   7   6  -6  183.18   22.70
  -7   6   6  188.98   19.10
   6  -6  -6   -9.70   29.90
   6  -6  -6   -9.40   13.40
  -6  -6   6  -16.40   12.60
  -6  -6   6   -1.00   11.30
  -6  -6   6    4.70   13.50
   6   6  -6   13.10   11.00
  -6   6   6   -1.90    9.20
  -6   6   6   15.50    9.40
  -6   6   6   17.30    6.90
   5  -6  -6   90.59   21.70
  -5  -6   6   69.59   14.20
  -5  -6   6   62.89   17.10
   5  -6  -6   59.69   10.50
   5  -6  -6   75.89   15.10
  -5  -6   6   67.09   14.80
  -5   6   6   42.50   11.80
   5   6  -6   68.59   13.60
   5   6  -6   76.49   13.40
  -5   6   6   45.80   10.20
  -4  -6   6  278.27   27.40
   4  -6  -6  331.97   26.90
  -4  -6   6  257.67   24.20
   4  -6  -6  216.18   27.90
   4  -6  -6  266.27   21.40
  -4  -6   6  258.77   22.50
   4   6  -6  257.27   23.30
  -4   6   6  224.88   22.10
  -4   6   6  271.07   21.70
  -4   6   6  266.17   17.00
   4   6  -6  300.07   23.90
   4   6  -6  239.78   20.60
  -4   6   6  266.97   13.40
  -3  -6   6  345.27   29.60
   3  -6  -6  299.27   24.00
   3  -6  -6  299.27   30.40
  -3  -6   6  325.87   26.90
   3  -6  -6  322.27   26.20
  -3  -6   6  372.96   27.80
  -3   6   6  307.57   17.10
   3   6  -6  301.17   22.10
   3   6  -6  247.58   24.70
  -3   6   6  316.07   21.60
  -3   6   6  284.77   22.10
   3   6  -6  297.07   24.50
  -3   6   6  305.07   20.30
  -2  -6   6   10.30    9.80
   2  -6  -6   -5.40    8.20
  -2  -6   6   -5.20    9.90
   2  -6  -6   -5.10   11.10
  -2  -6   6  -14.20    9.90
   2  -6  -6   16.10    9.30
   2   6  -6    1.50    6.20
  -2   6   6    4.20    7.20
  -2   6   6   -0.90    5.10
  -2   6   6    7.00    6.30
   2   6  -6    7.60    8.40
   2   6  -6    0.70    9.20
  -2   6   6    4.60    3.80
  -1  -6   6  940.81   51.89
  -1  -6   6 1018.60   50.39
   1  -6  -6  998.80   51.59
   1  -6  -6  965.60   51.69
  -1  -6   6  930.71   52.99
   1  -6  -6  925.81   48.50
  -1   6   6  947.51   41.30
  -1   6   6  942.81   44.60
   1   6  -6  925.51   47.00
   1   6  -6  989.20   49.30
   1   6  -6  932.31   48.60
  -1   6   6  939.41   47.60
   0  -6   6  628.84   34.80
   0  -6  -6  551.54   36.60
   0  -6   6  612.64   40.00
   0  -6  -6  563.34   33.60
   0  -6  -6  584.64   38.90
   0  -6   6  616.84   36.50
   0  -6   6  554.64   39.70
   0   6   6  568.64   34.40
   0   6   6  572.14   30.80
   0   6  -6  651.33   36.00
   0   6   6  582.24   27.80
   0   6   6  581.84   26.60
   0   6  -6  552.24   33.70
   0   6   6  590.84   28.20
  -1  -6  -6   59.49    7.50
   1  -6   6   43.50   15.40
  -1  -6  -6   58.69   11.50
   1  -6   6   60.29   13.70
  -1  -6  -6   84.39   15.80
  -1  -6  -6   68.39   10.70
   1  -6   6   51.39   15.40
   1  -6   6   38.30   14.40
  -1   6  -6   64.69   12.80
   1   6   6   57.69    8.80
   1   6   6   50.79   12.80
   1   6   6   81.39   11.60
  -1   6  -6   42.20   15.80
  -1   6  -6   72.19   14.90
  -2  -6  -6  200.78   21.10
  -2  -6  -6  173.68   19.70
   2  -6   6  203.38   28.20
   2  -6   6  212.58   24.60
   2  -6   6  185.38   26.20
  -2  -6  -6  210.88   17.50
  -2  -6  -6  171.88   27.30
   2   6   6  218.98   16.80
   2   6   6  193.78   18.50
   2   6   6  152.58   21.80
  -2   6  -6  188.98   25.40
  -2   6  -6  210.48   25.90
   2   6   6  170.98   15.10
   3  -6   6  124.69   23.50
  -3  -6  -6  198.38   29.90
   3  -6   6  135.39   22.80
  -3  -6  -6   97.79   17.00
   3  -6   6   66.09   18.00
  -3  -6  -6  125.69   17.20
  -3  -6  -6   93.89   15.80
   3  -6   6   93.19   20.10
  -3   6  -6  102.89   20.50
   3   6   6  116.79   10.40
  -3   6  -6   93.19   17.20
   3   6   6   79.39   16.40
  -4  -6  -6   -3.10   16.50
   4  -6   6   -2.30   17.40
   4  -6   6   47.30   24.40
  -4  -6  -6  -25.20   18.50
   4  -6   6   17.20   19.90
  -4   6  -6    4.10   18.40
  -4   6  -6  -24.10   19.20
   4   6   6   23.90   13.40
   5  -6   6  205.18   31.60
  -5  -6  -6  105.79   32.90
   5  -6   6  209.98   34.80
  -5   6  -6  187.98   30.20
   5   6   6  170.98   25.40
 -10  -7   6   78.49   28.50
  10  -7  -6   67.09   22.30
  10  -7  -6   64.69   17.90
 -10  -7   6  107.09   20.40
 -10   7   6   57.89   21.80
 -10   7   6   89.09   22.30
 -10   7   6   86.09   22.10
  -9  -7   6   38.70   16.20
   9  -7  -6   43.60   14.20
  -9  -7   6   44.60   22.70
   9   7  -6   79.59   10.70
  -9   7   6   75.39   16.60
  -9   7   6   50.79   16.10
  -9   7   6   59.69   20.00
   8  -7  -6   79.29   15.20
  -8  -7   6   84.29    9.50
  -8  -7   6  108.49   22.30
  -8  -7   6   78.39    8.60
  -8  -7   6   68.89   16.10
   8   7  -6   64.29    9.50
  -8   7   6   91.59   19.10
  -8   7   6   78.29   16.80
   8   7  -6   94.19   17.20
  -8   7   6   88.29   14.70
   7  -7  -6  148.79   26.20
  -7  -7   6  101.09   23.10
  -7  -7   6  193.18   25.60
  -7   7   6  148.59   18.20
  -7   7   6  133.69   20.60
   7   7  -6  130.29   16.60
  -7   7   6  112.69   17.10
   6  -7  -6  552.54   34.60
   6  -7  -6  562.44   43.00
  -6  -7   6  639.34   39.70
  -6  -7   6  598.24   42.40
  -6  -7   6  599.34   43.60
  -6   7   6  625.24   38.90
  -6   7   6  580.04   31.30
   6   7  -6  645.24   35.40
  -6   7   6  602.14   36.00
  -5  -7   6  180.38   24.20
  -5  -7   6  198.78   23.60
  -5  -7   6  228.18   27.10
   5  -7  -6  170.68   25.20
   5  -7  -6  163.08   18.60
   5  -7  -6  131.49   20.70
   5   7  -6  188.08   22.40
   5   7  -6  183.88   20.30
  -5   7   6  168.98   13.70
  -5   7   6  146.19   20.30
  -5   7   6  198.68   19.30
   5   7  -6  150.18   19.30
  -4  -7   6  180.38   25.00
   4  -7  -6  154.68   22.30
  -4  -7   6  157.48   20.80
   4  -7  -6  169.08   22.70
  -4  -7   6  153.78   24.70
   4  -7  -6  191.68   19.90
  -4  -7   6  136.19   20.30
  -4   7   6  170.18   18.40
   4   7  -6  148.09   19.20
   4   7  -6  161.98   20.40
  -4   7   6  175.28   10.30
  -4   7   6  168.28   12.90
   4   7  -6  167.98   18.30
  -4   7   6  199.48   18.20
   3  -7  -6   17.20   10.70
  -3  -7   6   24.90   10.70
  -3  -7   6   14.70   11.60
   3  -7  -6    4.40   10.30
   3  -7  -6   -0.50   11.90
  -3  -7   6   34.90   12.70
   3   7  -6   16.80   11.10
  -3   7   6   13.40    6.10
  -3   7   6   17.90    8.30
  -3   7   6   10.10    4.20
   3   7  -6   14.90    8.20
   3   7  -6   19.60   10.20
  -3   7   6   14.00    7.20
  -2  -7   6  229.68   26.00
   2  -7  -6  278.37   23.30
  -2  -7   6  283.07   25.20
   2  -7  -6  282.87   25.90
   2  -7  -6  326.17   29.10
  -2  -7   6  265.87   26.10
  -2   7   6  279.77   13.40
   2   7  -6  282.47   23.40
   2   7  -6  241.28   22.90
  -2   7   6  259.97   18.90
  -2   7   6  244.28   19.90
   2   7  -6  244.78   21.60
  -2   7   6  280.57   19.20
   1  -7  -6    0.80   10.20
  -1  -7   6   -1.90   10.60
  -1  -7   6   13.10   11.30
   1  -7  -6   -2.50    7.90
   1  -7  -6   -3.60   11.40
  -1  -7   6   -4.80   10.20
  -1   7   6    7.20    3.60
   1   7  -6    5.60    8.00
   1   7  -6   -1.20    7.90
  -1   7   6    7.70    5.80
   1   7  -6    2.60    9.30
  -1   7   6   -0.60    6.60
  -1   7   6    1.20    5.60
   0  -7   6  387.46   28.10
   0  -7   6  432.06   31.00
   0  -7  -6  381.46   31.30
   0  -7  -6  418.16   34.30
   0  -7   6  348.57   33.40
   0  -7  -6  369.26   26.50
   0  -7   6  447.06   34.20
   0   7   6  421.86   27.30
   0   7   6  397.96   17.80
   0   7  -6  379.86   28.90
   0   7   6  418.96   23.00
   0   7  -6  365.76   27.70
   0   7  -6  386.46   29.00
   0   7   6  422.76   20.60
  -1  -7  -6  191.68   19.20
  -1  -7  -6  182.68   13.00
   1  -7   6  179.18   26.60
   1  -7   6  210.38   22.70
  -1  -7  -6  165.88   16.50
   1  -7   6  149.49   23.10
  -1  -7  -6  175.28   25.50
   1   7   6  169.78   19.70
  -1   7  -6  139.79   20.80
  -1   7  -6  172.48   21.30
  -1   7  -6  189.68   23.40
   1   7   6  185.38   13.80
   1   7   6  156.18   16.10
  -2  -7  -6   47.00   11.90
  -2  -7  -6   34.80   10.80
  -2  -7  -6   69.59   16.80
   2  -7   6   30.00   17.30
   2  -7   6   78.19   18.30
   2  -7   6   54.69   19.10
  -2  -7  -6   51.19   10.00
   2   7   6   61.19    9.30
   2   7   6   52.19   12.30
   2   7   6   58.29    8.90
  -2   7  -6   87.79   16.70
  -2   7  -6   46.60   15.60
  -3  -7  -6   -4.40   12.60
  -3  -7  -6   36.70   13.50
  -3  -7  -6   -9.60   15.90
   3  -7   6    3.20   18.30
  -3  -7  -6    8.00   10.30
   3  -7   6    4.20   17.70
  -3   7  -6    0.70   15.20
  -3   7  -6    2.90   16.60
   4  -7   6   96.39   31.80
  -4  -7  -6   97.89   15.20
   4  -7   6   74.49   26.80
   4  -7   6   88.79   22.10
  -4  -7  -6   78.99   22.10
   4   7   6   88.29   16.90
  -4   7  -6   85.39   23.10
   5  -7   6  173.68   32.00
   5  -7   6  113.29   29.50
  -5   7  -6  141.49   29.00
   5   7   6  139.59   23.10
  10  -8  -6  131.29   21.80
 -10  -8   6   93.09   30.90
  10  -8  -6  156.48   27.40
 -10  -8   6  140.49   23.40
 -10   8   6  133.99   25.50
 -10   8   6  133.29   26.20
 -10   8   6  160.88   28.60
  -9  -8   6  123.99   33.70
   9  -8  -6   49.60   15.90
  -9  -8   6   44.70   17.80
  -9   8   6   87.59   17.60
  -9   8   6   53.89   19.00
  -9   8   6   63.79   17.00
   8  -8  -6  387.36   31.10
  -8  -8   6  506.35   23.10
  -8  -8   6  446.96   36.00
  -8  -8   6  480.45   43.50
   8   8  -6  412.76   23.00
  -8   8   6  428.86   38.20
  -8   8   6  462.55   31.20
  -8   8   6  414.86   34.00
   8   8  -6  427.16   25.40
   7  -8  -6  242.78   32.70
  -7  -8   6  268.77   29.90
  -7  -8   6  312.17   36.20
  -7   8   6  318.37   22.80
  -7   8   6  331.37   28.00
  -7   8   6  284.47   30.50
   7   8  -6  295.17   25.80
  -6  -8   6  233.78   33.60
  -6  -8   6  209.68   28.00
   6  -8  -6  227.18   29.80
  -6  -8   6  210.28   26.50
   6  -8  -6  219.78   20.40
  -6   8   6  202.38   16.50
   6   8  -6  199.28   20.20
  -6   8   6  221.28   21.60
  -6   8   6  183.88   23.60
  -5  -8   6   79.99   18.10
  -5  -8   6   94.09   17.10
   5  -8  -6   64.79   16.90
  -5  -8   6   94.69   17.20
   5  -8  -6   68.59   12.20
  -5   8   6   55.59    8.10
  -5   8   6   74.89   13.80
   5   8  -6   73.09   14.10
  -5   8   6   59.79   11.70
   5   8  -6   68.19   12.50
   5   8  -6   37.40   20.50
  -4  -8   6 1432.26   72.99
  -4  -8   6 1478.35   71.99
   4  -8  -6 1505.65   70.29
  -4  -8   6 1615.14   77.89
  -4  -8   6 1540.75   74.59
   4  -8  -6 1482.55   73.39
   4  -8  -6 1397.76   75.89
  -4   8   6 1507.75   68.39
  -4   8   6 1530.75   62.29
   4   8  -6 1444.06   70.59
   4   8  -6 1563.04   68.99
   4   8  -6 1500.75   70.39
  -4   8   6 1497.05   61.49
  -4   8   6 1426.46   68.89
  -4   8   6 1477.35   62.09
  -3  -8   6  824.02   50.89
  -3  -8   6  880.41   49.60
   3  -8  -6  873.71   47.00
  -3  -8   6  846.52   49.20
   3  -8  -6  878.31   51.09
   3  -8  -6  908.51   48.10
   3   8  -6  883.91   44.80
   3   8  -6  822.82   46.00
  -3   8   6  852.71   42.30
   3   8  -6  832.72   45.10
  -3   8   6  849.81   42.90
  -2  -8   6  206.08   26.60
  -2  -8   6  229.38   25.10
   2  -8  -6  180.28   23.10
  -2  -8   6  212.68   25.10
   2  -8  -6  215.68   24.80
   2  -8  -6  220.88   22.20
  -2   8   6  222.88   17.50
   2   8  -6  217.78   21.50
  -2   8   6  174.88   17.20
   2   8  -6  190.88   20.90
   2   8  -6  202.78   20.50
  -2   8   6  200.28   16.70
   1  -8  -6 1957.80   87.59
   1  -8  -6 1948.91   90.09
   1  -8  -6 1948.61   91.19
  -1  -8   6 1986.70   89.99
  -1  -8   6 1779.32   92.69
  -1  -8   6 1863.21   91.39
   1   8  -6 1877.11   86.39
   1   8  -6 1882.71   86.79
  -1   8   6 2035.40   82.69
   1   8  -6 1995.50   87.99
  -1   8   6 1942.51   80.19
  -1   8   6 1889.71   85.79
   0  -8  -6 1005.00   54.89
   0  -8   6  946.81   57.99
   0  -8   6 1051.49   58.39
   0  -8  -6  971.70   57.29
   0  -8  -6 1039.40   50.69
   0  -8   6  951.40   50.99
   0  -8   6 1064.69   57.29
   0   8  -6  951.30   50.39
   0   8   6 1025.30   45.20
   0   8   6  914.21   49.80
   0   8  -6 1156.78   53.29
   0   8  -6  944.71   51.99
  -1  -8  -6    1.00    7.00
   1  -8   6  -26.40   13.10
  -1  -8  -6   19.90   13.70
  -1  -8  -6    9.70    5.90
   1  -8   6   16.70   16.50
  -1  -8  -6  -10.60    7.90
  -1   8  -6    5.90   11.10
  -1   8  -6  -10.80   10.70
  -1   8  -6   -9.00   11.90
   1   8   6    2.80    5.90
   1   8   6   -1.20    7.60
  -2  -8  -6  106.69   14.00
  -2  -8  -6  110.19   14.70
  -2  -8  -6  109.29   19.90
   2  -8   6   74.79   21.40
  -2  -8  -6  111.99   16.00
   2  -8   6  116.39   23.90
   2   8   6   93.29   15.60
  -2   8  -6  107.39   19.80
  -2   8  -6  128.49   21.50
  -3  -8  -6  144.89   19.10
  -3  -8  -6  136.09   22.60
  -3  -8  -6  145.59   19.00
  -3  -8  -6  123.29   18.40
   3  -8   6  122.49   26.10
   3  -8   6  127.89   31.20
   3   8   6  146.79   22.70
  -3   8  -6  100.99   20.20
  -3   8  -6  158.48   23.70
   4  -8   6   58.69   21.40
   4  -8   6    8.50   23.30
  -4  -8  -6   21.80   18.10
   4  -8   6  -22.50   24.20
  -4  -8  -6   22.30   11.60
  -4   8  -6    6.50   18.80
   4   8   6    7.70   13.50
   5  -8   6  255.17   37.10
   5  -8   6  229.58   39.10
  -5   8  -6  223.08   33.40
   5   8   6  285.07   33.90
   9  -9  -6   76.59   18.60
   9  -9  -6   81.09   17.60
  -9  -9   6   87.19   19.50
  -9   9   6   79.29   20.40
  -9   9   6   67.19   21.00
  -9   9   6   88.69   19.60
  -8  -9   6   68.99   22.70
  -8  -9   6   65.79   17.80
   8  -9  -6   56.99   15.30
  -8  -9   6   79.79   10.80
   8   9  -6   86.19    9.70
  -8   9   6   75.29   18.00
  -8   9   6   86.89   18.80
  -8   9   6   80.39   14.30
   7  -9  -6   55.19   12.80
  -7  -9   6   62.39   20.00
   7  -9  -6   74.39   26.30
  -7   9   6   48.60   12.50
   7   9  -6   52.99    9.60
  -7   9   6   60.09   10.90
  -7   9   6   62.79   17.70
   6  -9  -6    2.80   10.40
  -6  -9   6  -26.80   14.90
  -6  -9   6   12.70   12.70
   6  -9  -6   18.80   19.80
  -6   9   6   -5.00   11.20
  -6   9   6    8.20   10.50
  -6   9   6    7.30    7.00
   6   9  -6   -5.30    8.50
  -5  -9   6  228.68   31.20
   5  -9  -6  322.47   34.00
   5  -9  -6  264.97   25.20
  -5  -9   6  267.27   27.40
  -5  -9   6  283.97   31.10
  -5   9   6  235.48   23.80
   5   9  -6  285.27   26.10
  -5   9   6  332.07   23.80
   5   9  -6  276.67   21.60
  -5   9   6  298.57   16.40
   4  -9  -6  140.19   20.80
  -4  -9   6  118.59   20.50
  -4  -9   6  134.39   19.00
  -4  -9   6  140.39   20.70
  -4  -9   6  134.59   23.70
   4  -9  -6  122.69   20.20
   4  -9  -6  114.19   22.60
  -4   9   6  133.09   18.00
  -4   9   6  139.89   15.10
  -4   9   6  146.49    8.10
   4   9  -6  120.29   19.50
   4   9  -6  141.49   17.30
   4   9  -6  141.99   20.50
   3  -9  -6   19.80   11.80
  -3  -9   6   57.49   14.00
  -3  -9   6   60.29   15.50
   3  -9  -6   19.00   15.40
  -3  -9   6   26.40   13.20
   3  -9  -6   44.80   13.30
   3   9  -6   60.69   12.40
  -3   9   6   40.40    9.20
   3   9  -6   39.40   11.20
  -3   9   6   40.30    8.80
   3   9  -6   45.80   12.10
   2  -9  -6    1.80   12.80
   2  -9  -6    6.00   10.40
   2  -9  -6   19.30   13.50
  -2  -9   6   -5.30   13.50
  -2  -9   6   -3.00   12.90
  -2  -9   6    6.40   10.80
   2   9  -6    7.00    9.10
  -2   9   6    0.20    5.50
   2   9  -6   15.70   10.90
   2   9  -6   -3.90    8.30
  -1  -9   6   34.30   14.60
   1  -9  -6   37.80   16.10
  -1  -9   6   43.40   14.40
  -1  -9   6   49.70   15.30
   1  -9  -6   38.10   11.60
   1  -9  -6   59.59   15.80
   1   9  -6   55.99   12.50
  -1   9   6   40.60    5.90
  -1   9   6   52.49    7.90
   1   9  -6   57.29   12.50
   1   9  -6   34.60   12.20
   0  -9   6   29.50   15.20
   0  -9  -6   17.10   15.20
   0  -9   6    5.80   14.00
   0  -9  -6   17.40    8.70
   0   9  -6  -12.80   11.20
   0   9  -6   24.90   14.70
   0   9  -6   21.70   11.40
   0   9   6   24.30    9.60
   0   9   6   14.70    5.40
  -1  -9  -6   13.70   15.50
   1  -9   6    3.30   15.60
  -1  -9  -6   -0.80    6.70
   1  -9   6    0.40   14.50
  -1  -9  -6    5.00    9.70
  -1  -9  -6   16.20    6.80
  -1   9  -6   47.70   16.40
   1   9   6   -3.70    8.50
   1   9   6    2.40    4.10
  -1   9  -6   12.70   11.90
  -2  -9  -6   56.89   12.60
  -2  -9  -6   31.70   16.80
   2  -9   6   34.70   20.30
  -2  -9  -6   26.20   10.20
   2  -9   6   46.00   19.70
  -2  -9  -6   32.40   12.40
  -2   9  -6   46.30   17.10
  -2   9  -6    4.40   16.50
   2   9   6   33.10   11.90
  -3  -9  -6   14.50   20.60
  -3  -9  -6   15.10   14.60
  -3  -9  -6    9.00   10.20
   3  -9   6   32.50   23.30
  -3  -9  -6   25.30   13.70
   3  -9   6   -7.60   19.60
  -3   9  -6    0.10   18.70
  -3   9  -6   14.20   21.20
   3   9   6   13.40   13.90
   4  -9   6  137.89   32.60
  -4  -9  -6  111.79   22.50
   4  -9   6   75.49   27.00
  -4  -9  -6   86.39   14.20
   4   9   6   90.49   18.10
  -4   9  -6   75.29   24.40
  -5  -9  -6   32.30   29.00
   5  -9   6   51.19   27.70
   5  -9   6   15.40   31.90
  -5   9  -6   27.20   27.80
  -9 -10   6   25.50   17.30
   9 -10  -6   13.20   13.80
   9 -10  -6   52.69   19.90
  -9 -10   6   42.60   28.00
  -9  10   6   -2.10   15.90
  -9  10   6   39.80   21.10
  -9  10   6   53.49   20.20
  -8 -10   6  159.48   29.60
   8 -10  -6  151.98   23.50
  -8 -10   6  128.99   20.60
  -8  10   6  133.19   17.30
  -8  10   6  174.28   25.30
  -8  10   6  211.38   28.60
  -7 -10   6  400.86   43.20
   7 -10  -6  474.15   53.69
   7 -10  -6  390.76   30.00
  -7 -10   6  363.96   34.20
  -7  10   6  360.36   35.70
   7  10  -6  392.16   21.50
  -7  10   6  378.56   32.00
  -7  10   6  358.16   25.70
  -6 -10   6  107.89   22.70
  -6 -10   6   88.09   17.40
   6 -10  -6  124.39   26.30
   6 -10  -6   85.79   15.00
  -6  10   6   80.59   12.90
  -6  10   6   97.09   15.40
  -6  10   6   95.79   16.10
   6  10  -6   97.29   16.00
  -5 -10   6  153.88   22.20
   5 -10  -6  255.77   33.30
  -5 -10   6  216.38   31.70
   5 -10  -6  174.18   22.60
  -5 -10   6  142.89   23.80
  -5  10   6  173.48   19.80
  -5  10   6  134.59   12.70
   5  10  -6  144.69   22.80
   5  10  -6  186.58   17.40
  -5  10   6  142.99   20.60
  -4 -10   6  234.88   31.90
   4 -10  -6  279.97   27.50
   4 -10  -6  285.07   31.10
  -4 -10   6  265.17   28.10
  -4  10   6  285.77   21.50
  -4  10   6  311.77   23.10
   4  10  -6  302.37   22.10
   4  10  -6  251.07   25.50
  -4  10   6  278.87   17.90
   3 -10  -6   30.10   18.20
  -3 -10   6   16.10   15.50
  -3 -10   6    3.70   11.50
   3 -10  -6    3.30   10.80
   3 -10  -6  -26.80   12.70
   3  10  -6   11.20   10.80
   3  10  -6    7.90   11.50
  -3  10   6    9.50    7.20
   3  10  -6   25.50    9.40
  -3  10   6    2.00    7.10
   2 -10  -6  190.38   28.90
   2 -10  -6  191.18   23.30
   2 -10  -6  180.98   25.20
  -2 -10   6  152.98   25.50
  -2 -10   6  168.58   23.30
   2  10  -6  145.49   21.40
  -2  10   6  141.79   14.80
  -2  10   6  168.98   13.90
   2  10  -6  211.48   22.80
   2  10  -6  198.28   20.60
  -1 -10   6  710.83   46.90
  -1 -10   6  687.33   47.70
   1 -10  -6  667.63   45.10
   1 -10  -6  698.33   39.50
   1  10  -6  613.54   39.50
   1  10  -6  701.43   39.00
   1  10  -6  654.03   41.40
  -1  10   6  702.83   33.00
   0 -10  -6  928.11   49.70
   0 -10   6  979.10   60.79
   0 -10   6 1004.80   60.39
   0 -10  -6  944.21   55.09
   0  10  -6  929.51   53.69
   0  10  -6 1004.30   53.09
   0  10   6 1006.00   42.40
   1 -10   6   14.60   18.10
  -1 -10  -6  -18.30   15.70
   1 -10   6    4.10   17.80
  -1 -10  -6    4.00    9.80
  -1  10  -6    0.60   16.30
  -1  10  -6   -2.60   12.40
  -2 -10  -6  377.96   25.20
  -2 -10  -6  355.46   32.80
  -2 -10  -6  399.26   37.40
  -2 -10  -6  389.66   27.70
   2 -10   6  451.45   45.80
   2 -10   6  310.77   48.40
  -2  10  -6  360.76   36.60
  -2  10  -6  391.36   35.50
  -2  10  -6  403.66   36.70
  -3 -10  -6  308.47   29.20
   3 -10   6  339.67   50.59
   3 -10   6  285.87   38.30
  -3 -10  -6  265.57   39.60
  -3 -10  -6  248.08   22.60
  -3  10  -6  321.67   36.30
  -4 -10  -6   59.99   12.20
  -4 -10  -6   80.29   20.40
   4 -10   6  133.59   34.10
   4 -10   6   25.00   28.40
  -4  10  -6   45.00   23.70
   9 -11  -6  272.97   33.30
  -9 -11   6  260.57   36.10
  -9 -11   6  432.36   52.09
  -9  11   6  304.37   34.30
  -9  11   6  249.08   33.00
  -9  11   6  398.46   38.80
  -8 -11   6    8.90   16.10
  -8 -11   6    1.20   25.40
   8 -11  -6   13.50   13.10
  -8  11   6   32.90   17.80
  -8  11   6   38.40   16.20
  -8  11   6   29.00   13.00
  -7 -11   6  142.19   27.60
   7 -11  -6  146.49   19.90
  -7 -11   6  124.09   21.70
   7 -11  -6  184.28   36.90
  -7  11   6  159.78   19.20
  -7  11   6  145.99   21.00
  -7  11   6  166.68   24.60
   6 -11  -6  340.37   44.90
  -6 -11   6  293.17   36.60
   6 -11  -6  300.87   30.20
   6  11  -6  334.07   20.10
   6  11  -6  287.97   32.00
  -6  11   6  324.57   28.20
  -6  11   6  324.67   19.70
  -6  11   6  306.17   27.30
   5 -11  -6  336.67   40.80
  -5 -11   6  302.87   31.50
  -5 -11   6  445.26   40.40
   5 -11  -6  312.47   31.80
  -5  11   6  363.86   24.80
   5  11  -6  341.17   31.90
  -5  11   6  331.07   26.50
   5  11  -6  366.26   23.40
  -5  11   6  323.97   26.50
   4 -11  -6  114.99   18.90
   4 -11  -6  130.99   21.80
  -4 -11   6   93.39   20.90
  -4 -11   6  120.09   20.60
  -4  11   6  127.09   13.70
   4  11  -6  118.49   17.10
   4  11  -6  115.89   18.70
  -4  11   6  117.69   17.10
  -4  11   6  126.49   16.20
   3 -11  -6   61.59   22.20
   3 -11  -6   26.50   14.10
  -3 -11   6   45.10   16.40
   3 -11  -6   33.60   16.20
  -3 -11   6   33.60   16.90
  -3  11   6   48.80    9.70
   3  11  -6   49.20   11.20
   3  11  -6   46.60   14.10
  -3  11   6   56.09    8.50
   2 -11  -6  282.37   35.50
  -2 -11   6  403.36   33.90
  -2 -11   6  378.66   38.20
   2 -11  -6  388.16   30.70
  -2  11   6  364.06   19.80
   2  11  -6  323.37   29.70
   2  11  -6  407.96   27.90
  -2  11   6  368.06   22.00
   1 -11  -6  -15.10   15.40
   1 -11  -6    3.70   10.20
  -1 -11   6   -7.50   13.30
  -1 -11   6   16.60   16.70
  -1  11   6   11.30    6.20
   1  11  -6   18.60   11.60
   1  11  -6   -1.50   11.50
   0 -11  -6  874.21   47.40
   0 -11   6  889.51   58.99
   0 -11   6  949.60   59.59
   0 -11  -6  886.71   54.19
   0  11  -6  859.81   52.59
   0  11   6  945.81   39.00
   1 -11   6  818.32   63.99
  -1 -11  -6  705.13   46.70
   1 -11   6  917.91   59.19
  -1 -11  -6  716.23   50.79
  -1  11  -6  817.82   51.09
   2 -11   6  144.69   29.00
   2 -11   6   88.29   28.70
  -2 -11  -6  158.18   24.60
  -2 -11  -6  125.09   16.60
  -2 -11  -6  117.29   17.20
  -2 -11  -6  127.69   16.70
  -2  11  -6  129.49   24.60
  -2  11  -6  121.09   22.60
   3 -11   6   40.40   30.90
  -3 -11  -6   -2.10   12.60
  -3 -11  -6    3.90   10.20
   3 -11   6  -27.10   23.00
  -3  11  -6   24.60   21.40
   4 -11   6  510.45   71.59
   4 -11   6  431.26   58.29
  -4 -11  -6  330.97   24.60
  -4 -11  -6  400.86   39.70
  -4  11  -6  362.06   48.00
  -8 -12   6   10.60   16.30
  -8 -12   6   61.59   26.30
   8 -12  -6   24.90   14.70
   8 -12  -6   47.20   17.90
  -8  12   6   41.10   17.90
  -8  12   6   13.80   18.50
  -8  12   6   38.60   14.00
  -7 -12   6  187.18   25.30
  -7 -12   6  199.98   34.00
   7 -12  -6  160.08   23.60
   7 -12  -6  166.08   39.90
  -7  12   6  207.08   27.70
  -7  12   6  179.78   19.50
  -7  12   6  204.08   28.70
   6 -12  -6   59.59   28.50
   6 -12  -6    7.80   18.70
  -6 -12   6    3.70   14.10
  -6 -12   6    5.00   19.40
  -6  12   6   -0.30    6.70
  -6  12   6   16.10   13.00
  -6  12   6   11.10   12.40
   6  12  -6   10.90   16.50
  -5 -12   6  103.19   20.10
   5 -12  -6  101.19   22.00
   5 -12  -6  194.28   27.70
  -5 -12   6  114.29   23.40
   5  12  -6  106.69   15.20
  -5  12   6  142.19   19.60
  -5  12   6  133.89   19.00
  -5  12   6  111.69   15.90
   5  12  -6  153.38   24.90
  -4 -12   6  -16.50   17.30
  -4 -12   6   -3.20   13.30
   4 -12  -6  -34.20   17.90
   4 -12  -6   33.30   17.90
  -4  12   6    1.60    8.50
  -4  12   6    7.60    8.30
   4  12  -6   22.20   13.60
  -4  12   6    4.40    7.30
  -3 -12   6    9.10   15.00
  -3 -12   6    2.80   17.40
   3 -12  -6    6.20   13.70
  -3  12   6    5.00    6.50
  -3  12   6    5.10    6.60
   3  12  -6   -8.70   12.10
   2 -12  -6  157.98   25.70
   2 -12  -6  170.78   25.00
  -2 -12   6  155.98   27.60
  -2 -12   6  212.98   27.60
  -2  12   6  156.58   11.80
   2  12  -6  130.99   20.30
  -2  12   6  157.98   15.60
   2  12  -6  185.78   20.80
  -1 -12   6   19.50   18.70
   1 -12  -6    0.30   10.60
  -1 -12   6  -15.80   14.50
   1 -12  -6    4.30   18.20
  -1  12   6    9.00    6.10
   1  12  -6    2.40   12.50
   1  12  -6  -20.90   12.50
   0 -12   6    9.30   18.70
   0 -12   6   55.19   20.90
   0 -12  -6   36.30   12.30
   0 -12  -6   56.59   21.40
   0  12  -6   20.90   16.40
   0  12   6   38.10    5.50
  -1 -12  -6   64.59   21.20
   1 -12   6   65.19   23.30
   1 -12   6   61.39   24.40
  -1 -12  -6   62.99   13.50
   1 -12   6   59.89   26.60
  -1  12  -6   41.00   18.10
  -2 -12  -6   40.20    8.80
   2 -12   6   46.20   27.50
  -2 -12  -6   18.00   21.90
   2 -12   6   34.80   27.30
  -2 -12  -6   24.10   12.50
  -2  12  -6   26.40   18.60
  -3 -12  -6  -11.60   10.40
  -3 -12  -6   11.60   13.10
   3 -12   6   -5.50   33.10
   3 -12   6   27.40   29.20
  -3  12  -6   50.89   21.70
  -3  12  -6   21.50   20.40
  -4 -12  -6   71.89   11.00
   4 -12   6   62.89   45.60
   4 -12   6   33.00   34.50
  -4 -12  -6  101.19   22.80
  -4  12  -6   83.49   27.30
   8 -13  -6   34.60   17.50
  -8 -13   6    1.00   16.40
   8 -13  -6    6.80   14.30
  -8  13   6    9.50   18.10
  -8  13   6   -5.10   16.70
  -8  13   6   16.70   18.80
   7 -13  -6   45.60   15.70
  -7 -13   6   77.39   20.60
  -7 -13   6   99.19   31.10
  -7  13   6   76.89   18.60
  -7  13   6   77.59   17.60
  -7  13   6   88.89   12.90
  -6 -13   6  504.35   50.99
  -6 -13   6  518.05   42.60
   6 -13  -6  522.05   62.39
   6 -13  -6  609.44   50.49
  -6  13   6  644.74   39.30
  -6  13   6  569.74   37.60
  -6  13   6  594.94   42.60
   6  13  -6  533.35   43.80
  -5 -13   6  974.60   57.69
  -5 -13   6  976.60   63.29
   5 -13  -6 1033.80   68.39
   5  13  -6  908.11   56.69
  -5  13   6  995.90   49.80
  -5  13   6  935.71   49.99
  -5  13   6  963.90   50.29
  -4 -13   6   51.29   17.80
  -4 -13   6   28.00   19.20
   4 -13  -6   48.40   21.90
   4  13  -6   51.19   17.10
  -4  13   6   33.00   10.20
  -4  13   6   42.80   10.70
  -4  13   6   60.59   12.00
   4  13  -6   55.89   10.20
   3 -13  -6  457.95   38.60
  -3 -13   6  421.26   44.40
  -3 -13   6  390.36   37.20
   3  13  -6  409.66   27.70
  -3  13   6  474.45   26.60
   3  13  -6  410.16   36.10
  -3  13   6  406.86   24.50
  -3  13   6  451.25   25.10
  -2 -13   6  572.04   49.80
   2 -13  -6  580.14   41.20
  -2 -13   6  616.04   46.20
   2  13  -6  625.04   43.30
   2  13  -6  639.04   35.40
  -2  13   6  618.54   31.30
   1 -13  -6  195.68   25.80
  -1 -13   6  187.48   30.10
  -1 -13   6  209.78   29.50
   1 -13  -6  197.58   28.40
   1  13  -6  198.28   28.40
   0 -13   6  170.08   29.40
   0 -13  -6  165.38   23.70
   0 -13  -6  193.68   28.30
   0 -13   6  173.78   29.90
   0  13  -6  189.18   30.40
  -1 -13  -6  588.44   37.50
  -1 -13  -6  670.03   51.49
   1 -13   6  470.95   55.19
   1 -13   6  767.22   59.29
   2 -13   6   41.50   27.80
  -2 -13  -6   31.60   13.10
   2 -13   6   34.20   27.40
  -2  13  -6    7.00   20.50
  -3 -13  -6   96.89   13.20
   3 -13   6  102.79   36.20
   3 -13   6   95.09   40.10
  -3  13  -6   79.39   27.40
  -3  13  -6   50.59   25.50
  -8 -14   6  222.08   39.40
  -8 -14   6  175.78   27.00
   8 -14  -6  222.28   34.30
   8 -14  -6  215.58   29.80
  -8  14   6  178.28   37.30
  -8  14   6  171.28   26.70
   7 -14  -6   75.79   17.80
  -7 -14   6  101.69   29.20
   7 -14  -6   71.19   19.40
  -7 -14   6   90.49   21.20
  -7  14   6   92.79   19.60
  -7  14   6   75.89   20.40
   6 -14  -6   15.90   12.90
  -6 -14   6   -3.30   24.70
  -6 -14   6   41.50   19.30
  -6  14   6   -4.00   15.60
  -6  14   6   23.40   14.10
  -6  14   6    8.40   14.00
   6  14  -6   21.10   18.90
  -5 -14   6    0.10   15.20
   5 -14  -6   14.60   26.10
  -5 -14   6   25.70   22.70
  -5  14   6   24.30   11.70
   5  14  -6   14.90   15.60
  -5  14   6   -7.10   11.70
  -4 -14   6   67.09   22.20
  -4 -14   6   39.30   17.70
   4 -14  -6   65.49   23.30
  -4  14   6   50.69   13.10
   4  14  -6   40.80   10.80
  -4  14   6   46.00   11.50
  -4  14   6   50.39   11.00
  -3 -14   6   53.29   27.30
  -3 -14   6   41.80   23.20
   3 -14  -6   49.40   19.30
   3  14  -6   48.80   17.20
   3  14  -6   50.79   11.50
  -3  14   6   39.30   11.20
  -3  14   6   45.70    8.60
  -2 -14   6  105.59   26.70
  -2 -14   6  108.39   21.50
   2 -14  -6  102.59   19.10
  -2  14   6   96.09   12.10
   2  14  -6   87.89   19.60
   2  14  -6   84.69   15.30
  -2  14   6  114.49   16.50
  -1 -14   6  214.38   36.70
  -1 -14   6  272.27   39.30
   1 -14  -6  234.68   29.70
   1  14  -6  306.77   33.50
  -1  14   6  252.77   17.50
   0 -14   6  141.99   32.10
   0 -14  -6  113.99   33.60
   0 -14  -6  128.59   30.30
   0 -14   6  174.18   33.40
   0  14  -6  162.28   30.10
  -1 -14  -6   54.89   26.50
   1 -14   6   85.39   28.50
  -1 -14  -6   40.30   15.50
   1 -14   6   59.49   27.70
  -1  14  -6   68.39   24.10
   2 -14   6   21.10   31.40
   2 -14   6   14.90   35.00
  -2 -14  -6    7.50   13.00
  -2  14  -6   17.90   22.80
   3 -14   6   46.20   37.70
  -3 -14  -6   91.19   12.20
   3 -14   6   59.69   45.70
  -3  14  -6  127.49   28.70
  -7 -15   6   54.49   29.40
   7 -15  -6   11.20   15.00
  -7 -15   6  -20.00   18.30
   7 -15  -6   -1.10   15.00
  -7  15   6    1.50   16.70
  -6 -15   6   90.69   33.70
   6 -15  -6   56.79   16.60
  -6 -15   6   84.09   21.90
   6  15  -6  109.69   25.50
  -6  15   6   85.79   17.90
  -6  15   6   78.79   20.50
  -5 -15   6  216.68   33.30
  -5 -15   6  224.68   34.30
  -5  15   6  192.08   27.10
   5  15  -6  257.37   36.70
  -5  15   6  203.48   24.60
  -5  15   6  130.09   21.70
  -4 -15   6   34.20   20.10
  -4 -15   6   40.80   24.00
   4 -15  -6   59.49   28.10
  -4  15   6   43.90   12.10
   4  15  -6   12.50   19.50
  -4  15   6   37.30   12.60
  -3 -15   6  349.17   38.70
   3 -15  -6  283.67   40.90
  -3 -15   6  345.37   58.59
  -3  15   6  265.27   28.10
   3  15  -6  341.97   26.50
   3  15  -6  417.36   37.20
  -3  15   6  289.27   18.70
  -3  15   6  326.97   25.50
  -2 -15   6  158.68   26.90
  -2 -15   6  119.69   31.00
   2 -15  -6  115.09   21.80
   2  15  -6  150.98   18.70
  -2  15   6  193.38   20.50
   2  15  -6  131.39   23.40
  -1 -15   6   41.00   24.10
   1 -15  -6   73.89   17.70
  -1 -15   6   47.20   28.70
   1  15  -6   36.40   18.60
   0 -15   6   52.99   30.20
   0 -15  -6   52.09   17.20
   0 -15   6   67.59   25.60
   0 -15   6   68.89   34.10
   0  15  -6   52.69   20.90
  -1 -15  -6  184.08   21.90
   1 -15   6  216.98   37.80
   1 -15   6  204.68   38.00
  -1  15  -6  168.68   29.40
  -2 -15  -6    0.50   13.10
   2 -15   6  -63.79   33.90
   2 -15   6   55.09   33.80
  -2  15  -6   61.09   25.90
   6 -16  -6   25.90   15.60
   6 -16  -6   31.50   15.40
  -6 -16   6   50.99   20.40
  -6 -16   6   88.89   31.80
   6  16  -6   98.49   25.60
  -6  16   6    6.80   20.50
  -6  16   6   29.80   17.70
  -5 -16   6    8.70   30.10
   5 -16  -6    9.90   13.90
  -5 -16   6   16.10   19.40
  -5  16   6   23.50   13.10
  -5  16   6  -18.10   14.90
   5  16  -6   -1.10   19.20
  -4 -16   6  181.58   27.90
  -4 -16   6  158.48   33.60
  -4  16   6  194.78   26.60
  -4  16   6  204.88   20.30
   4  16  -6  138.39   27.30
  -3 -16   6  189.98   30.30
  -3 -16   6  224.18   35.00
   3  16  -6  195.58   29.10
  -3  16   6  254.17   24.90
   2 -16  -6  128.39   35.10
  -2 -16   6   98.19   32.40
  -2 -16   6  151.78   25.10
   2  16  -6   96.29   24.60
  -1 -16   6  861.91   64.79
   1 -16  -6  814.62   52.69
  -1 -16   6  721.43   68.49
   1  16  -6  868.31   58.69
   0 -16   6  155.88   33.40
   0 -16   6  237.38   37.90
   0 -16  -6  181.98   24.10
   0  16  -6  183.38   29.50
   1 -16   6   28.90   32.40
  -1 -16  -6    4.60   15.90
   1 -16   6  -31.00   27.10
  -1  16  -6   20.60   24.30
   2 -16   6   58.39   43.80
  -2 -16  -6   69.89   15.90
   2 -16   6  112.69   39.50
  -2  16  -6  111.99   32.90
   6 -17  -6   26.30   16.00
  -6 -17   6   75.49   33.80
   6 -17  -6   -3.00   15.80
  -6  17   6  -35.30   20.90
  -6  17   6   13.90   17.20
   6  17  -6   33.80   23.90
  -5 -17   6  120.29   35.10
  -5 -17   6  144.99   28.60
   5 -17  -6  131.39   20.10
   5 -17  -6  138.09   21.60
   5  17  -6   94.29   27.40
  -5  17   6  142.99   22.90
  -5  17   6  187.78   25.90
  -4 -17   6  136.09   36.20
  -4 -17   6  240.28   32.60
  -4  17   6  255.17   30.70
   4  17  -6  191.38   31.50
  -4  17   6  184.28   20.60
  -3 -17   6   59.19   25.90
  -3 -17   6   43.00   28.80
  -3  17   6   75.29   17.30
   3  17  -6   61.89   22.60
  -2 -17   6   62.19   29.90
  -2 -17   6   76.89   25.00
  -2  17   6   57.49   16.10
   2  17  -6   42.90   22.80
  -1 -17   6   46.10   32.20
  -1 -17   6  114.19   31.50
   1  17  -6  101.89   24.90
   0 -17   6  -34.80   28.90
   0 -17   6   23.40   35.70
   0  17  -6   12.90   22.00
   1 -17   6  -20.20   36.50
   1 -17   6   67.69   35.00
  -1  17  -6  -47.20   24.90
   4 -18  -6  489.85   36.20
  -4 -18   6  475.15   65.89
   4 -18  -6  488.95   39.10
  -4 -18   6  469.55   52.79
  -4  18   6  476.45   47.30
   4  18  -6  515.05   52.99
   3 -18  -6  101.69   16.30
  -3 -18   6  122.39   37.40
  -3 -18   6  134.59   33.20
  -3  18   6  133.79   27.20
   3  18  -6   67.69   28.90
  -2 -18   6   91.79   33.80
  -2 -18   6   49.70   26.60
   2  18  -6   69.59   26.30
  -1 -18   6  117.39   40.50
  -1 -18   6  215.58   40.20
   1  18  -6  194.68   34.70
   0 -18  -6  253.77   22.50
   0 -18   6  194.38   40.60
   0 -18   6  294.87   49.20
   0  18  -6  226.08   37.40
 -10   0   7   -5.50   17.70
 -10   0   7   13.50   18.60
 -10   0   7    0.30   25.20
  10   0  -7  -12.00   12.00
  -9   0   7    8.30   20.40
  -9   0   7  -10.50   14.20
  -8   0   7   15.30   16.00
  -8   0   7  -29.00   17.30
  -8   0   7   12.10   13.90
  -7   0   7   -3.80   11.90
  -7   0   7  -15.20   12.20
  -7   0   7   -3.50   11.60
   7   0  -7  -12.30   20.90
   6   0  -7  -36.10   17.00
  -6   0   7   -3.90   11.90
  -6   0   7   -5.40    5.80
  -6   0   7    1.20   10.60
   6   0  -7  -12.00   14.40
  -6   0   7   -5.40    9.10
  -5   0   7    6.30    7.70
  -5   0   7   -3.30    8.90
   5   0  -7  -19.00   14.00
  -5   0   7    7.60   11.30
   5   0  -7   -1.00   11.60
  -5   0   7    5.20    6.70
   4   0  -7    0.90   11.60
  -4   0   7   -0.30   10.00
  -4   0   7    7.60    7.90
  -4   0   7   -7.10    9.50
  -4   0   7   11.50    9.60
   4   0  -7   -1.20   10.30
  -3   0   7   -6.40    8.80
   3   0  -7    7.70   14.60
  -3   0   7   -1.80    7.20
  -3   0   7    3.70    9.10
   3   0  -7    3.40   10.00
  -3   0   7   -9.10   10.10
  -2   0   7    0.60    9.50
   2   0  -7   17.20   14.20
  -2   0   7    7.70    9.00
  -2   0   7    3.00    7.70
  -2   0   7  -13.50    9.00
   2   0  -7  -18.70   12.10
  -1   0   7    9.70    9.30
  -1   0   7    3.00   11.20
  -1   0   7   -1.90    8.00
   1   0  -7    9.70   14.80
   1   0  -7   -1.80   10.10
  -1   0   7  -11.80    9.40
   1   0  -7    6.50    3.40
   0   0   7   13.40   10.70
   0   0   7   -5.40   10.10
   0   0  -7    3.50    5.50
   0   0   7   11.50    8.70
   0   0  -7    8.70    9.70
   0   0   7   -2.10    8.90
   0   0   7   16.10    9.90
   0   0  -7  -11.20   13.30
  -1   0  -7   15.80   11.20
   1   0   7   -2.80    8.70
  -1   0  -7    3.30   10.20
   1   0   7    1.90   11.10
   1   0   7   12.00   12.90
   1   0   7   14.90   10.70
   1   0   7    4.80   11.60
   2   0   7   -2.70   11.60
   2   0   7   -8.50   11.50
   2   0   7   22.70   13.10
  -2   0  -7  -26.00   13.80
   2   0   7    4.80    9.30
  -2   0  -7  -16.70   11.20
   3   0   7   15.40   13.40
   3   0   7   13.60   16.40
   3   0   7   10.30   14.50
  -3   0  -7   -3.50   14.70
   4   0   7    8.30   18.20
   4   0   7  -14.60   12.50
  -4   0  -7    1.90   21.70
   5   0   7  -40.30   22.40
  -5   0  -7  -47.40   27.90
 -10  -1   7  185.28   33.40
 -10  -1   7  145.89   22.50
  10  -1  -7  102.49   18.00
 -10  -1   7  173.88   28.20
 -10   1   7  155.28   25.40
 -10   1   7  186.28   26.80
  10   1  -7  130.19   17.50
 -10   1   7  114.59   28.00
  -9  -1   7   98.89   19.60
  -9  -1   7   41.80   22.20
  -9   1   7   55.99   21.70
  -9   1   7   50.99   17.90
  -9   1   7   55.59   20.30
  -8  -1   7   43.30   19.40
  -8  -1   7   41.40   18.90
  -8  -1   7   47.00   15.00
  -8   1   7   31.80   18.00
  -8   1   7   35.40   25.20
   8   1  -7   62.19   27.30
  -8   1   7   25.50   15.50
  -7  -1   7  681.03   39.40
  -7  -1   7  632.44   40.80
  -7  -1   7  560.64   43.30
  -7  -1   7  572.74   27.60
  -7   1   7  558.04   41.50
  -7   1   7  563.44   38.60
   7   1  -7  540.55   46.00
  -7   1   7  609.24   36.70
  -6  -1   7  322.27   29.90
  -6  -1   7  301.77   30.90
  -6  -1   7  339.97   25.10
   6  -1  -7  285.87   33.00
  -6  -1   7  307.37   20.50
   6  -1  -7  274.17   37.40
  -6   1   7  347.17   19.90
   6   1  -7  376.76   34.30
   6   1  -7  299.37   33.60
  -6   1   7  314.67   30.80
  -6   1   7  329.77   23.70
  -6   1   7  296.77   28.40
  -5  -1   7   78.49   14.20
  -5  -1   7  130.99   14.90
   5  -1  -7   90.59   18.10
  -5  -1   7   65.19   15.20
   5  -1  -7   76.89   18.10
  -5  -1   7  102.49   14.70
  -5   1   7   79.99   16.70
  -5   1   7  100.49   13.50
  -5   1   7  116.99   18.30
   5   1  -7  103.19   19.20
  -5   1   7  101.69   13.00
   5   1  -7   95.59   17.90
  -4  -1   7 1067.89   52.59
  -4  -1   7 1042.60   56.39
   4  -1  -7 1093.69   57.69
  -4  -1   7 1005.30   57.69
   4  -1  -7 1124.99   60.49
  -4  -1   7 1087.39   54.59
  -4   1   7 1103.89   56.69
  -4   1   7 1087.29   57.39
   4   1  -7 1042.70   59.89
  -4   1   7 1141.89   53.39
  -4   1   7 1070.29   51.89
   4   1  -7 1039.00   56.59
  -3  -1   7  547.45   33.20
  -3  -1   7  521.85   36.90
   3  -1  -7  532.25   38.40
  -3  -1   7  506.95   35.90
  -3  -1   7  522.85   33.20
   3  -1  -7  561.84   36.70
  -3   1   7  547.95   36.30
  -3   1   7  555.04   35.50
  -3   1   7  611.14   32.20
   3   1  -7  604.44   40.30
  -3   1   7  551.54   33.30
   3   1  -7  552.94   36.00
  -2  -1   7    6.20   10.10
  -2  -1   7   -1.00   10.80
   2  -1  -7   25.90   11.80
   2  -1  -7   25.10   15.00
  -2  -1   7   10.80    9.10
  -2  -1   7    0.20   10.40
  -2   1   7    8.60    9.00
  -2   1   7   18.10    9.80
   2   1  -7   27.60   14.30
  -2   1   7   25.10    9.10
   2   1  -7   13.20    4.40
  -2   1   7   15.80   10.40
   2   1  -7   19.20   10.90
  -1  -1   7  499.65   35.10
   1  -1  -7  520.25   38.30
  -1  -1   7  504.95   34.60
  -1  -1   7  493.25   31.40
  -1  -1   7  483.65   33.50
   1  -1  -7  540.95   34.70
  -1   1   7  529.85   33.70
   1   1  -7  565.44   38.50
   1   1  -7  423.86   25.80
  -1   1   7  459.15   32.60
  -1   1   7  503.55   29.50
   0  -1  -7 1627.94   80.99
   0  -1  -7 1590.04   77.29
   0  -1  -7 1609.74   67.99
   0  -1   7 1593.74   74.99
   0  -1   7 1487.65   77.99
   0  -1   7 1592.24   79.09
   0  -1   7 1802.92   74.59
   0  -1   7 1626.84   79.29
   0   1   7 1704.03   79.29
   0   1   7 1668.53   74.09
   0   1   7 1644.44   72.69
   0   1   7 1679.43   77.39
   0   1  -7 1608.84   70.59
   0   1   7 1672.93   77.69
   0   1  -7 1669.93   79.79
   0   1  -7 1660.93   77.89
  -1  -1  -7  553.24   38.00
  -1  -1  -7  676.73   39.40
   1  -1   7  579.74   34.10
   1  -1   7  530.85   39.50
   1  -1   7  593.64   38.80
   1  -1   7  600.14   40.50
   1  -1   7  621.74   39.50
  -1   1  -7  686.83   39.30
   1   1   7  619.64   32.60
   1   1   7  592.24   37.70
   1   1   7  675.23   39.00
  -1   1  -7  627.24   39.50
   1   1   7  682.13   37.30
   1   1   7  634.24   41.00
   2  -1   7  194.28   26.80
   2  -1   7  155.98   19.50
   2  -1   7  218.18   26.60
  -2  -1  -7  112.09   16.80
   2  -1   7  145.29   20.50
  -2  -1  -7  148.09   21.60
   2   1   7  150.28   21.60
  -2   1  -7  176.88   24.00
   2   1   7  162.58   22.90
  -2   1  -7  155.98   23.20
   2   1   7  131.39   21.60
   3  -1   7  223.98   24.70
   3  -1   7  265.47   32.10
   3  -1   7  345.87   35.20
  -3  -1  -7  198.38   27.60
   3  -1   7  275.07   30.60
  -3  -1  -7  259.87   33.20
   3   1   7  274.07   30.70
  -3   1  -7  205.48   30.60
  -3   1  -7  236.28   34.70
   3   1   7  230.08   23.30
   3   1   7  229.98   32.00
   3   1   7  260.07   20.30
   4  -1   7   43.60   16.70
   4  -1   7   46.30   19.80
  -4  -1  -7   52.79   23.80
  -4   1  -7   37.80   22.90
   4   1   7   45.80   19.90
  10  -2  -7    1.50   12.90
 -10  -2   7  -11.10   23.30
 -10  -2   7   60.69   18.90
 -10  -2   7   38.50   21.40
 -10   2   7   26.90   24.90
 -10   2   7    8.70   18.40
 -10   2   7   34.40   22.00
  -9  -2   7  282.17   33.50
  -9  -2   7  262.77   40.20
  -9   2   7  196.88   31.00
  -9   2   7  294.47   38.50
   9   2  -7  368.36   55.89
  -8  -2   7  245.18   37.20
  -8  -2   7  248.98   34.90
  -8  -2   7  278.07   30.10
  -8   2   7  261.47   32.30
  -8   2   7  262.47   30.30
   8   2  -7  298.47   44.10
  -7  -2   7    2.30   14.20
  -7  -2   7   -1.60   13.40
  -7  -2   7   17.50   14.30
  -7  -2   7   -7.50    4.80
   7  -2  -7   -0.30   19.60
  -7   2   7   -6.60   11.00
  -7   2   7   19.00   13.40
   7   2  -7   17.90   18.20
  -7   2   7   16.00   12.10
  -6  -2   7  772.42   49.80
   6  -2  -7  774.12   49.90
   6  -2  -7  719.53   53.49
  -6  -2   7  731.53   37.70
  -6  -2   7  765.22   46.90
  -6  -2   7  795.82   42.30
   6   2  -7  788.42   51.99
   6   2  -7  749.13   47.90
  -6   2   7  768.62   45.20
  -6   2   7  777.42   47.40
  -6   2   7  753.92   35.90
  -6   2   7  786.82   39.50
  -5  -2   7 1163.98   63.29
   5  -2  -7 1250.07   66.09
   5  -2  -7 1251.77   68.19
  -5  -2   7 1223.68   61.89
  -5  -2   7 1228.88   66.39
  -5  -2   7 1308.07   58.69
   5   2  -7 1248.58   67.19
  -5   2   7 1219.38   64.29
  -5   2   7 1242.38   63.09
  -5   2   7 1191.58   56.49
  -5   2   7 1322.47   54.49
   5   2  -7 1293.67   64.99
   4  -2  -7   85.29   16.40
   4  -2  -7   49.40   17.70
  -4  -2   7   45.70   15.00
  -4  -2   7   38.10   11.90
  -4  -2   7   93.99   15.30
  -4  -2   7   49.00   11.00
  -4   2   7   69.29   11.00
  -4   2   7   59.09   13.10
   4   2  -7   49.10   14.40
  -4   2   7   52.79   10.40
   4   2  -7   48.00   16.30
  -4   2   7   49.00   12.70
  -3  -2   7   23.80   10.00
  -3  -2   7   30.70   13.70
   3  -2  -7   19.70   11.70
  -3  -2   7   40.30   11.70
   3  -2  -7   11.20   14.30
  -3  -2   7   15.60   11.70
   3   2  -7   33.40    6.30
  -3   2   7   25.60    9.30
   3   2  -7   39.30   14.40
   3   2  -7   46.00   13.60
  -3   2   7   32.40   11.70
  -3   2   7   19.80   10.10
  -3   2   7   25.50    8.10
  -2  -2   7   17.20   12.30
  -2  -2   7   -1.50   12.20
  -2  -2   7   15.30   10.70
   2  -2  -7    4.70   10.50
  -2  -2   7    9.30   10.00
   2  -2  -7   23.00   14.30
   2   2  -7    8.40   13.70
   2   2  -7   11.60   11.80
  -2   2   7    3.50    9.40
  -2   2   7   18.00    7.80
  -2   2   7   24.30   11.30
   2   2  -7   18.00    5.70
  -2   2   7   -4.30    9.40
   1  -2  -7   38.00   16.20
  -1  -2   7   28.10   11.90
  -1  -2   7   45.30   11.50
   1  -2  -7   29.60   12.40
  -1  -2   7   49.10   13.20
  -1  -2   7   41.60   15.00
   1   2  -7   32.90   13.20
  -1   2   7   52.89   10.00
  -1   2   7   38.20   10.30
  -1   2   7   36.90   11.70
   1   2  -7   49.80   15.40
  -1   2   7   49.70   13.00
   1   2  -7   45.00    7.70
   0  -2   7  -12.30   12.20
   0  -2   7   -4.70    9.90
   0  -2  -7   18.00   16.50
   0  -2   7   -4.80   10.00
   0  -2   7   15.20   11.90
   0  -2   7    4.10   11.40
   0  -2  -7  -17.40   10.10
   0   2  -7   -1.40   13.60
   0   2   7    9.30   10.70
   0   2   7   20.10    7.90
   0   2   7    2.00   10.00
   0   2  -7   -0.60    6.80
   0   2   7  -14.60    8.30
   0   2   7   16.40    8.10
   0   2  -7  -30.50   16.70
   1  -2   7  759.12   46.40
   1  -2   7  717.43   39.30
   1  -2   7  752.92   43.40
   1  -2   7  652.13   45.20
   1  -2   7  764.72   46.70
  -1  -2  -7  673.03   41.80
  -1  -2  -7  763.62   42.90
  -1   2  -7  758.42   44.90
   1   2   7  788.42   41.20
  -1   2  -7  692.13   43.30
   1   2   7  720.83   44.00
   1   2   7  715.13   39.60
  -2  -2  -7  479.35   37.40
   2  -2   7  570.44   40.40
   2  -2   7  588.24   40.10
   2  -2   7  475.75   32.30
  -2  -2  -7  538.35   34.80
   2  -2   7  540.25   39.70
   2   2   7  541.95   39.00
   2   2   7  503.55   30.60
   2   2   7  559.44   35.70
  -2   2  -7  521.75   39.80
   2   2   7  508.15   27.30
  -2   2  -7  534.75   36.60
   2   2   7  455.85   35.40
   3  -2   7    6.40   13.70
  -3  -2  -7   -8.70   16.70
   3  -2   7   38.00   15.90
   3  -2   7  -10.80   17.10
   3  -2   7  -23.30   15.20
  -3  -2  -7   -6.10   12.20
  -3   2  -7   29.10   30.00
   3   2   7   25.70   16.60
  -3   2  -7   18.10   16.40
   3   2   7    6.40   17.50
   4  -2   7   35.50   19.60
   4  -2   7   96.39   22.50
  -4  -2  -7   49.30   24.90
   4   2   7   51.69   20.30
  -4   2  -7   28.60   23.10
 -10  -3   7  277.37   34.20
 -10  -3   7  228.08   34.40
  10  -3  -7  125.39   19.70
 -10   3   7  168.68   30.00
  10   3  -7  187.28   22.40
 -10   3   7  182.08   27.30
 -10   3   7  187.28   27.20
  -9  -3   7  274.17   31.40
  -9  -3   7  225.48   32.30
  -9   3   7  168.08   28.70
  -9   3   7  245.78   29.10
  -9   3   7  262.37   40.30
  -8  -3   7    4.40   24.40
  -8  -3   7   29.40   19.30
  -8  -3   7   53.29   16.90
  -8   3   7   50.99   18.90
  -8   3   7   83.59   18.60
   8   3  -7   16.40   23.20
  -8   3   7   72.59   17.60
  -7  -3   7  498.25   36.90
  -7  -3   7  445.16   23.60
  -7  -3   7  461.25   36.40
  -7  -3   7  442.76   40.00
   7  -3  -7  438.16   45.20
  -7   3   7  472.65   34.30
  -7   3   7  440.26   36.90
   7   3  -7  395.76   42.50
  -7   3   7  452.95   31.60
   6  -3  -7  142.59   22.70
  -6  -3   7  121.39   21.00
  -6  -3   7  135.59   22.10
  -6  -3   7  173.68   25.50
  -6  -3   7  125.39   15.80
  -6   3   7  135.39   16.00
   6   3  -7  131.19   21.90
  -6   3   7  164.98   24.00
  -6   3   7  140.89   21.60
   6   3  -7  133.99   21.90
  -5  -3   7   67.19   16.70
  -5  -3   7   40.40   10.70
  -5  -3   7   59.59   15.50
   5  -3  -7   61.69   16.10
   5  -3  -7   34.40   17.80
  -5  -3   7   83.89   13.20
  -5   3   7   55.19   14.00
  -5   3   7   73.69   14.80
   5   3  -7   69.99   16.70
  -5   3   7   50.49    9.00
  -5   3   7   66.49    8.10
   5   3  -7   36.40   15.70
   4  -3  -7  183.98   23.90
  -4  -3   7  192.18   23.70
  -4  -3   7  183.38   26.20
   4  -3  -7  195.68   25.50
  -4  -3   7  185.88   19.90
  -4  -3   7  189.88   24.10
  -4   3   7  187.48   17.80
  -4   3   7  168.38   22.10
  -4   3   7  202.28   19.20
   4   3  -7  223.28   27.00
  -4   3   7  208.18   22.10
   4   3  -7  180.08   24.00
   3  -3  -7    3.80   14.80
  -3  -3   7   -2.50   10.40
  -3  -3   7    8.50   11.30
  -3  -3   7    9.50   10.90
   3  -3  -7    6.20   10.60
  -3  -3   7    1.70    8.70
  -3   3   7    2.40    7.40
   3   3  -7   12.40   13.50
  -3   3   7    2.70    9.70
   3   3  -7   -5.10   11.60
  -3   3   7    3.30    8.70
   3   3  -7   -2.10    5.30
  -3   3   7   -1.20    7.30
  -2  -3   7   39.60   13.60
   2  -3  -7   10.00   15.20
  -2  -3   7   33.50   13.00
  -2  -3   7   17.30    9.90
   2  -3  -7    5.40   10.20
  -2  -3   7   34.50   12.50
   2   3  -7   30.40   15.10
   2   3  -7   24.00   11.50
  -2   3   7   25.40    7.90
  -2   3   7   24.60    9.70
   2   3  -7   27.60    6.60
  -2   3   7   15.30   13.90
  -2   3   7   13.00    9.50
   1  -3  -7  223.98   23.80
  -1  -3   7  208.58   23.80
  -1  -3   7  203.18   23.10
  -1  -3   7  194.28   24.20
  -1  -3   7  206.88   26.10
   1  -3  -7  197.78   30.20
  -1   3   7  244.28   21.40
  -1   3   7  222.58   17.60
   1   3  -7  264.97   26.40
  -1   3   7  216.78   21.60
   1   3  -7  221.88   17.10
  -1   3   7  207.68   22.30
   1   3  -7  232.18   25.00
   0  -3   7  178.08   25.70
   0  -3   7  151.18   22.50
   0  -3  -7  196.28   30.10
   0  -3  -7  193.88   22.50
   0  -3   7  188.18   27.30
   0  -3   7  215.08   21.90
   0  -3   7  169.68   20.60
   0   3  -7  177.28   17.50
   0   3   7  198.38   19.80
   0   3   7  195.18   18.40
   0   3  -7  186.08   24.20
   0   3   7  192.18   16.40
   0   3   7  196.68   22.20
   0   3   7  202.38   19.90
   1  -3   7   61.99   16.30
  -1  -3  -7   82.89   14.70
  -1  -3  -7   58.49   13.30
  -1  -3  -7   62.69   22.30
   1  -3   7   52.49   15.60
   1  -3   7  107.19   20.60
   1  -3   7   75.79   14.10
  -1  -3  -7   74.59   10.50
   1   3   7   62.79   11.80
   1   3   7   85.69   13.30
   1   3   7  118.59   17.80
  -1   3  -7   98.29   16.60
   1   3   7   87.79   12.40
   1   3   7   64.79   15.80
  -1   3  -7   95.39   17.80
  -2  -3  -7  486.15   35.50
  -2  -3  -7  540.75   38.80
   2  -3   7  515.45   34.20
   2  -3   7  555.64   42.70
   2  -3   7  571.24   43.00
   2  -3   7  565.54   41.90
  -2  -3  -7  518.25   35.00
   2   3   7  521.25   39.20
   2   3   7  544.85   27.60
   2   3   7  545.75   35.10
  -2   3  -7  587.34   39.60
   2   3   7  542.25   35.10
  -2   3  -7  461.15   39.60
   2   3   7  523.45   25.40
  -3  -3  -7  201.68   25.30
   3  -3   7  206.58   28.20
  -3  -3  -7  142.69   23.70
  -3  -3  -7  155.78   20.20
   3  -3   7  150.68   24.70
   3  -3   7  169.88   25.50
   3  -3   7  137.29   23.40
  -3   3  -7  149.99   26.60
   3   3   7  185.58   26.10
  -3   3  -7  229.98   33.20
  -4  -3  -7   12.00   23.20
   4  -3   7   40.00   21.40
   4  -3   7   43.70   20.70
  -4   3  -7    1.80   21.70
   4   3   7    7.70   16.90
  10  -4  -7  -11.90   13.20
 -10  -4   7   15.40   25.90
 -10  -4   7   18.60   16.90
 -10   4   7   21.00   23.20
  10   4  -7   23.80   11.30
 -10   4   7    9.90   19.70
 -10   4   7   30.10   20.80
  -9  -4   7  296.67   35.90
  -9  -4   7  245.88   34.10
  -9   4   7  295.87   36.60
  -9   4   7  265.17   30.70
  -9   4   7  291.87   31.10
  -8  -4   7  742.63   52.79
  -8  -4   7  721.63   51.89
  -8   4   7  689.13   48.90
  -8   4   7  741.43   45.70
  -8   4   7  685.93   47.10
   8   4  -7  720.73   51.09
  -8   4   7  727.33   41.80
   7  -4  -7   27.10   22.80
  -7  -4   7   55.99   16.80
  -7  -4   7   22.50    7.50
  -7  -4   7   23.00   18.20
  -7  -4   7   33.80   14.30
  -7   4   7    2.20   10.50
  -7   4   7   15.20   13.00
   7   4  -7   62.99   18.10
  -7   4   7   26.70   13.10
  -6  -4   7 1280.87   70.29
  -6  -4   7 1276.37   58.79
  -6  -4   7 1234.18   65.89
  -6  -4   7 1365.66   64.59
   6  -4  -7 1236.08   69.29
  -6   4   7 1192.88   63.39
  -6   4   7 1192.98   65.29
   6   4  -7 1251.57   66.69
  -6   4   7 1326.87   57.69
  -5  -4   7 1332.77   64.79
   5  -4  -7 1438.36   77.49
  -5  -4   7 1370.26   70.49
  -5  -4   7 1437.56   74.29
  -5  -4   7 1397.36   65.99
   5  -4  -7 1545.25   72.79
  -5   4   7 1309.37   67.09
  -5   4   7 1328.87   61.99
  -5   4   7 1393.66   69.99
  -5   4   7 1444.36   58.69
   5   4  -7 1462.25   71.69
   5   4  -7 1335.77   70.19
  -4  -4   7  189.08   25.80
  -4  -4   7  187.38   23.70
  -4  -4   7  189.48   24.70
  -4  -4   7  162.18   19.30
   4  -4  -7  147.59   23.00
   4  -4  -7  213.38   25.30
  -4   4   7  146.59   21.60
   4   4  -7  123.19   18.80
  -4   4   7  196.38   21.90
   4   4  -7  221.18   27.80
  -4   4   7  184.38   17.70
  -4   4   7  188.28   17.50
   4   4  -7  176.28   16.30
  -3  -4   7    2.80    9.60
   3  -4  -7    1.90   10.40
  -3  -4   7   21.10   13.70
   3  -4  -7   -6.70   14.60
  -3  -4   7   20.50   11.80
  -3   4   7   -3.50    6.70
   3   4  -7    4.10    5.90
  -3   4   7   -6.70    9.10
   3   4  -7   -3.60   11.70
  -3   4   7   -1.90    9.20
   3   4  -7  -29.30   13.00
  -2  -4   7  167.48   22.00
   2  -4  -7  108.49   16.70
  -2  -4   7  114.19   18.30
  -2  -4   7  113.19   19.20
   2  -4  -7  154.58   22.80
  -2   4   7  123.69   15.20
   2   4  -7  167.18   23.60
   2   4  -7   87.99   13.60
  -2   4   7  133.09   17.10
   2   4  -7  122.99   18.90
  -2   4   7  106.49   15.80
  -2   4   7  127.09   17.60
  -1  -4   7  199.58   28.40
   1  -4  -7  230.18   23.50
  -1  -4   7  215.08   24.50
  -1  -4   7  224.88   23.10
   1  -4  -7  255.47   28.70
  -1  -4   7  179.18   24.40
  -1   4   7  206.18   20.50
   1   4  -7  198.88   17.70
  -1   4   7  195.78   16.70
  -1   4   7  208.18   21.20
   1   4  -7  184.78   27.50
  -1   4   7  237.18   19.90
   1   4  -7  204.58   24.70
   0  -4  -7   98.59   15.70
   0  -4   7   78.89   16.90
   0  -4   7   98.49   18.00
   0  -4   7  100.49   17.30
   0  -4   7  158.48   23.80
   0  -4  -7  117.59   20.50
   0  -4   7   96.29   16.20
   0   4   7  105.49   15.80
   0   4  -7   95.99   15.60
   0   4  -7  100.79   16.40
   0   4   7   91.89   15.00
   0   4   7  116.79   12.80
   0   4   7   95.19   12.10
  -1  -4  -7 1628.34   75.89
  -1  -4  -7 1637.74   67.69
   1  -4   7 1716.13   76.09
   1  -4   7 1517.05   81.49
  -1  -4  -7 1686.73   83.19
   1  -4   7 1630.64   82.69
  -1  -4  -7 1585.24   76.69
   1  -4   7 1549.84   81.29
  -1   4  -7 1595.44   79.99
   1   4   7 1590.24   70.19
   1   4   7 1664.73   79.79
  -1   4  -7 1670.83   78.49
   1   4   7 1646.64   74.79
  -1   4  -7 1713.33   75.79
   1   4   7 1596.04   68.29
   1   4   7 1669.43   73.39
  -2  -4  -7  866.61   41.90
   2  -4   7  844.32   47.30
   2  -4   7  898.11   56.19
  -2  -4  -7  797.62   49.20
   2  -4   7  818.52   54.29
   2  -4   7  791.12   64.59
  -2  -4  -7  854.01   46.50
   2   4   7  856.01   66.49
  -2   4  -7  870.91   50.69
   2   4   7  902.61   45.10
   2   4   7  866.01   47.50
  -2   4  -7  752.32   51.69
  -3  -4  -7   14.40   11.70
  -3  -4  -7  -10.50   16.80
   3  -4   7  -12.30   18.80
   3  -4   7   13.90   17.20
   3  -4   7   17.90   17.90
   3  -4   7   24.50   21.60
  -3  -4  -7  -13.50   14.40
  -3   4  -7   29.30   19.00
   3   4   7  -13.60   13.30
  -3   4  -7  -23.60   17.40
   4  -4   7  244.88   39.00
  -4  -4  -7  136.59   32.10
   4  -4   7  170.88   29.70
   4   4   7  133.89   23.70
  -4   4  -7  153.78   29.40
 -10  -5   7   48.50   29.30
  10  -5  -7   40.70   16.30
 -10  -5   7   80.29   20.90
 -10   5   7   77.79   23.90
 -10   5   7   44.90   20.30
 -10   5   7   51.99   24.20
  10   5  -7   64.39   12.20
  -9  -5   7   20.60   16.70
  -9  -5   7   33.60   20.70
   9  -5  -7   -1.80   11.70
  -9   5   7   39.20   17.30
   9   5  -7   13.90   10.60
  -9   5   7   18.10   18.90
  -9   5   7  -11.10   15.50
  -8  -5   7   -0.90   15.70
  -8  -5   7   22.40   19.00
   8   5  -7  -39.20   19.30
  -8   5   7  -14.10   17.70
  -8   5   7    0.40   14.00
  -8   5   7   25.70   10.90
  -8   5   7   15.30   15.50
  -7  -5   7  100.29   20.60
  -7  -5   7  124.49   22.50
  -7  -5   7   87.29   19.10
   7  -5  -7  113.89   25.00
  -7  -5   7  124.89   15.80
  -7   5   7  119.19   18.00
  -7   5   7  151.08   23.30
  -7   5   7  110.29   19.70
   7   5  -7  118.49   21.00
  -7   5   7  148.59   21.60
  -6  -5   7   93.99   18.70
  -6  -5   7   81.39   12.70
  -6  -5   7  136.09   20.00
   6  -5  -7  123.19   23.80
  -6  -5   7  105.39   21.10
   6   5  -7  142.19   20.70
  -6   5   7   81.29   14.80
  -6   5   7   87.89   14.40
  -6   5   7  109.09   19.00
  -5  -5   7   72.39   18.40
   5  -5  -7  107.69   20.50
  -5  -5   7   59.19   13.50
  -5  -5   7   82.79   16.10
  -5   5   7   49.40   13.50
   5   5  -7   88.49   17.40
   5   5  -7   26.50   14.40
  -5   5   7   63.89    8.70
  -5   5   7   79.99   14.30
  -4  -5   7    6.20   12.60
   4  -5  -7   29.80   14.20
  -4  -5   7    7.30   11.70
  -4  -5   7    9.80   13.40
   4  -5  -7   10.00   18.60
   4   5  -7   16.60   14.00
  -4   5   7    5.20    8.10
  -4   5   7   12.70    9.80
   4   5  -7   -4.30    6.60
  -4   5   7   14.00   10.20
   4   5  -7  -17.90   12.50
  -4   5   7   -3.00    6.50
   3  -5  -7   51.49   19.70
   3  -5  -7    2.70   11.10
  -3  -5   7   26.50   14.10
  -3  -5   7   14.40   10.90
  -3  -5   7   41.30   13.60
   3   5  -7   74.89   15.10
   3   5  -7   16.70    7.60
   3   5  -7   40.20   13.60
  -3   5   7   29.40   10.60
  -3   5   7   34.00   10.20
  -3   5   7   34.50    7.80
  -3   5   7   22.70    8.60
  -2  -5   7   32.40   14.50
   2  -5  -7   49.20   17.20
  -2  -5   7   44.30   14.10
  -2  -5   7   16.20   14.10
   2  -5  -7   11.90   10.90
   2   5  -7   15.90   14.70
  -2   5   7   34.70   10.70
  -2   5   7   56.29    7.80
  -2   5   7   41.60   10.40
   2   5  -7    9.50   11.00
  -2   5   7   32.10   10.50
   2   5  -7   43.40    9.60
   1  -5  -7   30.40   17.40
  -1  -5   7   73.49   16.10
   1  -5  -7   63.39   13.30
  -1  -5   7   49.30   16.80
  -1  -5   7   79.09   18.00
   1   5  -7   47.90   10.30
  -1   5   7   35.60    9.70
  -1   5   7   48.50   10.90
  -1   5   7   51.29   10.40
   1   5  -7   32.20   14.70
   1   5  -7   74.09   15.60
   0  -5   7  335.37   32.60
   0  -5  -7  371.26   36.40
   0  -5   7  354.46   34.70
   0  -5   7  345.97   28.90
   0  -5  -7  366.26   29.10
   0   5   7  313.87   19.10
   0   5   7  348.47   24.10
   0   5   7  311.57   21.80
   0   5  -7  326.37   25.60
   0   5   7  354.16   27.60
   0   5   7  334.47   21.80
   0   5  -7  344.87   29.90
  -1  -5  -7   -5.20   18.00
   1  -5   7   23.20   13.10
   1  -5   7    6.00   16.00
  -1  -5  -7   16.80    4.90
  -1  -5  -7   13.10   11.40
  -1  -5  -7   13.00   10.50
   1  -5   7   21.80   16.20
   1  -5   7    3.10   12.40
   1   5   7   18.40   10.00
   1   5   7   33.20   12.70
  -1   5  -7   18.40   13.60
  -1   5  -7   20.90   13.40
   1   5   7   20.60   10.20
   1   5   7   15.50    4.60
   1   5   7   12.80    5.70
  -1   5  -7   31.40   12.00
  -2  -5  -7   13.20   11.70
  -2  -5  -7   13.40   13.20
   2  -5   7   22.60   17.70
   2  -5   7   27.50   18.80
   2  -5   7   40.30   21.40
   2  -5   7   58.09   19.70
  -2  -5  -7   13.90    9.40
  -2   5  -7   41.40   16.70
   2   5   7    5.30   15.10
  -2   5  -7   25.80   16.50
   2   5   7   11.80   10.90
   2   5   7    7.80   12.60
  -3  -5  -7   -1.10   17.60
   3  -5   7   12.60   22.10
   3  -5   7   12.50   19.90
   3  -5   7   21.00   20.20
  -3  -5  -7   55.49   13.20
   3   5   7   11.80   15.90
  -3   5  -7   45.10   20.70
   4  -5   7  -23.10   20.70
  -4  -5  -7    5.40   39.50
   4   5   7   25.50   18.50
  -4   5  -7  -11.20   23.80
  10  -6  -7   23.10   16.20
 -10  -6   7    6.80   27.00
 -10  -6   7    7.30   21.00
 -10   6   7    6.50   18.90
 -10   6   7  -16.30   20.10
 -10   6   7    3.10   19.10
  -9  -6   7   20.20   17.80
   9  -6  -7   24.10   13.50
  -9  -6   7  -41.10   20.40
  -9   6   7    6.50   16.40
   9   6  -7    7.70    9.80
  -9   6   7   21.50   20.50
  -9   6   7  -11.00   15.40
  -8  -6   7   25.20   21.10
  -8  -6   7   34.80    7.60
  -8  -6   7   18.20   15.70
  -8   6   7   38.60   17.60
  -8   6   7   21.10   12.90
  -8   6   7   35.60   15.70
  -8   6   7    6.40   18.60
   8   6  -7   62.09   17.00
  -7  -6   7   17.50   18.00
  -7  -6   7   40.20   20.30
  -7  -6   7   -9.70    8.10
  -7  -6   7   -5.00   13.20
   7  -6  -7   12.10   22.70
  -7   6   7   -2.20   12.40
  -7   6   7    1.30    8.40
  -7   6   7   11.50   11.80
  -7   6   7   -3.80   12.50
  -6  -6   7  219.78   28.60
  -6  -6   7  339.47   31.40
  -6  -6   7  257.17   34.10
   6  -6  -7  296.47   37.30
   6   6  -7  233.88   29.60
  -6   6   7  285.67   25.70
  -6   6   7  263.57   20.40
  -6   6   7  261.57   27.90
  -5  -6   7  605.04   38.80
  -5  -6   7  608.44   41.70
   5  -6  -7  577.24   43.90
  -5  -6   7  599.04   45.00
  -5   6   7  559.54   38.90
  -5   6   7  602.24   27.20
  -5   6   7  670.83   38.00
   5   6  -7  751.32   60.19
   5   6  -7  634.54   39.90
  -4  -6   7    7.90   15.20
   4  -6  -7   44.60   23.80
  -4  -6   7   31.70   16.00
  -4  -6   7   14.90   12.90
   4  -6  -7   44.00   16.50
  -4   6   7   42.30   12.00
  -4   6   7   31.50    9.00
  -4   6   7   30.90    7.80
   4   6  -7   41.40   14.90
   4   6  -7   27.60    9.30
   4   6  -7   25.40   13.70
  -4   6   7   40.10   12.10
  -3  -6   7  540.05   37.60
   3  -6  -7  554.74   37.70
   3  -6  -7  466.15   42.80
  -3  -6   7  489.25   39.70
  -3  -6   7  516.65   37.70
  -3   6   7  522.95   31.60
  -3   6   7  512.85   33.20
   3   6  -7  548.35   37.40
   3   6  -7  530.15   31.70
   3   6  -7  572.34   36.60
  -3   6   7  520.95   32.10
  -3   6   7  571.24   26.80
   2  -6  -7  916.91   57.49
  -2  -6   7  908.91   56.39
   2  -6  -7  907.91   51.09
  -2  -6   7  906.31   51.79
  -2  -6   7  930.81   54.49
  -2   6   7  979.40   47.20
   2   6  -7  996.80   52.19
   2   6  -7  974.40   51.89
  -2   6   7  918.31   47.10
  -2   6   7  991.40   42.00
   2   6  -7  937.01   47.50
  -2   6   7  897.21   48.10
   1  -6  -7  508.15   35.00
  -1  -6   7  502.35   41.90
  -1  -6   7  597.44   42.00
  -1  -6   7  539.55   40.10
   1  -6  -7  486.85   41.60
  -1   6   7  560.64   26.90
   1   6  -7  584.14   37.70
  -1   6   7  508.95   33.30
  -1   6   7  544.45   30.40
   1   6  -7  515.65   32.50
   0  -6  -7   -7.10   11.10
   0  -6  -7   16.80   16.40
   0  -6   7    6.70   14.90
   0  -6   7   20.80   15.80
   0   6   7    5.30    6.70
   0   6   7   -4.70    9.00
   0   6  -7   -4.80   12.10
   0   6   7    3.10    5.70
   0   6   7    8.20    8.10
   0   6  -7   19.60   10.10
   0   6   7    6.30    5.00
  -1  -6  -7  543.95   34.40
  -1  -6  -7  580.84   37.10
   1  -6   7  516.95   45.80
  -1  -6  -7  693.53   46.80
   1  -6   7  610.34   46.70
   1   6   7  597.24   33.10
  -1   6  -7  591.94   42.60
  -1   6  -7  568.64   38.10
  -1   6  -7  661.23   42.10
   1   6   7  522.25   37.40
   1   6   7  618.44   32.90
   2  -6   7  389.36   44.50
  -2  -6  -7  393.26   30.90
  -2  -6  -7  379.46   25.30
   2  -6   7  466.25   43.10
   2  -6   7  394.16   38.00
  -2  -6  -7  391.26   32.50
  -2   6  -7  420.16   39.60
  -2   6  -7  416.86   38.60
   2   6   7  346.67   33.30
   2   6   7  409.56   30.10
   2   6   7  463.95   26.50
  -3  -6  -7    4.40   16.60
  -3  -6  -7    5.90   12.00
   3  -6   7  -25.90   19.10
   3  -6   7  -12.70   26.90
   3  -6   7    5.10   23.60
   3   6   7   16.80   15.10
  -3   6  -7   -8.30   20.50
   4  -6   7   30.30   27.30
   4  -6   7   56.59   26.60
  -4  -6  -7   67.89   23.60
   4   6   7   10.30   18.20
  -4   6  -7   21.90   26.70
   9  -7  -7   76.19   17.50
  -9  -7   7  108.99   24.50
  -9  -7   7  101.79   28.40
  -9   7   7  110.89   18.60
   9   7  -7   73.79   11.70
  -9   7   7   84.09   21.60
  -9   7   7   93.19   23.40
  -8  -7   7   66.19   31.00
  -8  -7   7   26.40   17.40
  -8  -7   7   28.70    8.80
  -8   7   7    7.30   21.70
  -8   7   7   19.40   15.80
  -8   7   7   16.00   13.20
  -8   7   7   36.60   16.00
  -7  -7   7  529.25   48.20
   7  -7  -7  514.85   55.99
  -7  -7   7  586.84   41.70
  -7   7   7  508.35   37.00
  -7   7   7  587.54   36.40
   7   7  -7  533.55   38.40
  -7   7   7  516.75   31.80
  -6  -7   7  247.48   29.50
  -6  -7   7  306.47   37.40
  -6  -7   7  252.87   35.00
   6  -7  -7  338.57   40.30
  -6   7   7  320.17   28.20
  -6   7   7  298.07   20.30
   6   7  -7  260.27   30.40
  -6   7   7  335.57   22.40
  -6   7   7  310.77   28.90
  -5  -7   7  503.75   38.70
  -5  -7   7  583.74   40.60
   5  -7  -7  542.95   43.90
  -5  -7   7  558.34   44.30
  -5   7   7  575.54   30.40
  -5   7   7  569.34   25.00
  -5   7   7  537.85   36.80
  -5   7   7  602.74   35.90
   5   7  -7  547.65   35.30
  -5   7   7  573.74   25.20
   5   7  -7  573.54   37.70
  -4  -7   7  943.31   57.99
  -4  -7   7  939.51   55.39
   4  -7  -7  984.20   51.49
   4   7  -7 1009.40   52.59
  -4   7   7  923.71   50.09
   4   7  -7  918.61   48.60
   4   7  -7  869.71   52.09
  -4   7   7 1003.10   42.90
  -4   7   7  934.61   48.70
   3  -7  -7  116.69   17.80
   3  -7  -7  128.49   19.50
   3  -7  -7  157.18   25.20
  -3  -7   7  138.99   21.70
  -3  -7   7   99.19   18.10
  -3   7   7  138.89   10.90
   3   7  -7  152.68   18.80
  -3   7   7  146.59   17.10
  -3   7   7  128.19   17.90
   3   7  -7  162.88   24.20
   3   7  -7  148.99   19.90
  -3   7   7  130.69   16.40
   2  -7  -7  107.09   17.70
  -2  -7   7  107.29   20.50
   2  -7  -7  209.78   32.40
  -2  -7   7  122.79   21.00
   2  -7  -7  103.19   19.90
  -2   7   7  135.99   10.50
  -2   7   7  109.39   16.60
   2   7  -7  133.49   18.70
   2   7  -7   95.89   17.90
   2   7  -7  105.89   17.40
  -2   7   7  113.89   16.10
  -2   7   7  110.59   17.50
   1  -7  -7   36.40   19.60
  -1  -7   7   41.00   17.80
   1  -7  -7   20.20   11.50
  -1  -7   7   25.20   15.50
  -1   7   7   49.30   11.90
  -1   7   7   28.60    9.20
  -1   7   7   41.70    6.40
  -1   7   7   35.90    8.40
   1   7  -7   51.99   15.50
   1   7  -7   37.90   12.00
   0  -7   7  720.33   50.79
   0  -7   7  815.92   50.99
   0  -7  -7  649.14   49.60
   0  -7  -7  675.83   41.90
   0   7   7  676.33   41.50
   0   7  -7  807.62   45.00
   0   7  -7  704.73   42.00
   0   7   7  739.73   34.60
   0   7   7  696.33   36.90
   1  -7   7  144.79   26.30
  -1  -7  -7  154.48   22.80
   1  -7   7  137.69   24.80
  -1  -7  -7  154.88   19.90
  -1  -7  -7  139.79   27.00
   1   7   7  186.88   22.10
   1   7   7  180.28   17.90
  -1   7  -7  170.28   24.80
   1   7   7  137.99   17.00
  -1   7  -7  183.88   24.20
  -2  -7  -7  110.39   16.30
  -2  -7  -7   94.59   16.70
  -2  -7  -7   70.29   15.80
   2  -7   7  124.09   28.30
   2   7   7   96.99   13.80
  -2   7  -7   95.49   20.50
  -2   7  -7  110.69   22.50
   2   7   7   77.29   16.00
   3  -7   7  333.37   48.70
  -3  -7  -7  330.57   36.20
   3  -7   7  407.66   45.10
   3  -7   7  355.86   49.90
  -3  -7  -7  304.47   27.80
  -3   7  -7  258.97   40.10
   3   7   7  317.67   34.00
   4  -7   7   87.89   28.90
   4  -7   7  185.48   35.40
  -4  -7  -7  138.99   28.40
   4   7   7  123.89   22.70
  -4   7  -7  166.08   32.40
  -9  -8   7   47.70   21.80
   9  -8  -7   24.20   15.60
  -9  -8   7   38.00   27.60
  -9   8   7   67.09   17.10
   9   8  -7   39.70    9.80
  -9   8   7   56.29   22.30
  -9   8   7   38.60   18.30
  -8  -8   7  122.49   19.20
  -8  -8   7   79.69   20.60
  -8   8   7   94.09   15.70
  -8   8   7   95.99   20.30
  -8   8   7   50.39   18.80
  -7  -8   7    4.70   18.30
   7  -8  -7   48.30   28.30
  -7  -8   7   50.29   22.30
   7   8  -7   15.00   14.20
  -7   8   7   35.80   14.60
  -7   8   7   43.00   16.80
  -7   8   7   45.80   11.00
   6  -8  -7   13.80   12.60
  -6  -8   7    7.70   13.60
  -6  -8   7    1.20   18.80
  -6  -8   7   -2.80   18.20
   6  -8  -7  -15.00   18.60
  -6   8   7   18.10    7.80
   6   8  -7   12.40   13.70
  -6   8   7   16.90   11.90
  -6   8   7   -4.70   10.90
  -6   8   7    0.90    9.20
   5  -8  -7   14.80   12.80
  -5  -8   7   14.70   15.70
  -5  -8   7   -3.50   12.60
  -5  -8   7   26.40   17.50
   5  -8  -7   12.10   18.30
  -5   8   7   11.90   11.20
  -5   8   7    6.80   10.80
  -5   8   7   11.10    7.80
  -5   8   7    3.30    4.20
  -5   8   7   -3.10    6.10
   5   8  -7   13.00   12.50
   5   8  -7   19.70   10.30
  -4  -8   7   34.40   13.90
   4  -8  -7   55.69   14.80
   4  -8  -7    1.80   15.40
  -4  -8   7   20.60   18.20
  -4   8   7   57.39   12.50
  -4   8   7   31.20   11.30
   4   8  -7   34.10   14.20
  -4   8   7   26.10    5.80
   4   8  -7   29.10   11.10
   3  -8  -7  129.19   19.90
   3  -8  -7  176.58   25.60
  -3  -8   7  121.79   22.90
  -3  -8   7  154.48   22.50
   3   8  -7  101.09   17.80
   3   8  -7  141.69   20.00
  -3   8   7  147.29   17.60
  -3   8   7  147.99   18.20
   3   8  -7  147.69   20.10
  -3   8   7  151.18    8.50
  -2  -8   7   17.30   13.20
   2  -8  -7    6.20   12.40
   2  -8  -7   16.60   19.80
  -2  -8   7  -17.80   13.20
  -2   8   7    3.10    3.20
  -2   8   7   -2.00    7.20
   2   8  -7    0.60   12.90
   2   8  -7    0.40    9.20
  -2   8   7   -6.30    7.80
   2   8  -7   23.80   15.80
   1  -8  -7   41.20   21.10
  -1  -8   7   69.29   19.70
   1  -8  -7   66.89   14.80
  -1  -8   7   91.49   20.50
  -1   8   7   82.99   11.30
  -1   8   7   73.79   14.10
   1   8  -7  101.59   19.00
  -1   8   7  102.49   14.30
   1   8  -7   75.59   14.80
  -1   8   7   75.19    8.60
   0  -8   7  222.68   30.20
   0  -8   7  237.98   32.30
   0  -8  -7  215.98   34.60
   0  -8  -7  170.48   23.40
   0   8  -7  174.88   24.70
   0   8   7  192.88   22.40
   0   8   7  210.58   17.70
   0   8  -7  275.37   30.90
   1  -8   7    9.00   20.00
   1  -8   7   -3.90   20.20
  -1  -8  -7   15.00   11.50
   1   8   7   10.40   15.10
  -1   8  -7    4.60   13.70
   1   8   7    0.70    7.70
  -1   8  -7   24.20   18.30
   2  -8   7   16.70   22.30
   2  -8   7   26.70   24.60
  -2  -8  -7   29.20    9.90
  -2  -8  -7   -4.00   11.90
  -2  -8  -7   15.30   12.70
   2   8   7   24.40   12.90
  -2   8  -7   -9.20   15.60
  -2   8  -7  -14.50   21.00
  -2   8  -7   36.30   16.30
  -3  -8  -7  164.38   23.80
   3  -8   7  178.68   36.90
   3  -8   7  136.69   32.60
  -3  -8  -7  142.89   19.10
   3  -8   7  136.19   28.20
   3   8   7  177.38   28.90
  -3   8  -7  108.09   26.70
   4  -8   7   12.80   30.20
  -4  -8  -7   39.10   24.10
   4  -8   7    1.90   25.20
  -4   8  -7  -37.50   25.30
   4   8   7  -19.40   15.70
  -9  -9   7   49.90   28.30
  -9  -9   7   65.29   24.10
   9  -9  -7   57.89   16.90
  -9   9   7   78.49   17.50
  -9   9   7   70.19   21.50
  -9   9   7   35.00   21.80
  -8  -9   7   22.90   18.70
  -8  -9   7    0.10   23.70
  -8   9   7   64.89   18.10
  -8   9   7   32.70   13.60
  -8   9   7   64.49   20.60
   7  -9  -7  660.73   64.29
  -7  -9   7  712.33   50.69
  -7  -9   7  819.92   58.19
  -7   9   7  716.03   48.80
  -7   9   7  761.42   38.50
   7   9  -7  734.93   41.90
  -7   9   7  774.52   46.80
   6  -9  -7  529.05   50.69
   6  -9  -7  441.56   36.40
  -6  -9   7  619.04   42.40
  -6  -9   7  499.95   47.20
  -6   9   7  538.65   27.50
   6   9  -7  517.75   34.50
  -6   9   7  536.45   36.20
  -6   9   7  506.05   37.00
   5  -9  -7   49.10   19.60
  -5  -9   7   60.49   17.60
   5  -9  -7   45.30   16.30
  -5  -9   7   29.10   19.70
  -5  -9   7   67.89   21.00
  -5   9   7   62.79    9.30
  -5   9   7   83.69    9.90
  -5   9   7   59.59   14.50
   5   9  -7   66.19   14.90
  -5   9   7   73.19    8.90
  -5   9   7   67.49   14.00
   5   9  -7   76.39   15.30
  -5   9   7   89.39   11.50
   4  -9  -7  457.65   40.10
  -4  -9   7  471.35   37.20
  -4  -9   7  443.66   42.90
   4  -9  -7  417.06   36.40
   4   9  -7  537.75   34.30
   4   9  -7  426.66   32.90
  -4   9   7  466.45   31.20
   3  -9  -7  296.07   33.50
  -3  -9   7  321.57   33.00
   3  -9  -7  388.16   37.50
  -3  -9   7  360.06   38.00
  -3   9   7  401.96   25.20
   3   9  -7  381.26   31.00
  -3   9   7  339.77   25.30
   3   9  -7  345.27   28.40
  -2  -9   7   38.70   17.50
  -2  -9   7   46.80   16.80
   2  -9  -7   48.20   14.20
   2   9  -7   54.99   13.40
  -2   9   7   24.90    9.30
  -2   9   7   37.10    8.30
   2   9  -7   58.39   23.00
  -1  -9   7  364.46   39.60
  -1  -9   7  370.46   36.90
   1  -9  -7  326.67   29.80
   1  -9  -7  245.08   34.10
   1   9  -7  326.87   28.90
  -1   9   7  343.87   22.40
   1   9  -7  328.37   32.60
  -1   9   7  333.17   16.50
  -1   9   7  333.37   26.50
  -1   9   7  334.97   17.00
   0  -9  -7  403.06   45.00
   0  -9   7  464.45   44.30
   0  -9  -7  432.86   31.80
   0  -9   7  407.06   42.80
   0   9   7  420.06   23.60
   0   9  -7  295.67   36.50
   0   9   7  412.06   30.10
   0   9  -7  374.86   32.40
   1  -9   7   37.70   23.20
   1  -9   7   44.20   23.80
  -1  -9  -7   25.20   13.90
   1   9   7   32.50   13.70
  -1   9  -7    1.40   14.10
  -1   9  -7   29.20   20.90
   1   9   7   33.00    6.80
  -2  -9  -7   70.09   15.10
   2  -9   7   88.99   28.90
   2  -9   7   54.69   26.50
  -2   9  -7   51.39   19.40
   2   9   7   80.69   16.70
  -2   9  -7   48.00   20.90
  -3  -9  -7  430.86   39.80
   3  -9   7  518.65   65.19
   3  -9   7  532.65   58.59
  -3   9  -7  573.94   50.79
   3   9   7  506.75   40.60
  -9 -10   7   35.80   19.60
   9 -10  -7   22.20   17.10
  -9 -10   7   44.40   31.70
  -9  10   7   28.80   21.70
  -9  10   7   56.49   17.60
  -9  10   7   68.79   21.70
  -8 -10   7   10.60   19.10
  -8 -10   7  -12.70   25.20
  -8  10   7  -14.90   17.70
  -8  10   7  -20.70   11.60
  -8  10   7    1.00   17.00
  -7 -10   7    6.40   22.10
  -7 -10   7   16.40   18.30
  -7  10   7   22.70   14.00
  -7  10   7  -13.50    8.90
  -7  10   7    2.30   14.10
   6 -10  -7  206.58   30.80
  -6 -10   7  152.28   30.70
   6 -10  -7  139.19   29.70
  -6 -10   7  206.48   31.40
  -6  10   7  218.58   26.70
  -6  10   7  168.38   26.70
   6  10  -7  207.18   24.10
  -6  10   7  176.18   15.30
   5 -10  -7  450.25   37.40
   5 -10  -7  399.86   43.10
  -5 -10   7  395.36   43.50
  -5 -10   7  408.96   35.80
  -5  10   7  421.96   30.50
   5  10  -7  404.86   34.00
  -5  10   7  381.26   30.70
   5  10  -7  384.26   31.00
  -5  10   7  393.46   21.20
   4 -10  -7   24.00   19.40
  -4 -10   7   39.00   20.50
   4 -10  -7   36.80   18.40
  -4 -10   7   -0.60   12.80
   4  10  -7   26.10   12.60
  -4  10   7   17.20    9.60
   4  10  -7   11.70   12.30
  -4  10   7   36.90   11.30
  -3 -10   7   33.30   17.70
   3 -10  -7   38.40   17.30
  -3 -10   7    8.80   18.30
   3  10  -7   25.70   12.90
  -3  10   7   29.70    9.50
  -3  10   7   29.50    9.90
   3  10  -7   35.60   13.30
  -2 -10   7   60.19   19.30
  -2 -10   7   66.69   24.30
   2 -10  -7   81.99   18.00
  -2  10   7  126.99   16.00
  -2  10   7  106.99   12.80
   2  10  -7  100.69   18.00
  -1 -10   7  133.39   25.50
   1 -10  -7  109.99   18.90
  -1 -10   7   91.19   24.30
  -1  10   7   97.99   11.70
   1  10  -7  138.49   22.50
   0 -10  -7   59.89   14.60
   0 -10   7   42.00   26.30
   0 -10   7   64.69   26.30
   0  10  -7   61.69   17.80
   0  10   7   80.89    9.60
   1 -10   7  368.96   48.60
   1 -10   7  391.06   49.70
  -1 -10  -7  367.76   31.30
  -1  10  -7  360.76   36.80
   1  10   7  331.27   30.70
  -2 -10  -7  252.07   25.10
   2 -10   7  252.97   38.70
   2 -10   7  168.48   37.60
  -2 -10  -7  251.67   29.60
   2  10   7  233.68   29.30
   3 -10   7   88.09   36.20
   3 -10   7   59.59   33.00
  -3 -10  -7   33.20   18.60
  -3  10  -7   65.19   26.00
  -3  10  -7   95.39   25.40
   8 -11  -7   10.60   14.10
  -8 -11   7  -10.40   27.80
  -8 -11   7  -12.70   19.30
  -8  11   7   14.30   13.60
  -8  11   7    2.00   16.40
  -8  11   7   33.80   18.20
   7 -11  -7  152.48   65.69
  -7 -11   7  139.79   24.40
  -7 -11   7   79.09   46.10
  -7  11   7  173.28   23.60
  -7  11   7  190.28   19.10
  -7  11   7  242.38   30.70
  -6 -11   7  174.28   24.70
  -6 -11   7  173.68   28.30
   6 -11  -7   97.49   31.70
   6 -11  -7  251.17   35.10
  -6  11   7  200.28   21.70
  -6  11   7  142.19   15.50
   6  11  -7  148.59   22.90
  -6  11   7  155.68   22.90
  -6  11   7  161.88   25.20
  -6  11   7  141.39   15.20
   6  11  -7  172.88   18.90
   5 -11  -7   27.80   22.10
   5 -11  -7   10.80   22.50
  -5 -11   7  -18.30   21.90
  -5 -11   7   27.60   22.30
  -5  11   7   21.50   11.80
   5  11  -7   12.00   13.90
   5  11  -7    4.30   11.80
  -5  11   7   18.30   12.30
   4 -11  -7   94.19   23.00
  -4 -11   7   85.29   24.50
  -4 -11   7   81.09   18.20
   4  11  -7  118.09   17.70
  -4  11   7   84.09   13.70
   4  11  -7   90.69   17.50
  -4  11   7  143.89   19.50
  -3 -11   7   36.70   16.80
   3 -11  -7   59.19   19.80
  -3 -11   7   17.30   20.90
  -3  11   7   35.80    9.90
   3  11  -7   38.30   15.20
   3  11  -7   42.10   15.00
  -2 -11   7   42.30   20.80
  -2 -11   7   16.10   17.50
   2 -11  -7   17.70   15.10
   2  11  -7   22.20   13.50
  -2  11   7   11.20    9.10
  -2  11   7   20.50    6.20
  -1 -11   7  185.68   29.70
   1 -11  -7  156.08   21.10
  -1 -11   7  180.98   41.00
  -1  11   7  171.88   16.40
   1  11  -7  185.28   26.50
   0 -11   7  711.23   58.29
   0 -11  -7  563.04   40.20
   0 -11   7  677.93   55.79
   0  11  -7  561.54   44.00
   0  11   7  641.04   29.20
   1 -11   7  116.09   31.80
   1 -11   7   67.49   29.30
  -1  11  -7   78.89   20.00
  -2 -11  -7  115.39   19.70
   2 -11   7  171.68   38.10
   2 -11   7   72.99   33.80
  -2  11  -7  102.99   24.30
   3 -11   7   76.59   36.60
   3 -11   7  101.79   43.30
  -3  11  -7   99.09   29.70
  -3  11  -7  104.99   28.40
   8 -12  -7  347.57   34.20
  -8 -12   7  428.16   45.60
  -8 -12   7  476.75   61.59
  -8  12   7  396.16   42.30
  -8  12   7  475.05   42.50
  -7 -12   7   -1.00   19.10
  -7 -12   7  -22.20   25.00
  -7  12   7   45.10   17.10
  -7  12   7   26.30   16.10
  -6 -12   7  645.64   49.00
   6 -12  -7  650.83   97.49
  -6  12   7  607.64   36.50
   6  12  -7  595.94   46.60
  -6  12   7  503.35   58.89
  -6  12   7  642.44   41.30
   5 -12  -7  397.76   51.39
  -5 -12   7  548.95   52.59
  -5 -12   7  423.96   40.80
  -5  12   7  507.75   34.00
  -5  12   7  517.35   27.10
   5  12  -7  505.05   39.80
   5  12  -7  436.66   32.20
  -5  12   7  445.56   34.50
  -4 -12   7   13.60   22.60
  -4 -12   7   30.70   18.30
   4 -12  -7   31.40   21.70
   4  12  -7   37.90   14.10
  -4  12   7   12.30   10.80
  -4  12   7   16.40   10.70
   4  12  -7   22.80   13.60
  -3 -12   7   56.79   32.00
   3 -12  -7   60.59   21.70
  -3 -12   7   58.89   19.70
  -3  12   7   70.89   10.10
   3  12  -7   95.49   18.50
  -3  12   7   61.99   11.40
   3  12  -7   39.60   19.30
  -2 -12   7  374.26   39.50
   2 -12  -7  278.57   33.20
  -2 -12   7  304.47   47.50
  -2  12   7  255.97   21.20
   2  12  -7  236.78   29.90
  -1 -12   7  542.15   53.19
  -1 -12   7  558.84   54.49
   1 -12  -7  698.73   43.10
   1  12  -7  596.74   43.40
   0 -12   7   46.10   24.60
   0 -12   7  -30.80   23.10
   0 -12  -7   14.80   15.20
   0  12  -7   -2.50   15.40
  -1 -12  -7  317.87   34.60
   1 -12   7  492.75   56.49
   1 -12   7  390.96   54.79
  -1  12  -7  325.27   41.60
   2 -12   7  262.37   44.80
  -2 -12  -7  238.48   34.00
   2 -12   7  229.98   43.50
  -2  12  -7  197.28   31.60
  -7 -13   7   44.10   22.40
  -7 -13   7   70.09   31.90
  -7  13   7   99.69   20.80
  -7  13   7   62.19   19.90
  -7  13   7   79.79   22.70
  -6 -13   7   36.20   25.50
  -6 -13   7  -23.80   18.30
  -6  13   7  -24.60   12.80
   6  13  -7   22.10   20.60
  -6  13   7   11.10   15.40
  -6  13   7   -0.80   13.80
  -5 -13   7  -31.90   17.90
  -5 -13   7   25.50   26.10
  -5  13   7   -3.50   12.00
  -5  13   7   -6.00   10.10
   5  13  -7    8.20   14.40
  -4 -13   7   16.20   18.10
   4 -13  -7    4.90   21.70
  -4 -13   7   18.90   24.90
   4  13  -7    2.10   13.50
   4  13  -7    4.00   18.30
  -4  13   7   16.90   11.20
  -4  13   7   17.30   10.80
  -3 -13   7   -7.70   22.90
   3 -13  -7   21.20   21.50
  -3  13   7   10.90    8.10
  -3  13   7   14.30   10.70
   3  13  -7   14.10   15.10
  -2 -13   7   14.40   21.50
  -2 -13   7  -47.30   21.70
   2 -13  -7   18.50   17.50
   2  13  -7    2.60   15.80
  -1 -13   7  -17.50   21.30
  -1 -13   7   -9.90   23.30
   1 -13  -7   -0.50   15.00
   1  13  -7  -10.00   18.40
   0 -13  -7   -3.10   15.30
   0 -13   7   10.70   25.80
   0 -13   7  -26.90   23.60
   0  13  -7   14.50   17.10
  -1 -13  -7   34.60   16.80
   1 -13   7   42.70   33.20
   1 -13   7   19.50   29.50
  -1  13  -7   11.80   21.10
   2 -13   7    9.10   35.40
   2 -13   7   46.90   39.40
  -2  13  -7    0.00   24.50
  -7 -14   7   16.30   20.90
  -7 -14   7  -11.90   31.00
   7 -14  -7   13.30   16.10
  -7  14   7   15.60   22.60
  -7  14   7   32.80   18.90
  -6 -14   7  289.57   41.80
  -6 -14   7  223.58   39.50
  -6  14   7  195.28   29.80
  -6  14   7  244.18   30.20
   6  14  -7  272.77   41.80
  -5 -14   7  333.07   51.99
  -5 -14   7  329.77   42.40
  -5  14   7  352.16   29.60
   5  14  -7  334.57   40.60
  -5  14   7  356.76   26.70
  -4 -14   7   26.20   27.30
  -4 -14   7   29.30   22.40
   4  14  -7   30.50   19.90
  -4  14   7   30.90   10.60
  -3 -14   7  126.89   31.80
  -3 -14   7   86.29   25.50
   3  14  -7  119.29   23.50
  -3  14   7  113.29   13.50
  -2 -14   7  758.82   58.29
   2 -14  -7  732.73   63.89
  -2 -14   7  558.24   64.09
   2  14  -7  662.13   49.90
  -1 -14   7  289.57   39.40
   1 -14  -7  206.38   30.30
  -1 -14   7  209.88   40.10
   1  14  -7  223.88   34.30
   0 -14   7   48.30   27.90
   0 -14   7   34.20   29.50
   0  14  -7    6.30   20.90
   1 -14   7   47.30   37.30
   1 -14   7  -12.20   33.10
  -1  14  -7  -43.20   22.20
  -6 -15   7  100.89   27.40
  -6 -15   7  -11.00   32.20
  -6  15   7  103.59   19.20
   6  15  -7   54.29   24.80
  -5 -15   7   18.10   19.80
  -5 -15   7   37.00   30.20
   5  15  -7   54.09   23.00
  -5  15   7   39.60   15.00
  -4 -15   7  251.77   41.20
  -4 -15   7  235.48   34.30
  -4  15   7  259.67   23.00
   4  15  -7  267.77   39.80
  -3 -15   7  103.09   33.10
  -3 -15   7   75.09   28.10
   3  15  -7   43.10   21.70
  -2 -15   7  -25.80   28.80
  -2 -15   7   32.50   26.50
   2  15  -7   31.20   21.50
  -1 -15   7  240.68   40.90
  -1 -15   7  248.28   43.30
   1  15  -7  252.47   39.60
   0 -15   7  694.53   70.69
   0 -15   7  751.12   77.09
   0  15  -7  620.14   54.29
   1 -15   7  263.27   47.20
   1 -15   7  217.68   49.10
  -1  15  -7  193.78   36.10
  -5 -16   7   69.39   34.60
  -5 -16   7   61.59   25.30
   5  16  -7  105.39   27.60
  -5  16   7   77.19   17.50
  -4 -16   7   34.80   22.90
  -4 -16   7   38.00   32.20
  -4  16   7   12.50   11.10
   4  16  -7   26.50   24.20
  -3 -16   7   13.20   26.20
  -3 -16   7   28.80   32.80
   3  16  -7  -12.60   20.90
  -2 -16   7    4.50   27.20
  -2 -16   7   21.50   34.90
   2  16  -7  -10.70   21.90
  -1 -16   7   36.60   35.20
  -1 -16   7   14.70   33.70
   1  16  -7   14.80   23.00
   0 -16   7   10.10   37.50
   0 -16   7    0.90   36.30
  -4 -17   7  245.68   36.50
  -4 -17   7  226.88   47.90
   4  17  -7  288.47   46.10
  -3 -17   7  238.58   40.90
  -3 -17   7  218.18   47.30
   3  17  -7  287.57   46.40
  -2 -17   7   11.70   36.60
  -2 -17   7   29.10   31.40
   2  17  -7   23.30   26.50
 -10   0   8  955.20   64.69
  10   0  -8 1058.29   56.59
 -10   0   8 1159.28   75.39
 -10   0   8 1009.00   65.19
  -9   0   8  400.16   40.20
  -9   0   8  342.77   46.10
  -8   0   8   10.10   17.80
  -8   0   8   49.10   19.90
  -8   0   8    9.80   16.30
  -7   0   8   77.39   12.70
  -7   0   8  111.59   18.00
  -7   0   8   71.99   18.90
  -6   0   8  726.83   49.00
   6   0  -8  750.72   54.39
  -6   0   8  784.02   51.59
  -6   0   8  819.32   40.20
   5   0  -8  290.77   35.50
  -5   0   8  254.27   23.00
  -5   0   8  286.87   30.00
  -5   0   8  259.07   30.80
  -5   0   8  304.27   30.20
  -4   0   8 1104.09   57.89
  -4   0   8 1218.78   63.39
   4   0  -8 1129.99   63.49
  -4   0   8 1190.88   58.99
  -4   0   8 1135.09   64.59
   3   0  -8  974.00   56.79
  -3   0   8  945.41   52.09
  -3   0   8 1005.30   51.59
  -3   0   8  987.90   56.49
  -3   0   8  944.91   54.49
   2   0  -8   22.40   15.40
  -2   0   8   11.60   13.30
  -2   0   8   12.80   13.00
  -2   0   8   -1.80   10.50
  -2   0   8   23.70   12.80
   1   0  -8  232.78   29.70
  -1   0   8  214.78   29.20
  -1   0   8  273.67   27.90
  -1   0   8  244.88   28.60
  -1   0   8  259.47   26.90
   0   0   8  886.11   51.39
   0   0   8  823.52   44.40
   0   0   8  754.12   46.80
   0   0   8  819.42   50.19
  -1   0  -8  440.76   27.90
   1   0   8  465.15   38.00
  -1   0  -8  451.35   38.50
  -1   0  -8  446.96   37.60
   1   0   8  431.36   37.00
   1   0   8  464.75   31.00
   1   0   8  448.06   40.00
   2   0   8    0.50   17.10
   2   0   8    8.20   16.30
  -2   0  -8   62.19   20.40
   3   0   8   24.00   22.20
  -3   0  -8  109.69   27.90
   3   0   8   84.49   19.00
 -10  -1   8    2.40   22.20
 -10  -1   8  -24.90   26.00
  10  -1  -8   18.00   16.00
  10   1  -8    3.30   14.10
 -10   1   8   20.10   21.90
 -10   1   8   52.39   29.80
 -10   1   8   16.90   21.60
  -9  -1   8  -10.70   23.30
  -9  -1   8   -6.50   17.70
  -9   1   8  -14.30   17.60
  -9   1   8   12.30   20.40
  -8  -1   8    1.70   17.20
  -8  -1   8  -23.20   20.70
  -8  -1   8  -26.20   19.20
  -8   1   8   32.40   18.20
  -8   1   8    3.30   17.80
  -8   1   8    0.80   18.20
  -7  -1   8   48.90   15.70
  -7  -1   8   -0.40   16.50
  -7  -1   8    4.90    7.30
  -7   1   8   12.10   14.60
  -7   1   8   15.90   13.30
  -6  -1   8   10.40    9.00
   6  -1  -8  -15.60   17.90
  -6  -1   8   26.80   15.40
  -6  -1   8   31.40   13.00
  -6  -1   8   15.90   16.40
  -6   1   8   17.20    8.60
  -6   1   8   26.40   15.50
  -6   1   8   19.10   14.00
  -6   1   8   41.60   10.50
  -5  -1   8   76.19   18.80
  -5  -1   8   55.59   16.30
   5  -1  -8   33.20   18.20
  -5  -1   8   75.99   20.80
  -5  -1   8   62.99   12.70
  -5   1   8   75.79   16.60
  -5   1   8   69.39   17.00
  -5   1   8   84.39   17.00
  -5   1   8   75.29   12.70
   5   1  -8   42.60   19.80
   4  -1  -8  190.88   28.40
  -4  -1   8  227.58   29.10
  -4  -1   8  198.58   22.30
  -4  -1   8  211.58   27.20
  -4  -1   8  234.38   27.60
  -4   1   8  198.58   22.10
  -4   1   8  210.18   27.30
  -4   1   8  193.28   27.40
  -4   1   8  171.98   24.50
   4   1  -8  223.68   27.60
  -3  -1   8   62.19   16.40
  -3  -1   8   49.40   12.50
   3  -1  -8   76.39   17.30
  -3  -1   8   69.39   15.20
  -3  -1   8   76.69   18.40
   3   1  -8   57.69   18.00
  -3   1   8   57.99   14.00
  -3   1   8   78.69   15.10
  -3   1   8   57.99   15.60
  -3   1   8   60.49   16.40
  -2  -1   8  250.07   30.50
  -2  -1   8  269.47   30.40
   2  -1  -8  316.37   33.20
  -2  -1   8  307.67   28.40
  -2  -1   8  361.06   29.50
  -2   1   8  328.47   26.70
   2   1  -8  335.27   32.70
  -2   1   8  318.47   28.60
  -2   1   8  312.27   30.70
  -2   1   8  299.27   28.80
  -1  -1   8    0.60   12.40
  -1  -1   8   -4.30   13.90
  -1  -1   8   21.20   12.00
  -1  -1   8    6.80   13.40
   1   1  -8  -27.50   12.90
  -1   1   8    8.00   11.50
  -1   1   8  -13.50   12.70
  -1   1   8   -7.50   12.10
   0  -1  -8    8.50   15.60
   0  -1   8   24.80   12.10
   0  -1   8   30.50   15.30
   0  -1   8   22.70   13.60
   0  -1   8   22.10   15.90
   0   1  -8   19.20    7.80
   0   1   8   27.20   14.40
   0   1  -8   19.10   17.60
   0   1   8   34.20   14.30
   0   1   8   42.60   14.40
   0   1   8   26.20   11.30
   0   1   8   52.89   15.70
  -1  -1  -8   31.00   15.90
   1  -1   8   35.50   14.00
  -1  -1  -8   19.10    8.90
   1  -1   8   27.50   17.10
   1  -1   8   16.80   15.40
  -1  -1  -8   35.50   16.10
   1  -1   8   20.00   16.80
   1   1   8   21.00   14.10
   1   1   8   36.40   15.70
  -1   1  -8   39.80   17.80
   1   1   8   30.90   11.80
  -1   1  -8   24.70   10.70
   1   1   8   27.50   17.80
  -1   1  -8   12.70   15.00
  -2  -1  -8  304.97   36.60
   2  -1   8  307.17   35.30
   2  -1   8  292.67   34.90
   2   1   8  230.38   28.00
  -2   1  -8  203.08   35.30
   2   1   8  229.28   34.50
  -3  -1  -8  139.89   28.30
   3  -1   8  143.79   28.20
   3  -1   8  118.29   23.00
  -3   1  -8   77.69   29.60
   3   1   8  133.39   27.20
  10  -2  -8  254.57   32.80
 -10  -2   8  322.37   43.70
 -10  -2   8  302.07   43.30
 -10   2   8  334.97   39.30
 -10   2   8  327.17   43.90
  10   2  -8  289.77   30.60
 -10   2   8  332.07   49.30
  -9  -2   8  209.48   33.70
  -9  -2   8  264.37   37.60
  -9   2   8  268.27   35.20
  -9   2   8  317.17   37.20
  -8  -2   8   -6.60   18.80
  -8  -2   8   44.70   22.10
  -8  -2   8   23.40   20.00
  -8   2   8   -4.50   16.40
  -8   2   8   33.00   21.60
  -8   2   8   -1.80   16.30
  -7  -2   8  145.49   21.10
  -7  -2   8  166.28   16.40
  -7  -2   8  124.19   23.80
  -7   2   8  167.98   33.60
  -7   2   8  160.68   22.70
  -7   2   8  164.88   19.40
   6  -2  -8  321.67   40.70
  -6  -2   8  427.76   37.40
  -6  -2   8  432.36   28.30
  -6  -2   8  413.46   39.60
  -6  -2   8  419.26   30.80
  -6   2   8  406.36   25.50
  -6   2   8  449.46   25.30
  -6   2   8  405.56   37.40
  -6   2   8  382.26   35.50
  -5  -2   8   61.49   17.50
   5  -2  -8   90.59   20.80
  -5  -2   8  103.89   14.70
  -5  -2   8  107.99   20.70
  -5  -2   8  139.39   21.90
   5   2  -8  116.39   23.50
  -5   2   8  111.69   16.80
  -5   2   8   88.99   18.60
  -5   2   8   70.09   16.80
  -5   2   8   86.09   17.70
  -4  -2   8  568.54   40.80
   4  -2  -8  532.55   41.80
  -4  -2   8  579.54   36.90
  -4  -2   8  556.14   43.00
  -4  -2   8  612.34   42.10
  -4   2   8  590.44   35.50
  -4   2   8  556.94   40.80
  -4   2   8  611.44   39.90
   4   2  -8  567.94   43.40
  -4   2   8  593.34   36.20
  -3  -2   8  668.53   47.70
   3  -2  -8  665.03   45.10
  -3  -2   8  686.43   44.20
  -3  -2   8  644.94   41.10
  -3  -2   8  669.93   45.70
   3   2  -8  707.43   47.20
  -3   2   8  739.63   44.40
  -3   2   8  723.73   39.00
  -3   2   8  705.03   43.70
  -3   2   8  669.13   40.70
  -2  -2   8   26.10   12.50
  -2  -2   8   25.50   15.70
   2  -2  -8   31.70   16.90
  -2  -2   8   42.50   14.90
  -2  -2   8   62.49   16.40
   2   2  -8   56.39    7.60
  -2   2   8   38.40   12.30
  -2   2   8   47.30   14.70
  -2   2   8   73.69   12.30
   2   2  -8   38.90   17.10
  -2   2   8   52.39   14.30
  -1  -2   8   -0.60   14.50
   1  -2  -8    3.70   14.20
  -1  -2   8   -3.80   11.30
  -1  -2   8   -5.90   14.20
  -1  -2   8   48.60   15.20
  -1   2   8   20.80   11.90
  -1   2   8    1.10   10.10
  -1   2   8   27.80   13.40
  -1   2   8   10.60   12.10
   1   2  -8    4.30    6.60
   1   2  -8  -31.50   13.60
   0  -2   8  258.07   29.60
   0  -2  -8  252.47   31.00
   0  -2   8  260.97   33.00
   0  -2   8  246.18   27.90
   0  -2   8  235.28   32.30
   0   2   8  278.47   27.40
   0   2   8  244.98   23.40
   0   2   8  283.87   29.40
   0   2  -8  250.17   32.10
   0   2   8  279.17   26.70
   0   2   8  311.47   28.70
   0   2  -8  256.17   20.40
   1  -2   8  247.78   32.80
   1  -2   8  237.18   34.00
   1  -2   8  271.77   34.90
  -1  -2  -8  240.48   17.00
  -1  -2  -8  233.48   32.40
   1  -2   8  270.37   28.20
  -1  -2  -8  247.18   30.50
   1   2   8  236.68   21.70
   1   2   8  285.97   26.80
  -1   2  -8  204.58   23.10
   1   2   8  302.97   33.30
  -1   2  -8  329.07   34.50
   1   2   8  241.18   29.20
  -2  -2  -8   18.20   19.10
   2  -2   8    8.80   18.20
   2  -2   8   -3.30   18.60
   2  -2   8   41.40   18.70
  -2   2  -8   32.30   18.80
   2   2   8  -22.50   11.50
   2   2   8    4.00   16.70
  -3  -2  -8  190.38   31.60
   3  -2   8  279.07   41.00
   3  -2   8  170.08   28.20
  -3   2  -8  165.58   30.60
   3   2   8  167.48   28.70
 -10  -3   8   37.50   30.00
 -10  -3   8   48.30   23.10
  10  -3  -8  110.99   20.30
 -10   3   8   90.59   22.70
 -10   3   8   78.89   24.30
  10   3  -8   57.79   16.30
 -10   3   8   56.99   29.00
  -9  -3   8  153.88   26.60
  -9  -3   8  135.59   31.20
  -9   3   8  140.19   23.20
  -9   3   8  120.89   27.70
  -9   3   8   76.99   23.00
  -8  -3   8  217.28   32.20
  -8  -3   8  231.78   16.70
  -8  -3   8  223.88   33.00
  -8  -3   8  180.78   31.20
  -8   3   8  250.77   32.00
  -8   3   8  254.77   35.80
  -7  -3   8   64.39   19.60
  -7  -3   8   55.09   17.90
  -7  -3   8   45.30   10.20
  -7   3   8   41.40   21.00
  -7   3   8   57.89   13.80
  -7   3   8   52.99   17.80
  -6  -3   8   57.29   20.00
  -6  -3   8   60.49   11.90
  -6  -3   8   59.99   17.50
   6  -3  -8   70.89   23.70
  -6  -3   8   55.99   16.30
  -6   3   8   60.39   16.30
  -6   3   8   73.19   10.20
  -6   3   8   54.29   17.60
  -6   3   8   45.40    9.40
  -5  -3   8 1002.90   51.99
  -5  -3   8 1061.39   61.69
  -5  -3   8  966.10   58.69
   5  -3  -8 1101.59   61.19
  -5   3   8 1063.19   53.09
  -5   3   8  993.90   57.39
   5   3  -8  865.31   59.69
  -5   3   8  998.90   56.19
  -5   3   8 1010.50   49.90
  -4  -3   8  985.60   57.79
   4  -3  -8 1079.09   59.89
  -4  -3   8  997.10   53.59
  -4  -3   8  968.70   60.19
  -4  -3   8  980.70   57.29
  -4   3   8  983.90   55.79
  -4   3   8 1022.60   55.99
  -4   3   8  979.80   51.09
   4   3  -8 1141.29   61.29
  -4   3   8  993.30   50.59
  -3  -3   8   10.70   15.10
  -3  -3   8   19.20   11.20
  -3  -3   8   27.60   13.90
   3  -3  -8   21.90   16.30
  -3  -3   8   22.90   15.00
   3   3  -8   19.20    7.10
  -3   3   8   24.50   13.90
  -3   3   8   18.70   10.30
  -3   3   8   10.30   10.50
  -3   3   8   13.30   11.60
   3   3  -8    9.30   14.60
   2  -3  -8  635.64   43.10
  -2  -3   8  601.04   41.50
  -2  -3   8  584.54   44.20
  -2  -3   8  604.24   41.70
  -2  -3   8  564.34   39.20
   2   3  -8  569.74   42.60
  -2   3   8  540.05   37.70
   2   3  -8  586.84   30.00
  -2   3   8  524.85   39.50
  -2   3   8  605.94   33.40
  -2   3   8  519.35   37.00
   1  -3  -8  406.26   34.60
  -1  -3   8  321.47   31.30
  -1  -3   8  333.17   34.50
  -1  -3   8  314.97   33.60
  -1   3   8  241.68   27.10
   1   3  -8  281.07   33.50
   1   3  -8  311.27   21.80
  -1   3   8  347.87   30.70
  -1   3   8  324.57   25.10
  -1   3   8  352.76   28.70
   0  -3   8   -5.40   16.00
   0  -3   8   -7.90   12.90
   0  -3   8   -3.30   15.50
   0  -3  -8   -8.80   14.30
   0  -3   8    2.50   14.50
   0   3   8   10.40    9.50
   0   3  -8   18.60   17.20
   0   3  -8   17.50    9.40
   0   3   8   25.50   12.50
   0   3   8   -1.30   12.40
   0   3   8    4.80   11.30
   0   3   8    9.70   12.50
   1  -3   8  261.17   35.70
   1  -3   8  200.48   29.00
   1  -3   8  230.48   35.30
  -1  -3  -8  248.68   31.30
   1  -3   8  198.58   28.10
   1   3   8  184.88   26.60
   1   3   8  215.48   22.70
   1   3   8  195.28   17.90
  -1   3  -8  235.78   29.10
   1   3   8  193.78   30.50
  -1   3  -8  158.98   23.10
   2  -3   8  392.66   47.20
   2  -3   8  454.75   43.90
  -2  -3  -8  389.66   40.90
   2  -3   8  435.36   44.00
  -2   3  -8  517.25   45.10
   2   3   8  466.85   41.60
   3  -3   8  104.49   25.40
  -3  -3  -8   65.89   25.20
   3  -3   8   29.50   23.30
   3   3   8   42.30   21.40
  -3   3  -8   53.89   26.40
  -9  -4   8  -12.60   25.10
  -9  -4   8   20.40   20.80
  -9   4   8  -31.00   21.00
  -9   4   8  -31.40   22.90
  -9   4   8  -28.50   20.40
  -8  -4   8   25.60   18.00
  -8  -4   8   47.90   23.60
  -8   4   8   23.00   16.90
  -8   4   8   -6.70   17.10
  -7  -4   8   93.89   41.20
  -7  -4   8   74.69   12.00
  -7  -4   8   85.89   21.60
  -7  -4   8   83.49   21.10
  -7   4   8   70.59   18.50
  -7   4   8   85.29   18.40
  -7   4   8  102.09   19.30
  -6  -4   8    8.90    9.60
  -6  -4   8   16.40   16.30
  -6  -4   8   13.40   14.90
  -6  -4   8    1.00   15.80
   6  -4  -8    6.90   20.90
  -6   4   8    0.40   13.10
  -6   4   8    6.40    7.00
  -6   4   8    1.50   14.40
  -5  -4   8   22.50   15.40
  -5  -4   8    1.40   13.60
  -5  -4   8   15.30   10.80
   5  -4  -8   19.50   17.70
  -5   4   8    7.30    8.40
  -5   4   8   28.00   12.50
  -5   4   8   27.20   14.40
  -5   4   8    6.10   12.50
  -4  -4   8   38.80   17.00
   4  -4  -8   26.60   15.80
  -4  -4   8   42.90   17.50
  -4  -4   8   35.60   12.90
  -4   4   8   44.90   14.80
  -4   4   8   48.80   15.00
  -4   4   8   38.10   11.50
   4   4  -8   33.30   17.90
  -4   4   8   32.90   11.10
  -3  -4   8   -5.00   14.90
  -3  -4   8  -14.00   13.40
   3  -4  -8    0.60   13.00
  -3  -4   8    7.90   11.80
   3   4  -8  -18.40   14.50
  -3   4   8    4.80   12.00
   3   4  -8    9.70    7.20
  -3   4   8    0.10    9.30
  -3   4   8   17.80    9.00
  -3   4   8   -8.00   11.40
  -2  -4   8   -6.80   13.30
  -2  -4   8   -3.70   11.70
   2  -4  -8   -8.50   12.80
  -2  -4   8   13.90   15.20
  -2   4   8   -8.20    8.90
   2   4  -8  -19.50   14.70
  -2   4   8    7.30   11.90
  -2   4   8   -2.40   10.80
   2   4  -8    3.50    7.40
   1  -4  -8   32.10   16.80
  -1  -4   8    6.40   16.70
  -1  -4   8   27.00   16.60
  -1  -4   8   27.70   14.20
  -1   4   8    7.00   11.70
  -1   4   8   25.90   12.20
  -1   4   8   30.70   11.50
   1   4  -8   56.39   18.30
   1   4  -8   30.00   10.10
  -1   4   8   54.59   11.40
   0  -4  -8   12.60   15.20
   0  -4   8   -9.20   15.70
   0  -4   8    2.00   16.30
   0  -4   8   15.10   16.00
   0   4   8   13.90   14.40
   0   4   8   24.70   11.50
   0   4   8   11.40    9.70
   0   4   8   -0.70   13.70
   0   4  -8   -4.60   15.50
   0   4  -8   12.00   10.60
  -1  -4  -8   -8.10   16.60
   1  -4   8  -39.70   18.20
   1  -4   8   24.00   17.50
   1  -4   8   -0.50   19.00
   1   4   8    3.90    8.80
   1   4   8  -16.20   14.10
   1   4   8    6.80   15.60
  -1   4  -8    0.20   12.10
  -1   4  -8  -15.80   18.00
   1   4   8    4.70    7.30
   2  -4   8   40.50   25.40
   2  -4   8   33.60   25.70
  -2  -4  -8   41.60   19.10
   2  -4   8   29.60   19.00
   2   4   8   44.00   17.30
  -2   4  -8   59.49   23.10
  -3  -4  -8   50.79   33.10
   3  -4   8  134.99   30.20
   3  -4   8  108.69   26.80
  -3   4  -8  103.69   29.90
   3   4   8   58.99   22.10
  -9  -5   8  354.66   43.60
  -9  -5   8  501.15   45.50
  -9   5   8  404.16   37.40
  -9   5   8  419.16   44.90
  -8  -5   8  462.45   48.10
  -8  -5   8  450.85   43.40
  -8  -5   8  409.86   24.60
  -8   5   8  482.05   40.50
  -8   5   8  457.05   33.50
  -8   5   8  399.46   43.50
  -7  -5   8  129.79   23.40
  -7  -5   8  142.99   19.70
  -7  -5   8  182.78   30.80
  -7  -5   8  235.58   36.00
  -7   5   8  113.19   19.80
  -7   5   8  109.19   21.60
  -6  -5   8   32.70   17.00
  -6  -5   8   60.19   21.90
   6  -5  -8   31.10   25.10
  -6  -5   8   63.99   18.40
  -6  -5   8   57.29   13.60
  -6   5   8   54.89   18.00
  -6   5   8   48.20   14.90
  -6   5   8   65.79    7.80
  -5  -5   8 1199.18   67.19
  -5  -5   8 1205.88   61.19
  -5  -5   8 1217.48   71.29
   5  -5  -8 1237.48   69.89
  -5   5   8 1209.98   63.09
  -5   5   8 1192.38   63.99
  -5   5   8 1245.28   58.79
  -5   5   8 1153.78   56.89
   4  -5  -8  592.54   43.40
  -4  -5   8  600.04   44.00
  -4  -5   8  563.04   45.00
  -4  -5   8  593.34   37.90
  -4   5   8  584.64   34.40
  -4   5   8  571.24   39.20
  -4   5   8  599.84   33.10
   4   5  -8  566.04   33.30
   4   5  -8  564.44   45.00
  -4   5   8  555.54   38.70
  -3  -5   8   85.49   22.30
  -3  -5   8   52.59   15.40
  -3  -5   8   56.09   18.20
   3   5  -8   82.99   12.20
  -3   5   8   61.49   13.80
   3   5  -8   79.29   19.20
  -3   5   8   90.89   16.30
  -3   5   8  110.19   17.20
  -2  -5   8  399.26   33.40
   2  -5  -8  423.56   35.00
  -2  -5   8  419.56   36.90
  -2  -5   8  348.97   38.80
  -2   5   8  346.37   28.70
   2   5  -8  380.86   26.10
  -2   5   8  424.56   29.70
   2   5  -8  387.96   36.70
  -2   5   8  369.96   24.40
  -2   5   8  379.16   29.60
   1  -5  -8  508.35   38.60
  -1  -5   8  496.45   44.10
  -1  -5   8  488.25   38.20
  -1  -5   8  502.25   41.20
  -1   5   8  441.96   33.70
  -1   5   8  441.26   30.60
  -1   5   8  447.56   28.80
   1   5  -8  458.55   30.40
  -1   5   8  472.65   33.10
   1   5  -8  545.75   40.70
   0  -5   8   86.39   23.20
   0  -5  -8   99.19   19.20
   0  -5   8   81.39   22.10
   0   5   8   53.89   11.60
   0   5   8   55.69   24.70
   0   5  -8   52.99   13.80
   0   5  -8   70.29   19.10
   0   5   8   52.19   12.20
   0   5   8   69.19   14.70
   0   5   8   63.59    9.80
   1  -5   8  252.47   52.09
   1  -5   8  246.18   35.30
   1  -5   8  236.08   31.00
  -1  -5  -8  251.87   31.90
  -1   5  -8  246.28   28.50
   1   5   8  231.48   29.60
   1   5   8  298.17   30.30
  -2  -5  -8  327.57   36.00
   2  -5   8  269.07   36.10
   2  -5   8  333.87   41.90
   2  -5   8  278.77   36.10
  -2   5  -8  359.76   35.70
   2   5   8  288.57   34.70
  -2   5  -8  340.47   44.00
   3  -5   8   65.39   29.60
  -3  -5  -8   29.40   24.50
   3  -5   8   63.79   29.00
  -3   5  -8   39.20   26.50
   3   5   8   21.40   21.60
  -9  -6   8  306.47   49.70
  -9  -6   8  388.76   44.60
  -9   6   8  405.36   44.80
  -9   6   8  293.67   35.20
  -8  -6   8   57.19   11.60
  -8  -6   8   65.99   21.30
  -8  -6   8   53.19   27.30
  -8   6   8  104.99   21.90
  -8   6   8   51.09   20.30
  -8   6   8   68.29   15.10
  -7  -6   8  185.78   33.20
  -7  -6   8  192.58   23.40
  -7   6   8  198.58   22.30
  -7   6   8  195.68   28.90
  -7   6   8  179.68   27.30
  -7   6   8  150.78   24.40
  -6  -6   8  119.99   21.70
  -6  -6   8  107.89   17.10
  -6  -6   8  103.19   26.10
   6  -6  -8  145.59   28.30
  -6  -6   8   98.39   20.40
  -6   6   8   96.49   17.50
  -6   6   8   87.39   18.40
  -6   6   8   87.99   18.10
  -5  -6   8   13.70   15.90
  -5  -6   8    4.10   11.10
  -5  -6   8    6.00   17.20
   5  -6  -8  -34.90   19.50
  -5   6   8   15.10   10.30
  -5   6   8   -1.80   12.80
  -5   6   8   -2.20   12.30
   4  -6  -8   67.49   19.70
  -4  -6   8   81.49   21.30
  -4  -6   8   80.69   22.40
  -4   6   8   58.59   14.70
  -4   6   8   67.29   15.40
   4   6  -8   58.19   12.80
  -4   6   8   61.59   12.10
  -3  -6   8  634.54   45.40
   3  -6  -8  651.03   45.50
  -3  -6   8  607.54   48.30
  -3   6   8  664.53   38.10
   3   6  -8  550.14   45.20
   3   6  -8  593.14   36.20
  -3   6   8  641.74   39.30
  -3   6   8  653.93   39.00
  -3   6   8  661.13   32.20
  -2  -6   8   43.80   21.40
   2  -6  -8   34.40   17.40
  -2  -6   8   39.60   18.60
   2   6  -8   47.20   19.20
  -2   6   8   36.00   12.20
  -2   6   8   39.50   12.50
  -2   6   8   41.50   12.60
   2   6  -8   40.30   11.60
  -1  -6   8  206.78   29.60
   1  -6  -8  244.78   31.30
  -1  -6   8  233.68   32.20
   1   6  -8  252.87   24.00
   1   6  -8  260.67   34.60
  -1   6   8  238.18   21.90
  -1   6   8  297.97   25.20
  -1   6   8  224.78   26.00
  -1   6   8  256.47   20.30
   0  -6   8   75.39   36.40
   0  -6   8  100.99   21.20
   0  -6   8   79.09   23.70
   0  -6  -8   75.29   19.20
   0   6  -8   97.29   16.70
   0   6   8   95.99   11.10
   0   6   8   97.09   13.60
   0   6  -8  114.69   23.10
   0   6   8   85.29   15.20
   0   6   8   92.89   13.90
   0   6   8   61.49   15.60
  -1  -6  -8  104.39   20.90
   1  -6   8  109.09   23.70
   1  -6   8  132.79   25.90
   1  -6   8  112.89   27.90
  -1   6  -8   98.39   24.40
  -1   6  -8  117.59   19.90
   1   6   8  103.09   21.00
   2  -6   8   50.39   27.60
   2  -6   8   27.90   23.60
   2  -6   8   18.10   25.80
  -2  -6  -8   46.30   18.10
   2   6   8   22.00   16.90
  -2   6  -8   33.60   24.40
  -2   6  -8   34.70   17.60
  -3  -6  -8  244.18   34.00
   3  -6   8  212.58   35.80
   3  -6   8  224.98   38.50
  -3   6  -8  270.27   37.90
   3   6   8  262.17   38.40
  -9  -7   8  134.09   27.90
  -9  -7   8   61.69   29.50
  -9   7   8   61.99   32.60
  -9   7   8   75.19   25.90
  -9   7   8  101.79   19.80
  -8  -7   8   92.99   24.30
  -8  -7   8  130.79   30.30
  -8  -7   8   81.99   14.00
  -8   7   8   73.59   16.10
  -8   7   8   92.59   23.90
  -8   7   8   93.79   21.30
  -7  -7   8   88.79   25.80
  -7  -7   8  103.29   23.30
  -7  -7   8  102.39   16.30
  -7   7   8   82.79   20.30
  -7   7   8  130.09   19.10
   7   7  -8   55.79   24.40
  -7   7   8   77.39   19.30
   6  -7  -8   13.70   25.70
  -6  -7   8   -7.10   19.70
  -6  -7   8    9.80   16.30
  -6   7   8   24.30   13.40
  -6   7   8   17.20   15.10
  -6   7   8   27.70   14.30
  -6   7   8   15.10    8.70
  -5  -7   8  411.56   43.00
   5  -7  -8  524.85   44.20
  -5  -7   8  421.26   38.90
   5   7  -8  356.86   30.00
  -5   7   8  359.36   33.60
  -5   7   8  360.86   32.00
  -4  -7   8  258.87   33.60
   4  -7  -8  366.86   37.70
  -4  -7   8  224.18   36.00
  -4   7   8  270.57   18.70
  -4   7   8  241.18   26.70
  -4   7   8  230.08   21.60
   4   7  -8  245.78   23.40
  -4   7   8  246.08   27.10
   3  -7  -8  106.49   20.20
  -3  -7   8  114.49   26.30
  -3  -7   8   99.39   20.00
  -3   7   8   95.79   15.40
  -3   7   8   89.69   12.30
  -3   7   8   95.29   14.90
  -3   7   8   96.19   15.30
   3   7  -8  126.09   20.20
  -2  -7   8   99.99   21.40
  -2  -7   8   79.59   24.90
   2  -7  -8   78.89   18.90
  -2   7   8   66.59   14.50
  -2   7   8   88.29   14.20
  -2   7   8  119.59   12.40
   2   7  -8   97.49   23.60
  -2   7   8   71.79   13.40
   2   7  -8   85.69   15.10
   1  -7  -8   -7.70   15.30
  -1  -7   8   -0.70   17.40
  -1   7   8   15.00   12.40
   1   7  -8  -12.50   10.80
   1   7  -8   -6.50   18.20
  -1   7   8   -8.50    7.30
  -1   7   8   -0.50    7.50
  -1   7   8   -5.50   10.30
  -1   7   8   12.40    9.10
   0  -7  -8   31.90   17.00
   0  -7   8   50.49   21.80
   0  -7   8    8.30   20.40
   0   7  -8    4.40   20.10
   0   7  -8   10.80   13.20
   0   7   8   11.00   12.60
   0   7   8    3.70   10.20
   1  -7   8   35.90   19.70
  -1  -7  -8   18.70   17.40
   1  -7   8   34.60   24.30
   1  -7   8   50.89   27.40
   1   7   8   15.30   14.60
  -1   7  -8   33.00   16.80
  -1   7  -8   14.90   22.90
   2  -7   8  329.47   45.10
  -2  -7  -8  320.97   36.30
   2  -7   8  380.26   59.19
   2  -7   8  249.28   39.70
  -2   7  -8  263.77   38.40
   2   7   8  332.27   35.30
  -2   7  -8  352.86   39.30
  -3  -7  -8  179.58   29.90
   3  -7   8  135.59   33.80
   3   7   8  139.19   26.00
  -3   7  -8  216.18   35.80
  -9  -8   8  221.38   31.80
  -9  -8   8  355.96   54.59
  -9   8   8  312.07   34.20
  -9   8   8  246.38   36.80
  -9   8   8  248.98   33.80
  -8  -8   8   44.90   28.00
  -8  -8   8   13.60   21.70
  -8  -8   8   57.09   14.60
  -8   8   8   54.29   15.00
  -8   8   8   54.59   21.40
  -8   8   8   32.00   21.40
  -7  -8   8   40.20   14.10
  -7  -8   8   42.10   23.70
  -7  -8   8   -2.20   17.50
  -7   8   8   18.90   15.40
  -7   8   8   34.30   12.10
  -7   8   8   38.20   19.00
   6  -8  -8  227.28   39.30
  -6  -8   8  306.97   43.70
  -6   8   8  274.87   30.00
  -6   8   8  203.08   24.70
  -6   8   8  241.38   19.70
   5  -8  -8   61.59   23.90
  -5  -8   8   26.10   36.60
  -5  -8   8   66.59   19.70
  -5   8   8   81.89   16.70
  -5   8   8   64.49   11.10
  -5   8   8   88.89   12.20
   5   8  -8   52.79   15.10
  -5   8   8   62.09   17.80
  -4  -8   8  454.65   47.10
  -4  -8   8  441.56   40.50
   4  -8  -8  410.06   43.30
   4   8  -8  420.66   31.40
  -4   8   8  431.16   33.40
  -4   8   8  409.86   32.30
  -4   8   8  401.86   21.30
   3  -8  -8 1135.69   68.79
  -3  -8   8 1257.57   71.39
  -3  -8   8 1328.87   81.99
  -3   8   8 1304.57   52.39
  -3   8   8 1359.56   62.29
   3   8  -8 1158.58   62.89
  -3   8   8 1286.37   61.79
  -3   8   8 1263.97   62.39
   2  -8  -8   43.10   18.00
  -2  -8   8   81.79   23.30
  -2   8   8  106.19   10.00
   2   8  -8   86.79   16.30
  -2   8   8   78.39   12.50
  -2   8   8   60.69   14.10
   1  -8  -8  359.66   35.80
  -1  -8   8  350.86   41.70
  -1  -8   8  298.97   44.00
   1   8  -8  299.67   30.30
  -1   8   8  359.76   27.50
  -1   8   8  362.56   20.60
  -1   8   8  287.77   33.00
  -1   8   8  357.86   19.40
  -1   8   8  359.36   19.90
   0  -8   8  324.77   45.70
   0  -8  -8  385.06   35.80
   0  -8   8  367.06   47.20
   0   8  -8  281.77   32.60
   0   8   8  338.97   31.60
   1  -8   8  161.78   31.50
   1  -8   8  177.88   36.30
  -1   8  -8  165.68   24.60
   1   8   8  134.59   21.80
   2  -8   8    4.10   22.40
   2  -8   8   56.29   35.00
   2  -8   8  -12.70   28.00
   2   8   8  -13.20   15.90
  -2   8  -8   -8.00   21.90
  -8  -9   8   75.49   21.50
  -8  -9   8   46.80   16.40
  -8  -9   8   15.00   29.60
  -8   9   8   29.60   21.50
  -8   9   8   70.49   14.90
  -8   9   8   65.19   22.40
  -7  -9   8    6.50   19.40
  -7  -9   8   18.80   26.50
  -7   9   8   20.80   11.10
  -7   9   8   25.10   17.30
  -7   9   8  -11.10   16.60
  -6  -9   8  -14.40   21.50
  -6  -9   8   65.49   20.50
   6  -9  -8   85.59   32.60
  -6   9   8   26.70   16.80
  -6   9   8   25.00    8.50
  -6   9   8   24.70   14.80
   6   9  -8   -2.80   21.40
  -5  -9   8    1.40   16.80
   5  -9  -8  -25.60   24.70
  -5  -9   8  -11.00   19.80
   5   9  -8   27.00   13.50
  -5   9   8    6.40   12.40
  -5   9   8    9.70    5.90
  -5   9   8    4.70   13.10
  -5   9   8   21.00    6.40
  -4  -9   8   22.50   25.90
   4  -9  -8   46.90   23.40
  -4  -9   8   14.70   17.20
  -4   9   8   29.70   14.30
   4   9  -8   33.20   13.40
  -4   9   8   24.80   13.00
  -3  -9   8    0.10   19.50
   3  -9  -8   -8.50   18.40
  -3  -9   8    9.80   18.10
  -3   9   8   -1.40   10.60
  -3   9   8   -1.00   10.40
   3   9  -8   14.10   12.80
  -2  -9   8  230.48   36.60
   2  -9  -8  243.18   30.40
  -2  -9   8  304.17   43.40
   2   9  -8  272.47   29.50
  -2   9   8  286.27   30.40
  -2   9   8  213.18   23.30
  -2   9   8  284.97   21.30
   1  -9  -8   -1.00   15.70
  -1  -9   8   16.70   20.50
  -1  -9   8   -3.30   22.10
   1   9  -8   -5.50   14.20
  -1   9   8   -5.60   10.80
  -1   9   8   14.40   12.00
   0  -9  -8    0.70   16.40
   0  -9   8   39.00   27.80
   0  -9   8   19.00   25.00
   0   9   8   21.70   13.20
   0   9  -8   24.60   16.40
   1  -9   8   94.69   30.90
   1  -9   8   96.09   31.40
  -1   9  -8   73.59   22.00
   1   9   8   32.30   17.20
   2  -9   8   26.70   25.20
   2  -9   8   50.89   36.90
   2  -9   8   22.60   30.40
   2   9   8    6.40   17.80
  -2   9  -8  -26.80   20.00
  -8 -10   8   74.39   30.10
  -8 -10   8   62.69   25.00
  -8  10   8   35.30   19.80
  -8  10   8   62.09   21.70
  -7 -10   8  565.24   59.39
  -7 -10   8  409.06   45.40
  -7  10   8  466.35   41.20
  -7  10   8  481.25   40.80
  -7  10   8  406.16   27.80
  -6 -10   8  408.86   51.59
  -6 -10   8  405.76   44.20
  -6  10   8  542.35   39.30
  -6  10   8  491.85   40.40
   5 -10  -8    3.30   27.60
  -5 -10   8  -22.50   22.10
  -5 -10   8  -14.20   17.00
  -5  10   8    9.20   14.60
   5  10  -8    8.60   14.00
  -5  10   8   18.30   13.70
  -4 -10   8  324.47   46.30
   4 -10  -8  289.57   41.70
  -4 -10   8  319.67   38.00
   4  10  -8  279.77   31.50
  -4  10   8  324.47   28.10
  -4  10   8  313.17   28.10
  -3 -10   8  518.45   48.70
   3 -10  -8  524.05   46.50
  -3 -10   8  613.04   53.59
  -3  10   8  568.04   33.20
   3  10  -8  570.04   40.30
   2 -10  -8  282.57   35.70
  -2 -10   8  269.97   39.10
  -2 -10   8  218.38   33.70
  -2  10   8  271.97   19.00
   2  10  -8  286.37   31.60
  -2  10   8  272.77   24.30
   1 -10  -8   16.30   17.80
  -1 -10   8    7.30   23.30
  -1 -10   8    4.80   24.80
   1  10  -8  -19.60   14.40
   0 -10   8  234.18   37.70
   0 -10   8  210.28   39.50
   0  10   8  179.48   27.60
   0  10  -8  233.08   34.20
   1 -10   8  154.58   36.20
   1 -10   8  123.69   39.00
   1  10   8  111.29   21.60
   2 -10   8   -4.50   41.20
   2 -10   8  -49.30   31.90
  -2  10  -8   35.80   24.20
   2  10   8   34.50   19.00
  -8 -11   8  457.55   52.89
  -8 -11   8  484.75   65.39
  -8  11   8  456.95   48.80
  -8  11   8  497.45   47.30
  -7 -11   8   71.59   33.80
  -7 -11   8   56.59   22.60
  -7  11   8   86.19   21.90
  -7  11   8   71.89   21.20
  -6 -11   8  262.67   38.60
  -6 -11   8  177.78   28.60
  -6  11   8  246.98   32.90
   6  11  -8  229.28   34.00
  -6  11   8  228.38   32.20
  -5 -11   8  538.25   56.49
  -5 -11   8  535.35   49.60
  -5  11   8  556.84   39.50
  -5  11   8  613.44   41.60
   5  11  -8  573.24   43.50
  -4 -11   8  586.54   57.69
  -4 -11   8  632.94   51.79
   4  11  -8  656.33   45.30
  -4  11   8  517.15   38.00
  -4  11   8  691.43   37.70
   3 -11  -8   27.90   21.70
  -3 -11   8    6.50   20.70
  -3 -11   8   48.40   26.20
  -3  11   8   13.80   14.70
  -3  11   8   37.70   10.90
   3  11  -8   37.90   16.70
   2 -11  -8  372.46   43.40
  -2 -11   8  382.76   46.10
  -2 -11   8  376.46   50.39
  -2  11   8  369.16   19.10
   2  11  -8  416.66   37.50
  -1 -11   8   -8.90   25.90
  -1 -11   8   38.10   27.50
   1  11  -8   31.40   18.20
   0 -11   8   13.50   31.70
   0 -11   8  121.89   33.00
   1 -11   8   -5.60   34.80
   1 -11   8  -12.20   35.10
  -1  11  -8    0.20   21.60
  -7 -12   8   56.69   32.80
  -7 -12   8   27.70   23.10
  -7  12   8   38.30   20.20
  -6 -12   8  135.99   34.00
  -6 -12   8   87.89   24.60
  -6  12   8   96.79   20.50
   6  12  -8   89.99   23.10
  -5 -12   8  -46.20   25.70
  -5 -12   8  -31.00   20.10
  -5  12   8    2.20   13.60
   5  12  -8  -11.50   16.90
  -4 -12   8   21.20   21.90
  -4 -12   8   91.09   29.00
  -4  12   8   15.40   12.10
   4  12  -8   34.10   18.20
  -3 -12   8   10.30   27.20
  -3 -12   8   39.30   23.40
   3  12  -8   14.10   16.80
  -3  12   8   15.90    9.00
  -2 -12   8   22.60   28.00
   2  12  -8   -0.10   16.70
  -1 -12   8   32.10   32.90
  -1 -12   8   20.80   30.80
   1  12  -8   17.50   25.00
   0 -12   8   63.59   36.70
   0 -12   8   37.50   35.90
   0  12  -8    6.90   21.60
   1 -12   8  194.28   47.40
   1 -12   8   62.89   43.30
  -1  12  -8  169.38   31.20
  -7 -13   8   59.99   39.00
  -6 -13   8   67.69   27.30
  -6 -13   8   72.59   31.70
  -6  13   8   49.80   18.10
   6  13  -8   65.69   23.60
  -5 -13   8  241.58   34.90
  -5 -13   8  176.48   39.60
  -5  13   8  282.47   30.10
   5  13  -8  249.68   37.90
  -4 -13   8  299.67   44.50
  -4 -13   8  398.56   54.79
   4  13  -8  327.17   38.90
  -4  13   8  320.17   26.90
  -3 -13   8   62.09   32.10
  -3 -13   8   63.69   29.30
  -3  13   8   32.40    9.00
   3  13  -8   22.90   18.40
  -2 -13   8  212.78   37.00
  -2 -13   8  163.58   41.60
   2  13  -8  265.97   36.20
  -1 -13   8  171.68   38.70
  -1 -13   8  186.28   40.60
   1  13  -8  146.39   27.50
   0 -13   8  114.69   42.20
   0 -13   8   89.79   41.40
   0  13  -8   95.99   26.10
  -6 -14   8  -34.40   32.50
  -6 -14   8   23.80   24.90
  -6  14   8   44.70   18.20
   6  14  -8   51.49   25.30
  -5 -14   8    0.10   23.90
  -5 -14   8   18.50   34.30
   5  14  -8   12.60   20.80
  -5  14   8    1.80   15.20
  -4 -14   8   68.39   28.40
  -4 -14   8   95.69   38.20
   4  14  -8   99.99   24.20
  -4  14   8   74.99   14.50
  -3 -14   8  240.28   45.20
  -3 -14   8  221.68   37.20
   3  14  -8  261.07   39.10
  -2 -14   8   31.80   31.30
  -2 -14   8   39.20   38.10
   2  14  -8   99.39   24.20
  -1 -14   8  103.49   34.80
  -1 -14   8  142.39   41.10
   1  14  -8   44.30   25.00
  -4 -15   8   43.60   29.20
  -4 -15   8   34.60   38.50
   4  15  -8  101.99   26.60
  -3 -15   8   22.70   30.70
  -3 -15   8   33.60   38.10
   3  15  -8   16.90   22.70
  -2 -15   8  175.48   39.80
  -2 -15   8  231.18   46.10
   2  15  -8  197.08   32.60
  -9   0   9  -36.50   23.60
  -9   0   9   13.90   21.40
  -8   0   9  -35.20   21.70
  -7   0   9   -9.50   19.30
  -7   0   9   -2.30    9.40
  -7   0   9   -7.70   16.90
  -6   0   9   -1.00   20.50
  -6   0   9  -21.10   17.20
  -6   0   9    6.80   10.80
  -5   0   9   -5.70   11.50
   5   0  -9  -15.30   24.60
  -5   0   9  -17.80   14.40
  -4   0   9  -11.10   11.60
  -4   0   9    0.50   17.90
  -4   0   9   11.50   16.10
   4   0  -9  -25.80   22.70
  -4   0   9   19.90   17.90
  -3   0   9   -0.30   15.80
  -3   0   9    2.00   17.40
   3   0  -9    0.10   20.50
  -3   0   9   -2.50   13.70
  -3   0   9    5.10   17.10
  -2   0   9   11.50   17.40
  -2   0   9   11.80   16.90
  -2   0   9   -7.60   14.60
   2   0  -9   -8.30   19.30
   1   0  -9  -27.60   18.90
  -1   0   9   -3.70   19.00
  -1   0   9   41.80   18.20
  -1   0   9   -3.30   17.00
   0   0   9    4.80   18.40
   0   0   9   14.50   17.00
   0   0   9  -41.70   25.50
   1   0   9   16.90   19.60
  -1   0  -9   11.60   12.60
   1   0   9   37.70   22.50
   2   0   9   20.40   22.70
   2   0   9   -4.80   20.80
  -9  -1   9  248.08   33.80
  -9  -1   9  223.48   35.60
  -9   1   9  288.47   40.50
  -9   1   9  315.67   47.80
  -8  -1   9   24.30   24.00
  -8  -1   9    8.00   23.30
  -8   1   9   62.99   25.10
  -8   1   9   37.30   22.60
  -7  -1   9   18.80   22.90
  -7  -1   9   58.99   22.30
  -7  -1   9   22.90   11.10
  -7   1   9   24.70   20.50
  -7   1   9   32.50   10.50
  -7   1   9   58.99   22.00
  -6  -1   9  499.35   45.00
  -6  -1   9  530.15   44.00
  -6  -1   9  448.46   32.70
  -6   1   9  467.85   31.80
  -6   1   9  462.45   44.60
  -6   1   9  521.65   43.30
  -5  -1   9  241.88   27.20
  -5  -1   9  214.18   32.60
   5  -1  -9  327.27   41.90
  -5  -1   9  194.88   27.40
  -5   1   9  201.38   26.50
  -5   1   9  239.78   34.80
  -5   1   9  241.28   25.30
  -4  -1   9   54.19   21.30
  -4  -1   9   78.19   16.50
  -4  -1   9  104.99   24.10
   4  -1  -9   61.59   24.90
  -4   1   9   59.59   15.40
   4   1  -9   93.09   25.30
  -4   1   9   54.19   18.60
  -4   1   9   44.80   18.30
  -4   1   9   52.79   18.80
  -3  -1   9  501.15   44.10
  -3  -1   9  573.74   44.50
  -3  -1   9  514.65   38.90
   3  -1  -9  582.94   48.70
  -3   1   9  548.15   38.90
  -3   1   9  498.75   44.40
  -3   1   9  521.75   42.40
   3   1  -9  490.55   48.90
  -3   1   9  599.24   40.20
  -2  -1   9  794.22   54.39
  -2  -1   9  816.52   55.09
  -2  -1   9  832.52   52.29
   2  -1  -9  719.03   55.89
   2   1  -9  891.51   58.49
  -2   1   9  854.61   52.79
  -2   1   9  843.12   51.89
  -2   1   9  866.31   55.09
  -2   1   9  788.22   48.70
  -1  -1   9   86.99   22.90
  -1  -1   9  111.59   22.30
   1  -1  -9   76.19   24.20
  -1  -1   9  109.49   24.70
  -1   1   9  110.59   21.80
  -1   1   9  128.49   19.20
   1   1  -9  106.99   25.30
  -1   1   9  122.09   24.10
  -1   1   9  120.69   23.20
   0  -1   9  210.08   32.10
   0  -1   9  145.09   26.50
   0   1   9  244.18   32.20
   0   1   9  125.79   24.80
   0   1   9  249.18   33.40
   0   1  -9  160.18   17.70
   1  -1   9  185.58   29.00
   1  -1   9  142.99   27.50
   1   1   9  241.08   38.40
   1   1   9  155.58   24.00
  -1   1  -9  149.49   23.30
   2  -1   9   25.70   23.00
   2  -1   9   19.00   24.10
   2   1   9   43.00   25.90
  -9  -2   9  -23.10   23.10
  -9  -2   9  -14.40   27.10
  -9   2   9  -14.40   22.80
  -9   2   9   10.20   25.10
  -8  -2   9   18.30    9.20
  -8  -2   9   25.10   23.50
  -8  -2   9   19.10   24.40
  -8   2   9   35.30   22.50
  -8   2   9   32.70   19.60
  -7  -2   9  135.69   27.30
  -7  -2   9  184.18   29.30
  -7  -2   9  161.58   21.50
  -7   2   9  162.28   25.50
  -7   2   9  136.99   25.90
  -6  -2   9    7.70   12.00
  -6  -2   9   39.10   21.20
  -6  -2   9    6.60   18.70
  -6   2   9  -15.70   16.80
  -6   2   9    6.00    9.90
  -6   2   9   19.50   18.60
  -6   2   9  -26.20   19.70
  -5  -2   9  527.45   45.60
  -5  -2   9  587.64   44.40
  -5  -2   9  528.95   36.40
   5  -2  -9  459.75   50.69
  -5   2   9  375.36   39.70
  -5   2   9  502.85   41.40
  -5   2   9  442.76   32.80
  -4  -2   9  523.85   43.00
  -4  -2   9  465.15   35.90
   4  -2  -9  487.45   47.00
   4   2  -9  401.26   50.09
  -4   2   9  470.65   40.30
  -4   2   9  503.55   35.00
  -4   2   9  520.75   38.90
  -4   2   9  504.75   41.00
   3  -2  -9   36.30   22.90
  -3  -2   9   57.69   21.90
  -3  -2   9   69.19   16.30
  -3  -2   9   62.99   20.10
  -3   2   9   49.50   15.90
  -3   2   9   62.09   17.90
  -3   2   9   38.70   18.00
  -3   2   9   54.59   16.70
   3   2  -9   64.59   22.50
  -2  -2   9   78.29   20.60
  -2  -2   9   13.80   19.70
   2  -2  -9   51.89   22.70
  -2  -2   9   83.79   19.10
  -2   2   9   58.29   20.20
  -2   2   9   28.00   16.00
   2   2  -9   74.99   24.30
  -2   2   9   74.09   16.80
  -2   2   9   78.39   19.60
  -1  -2   9  259.07   33.60
  -1  -2   9  212.98   30.30
   1  -2  -9  274.57   40.00
  -1  -2   9  234.98   37.40
   1   2  -9  233.18   17.20
  -1   2   9  218.08   30.40
  -1   2   9  261.17   32.70
  -1   2   9  245.18   31.50
  -1   2   9  321.07   30.20
  -1   2   9  203.08   32.40
   0  -2   9   13.80   22.80
   0  -2   9    9.80   18.00
   0  -2   9   -8.10   21.70
   0   2   9   -4.10   15.80
   0   2   9  -10.20   16.40
   0   2  -9   -0.20   10.20
   1  -2   9  166.08   27.90
   1   2   9   99.99   20.50
   1   2   9  162.08   28.30
  -1   2  -9  136.19   19.30
   2  -2   9  195.78   33.00
  -2   2  -9  169.38   32.50
   2   2   9  238.28   34.20
  -9  -3   9  -29.00   29.40
  -9  -3   9   -9.20   22.80
  -9   3   9   72.79   24.30
  -9   3   9    2.90   25.90
  -8  -3   9    4.40    9.60
  -8  -3   9   17.50   23.40
  -8  -3   9   -9.60   24.80
  -8   3   9  -36.00   19.40
  -8   3   9   13.50   19.80
  -7  -3   9   -8.90   20.30
  -7  -3   9    2.00   11.30
  -7  -3   9  -10.90   19.30
  -7   3   9   28.50   18.20
  -7   3   9    6.10   21.50
  -6  -3   9  150.08   26.70
  -6  -3   9  119.29   24.60
  -6  -3   9  165.38   24.10
  -6   3   9  125.79   24.60
  -6   3   9  140.39   24.70
  -6   3   9  144.39   24.60
  -6   3   9  138.99   19.40
  -5  -3   9   15.50   20.30
  -5  -3   9   20.70   12.70
   5  -3  -9   28.50   23.70
  -5  -3   9   -5.90   18.70
  -5   3   9    0.40   16.10
  -5   3   9   44.90   17.10
  -5   3   9    1.80   11.10
   4  -3  -9  101.99   26.30
  -4  -3   9  113.39   24.40
  -4  -3   9   75.59   27.30
  -4  -3   9  168.78   24.90
  -4   3   9  116.19   17.60
  -4   3   9  116.69   17.80
  -4   3   9  104.39   20.80
  -4   3   9   79.29   21.20
  -3  -3   9   84.59   24.60
   3  -3  -9  102.39   26.00
  -3  -3   9  109.29   19.80
  -3   3   9  117.29   22.00
  -3   3   9  154.68   24.30
  -3   3   9  104.19   19.30
   3   3  -9  154.08   26.60
  -2  -3   9  258.27   36.60
   2  -3  -9  210.18   30.20
  -2  -3   9  167.98   37.40
   2   3  -9  172.98   28.00
  -2   3   9  171.78   24.10
  -2   3   9  190.88   26.10
  -2   3   9  252.87   32.50
  -2   3   9  238.18   38.50
   2   3  -9  222.48   17.10
  -1  -3   9   -6.20   19.50
  -1  -3   9   27.10   16.20
  -1  -3   9   12.90   22.80
  -1   3   9   -5.10   15.70
  -1   3   9   -0.80   15.20
  -1   3   9   33.30   16.80
  -1   3   9   24.10   15.50
   1   3  -9    3.10    8.60
  -1   3   9  -14.60   13.10
   1   3  -9   -5.10   21.40
   0  -3   9  322.27   44.30
   0  -3   9  315.87   45.50
   0  -3   9  367.56   40.10
   0   3  -9  358.86   27.10
   0   3   9  348.27   37.20
   0   3   9  362.26   32.10
   1  -3   9   88.09   23.60
   1  -3   9   78.59   25.00
  -1   3  -9   28.40   16.80
   1   3   9   96.29   23.30
   1   3   9   50.09   14.90
   2  -3   9   44.60   26.40
   2  -3   9   86.19   29.80
  -2   3  -9   93.49   23.80
   2   3   9   68.09   24.00
  -9  -4   9   66.89   28.70
  -9  -4   9    9.10   29.60
  -9   4   9   65.39   26.20
  -9   4   9  -10.80   26.10
  -9   4   9   40.00   19.20
  -8  -4   9  466.25   52.79
  -8  -4   9  506.55   49.60
  -8  -4   9  463.95   29.80
  -8   4   9  401.96   48.60
  -8   4   9  440.36   44.50
  -7  -4   9  225.78   27.10
  -7  -4   9  247.68   36.00
  -7   4   9  240.38   38.00
  -7   4   9  239.38   36.80
  -6  -4   9   24.30   13.20
   6  -4  -9   72.29   45.10
  -6  -4   9   -5.20   19.00
  -6  -4   9    2.20   19.30
  -6   4   9   38.60   19.60
  -6   4   9   24.00   10.20
  -6   4   9   12.00   19.10
  -6   4   9   21.30   19.00
   5  -4  -9  305.37   38.40
  -5  -4   9  375.56   32.30
  -5  -4   9  345.67   43.30
  -5  -4   9  378.96   41.40
  -5   4   9  360.66   28.60
  -5   4   9  365.76   37.90
  -5   4   9  386.86   51.79
  -5   4   9  402.26   34.30
  -4  -4   9  409.26   35.70
  -4  -4   9  433.66   46.30
  -4  -4   9  386.66   41.40
   4  -4  -9  467.45   47.60
  -4   4   9  473.75   34.30
  -4   4   9  416.66   37.80
  -4   4   9  470.95   39.60
  -4   4   9  410.46   32.50
  -3  -4   9  158.48   25.70
   3  -4  -9  133.49   27.20
  -3  -4   9  136.29   22.10
  -3  -4   9  160.08   29.40
   3   4  -9  151.08   17.10
  -3   4   9  154.78   23.30
  -3   4   9  117.49   18.60
  -3   4   9  146.69   23.00
  -3   4   9  133.09   21.60
   3   4  -9  226.58   48.30
  -2  -4   9  100.19   31.60
   2  -4  -9   61.69   23.20
  -2  -4   9  114.79   25.90
  -2  -4   9   65.39   23.00
   2   4  -9  100.49   25.70
  -2   4   9   85.59   16.90
  -2   4   9  110.49   18.70
  -2   4   9   95.59   18.30
   2   4  -9   90.99   12.80
   1  -4  -9  778.62   55.49
  -1  -4   9  796.92   58.59
  -1  -4   9  846.22   55.99
  -1  -4   9  843.72   59.69
  -1   4   9  807.62   47.50
   1   4  -9  808.02   42.30
  -1   4   9  837.12   48.40
  -1   4   9  715.03   48.80
   1   4  -9  843.92   59.09
  -1   4   9  821.12   51.29
   0  -4   9  278.67   38.20
   0  -4   9  327.57   39.30
   0  -4   9  261.07   38.40
   0   4   9  319.37   28.40
   0   4  -9  315.57   27.80
   0   4   9  335.97   34.40
   1  -4   9  162.48   33.60
   1  -4   9  242.68   39.60
   1   4   9  154.28   27.00
  -1   4  -9  124.09   22.80
  -9  -5   9   10.10   30.80
  -9  -5   9    2.00   27.50
  -9   5   9   38.90   24.10
  -9   5   9   17.00   21.70
  -9   5   9   35.70   25.40
  -8  -5   9   37.00   27.50
  -8  -5   9   19.50   25.90
  -8  -5   9  -14.50   11.30
  -8   5   9    4.60   15.30
  -8   5   9   26.80   20.30
  -8   5   9   -4.40   23.00
  -7  -5   9   50.89   24.50
  -7  -5   9   68.39   24.20
  -7  -5   9   66.79   15.60
  -7   5   9   75.39   23.40
  -7   5   9   45.90   19.00
   6  -5  -9   34.90   29.50
  -6  -5   9   18.90   21.20
  -6  -5   9   27.50   14.00
  -6  -5   9   -7.80   20.30
  -6   5   9   18.90   18.20
  -6   5   9   18.00   18.10
  -5  -5   9   27.60   18.30
   5  -5  -9   37.00   26.80
  -5  -5   9   11.60   19.60
  -5  -5   9   24.70   14.80
  -5   5   9   19.00   16.90
  -5   5   9   16.30   14.80
  -5   5   9   11.90   10.80
  -4  -5   9    1.50   18.90
  -4  -5   9   16.20   18.30
   4  -5  -9  -37.70   23.00
  -4  -5   9   -0.70   14.80
  -4   5   9    1.20   11.20
  -4   5   9    4.50   14.80
  -4   5   9   33.00   13.20
  -4   5   9   -0.50   16.80
   3  -5  -9  147.09   26.60
  -3  -5   9   86.99   19.60
  -3  -5   9  124.39   29.00
  -3  -5   9   64.99   22.80
  -3   5   9  113.09   21.60
   3   5  -9  104.69   14.00
  -3   5   9   97.39   17.80
  -3   5   9   81.49   18.90
  -3   5   9  113.89   15.50
  -2  -5   9  285.27   42.60
  -2  -5   9  233.98   32.70
  -2  -5   9  319.57   35.90
  -2   5   9  252.57   31.00
   2   5  -9  273.07   24.60
  -2   5   9  347.97   27.50
  -2   5   9  285.27   29.30
  -2   5   9  296.47   30.50
  -1  -5   9  143.19   29.00
  -1  -5   9  108.59   25.00
  -1  -5   9  108.99   24.00
  -1   5   9  129.09   17.90
   1   5  -9  135.99   17.50
   1   5  -9   82.89   27.10
  -1   5   9   87.59   20.00
   0  -5   9   -6.30   22.70
   0  -5   9   33.80   20.10
   0  -5   9    4.70   24.10
   0   5   9   -7.50   11.60
   0   5   9   10.40   15.90
   0   5  -9   31.10   13.90
   1  -5   9   -9.20   23.20
   1  -5   9   65.39   27.60
   1   5   9   29.30   19.40
  -1   5  -9  -14.20   17.60
  -8  -6   9  311.67   30.00
  -8  -6   9  471.45   56.49
  -8  -6   9  381.76   49.60
  -8   6   9  337.47   32.60
  -8   6   9  289.77   34.20
  -8   6   9  403.46   46.00
  -7  -6   9  476.75   35.70
  -7  -6   9  386.86   48.20
  -7  -6   9  391.16   51.59
  -7   6   9  426.96   41.70
   6  -6  -9  159.28   37.80
  -6  -6   9  144.99   36.60
  -6  -6   9  130.59   20.90
  -6  -6   9  197.48   32.90
  -6   6   9  150.98   24.00
  -6   6   9  155.98   25.10
  -5  -6   9   47.20   22.70
  -5  -6   9   70.59   26.00
  -5  -6   9   35.10   16.00
   5  -6  -9   13.00   25.20
  -5   6   9   94.59   21.30
  -5   6   9   56.79   12.80
  -4  -6   9  353.86   34.80
  -4  -6   9  377.06   45.40
   4  -6  -9  303.77   38.50
  -4  -6   9  424.66   43.20
  -4   6   9  301.97   28.80
  -4   6   9  351.66   35.20
  -4   6   9  318.67   34.90
  -4   6   9  373.66   27.40
   4   6  -9  335.77   27.90
  -3  -6   9   81.59   26.00
  -3  -6   9   98.49   24.30
  -3  -6   9   74.99   23.60
   3  -6  -9   98.79   25.50
  -3   6   9   71.69   15.40
   3   6  -9   88.69   14.30
  -3   6   9   84.09   18.70
  -3   6   9   81.09   18.10
  -3   6   9   99.49   18.70
   2  -6  -9   60.89   23.60
  -2  -6   9   26.20   20.60
  -2  -6   9   43.00   24.00
  -2  -6   9   68.59   20.00
  -2   6   9   35.60   14.60
   2   6  -9   55.09   13.60
  -2   6   9   30.90   15.20
  -1  -6   9  209.28   34.60
  -1  -6   9  218.68   31.60
  -1  -6   9  256.47   35.40
  -1   6   9  219.98   30.80
   1   6  -9  282.57   27.80
  -1   6   9  215.58   24.70
   0  -6   9   86.39   29.00
   0  -6   9   81.79   30.20
   0  -6   9   43.90   23.50
   0   6  -9   93.49   18.60
   0   6   9   86.29   19.80
   1  -6   9   29.20   25.30
   1  -6   9   15.90   28.60
  -1   6  -9  -18.10   19.30
   1   6   9   16.50   18.60
  -8  -7   9   48.80   26.20
  -8  -7   9  104.99   17.60
  -8  -7   9   53.99   32.20
  -8   7   9   60.29   25.20
  -8   7   9  124.19   27.00
  -8   7   9   66.89   17.70
  -7  -7   9   59.69   18.30
  -7  -7   9   27.30   30.60
  -7  -7   9   61.59   26.40
  -7   7   9   79.19   22.40
  -7   7   9   85.89   15.10
  -7   7   9   67.49   22.00
  -6  -7   9  381.26   36.30
  -6  -7   9  370.36   47.40
  -6  -7   9  366.36   51.99
  -6   7   9  425.16   41.10
  -6   7   9  483.35   40.10
  -5  -7   9  153.08   22.50
  -5  -7   9  144.99   29.20
   5  -7  -9   97.89   29.40
  -5  -7   9  126.79   27.90
  -5   7   9  138.99   22.50
  -4  -7   9   35.10   22.90
  -4  -7   9   58.79   17.60
  -4  -7   9   20.80   25.00
   4  -7  -9   54.49   25.30
   4   7  -9   57.29   14.10
  -4   7   9   51.39   17.80
  -4   7   9   69.19   14.50
  -4   7   9   84.19   19.70
  -3  -7   9  393.56   47.20
  -3  -7   9  557.44   54.29
  -3  -7   9  511.75   49.50
   3  -7  -9  502.35   49.00
  -3   7   9  474.45   36.90
  -3   7   9  502.35   36.40
  -3   7   9  375.86   40.60
   3   7  -9  491.35   33.50
  -2  -7   9  364.06   45.30
  -2  -7   9  325.47   49.00
  -2  -7   9  304.07   37.80
  -2   7   9  377.86   29.40
  -2   7   9  303.17   31.40
   2   7  -9  353.36   30.10
  -1  -7   9   10.70   24.20
  -1  -7   9    7.20   18.90
  -1  -7   9    6.70   23.60
  -1   7   9   -3.30   10.20
  -1   7   9    3.00   14.40
   1   7  -9    9.40   13.80
   0  -7   9  239.58   36.70
   0  -7   9  219.68   33.10
   0  -7   9  336.17   53.39
   0   7  -9  281.87   33.70
   0   7   9  206.28   31.90
   1  -7   9  221.28   42.10
   1  -7   9  221.08   38.20
  -1   7  -9  233.98   31.20
   1   7   9  251.47   36.90
  -8  -8   9   39.40   26.80
  -8  -8   9   77.39   35.80
  -8  -8   9   53.39   22.80
  -8   8   9   24.30   26.60
  -8   8   9   27.10   22.10
  -8   8   9   16.40   21.00
  -7  -8   9   -0.90   16.60
  -7  -8   9  -44.30   26.90
  -7  -8   9   12.40   24.30
  -7   8   9  -14.30   19.80
  -7   8   9  -24.90   12.10
  -7   8   9   29.10   20.10
  -6  -8   9    6.90   21.40
  -6  -8   9    7.00   15.60
  -6  -8   9   42.40   28.10
  -6   8   9    9.20   18.50
  -6   8   9   14.60   10.20
  -6   8   9  -11.40   18.30
  -5  -8   9   41.10   27.70
  -5   8   9   63.99   24.70
  -5   8   9   67.59   10.30
  -5   8   9  109.09   21.50
   5   8  -9   62.59   16.70
  -4  -8   9   29.40   24.30
  -4  -8   9   42.80   24.90
   4   8  -9   71.29   16.10
  -4   8   9   83.69   19.90
  -4   8   9   60.59   17.30
  -3  -8   9  -17.20   24.10
  -3  -8   9   -3.90   22.70
  -3   8   9    2.40   18.70
  -3   8   9   -4.80   11.60
  -3   8   9   14.40   13.30
   3   8  -9   -2.50   13.00
  -2  -8   9   16.60   26.80
  -2  -8   9    1.60   26.10
  -2   8   9   70.09   14.00
  -2   8   9   56.79   16.50
   2   8  -9   65.29   17.00
  -1  -8   9   57.89   26.80
  -1  -8   9   61.59   32.00
  -1  -8   9   44.10   24.00
   1   8  -9   63.29   18.40
  -1   8   9   38.70   17.40
   0  -8   9   40.70   23.60
   0  -8   9   11.80   28.40
   0  -8   9  -19.30   29.40
   0   8   9  -18.70   15.90
   0   8  -9   19.30   20.00
   1  -8   9   37.50   34.80
   1  -8   9   19.70   29.60
  -1   8  -9   52.09   24.60
   1   8   9   44.90   20.20
  -7  -9   9   92.89   33.20
  -7  -9   9  122.99   31.60
  -7  -9   9   60.29   21.40
  -7   9   9   94.69   24.70
  -7   9   9   82.29   24.40
  -6  -9   9  177.68   38.90
  -6  -9   9  176.58   32.40
  -6   9   9  180.18   26.10
  -6   9   9  166.58   27.20
  -5  -9   9   89.49   31.60
  -5  -9   9   88.29   25.40
  -5   9   9   94.99   26.90
   5   9  -9   84.59   19.20
  -5   9   9   54.79   20.00
  -4  -9   9   56.59   26.90
   4   9  -9   86.49   18.00
  -4   9   9   67.79   17.10
  -3  -9   9  779.72   61.59
  -3  -9   9  809.52   67.19
  -3   9   9  759.62   44.20
   3   9  -9  734.33   47.90
  -2  -9   9  257.07   42.70
  -2  -9   9  284.67   40.50
  -2   9   9  181.48   29.20
  -2   9   9  274.67   21.90
   2   9  -9  209.88   26.70
  -1  -9   9    6.80   30.00
  -1  -9   9   13.60   28.30
  -1   9   9    6.30   14.30
   1   9  -9    4.00   17.80
   0  -9   9  278.37   46.90
   0  -9   9  222.68   36.20
   0  -9   9  397.86   61.99
   0   9   9  293.47   35.10
   0   9  -9  265.57   39.20
  -7 -10   9  168.98   33.60
  -7 -10   9  205.68   42.40
  -7  10   9  130.89   26.90
  -6 -10   9    5.50   24.10
  -6 -10   9  -13.80   28.60
  -6  10   9    1.30   18.70
  -5 -10   9   23.50   25.40
  -5 -10   9   20.00   27.00
  -5  10   9   31.80   23.00
   5  10  -9   38.90   17.50
  -4 -10   9  208.38   37.80
  -4 -10   9   94.49   26.80
  -4  10   9  124.19   20.10
   4  10  -9   81.29   20.00
  -3 -10   9   53.09   33.40
   3  10  -9   95.99   20.70
  -3  10   9   96.19   15.60
  -2 -10   9    2.20   30.00
  -2 -10   9   34.00   30.70
   2  10  -9  -22.10   17.60
  -1 -10   9  200.18   42.40
  -1 -10   9  185.58   38.00
   1  10  -9  243.28   36.40
   0 -10   9   28.10   35.40
   0 -10   9    8.10   35.90
   0  10  -9   53.49   24.20
   0  10   9   77.59   21.40
  -6 -11   9   25.50   35.90
  -6 -11   9  -19.50   24.70
  -6  11   9    0.90   18.30
  -5 -11   9   58.39   29.30
  -5 -11   9   88.49   36.20
   5  11  -9   67.99   26.20
  -5  11   9   67.09   20.40
  -4 -11   9   -1.40   29.90
  -4 -11   9    9.50   23.40
   4  11  -9   19.10   17.80
  -4  11   9   34.70   14.60
  -3 -11   9  110.69   30.50
  -3 -11   9   59.69   33.70
  -3  11   9   99.09   14.60
   3  11  -9  162.88   24.90
  -2 -11   9   75.39   36.50
  -2 -11   9   24.70   33.30
   2  11  -9   83.39   24.90
  -1 -11   9   28.10   33.80
  -1 -11   9   22.10   36.80
   1  11  -9   35.60   20.70
  -5 -12   9  288.87   40.50
  -5 -12   9  189.48   44.20
   5  12  -9  246.98   33.10
  -5  12   9  267.77   40.10
  -4 -12   9  374.66   53.39
  -4 -12   9  344.67   47.70
  -4  12   9  358.66   31.40
   4  12  -9  423.56   43.70
  -3 -12   9   82.29   38.00
  -3 -12   9  125.99   33.10
   3  12  -9   96.99   23.10
  -2 -12   9  129.49   42.40
  -2 -12   9  114.39   37.60
   2  12  -9   65.89   23.70
  -4 -13   9   -0.40   39.30
   4  13  -9   44.40   23.90
  -8   0  10  605.64   59.09
  -8   0  10  517.45   57.29
  -7   0  10   29.40   14.20
  -7   0  10   25.50   25.30
  -7   0  10   18.90   27.00
  -6   0  10  194.18   31.70
  -6   0  10  210.48   33.90
  -5   0  10  186.48   31.70
  -5   0  10  167.28   24.10
  -5   0  10  173.88   29.50
  -4   0  10   89.39   26.40
  -4   0  10   44.90   23.60
  -4   0  10   53.39   24.60
  -3   0  10  921.91   61.79
  -3   0  10  863.91   63.39
  -3   0  10  934.41   58.69
  -2   0  10  821.62   56.39
  -2   0  10  826.62   60.19
  -2   0  10  762.02   62.29
  -1   0  10  -33.60   20.50
  -1   0  10   30.70   23.50
   0   0  10   -7.60   22.60
   0   0  10   34.60   24.50
  -8  -1  10  258.47   42.00
  -8  -1  10  277.27   40.10
  -8   1  10  278.57   37.50
  -8   1  10  236.78   37.50
  -7  -1  10   85.19   32.60
  -7  -1  10   39.80   15.50
  -7  -1  10   50.39   26.20
  -7   1  10   49.60   14.90
  -7   1  10   45.90   26.90
  -7   1  10   21.40   26.20
  -6  -1  10   64.39   28.30
  -6  -1  10   33.20   25.40
  -6   1  10   56.99   25.50
  -6   1  10   50.69   23.20
  -5  -1  10   14.60   16.60
  -5  -1  10   -7.00   23.20
  -5  -1  10  -21.20   23.50
  -5   1  10   -9.80   19.10
  -5   1  10   15.30   15.90
  -5   1  10   58.99   25.60
  -4  -1  10  138.69   29.90
  -4  -1  10  162.38   29.90
  -4  -1  10  134.39   30.10
  -4   1  10  153.48   27.60
  -4   1  10  126.29   27.10
  -4   1  10  152.78   27.30
  -3  -1  10  108.29   27.20
  -3  -1  10  126.69   24.70
  -3  -1  10  100.49   26.60
  -3   1  10   97.09   24.40
  -3   1  10  119.59   27.20
  -3   1  10  105.29   23.80
  -2  -1  10   24.90   19.60
  -2  -1  10   -5.50   23.10
  -2  -1  10   -7.70   24.60
  -2   1  10  -40.90   26.00
  -2   1  10   -6.60   20.30
  -2   1  10  -32.70   16.60
  -1  -1  10   21.60   25.00
  -1  -1  10   20.70   24.20
  -1   1  10   31.70   23.80
  -1   1  10  -19.30   21.90
   0  -1  10   32.00   25.90
   0  -1  10   71.69   27.90
   0   1  10   45.70   26.10
   0   1  10   49.70   26.10
  -8  -2  10  212.18   37.60
  -8  -2  10  142.29   36.40
  -8   2  10  349.47   48.20
  -8   2  10  204.58   38.90
  -7  -2  10    4.70   23.50
  -7  -2  10   -2.70   27.40
  -7   2  10   -4.00   23.60
  -7   2  10   19.00   13.10
  -7   2  10  -11.00   22.50
  -6  -2  10   46.00   17.40
  -6  -2  10   74.09   25.90
  -6  -2  10   29.90   24.60
  -6   2  10   46.80   25.90
  -6   2  10   58.69   16.10
  -6   2  10   20.40   22.40
  -5  -2  10   50.89   25.10
  -5  -2  10   20.60   24.40
  -5  -2  10    2.50   16.50
  -5   2  10   35.40   20.80
  -5   2  10   30.90   21.40
  -4  -2  10   29.00   25.20
  -4  -2  10   42.40   23.20
  -4  -2  10   40.50   19.10
  -4   2  10   30.60   20.80
  -4   2  10   27.30   17.40
  -4   2  10   37.40   24.30
  -3  -2  10  223.78   35.70
  -3  -2  10  170.28   29.60
  -3  -2  10  163.68   29.60
  -3   2  10  191.38   30.60
  -3   2  10  167.78   27.60
  -3   2  10  162.08   25.50
  -2  -2  10  563.94   54.29
  -2  -2  10  494.95   49.99
  -2  -2  10  504.75   46.40
  -2   2  10  451.75   45.30
  -2   2  10  423.86   42.90
  -1  -2  10   13.10   22.10
  -1  -2  10  -12.70   23.30
  -1   2  10  -26.10   20.70
  -1   2  10   33.30   22.50
   0  -2  10   89.69   29.80
   0  -2  10   80.99   30.10
   0   2  10   53.79   25.50
   0   2  10   24.80   22.40
  -8  -3  10  728.73   68.39
  -8  -3  10  848.62   66.19
  -8   3  10  665.23   63.19
  -7  -3  10  517.05   55.99
  -7  -3  10  464.55   54.99
  -7  -3  10  374.26   36.00
  -7   3  10  480.65   50.99
  -7   3  10  420.66   50.59
  -6  -3  10   68.69   29.30
  -6  -3  10  102.19   29.30
  -6  -3  10   75.69   20.10
  -6   3  10   82.49   25.50
  -6   3  10   71.79   16.70
  -6   3  10   77.59   26.80
  -5  -3  10  -45.10   25.80
  -5  -3  10   45.10   27.50
  -5  -3  10    7.50   16.30
  -5   3  10   12.20   21.60
  -5   3  10   -2.70   14.40
  -5   3  10   -7.80   18.70
  -4  -3  10  198.28   34.30
  -4  -3  10  304.67   47.10
  -4  -3  10  261.47   35.50
  -4   3  10  334.57   43.10
  -4   3  10  247.08   32.10
  -4   3  10  297.57   38.30
  -3  -3  10  283.67   37.90
  -3  -3  10  260.07   36.30
  -3  -3  10  207.78   33.00
  -3   3  10  239.98   36.40
  -3   3  10  235.98   33.20
  -3   3  10  269.57   35.20
  -2  -3  10   33.70   20.40
  -2  -3  10   -1.70   27.00
  -2  -3  10   45.90   26.00
  -2   3  10   38.00   19.20
  -2   3  10   24.70   21.00
  -1  -3  10  226.08   36.20
  -1  -3  10  305.47   45.10
  -1   3  10  235.58   36.70
  -1   3  10  272.87   40.70
   0  -3  10  196.58   35.60
   0  -3  10  139.09   33.80
   0   3  10  186.58   25.30
   0   3  10  160.38   31.10
  -7  -4  10  165.88   35.50
  -7  -4  10  233.18   36.70
  -7  -4  10  205.98   31.50
  -7   4  10  245.88   33.90
  -7   4  10  168.58   33.20
  -6  -4  10   72.39   20.00
  -6  -4  10   48.90   26.60
  -6   4  10   63.29   15.70
  -6   4  10   83.69   24.00
  -6   4  10   63.89   24.40
  -5  -4  10    2.70   16.80
  -5  -4  10   23.00   26.70
  -5  -4  10   37.40   27.40
  -5   4  10   15.40   14.50
  -5   4  10    0.70   19.80
  -5   4  10   36.30   23.30
  -4  -4  10  277.97   37.30
  -4  -4  10  171.28   34.20
  -4  -4  10  224.98   36.70
  -4   4  10  170.88   27.10
  -4   4  10  256.67   31.50
  -4   4  10  171.28   30.60
  -3  -4  10   -4.50   24.40
  -3  -4  10   68.69   27.60
  -3  -4  10   51.39   20.30
  -3   4  10  -24.60   22.10
  -3   4  10   29.40   18.00
  -2  -4  10   35.90   29.90
  -2  -4  10   65.29   29.70
  -2  -4  10   33.90   21.00
  -2   4  10   -3.10   16.90
  -2   4  10   19.70   18.80
   2   4 -10   37.60   18.00
  -1  -4  10   58.79   25.80
  -1  -4  10   -0.40   28.20
  -1  -4  10   -1.00   32.30
  -1   4  10   -4.30   17.70
  -1   4  10   12.80   19.80
  -7  -5  10  472.75   41.70
  -7  -5  10  525.55   56.59
  -7  -5  10  452.85   60.99
  -7   5  10  465.95   50.59
  -7   5  10  456.45   51.69
  -6  -5  10    7.90   25.50
  -6  -5  10   59.99   18.80
  -6  -5  10   71.59   31.30
  -6   5  10   61.89   22.30
  -6   5  10   46.00   24.30
  -5  -5  10  171.08   35.50
  -5  -5  10  126.59   34.60
  -5   5  10  112.99   26.30
  -5   5  10  136.29   27.20
  -4  -5  10  467.45   57.79
  -4  -5  10  354.86   42.00
  -4  -5  10  438.86   51.39
  -4   5  10  412.46   41.50
  -4   5  10  376.06   36.70
  -4   5  10  453.55   52.69
  -3  -5  10  166.08   34.40
  -3  -5  10  202.78   30.50
  -3  -5  10  206.48   38.70
   3   5 -10  196.08   24.00
  -3   5  10  272.17   33.90
  -3   5  10  207.28   41.10
  -2  -5  10   74.99   26.10
  -2  -5  10  127.99   33.50
  -2  -5  10  128.39   31.60
   2   5 -10  112.69   15.60
  -2   5  10  114.79   22.40
  -2   5  10   56.39   21.30
  -1  -5  10  370.06   48.90
  -1  -5  10  263.67   42.60
  -1  -5  10  366.66   55.09
  -1   5  10  312.07   35.30
  -1   5  10  298.27   42.00
  -7  -6  10   39.30   30.30
  -7  -6  10   65.09   19.30
  -7  -6  10   47.70   29.60
  -7   6  10   86.89   26.20
  -6  -6  10   13.10   17.90
  -6  -6  10  -26.70   24.60
  -6  -6  10  -18.70   26.70
  -6   6  10   14.80   24.00
  -6   6  10  -29.20   21.50
  -5  -6  10   36.50   28.20
  -5  -6  10   96.19   22.60
  -5  -6  10   18.50   46.80
  -5   6  10   16.00   24.20
  -5   6  10   44.10   15.70
  -5   6  10  129.39   34.80
  -4  -6  10   17.60   26.80
  -4  -6  10    4.10   19.70
  -4   6  10  -12.20   14.70
  -4   6  10  -16.20   19.00
  -3  -6  10  215.08   37.40
  -3  -6  10  239.68   38.80
  -3  -6  10  177.78   30.80
  -3   6  10  226.88   32.40
  -3   6  10  181.78   27.30
   3   6 -10  163.08   26.00
  -2  -6  10   97.49   31.40
  -2  -6  10  112.89   29.50
  -2  -6  10  109.89   34.40
  -2   6  10  138.49   22.10
   2   6 -10  113.09   19.00
  -2   6  10  103.89   23.00
  -1  -6  10   88.39   30.00
  -1  -6  10   48.10   33.50
  -1  -6  10   89.99   39.70
  -1   6  10   98.39   25.00
   1   6 -10   52.49   22.70
  -7  -7  10    8.10   34.50
  -6  -7  10    6.50   28.10
  -6  -7  10  -34.60   27.40
  -6   7  10  -12.50   21.80
  -5  -7  10    3.60   27.00
  -5  -7  10   -9.90   20.60
  -5  -7  10   15.80   27.90
  -5   7  10  -20.80   20.50
  -4  -7  10  192.78   30.10
  -4  -7  10  197.58   50.19
  -4  -7  10  155.28   36.00
  -4   7  10  174.78   28.40
   4   7 -10  180.58   29.30
  -4   7  10  158.38   26.30
  -3  -7  10  111.69   36.00
  -3  -7  10  113.69   33.20
  -3  -7  10  102.99   26.60
  -3   7  10  154.68   23.00
  -3   7  10  130.89   21.30
   3   7 -10  142.89   20.80
  -2  -7  10   47.20   26.00
  -2  -7  10   42.30   31.00
  -2  -7  10   36.70   33.40
  -2   7  10   56.09   20.80
  -2   7  10   84.79   18.60
   2   7 -10   69.49   19.00
  -6  -8  10  329.47   44.20
  -6  -8  10  552.24   65.69
  -6  -8  10  352.86   45.10
  -6   8  10  457.75   48.00
  -5  -8  10  646.64   53.39
  -5  -8  10  696.43   67.49
  -5  -8  10  575.64   62.39
  -5   8  10  601.44   49.00
  -4  -8  10   27.00   28.30
  -4  -8  10   94.39   32.60
  -4  -8  10   -4.00   21.00
   4   8 -10   10.60   16.50
  -4   8  10   69.79   21.70
  -3  -8  10  270.17   44.00
  -3  -8  10  301.27   47.70
   3   8 -10  326.87   35.30
  -3   8  10  296.07   34.70
  -3   8  10  292.27   35.10
  -2  -8  10  270.67   39.80
  -2  -8  10  320.57   49.70
  -2  -8  10  371.56   49.99
   2   8 -10  293.67   39.00
  -2   8  10  363.06   38.30
  -5  -9  10   -8.60   31.00
  -5  -9  10   57.89   33.60
  -5  -9  10   88.79   26.80
  -5   9  10   37.00   22.50
  -4  -9  10  156.18   30.30
  -4  -9  10  146.79   37.40
  -4  -9  10  133.19   39.70
   4   9 -10  118.09   23.90
  -3  -9  10    6.70   35.60
  -3  -9  10   56.69   33.90
  -3  -9  10   52.89   26.30
  -3   9  10   44.70   17.70
   3   9 -10   56.89   20.20
  -5   0  11   -2.80   20.20
  -5   0  11   -4.20   28.50
  -5   0  11  -26.90   31.00
  -4   0  11    8.70   28.20
  -4   0  11   -0.30   21.40
  -5  -1  11  266.67   39.40
  -5  -1  11  213.38   30.80
  -5  -1  11  254.37   41.10
  -5   1  11  283.37   39.20
  -5   1  11  268.67   49.40
  -5   1  11  282.77   39.00
  -4  -1  11  218.48   50.19
  -4  -1  11  196.38   35.30
  -4  -1  11  147.39   28.90
  -4   1  11  136.49   32.90
  -4   1  11  121.09   25.70
  -5  -2  11  -14.90   27.90
  -5  -2  11   88.19   36.70
  -5  -2  11   18.70   22.20
  -5   2  11    0.80   20.30
  -5   2  11   22.10   27.10
  -4  -2  11   61.49   34.20
  -4  -2  11  114.19   26.90
  -4  -2  11   16.20   35.50
  -4   2  11   46.50   21.30
  -4   2  11   90.89   29.50
   0   0   0    0.00    0.00

_computing_structure_solution     'SHELXT 2014/5 (Sheldrick, 2014)'
;
_shelx_hkl_checksum              96469
loop_
_space_group_symop_operation_xyz
'x, y, z'
'-x, y+1/2, -z+1/2'
'-x, -y, -z'
'x, -y-1/2, z-1/2'
loop_
_atom_site_label
_atom_site_type_symbol
_atom_site_fract_x
_atom_site_fract_y
_atom_site_fract_z
_atom_site_U_iso_or_equiv
_atom_site_adp_type
_atom_site_occupancy
_atom_site_site_symmetry_order
_atom_site_calc_flag
_atom_site_refinement_flags_posn
_atom_site_refinement_flags_adp
_atom_site_refinement_flags_occupancy
_atom_site_disorder_assembly
_atom_site_disorder_group
Zn1 Zn 0.34953(3) 0.44047(2) 0.06660(3) 0.00562(6) Uani 1 1 d . . . . .
O1 O 0.42155(18) 0.29630(8) 0.80033(18) 0.0121(3) Uani 1 1 d . . . . .
O2 O 0.19736(17) 0.42860(8) 0.51017(17) 0.0104(2) Uani 1 1 d . . . . .
O3 O 0.19866(16) 0.45970(8) 0.22988(16) 0.0078(2) Uani 1 1 d . . . . .
O5 O 0.51836(16) 0.42851(7) 0.90290(16) 0.0066(2) Uani 1 1 d . . . . .
C8 C 0.4759(2) 0.39793(10) 0.4623(2) 0.0057(3) Uani 1 1 d . . . . .
C7 C 0.2743(2) 0.43102(10) 0.3985(2) 0.0062(3) Uani 1 1 d . . . . .
C9 C 0.5804(2) 0.37018(10) 0.6458(2) 0.0055(3) Uani 1 1 d . . . . .
C10 C 0.7652(2) 0.34063(10) 0.6918(2) 0.0083(3) Uani 1 1 d . . . . .
H10 H 0.841064 0.321992 0.816359 0.010 Uiso 1 1 calc R U . . .
C11 C 0.8356(2) 0.33892(10) 0.5542(2) 0.0085(3) Uani 1 1 d . . . . .
H11 H 0.960098 0.318354 0.582418 0.010 Uiso 1 1 calc R U . . .
C12 C 0.7227(2) 0.36757(10) 0.3738(2) 0.0074(3) Uani 1 1 d . . . . .
H12 H 0.771282 0.365817 0.278990 0.009 Uiso 1 1 calc R U . . .
C13 C 0.4971(2) 0.36548(10) 0.7918(2) 0.0064(3) Uani 1 1 d . . . . .
N14 N 0.54729(19) 0.39761(9) 0.32987(19) 0.0061(3) Uani 1 1 d . . . . .
O1W O 0.14642(17) 0.48384(8) -0.17321(18) 0.0091(2) Uani 1 1 d . . . . .
H1A H 0.153(4) 0.4707(17) -0.265(4) 0.022(7) Uiso 1 1 d . . . . .
H1B H 0.038(4) 0.4976(18) -0.187(4) 0.039(8) Uiso 1 1 d . . . . .
O2W O 0.22913(18) 0.31343(8) 0.00941(19) 0.0111(2) Uani 1 1 d . . . . .
H2A H 0.286(4) 0.2816(17) 0.099(4) 0.025(7) Uiso 1 1 d . . . . .
H2B H 0.276(3) 0.3006(16) -0.064(4) 0.024(7) Uiso 1 1 d . . . . .
loop_
_atom_site_aniso_label
_atom_site_aniso_U_11
_atom_site_aniso_U_22
_atom_site_aniso_U_33
_atom_site_aniso_U_23
_atom_site_aniso_U_13
_atom_site_aniso_U_12
Zn1 0.00550(9) 0.00798(9) 0.00375(10) 0.00125(7) 0.00226(7) 0.00115(7)
O1 0.0206(6) 0.0081(5) 0.0122(6) -0.0019(5) 0.0112(5) -0.0041(5)
O2 0.0086(5) 0.0169(6) 0.0074(6) 0.0005(5) 0.0050(5) 0.0013(5)
O3 0.0074(5) 0.0111(5) 0.0057(5) 0.0020(4) 0.0035(4) 0.0026(4)
O5 0.0078(5) 0.0073(5) 0.0055(5) -0.0009(4) 0.0036(4) 0.0005(4)
C8 0.0064(7) 0.0047(7) 0.0065(7) -0.0003(6) 0.0031(6) -0.0008(5)
C7 0.0061(6) 0.0055(7) 0.0063(7) -0.0017(6) 0.0019(6) -0.0010(5)
C9 0.0073(7) 0.0049(7) 0.0052(7) -0.0007(6) 0.0033(6) -0.0010(5)
C10 0.0085(7) 0.0075(7) 0.0072(8) 0.0012(6) 0.0015(6) 0.0011(6)
C11 0.0073(7) 0.0077(7) 0.0101(8) 0.0005(6) 0.0032(6) 0.0010(6)
C12 0.0077(7) 0.0071(7) 0.0087(8) -0.0005(6) 0.0047(6) -0.0005(6)
C13 0.0053(7) 0.0083(7) 0.0041(7) 0.0022(6) 0.0006(6) 0.0040(6)
N14 0.0071(6) 0.0058(6) 0.0062(6) 0.0005(5) 0.0036(5) 0.0002(5)
O1W 0.0062(5) 0.0152(6) 0.0062(6) 0.0011(5) 0.0027(5) 0.0038(5)
O2W 0.0125(6) 0.0110(6) 0.0102(6) 0.0007(5) 0.0049(5) 0.0000(5)
loop_
_atom_type_symbol
_atom_type_description
_atom_type_scat_dispersion_real
_atom_type_scat_dispersion_imag
_atom_type_scat_source
C C 0.0033 0.0016 'International Tables Vol C Tables 4.2.6.8 and 6.1.1.4'
H H 0.0000 0.0000 'International Tables Vol C Tables 4.2.6.8 and 6.1.1.4'
N N 0.0061 0.0033 'International Tables Vol C Tables 4.2.6.8 and 6.1.1.4'
O O 0.0106 0.0060 'International Tables Vol C Tables 4.2.6.8 and 6.1.1.4'
Zn Zn 0.2839 1.4301 'International Tables Vol C Tables 4.2.6.8 and 6.1.1.4'
loop_
_geom_angle_atom_site_label_1
_geom_angle_atom_site_label_2
_geom_angle_atom_site_label_3
_geom_angle
_geom_angle_site_symmetry_1
_geom_angle_site_symmetry_3
_geom_angle_publ_flag
O1W Zn1 O3 95.54(5) . . ?
O1W Zn1 N14 175.09(5) . . ?
O3 Zn1 N14 79.55(5) . . ?
O1W Zn1 O5 85.14(5) . 1_554 ?
O3 Zn1 O5 176.00(5) . 1_554 ?
N14 Zn1 O5 99.74(5) . 1_554 ?
O1W Zn1 O2W 90.70(5) . . ?
O3 Zn1 O2W 87.62(5) . . ?
N14 Zn1 O2W 89.30(5) . . ?
O5 Zn1 O2W 96.32(5) 1_554 . ?
O1W Zn1 O5 86.52(5) . 3_666 ?
O3 Zn1 O5 98.36(4) . 3_666 ?
N14 Zn1 O5 93.96(5) . 3_666 ?
O5 Zn1 O5 77.73(5) 1_554 3_666 ?
O2W Zn1 O5 173.62(5) . 3_666 ?
C7 O3 Zn1 116.08(10) . . ?
C13 O5 Zn1 121.29(10) . 1_556 ?
C13 O5 Zn1 134.63(11) . 3_666 ?
Zn1 O5 Zn1 102.27(5) 1_556 3_666 ?
N14 C8 C9 122.15(14) . . ?
N14 C8 C7 115.64(14) . . ?
C9 C8 C7 122.21(14) . . ?
O2 C7 O3 125.38(15) . . ?
O2 C7 C8 118.72(14) . . ?
O3 C7 C8 115.90(14) . . ?
C8 C9 C10 118.24(15) . . ?
C8 C9 C13 122.34(14) . . ?
C10 C9 C13 119.29(14) . . ?
C11 C10 C9 119.18(15) . . ?
C11 C10 H10 120.4 . . ?
C9 C10 H10 120.4 . . ?
C10 C11 C12 119.31(15) . . ?
C10 C11 H11 120.3 . . ?
C12 C11 H11 120.3 . . ?
N14 C12 C11 121.81(16) . . ?
N14 C12 H12 119.1 . . ?
C11 C12 H12 119.1 . . ?
O1 C13 O5 124.96(15) . . ?
O1 C13 C9 115.57(14) . . ?
O5 C13 C9 119.32(14) . . ?
C12 N14 C8 119.29(14) . . ?
C12 N14 Zn1 128.35(11) . . ?
C8 N14 Zn1 112.26(10) . . ?
Zn1 O1W H1A 117.0(19) . . ?
Zn1 O1W H1B 125.1(19) . . ?
H1A O1W H1B 113(3) . . ?
Zn1 O2W H2A 110.3(18) . . ?
Zn1 O2W H2B 95.4(18) . . ?
H2A O2W H2B 102(2) . . ?
loop_
_geom_bond_atom_site_label_1
_geom_bond_atom_site_label_2
_geom_bond_distance
_geom_bond_site_symmetry_2
_geom_bond_publ_flag
Zn1 O1W 2.0038(12) . ?
Zn1 O3 2.0572(12) . ?
Zn1 N14 2.1033(14) . ?
Zn1 O5 2.1612(12) 1_554 ?
Zn1 O2W 2.1651(13) . ?
Zn1 O5 2.2610(11) 3_666 ?
O1 C13 1.245(2) . ?
O2 C7 1.231(2) . ?
O3 C7 1.278(2) . ?
O5 C13 1.276(2) . ?
C8 N14 1.346(2) . ?
C8 C9 1.391(2) . ?
C8 C7 1.519(2) . ?
C9 C10 1.400(2) . ?
C9 C13 1.511(2) . ?
C10 C11 1.379(2) . ?
C10 H10 0.9500 . ?
C11 C12 1.389(2) . ?
C11 H11 0.9500 . ?
C12 N14 1.339(2) . ?
C12 H12 0.9500 . ?
O1W H1A 0.76(3) . ?
O1W H1B 0.82(3) . ?
O2W H2A 0.82(3) . ?
O2W H2B 0.81(3) . ?
