#------------------------------------------------------------------------------
#$Date: 2021-02-03 21:55:52 +0200 (Wed, 03 Feb 2021) $
#$Revision: 261398 $
#$URL: file:///home/coder/svn-repositories/cod/cif/4/51/84/4518452.cif $
#------------------------------------------------------------------------------
#
# This file is available in the Crystallography Open Database (COD),
# http://www.crystallography.net/
#
# All data on this site have been placed in the public domain by the
# contributors.
#
data_4518452
loop_
_publ_author_name
'Lu, Huangjie'
'Zheng, Zhaofa'
'Li, Zi-Jian'
'Bao, Hongliang'
'Guo, Xiaojing'
'Guo, Xiaofeng'
'Lin, Jian'
'Qian, Yuan'
'Wang, Jian-Qiang'
_publ_section_title
;
 Achieving UV and X-ray Dual Photochromism in a Metal-Organic Hybrid via
 Structural Modulation.
;
_journal_issue                   2
_journal_name_full               'ACS applied materials &amp; interfaces'
_journal_page_first              2745
_journal_page_last               2752
_journal_paper_doi               10.1021/acsami.0c20036
_journal_volume                  13
_journal_year                    2021
_chemical_formula_moiety         'C18 N3 O6 Tm'
_chemical_formula_sum            'C18 N3 O6 Tm'
_chemical_formula_weight         523.14
_chemical_melting_point          ?
_chemical_name_common
'Thulium 2,2':6',2''-terpyridine-4'-carboxyli'
_space_group_crystal_system      monoclinic
_space_group_IT_number           15
_space_group_name_Hall           '-C 2yc'
_space_group_name_H-M_alt        'C 1 2/c 1'
_audit_creation_method           SHELXL-2014
_cell_angle_alpha                90
_cell_angle_beta                 125.1750(10)
_cell_angle_gamma                90
_cell_formula_units_Z            4
_cell_length_a                   17.9101(7)
_cell_length_b                   9.4336(3)
_cell_length_c                   11.8747(4)
_cell_measurement_reflns_used    9550
_cell_measurement_temperature    293(2)
_cell_measurement_theta_max      55.056
_cell_measurement_theta_min      5.136
_cell_volume                     1639.95(10)
_computing_cell_refinement       'Bruker SAINT'
_computing_data_collection       'Bruker APEX2'
_computing_data_reduction        'Bruker SAINT'
_computing_molecular_graphics    'Bruker SHELXTL'
_computing_publication_material  'Bruker SHELXTL'
_computing_structure_refinement  'SHELXL-2014 (Sheldrick, 2014)'
_computing_structure_solution    'SHELXS-97 (Sheldrick 2008)'
_diffrn_ambient_temperature      293(2)
_diffrn_measured_fraction_theta_full 0.995
_diffrn_measured_fraction_theta_max 0.994
_diffrn_measurement_device_type  'Bruker APEX-II CCD'
_diffrn_measurement_method       '0.5 wide w/ exposures'
_diffrn_radiation_type           MoK\a
_diffrn_radiation_wavelength     0.71073
_diffrn_reflns_av_R_equivalents  0.0270
_diffrn_reflns_av_unetI/netI     0.0176
_diffrn_reflns_Laue_measured_fraction_full 0.995
_diffrn_reflns_Laue_measured_fraction_max 0.994
_diffrn_reflns_limit_h_max       23
_diffrn_reflns_limit_h_min       -22
_diffrn_reflns_limit_k_max       12
_diffrn_reflns_limit_k_min       -12
_diffrn_reflns_limit_l_max       13
_diffrn_reflns_limit_l_min       -15
_diffrn_reflns_number            11425
_diffrn_reflns_point_group_measured_fraction_full 0.995
_diffrn_reflns_point_group_measured_fraction_max 0.994
_diffrn_reflns_theta_full        25.242
_diffrn_reflns_theta_max         27.528
_diffrn_reflns_theta_min         2.568
_exptl_absorpt_coefficient_mu    5.454
_exptl_absorpt_correction_T_max  0.580
_exptl_absorpt_correction_T_min  0.416
_exptl_absorpt_correction_type   multi-scan
_exptl_absorpt_process_details   SHELTXPREP
_exptl_crystal_colour            colorless
_exptl_crystal_density_diffrn    2.119
_exptl_crystal_description       block
_exptl_crystal_F_000             984
_exptl_crystal_size_max          0.18
_exptl_crystal_size_mid          0.14
_exptl_crystal_size_min          0.10
_refine_diff_density_max         0.842
_refine_diff_density_min         -0.748
_refine_diff_density_rms         0.115
_refine_ls_extinction_method     none
_refine_ls_goodness_of_fit_ref   1.063
_refine_ls_hydrogen_treatment    undef
_refine_ls_matrix_type           full
_refine_ls_number_parameters     129
_refine_ls_number_reflns         1880
_refine_ls_number_restraints     0
_refine_ls_restrained_S_all      1.063
_refine_ls_R_factor_all          0.0187
_refine_ls_R_factor_gt           0.0183
_refine_ls_shift/su_max          0.000
_refine_ls_shift/su_mean         0.000
_refine_ls_structure_factor_coef Fsqd
_refine_ls_weighting_details
'w=1/[\s^2^(Fo^2^)+(0.0362P)^2^+3.8735P] where P=(Fo^2^+2Fc^2^)/3'
_refine_ls_weighting_scheme      calc
_refine_ls_wR_factor_gt          0.0541
_refine_ls_wR_factor_ref         0.0543
_reflns_Friedel_coverage         0.000
_reflns_number_gt                1853
_reflns_number_total             1880
_reflns_threshold_expression     'I > 2\s(I)'
_cod_data_source_file            am0c20036_si_002.cif
_cod_data_source_block           TmTPC-2beforeXray
_cod_depositor_comments
;
The following automatic conversions were performed:

data item '_chemical_melting_point' value 'N/a' was changed to '?' --
the value is undefined or not given.

Automatic conversion script
Id: cif_fix_values 7556 2019-12-06 15:28:31Z antanas 
;
_cod_original_sg_symbol_H-M      'C 2/c'
_cod_database_code               4518452
_shelx_space_group_comment
;
The symmetry employed for this shelxl refinement is uniquely defined
by the following loop, which should always be used as a source of
symmetry information in preference to the above space-group names.
They are only intended as comments.
;
_shelxl_version_number           2014-3
_shelx_res_file
;
TITL SAVE_a.res in C2/c
REM Old TITL SAVE in C2/c

REM SHELXT solution in C2/c
REM R1 0.094,  Rweak 0.008,  Alpha 0.025,  Orientation as input
REM Formula found by SHELXT:  C20 N2 O5 Tm

CELL  0.71073  17.9101   9.4336  11.8747   90.000  125.175   90.000
ZERR   4.000   0.0007   0.0003   0.0004    0.000    0.001    0.000
LATT  7
SYMM -X, Y, 1/2-Z
SFAC C N O TM
UNIT 72 12 24 4
L.S. 10
BOND $H
ACTA
LIST 6
FMAP 2
PLAN 20
WGHT    0.036200    3.873500
FVAR       0.29823
TM1   4    0.500000   -0.159999    0.750000    10.50000    0.02763    0.00768 =
         0.02819    0.00000    0.01971    0.00000
N1    2    0.500000    0.577315    0.750000    10.50000    0.02241    0.01070 =
         0.02305    0.00000    0.01515    0.00000
N2    2    0.589850    0.734372    0.677763    11.00000    0.02868    0.01420 =
         0.03484    0.00007    0.02308   -0.00009
O1    3    0.483828    0.060812    0.826847    11.00000    0.05677    0.01161 =
         0.04631   -0.00123    0.03983   -0.00045
O2    3    0.397082   -0.227168    0.514345    11.00000    0.04403    0.04007 =
         0.04116   -0.00780    0.01685    0.00472
O3    3    0.338100   -0.079443    0.582673    11.00000    0.04671    0.05056 =
         0.05251    0.00097    0.02987    0.01263
C1    1    0.545286    0.505087    0.709081    11.00000    0.02299    0.01255 =
         0.02329   -0.00050    0.01330   -0.00037
C2    1    0.500000    0.124877    0.750000    10.50000    0.03460    0.01604 =
         0.03435    0.00000    0.02126    0.00000
C3    1    0.500000    0.284729    0.750000    10.50000    0.02861    0.01080 =
         0.02531    0.00000    0.01570    0.00000
C4    1    0.595790    0.592949    0.669163    11.00000    0.02287    0.01460 =
         0.02313    0.00098    0.01341   -0.00019
C5    1    0.544728    0.357901    0.703581    11.00000    0.02815    0.01305 =
         0.02922   -0.00054    0.01826    0.00049
C6    1    0.334970   -0.156144    0.494844    11.00000    0.03703    0.02840 =
         0.03204    0.00143    0.01831    0.00143
C7    1    0.634148    0.819615    0.642982    11.00000    0.04096    0.01556 =
         0.05010    0.00304    0.03431   -0.00321
C8    1    0.647435    0.533391    0.628521    11.00000    0.03547    0.01987 =
         0.03626   -0.00024    0.02545    0.00492
C9    1    0.694971    0.621292    0.596190    11.00000    0.03972    0.03151 =
         0.04419    0.00255    0.03226    0.00441
C10   1    0.687303    0.767345    0.602059    11.00000    0.04222    0.02649 =
         0.04789    0.00341    0.03449   -0.00038

HKLF 4

REM  SAVE_a.res in C2/c
REM R1 =  0.0183 for    1853 Fo > 4sig(Fo)  and  0.0187 for all    1880 data
REM    129 parameters refined using      0 restraints

END

WGHT      0.0284      3.5866

REM Highest difference peak  0.842,  deepest hole -0.748,  1-sigma level  0.115
Q1    1   0.6484  0.4356  0.6204  11.00000  0.05    0.84
Q2    1   0.5730  0.3048  0.6653  11.00000  0.05    0.83
Q3    1   0.2793 -0.1535  0.4055  11.00000  0.05    0.79
Q4    1   0.6292  0.9074  0.6462  11.00000  0.05    0.77
Q5    1   0.7177  0.8328  0.5822  11.00000  0.05    0.70
Q6    1   0.7319  0.5764  0.5651  11.00000  0.05    0.69
Q7    1   0.5000  0.2115  0.7500  10.50000  0.05    0.46
Q8    1   0.5000 -0.0708  0.7500  10.50000  0.05    0.41
Q9    1   0.5771 -0.1192  0.8442  11.00000  0.05    0.41
Q10   1   0.6095  0.7607  0.6569  11.00000  0.05    0.40
Q11   1   0.6846  0.7038  0.5866  11.00000  0.05    0.39
Q12   1   0.4373  0.0458  0.7528  11.00000  0.05    0.39
Q13   1   0.5498  0.4330  0.7080  11.00000  0.05    0.38
Q14   1   0.5644 -0.2063  0.8520  11.00000  0.05    0.33
Q15   1   0.5993  0.6627  0.6731  11.00000  0.05    0.30
Q16   1   0.3849 -0.1658  0.5597  11.00000  0.05    0.29
Q17   1   0.5715  0.6948  0.8449  11.00000  0.05    0.29
Q18   1   0.5663  0.5471  0.6972  11.00000  0.05    0.28
Q19   1   0.5450  0.6636  0.7967  11.00000  0.05    0.27
Q20   1   0.6285  0.5580  0.6623  11.00000  0.05    0.27
;
_shelx_res_checksum              52166
_shelx_hkl_file
;
   4   0   0 2687.13   76.09
  -4   0   0 2612.14   75.79
  -4   0   0 2662.03   75.99
   6   0   0 6250.67  199.48
   6   0   0 7958.50  198.58
   8   0   0 3291.87   92.59
   8   0   0 3214.98   93.99
  -8   0   0 3194.38   94.59
  -8   0   0 3224.98   94.39
   8   0   0 3136.39   94.59
 -10   0   0 2846.82   87.39
  10   0   0 3009.40   87.29
  10   0   0 2942.91   85.19
 -10   0   0 2816.62   87.39
  10   0   0 2876.81   87.69
 -12   0   0 1915.41   65.19
  12   0   0 2010.90   65.59
 -12   0   0 2012.10   65.39
  12   0   0 2138.19   65.29
  12   0   0 2101.59   62.99
  14   0   0  786.82   29.00
 -14   0   0  750.72   31.40
  14   0   0  730.73   30.80
 -16   0   0  440.36   23.20
  16   0   0  433.76   22.90
  16   0   0  431.36   21.60
  18   0   0  370.76   22.80
 -18   0   0  436.86   24.60
   1  -1   0  971.20   26.90
   1  -1   0  938.71   26.90
  -1  -1   0  893.41   26.90
   1  -1   0  978.80   27.20
  -1  -1   0  910.11   27.70
   1   1   0  899.31   27.30
   1   1   0  950.30   27.80
  -1   1   0  943.21   26.90
  -1   1   0  958.90   27.20
   1   1   0  975.80   27.00
  -1   1   0  972.00   26.90
  -3  -1   0 1062.69   31.60
   3  -1   0 1044.80   31.30
   3  -1   0 1064.69   30.50
  -3  -1   0 1041.80   31.40
   3  -1   0 1068.09   31.50
  -3  -1   0 1046.60   31.50
  -3   1   0 1069.09   31.30
   3   1   0 1049.09   31.60
  -3   1   0 1068.19   31.60
   3   1   0 1055.49   31.80
   3   1   0 1078.79   31.30
  -5  -1   0 2305.57   65.09
   5  -1   0 2218.28   64.59
  -5  -1   0 2070.89   64.59
   5  -1   0 2237.98   64.79
  -5   1   0 2166.38   64.89
   5   1   0 2205.58   65.19
   5   1   0 2256.57   64.49
   5   1   0 2244.78   64.59
  -5   1   0 2264.27   64.69
  -7  -1   0 2248.68   69.29
   7  -1   0 2306.07   69.29
  -7  -1   0 2353.16   69.39
   7   1   0 2251.47   69.69
   7   1   0 2353.96   68.49
  -7   1   0 2337.17   69.49
   7   1   0 2432.76   69.09
  -7   1   0 2322.57   69.09
  -9  -1   0  788.32   28.80
   9  -1   0  799.92   28.20
  -9  -1   0  812.92   28.70
   9  -1   0  828.72   28.80
   9   1   0  817.92   28.20
  -9   1   0  792.02   28.80
   9   1   0  766.22   28.90
   9   1   0  834.12   27.70
  -9   1   0  790.92   28.40
 -11  -1   0  645.14   26.50
  11  -1   0  682.63   24.00
  11  -1   0  672.93   26.70
 -11  -1   0  699.83   27.40
  11  -1   0  734.33   27.10
 -11   1   0  685.93   27.10
  11   1   0  747.53   26.90
 -11   1   0  679.43   26.60
  11   1   0  705.63   25.80
  11   1   0  680.63   27.30
 -13  -1   0  543.05   24.50
  13  -1   0  541.55   21.20
  13  -1   0  569.74   24.10
  13   1   0  521.95   24.10
  13   1   0  547.75   22.80
 -13   1   0  512.45   23.40
  15  -1   0  182.28   12.20
  15  -1   0  169.28   13.20
 -15  -1   0  202.38   14.50
  15   1   0  201.38   14.10
  15   1   0  169.48   13.40
 -15   1   0  182.98   13.60
  17  -1   0  159.78   14.40
 -17  -1   0  173.78   15.20
  17  -1   0  170.08   14.50
  17   1   0  173.88   15.00
 -17   1   0  158.38   14.20
   0  -2   0 1513.65   48.70
   0   2   0 1792.72   49.10
   0   2   0 1733.33   48.40
   2  -2   0  365.06   11.50
   2  -2   0  345.07   11.40
  -2  -2   0  327.47   11.50
   2  -2   0  347.17   11.80
  -2   2   0  361.66   11.50
   2   2   0  347.27   12.90
  -2   2   0  347.87   11.30
  -2   2   0  359.26   12.10
   2   2   0  354.26   11.60
   4  -2   0   66.89    4.20
   4  -2   0   66.59    3.40
  -4  -2   0   74.09    4.40
  -4  -2   0   62.29    4.50
   4  -2   0   65.89    3.90
  -4  -2   0   55.69    3.90
  -4   2   0   63.59    3.80
   4   2   0   59.99    4.40
   4   2   0   66.39    3.90
  -4   2   0   66.39    4.40
  -6  -2   0   38.90    3.80
   6  -2   0   39.60    3.70
   6  -2   0   42.10    3.90
  -6  -2   0   33.30    3.60
   6  -2   0   40.10    3.00
  -6   2   0   39.40    3.60
  -6   2   0   50.09    4.40
   6   2   0   35.40    3.40
   6   2   0   44.90    4.10
   6   2   0   45.40    4.30
   8  -2   0  406.26   16.20
  -8  -2   0  367.36   16.10
   8  -2   0  379.96   14.00
  -8  -2   0  396.36   16.20
   8   2   0  395.86   16.10
   8   2   0  379.46   16.70
   8   2   0  392.76   15.70
  -8   2   0  373.66   15.50
  -8   2   0  390.46   16.50
  10  -2   0 1135.79   36.40
 -10  -2   0 1208.08   39.50
 -10  -2   0 1103.19   39.60
  10  -2   0 1158.68   39.20
  10  -2   0 1190.58   39.20
 -10   2   0 1144.49   39.80
  10   2   0 1158.58   38.50
  10   2   0 1166.98   40.40
 -10   2   0 1066.99   38.40
  10   2   0 1185.88   39.10
  12  -2   0  312.77   16.20
 -12  -2   0  299.97   16.60
 -12  -2   0  332.97   16.70
  12  -2   0  314.27   14.00
  12  -2   0  326.57   16.70
  12  -2   0  289.47   13.20
  12   2   0  340.97   16.50
  12   2   0  324.57   17.40
 -12   2   0  335.87   17.50
 -12   2   0  330.77   16.40
  12   2   0  344.07   16.90
  14  -2   0  100.59    7.90
 -14  -2   0   83.49    9.50
  14  -2   0   71.99    8.80
  14  -2   0   74.59    7.20
  14   2   0   84.69   10.10
  14   2   0  104.59   10.40
 -14   2   0  103.59    9.60
  16  -2   0  125.49    9.90
 -16  -2   0  132.09   12.70
  16  -2   0  129.79   11.90
  16  -2   0  125.99   11.00
 -16   2   0  135.99   11.90
  16   2   0  142.79   13.20
 -18  -2   0   37.30    9.10
  18  -2   0   35.50    7.00
  18  -2   0   39.90    8.50
 -18   2   0   46.30    9.40
  18   2   0   49.10    9.60
  -1  -3   0 5522.15  167.38
   1  -3   0 5846.71  166.48
  -1   3   0 6113.29  166.18
   1   3   0 6237.98  167.78
   3  -3   0 1689.33   49.30
   3  -3   0 1658.53   49.30
   3  -3   0 1717.53   49.99
  -3  -3   0 1721.43   50.49
  -3  -3   0 1558.74   49.40
  -3   3   0 1687.73   49.30
  -3   3   0 1642.34   49.10
   3   3   0 1705.23   49.50
   3   3   0 1799.82   52.19
  -3   3   0 1685.83   50.39
   3   3   0 1752.82   51.29
   5  -3   0 3240.48   91.59
  -5  -3   0 2992.10   92.99
  -5  -3   0 3171.18   91.69
  -5  -3   0 2939.71   91.19
   5  -3   0 3096.79   90.99
   5  -3   0 3259.47   89.89
  -5   3   0 3131.29   90.79
  -5   3   0 3322.07   92.39
  -5   3   0 3189.08   89.79
   5   3   0 3245.48   92.99
   5   3   0 3209.08   93.29
   5   3   0 3185.48   91.09
   7  -3   0 4300.87  120.99
   7  -3   0 4183.18  120.59
   7  -3   0 4126.99  118.19
  -7  -3   0 3840.12  120.79
  -7  -3   0 4348.96  121.19
  -7   3   0 4324.57  121.89
  -7   3   0 4086.29  120.09
   7   3   0 4294.47  120.39
   7   3   0 4150.28  122.29
   7   3   0 4192.58  122.09
  -9  -3   0 1587.44   53.49
   9  -3   0 1688.13   50.09
  -9  -3   0 1753.52   53.49
   9  -3   0 1707.43   53.19
   9  -3   0 1724.63   53.29
  -9   3   0 1618.24   53.89
   9   3   0 1738.33   54.39
   9   3   0 1676.73   52.49
  -9   3   0 1679.03   52.79
   9   3   0 1588.74   54.39
 -11  -3   0 1091.69   38.10
 -11  -3   0 1020.20   38.70
  11  -3   0 1029.80   34.30
  11  -3   0 1118.19   38.40
  11  -3   0 1068.99   37.80
 -11   3   0 1112.59   39.40
  11   3   0 1069.79   39.70
  11   3   0 1087.99   37.40
 -11   3   0 1118.99   37.90
  11   3   0 1094.19   38.90
  13  -3   0 1173.28   35.70
 -13  -3   0 1078.69   41.20
  13  -3   0 1114.09   40.00
  13  -3   0 1075.99   35.80
  13   3   0 1089.19   40.80
 -13   3   0 1101.49   39.80
  13   3   0 1048.00   41.60
 -15  -3   0  597.44   28.90
  15  -3   0  595.64   27.00
  15  -3   0  617.54   23.30
  15  -3   0  611.44   23.20
  15   3   0  633.44   29.60
 -15   3   0  619.44   27.40
 -17  -3   0  429.56   25.00
  17  -3   0  436.46   23.00
  17  -3   0  421.76   18.70
 -17   3   0  449.46   23.60
  17   3   0  396.86   24.50
   0  -4   0 1415.36   45.90
   0  -4   0 1527.35   42.90
   0   4   0 1548.35   45.00
   0   4   0 1614.44   46.40
   0   4   0 1267.77   44.30
  -2  -4   0 1030.30   32.30
   2  -4   0 1029.90   33.80
  -2  -4   0 1064.59   35.70
   2  -4   0 1069.69   32.20
  -2  -4   0 1100.39   34.30
   2   4   0 1137.19   35.80
   2   4   0 1124.99   34.80
  -2   4   0 1032.60   33.80
  -2   4   0 1063.19   33.70
  -4  -4   0 2223.18   70.39
   4  -4   0 2453.15   71.09
  -4  -4   0 2310.17   73.59
   4  -4   0 2395.06   70.29
   4  -4   0 2412.76   70.29
  -4  -4   0 2470.75   71.89
  -4   4   0 2438.46   70.29
   4   4   0 2494.05   70.49
   4   4   0 2463.95   72.89
  -4   4   0 2438.56   71.89
   4   4   0 2506.85   73.79
   6  -4   0 2246.48   66.19
  -6  -4   0 2083.69   66.19
   6  -4   0 2194.08   64.49
   6  -4   0 2238.98   66.49
  -6  -4   0 2128.99   68.79
  -6  -4   0 2210.48   66.69
  -6   4   0 2176.18   65.49
  -6   4   0 2270.37   67.59
   6   4   0 2241.88   68.59
   6   4   0 2277.77   65.99
   6   4   0 2276.07   68.99
  -6   4   0 2223.68   64.49
   8  -4   0  838.72   26.80
   8  -4   0  842.02   29.50
  -8  -4   0  821.92   29.50
  -8  -4   0  796.12   29.80
   8  -4   0  856.91   29.50
   8   4   0  853.61   29.10
   8   4   0  857.31   31.70
  -8   4   0  818.92   28.70
  -8   4   0  854.71   30.70
   8   4   0  854.01   31.40
  10  -4   0  568.54   23.50
  10  -4   0  580.64   20.20
 -10  -4   0  542.15   23.70
 -10  -4   0  585.74   23.70
  10  -4   0  588.54   23.30
 -10   4   0  580.84   22.80
 -10   4   0  611.64   25.10
  10   4   0  574.34   25.30
  10   4   0  629.74   25.60
  10   4   0  592.04   23.20
  12  -4   0  519.05   18.40
 -12  -4   0  441.26   22.30
  12  -4   0  496.25   21.80
 -12   4   0  539.05   22.10
  12   4   0  476.15   23.90
  12   4   0  508.15   25.20
 -14  -4   0  314.47   19.00
  14  -4   0  291.47   17.10
  14  -4   0  318.87   13.80
  14  -4   0  332.67   13.90
 -14   4   0  352.26   18.10
  14   4   0  330.47   20.10
  16  -4   0  229.68   11.90
 -16  -4   0  228.48   17.50
  16  -4   0  222.48   15.50
  16  -4   0  238.78   12.90
 -16   4   0  232.68   15.80
  16   4   0  236.08   18.60
 -18  -4   0  146.89   16.60
   1  -5   0  261.67   12.60
  -1  -5   0  262.37   10.10
  -1  -5   0  256.07   13.10
   1  -5   0  261.67   10.10
   1   5   0  266.67   13.10
  -1   5   0  282.67   12.30
   1   5   0  284.27   12.50
  -1   5   0  288.87   12.90
  -1   5   0  280.67   12.10
  -3  -5   0   28.10    4.80
  -3  -5   0   23.00    2.80
   3  -5   0   26.80    4.00
  -3  -5   0   29.50    4.10
   3  -5   0   28.00    3.00
  -3   5   0   31.30    4.20
   3   5   0   33.60    4.90
   3   5   0   26.50    2.90
  -3   5   0   22.10    4.00
   3   5   0   17.90    3.90
   5  -5   0   86.89    6.20
  -5  -5   0   86.79    7.70
  -5  -5   0   85.09    5.90
   5  -5   0   86.09    5.90
  -5  -5   0   92.59    6.80
   5  -5   0   79.19    5.50
   5   5   0   88.99    7.90
   5   5   0   92.29    7.50
  -5   5   0   91.59    5.90
   5   5   0   84.29    5.60
  -5   5   0   84.09    6.90
  -7  -5   0   73.29    6.70
   7  -5   0   77.09    5.30
  -7  -5   0   80.69    6.50
  -7  -5   0   79.99    7.80
   7  -5   0   84.89    6.60
   7  -5   0   83.19    6.60
   7   5   0   76.69    6.10
   7   5   0   77.99    7.70
  -7   5   0   87.79    6.20
  -7   5   0   83.39    7.60
   7   5   0   88.69    8.30
  -7   5   0   90.79    5.70
  -9  -5   0  429.06   18.80
  -9  -5   0  416.56   18.40
   9  -5   0  396.46   15.20
   9  -5   0  395.66   17.80
   9  -5   0  414.26   18.40
  -9   5   0  398.96   19.50
  -9   5   0  402.36   17.40
   9   5   0  449.95   21.10
   9   5   0  409.46   17.70
   9   5   0  435.56   20.60
 -11  -5   0  236.08   14.30
  11  -5   0  220.08   10.20
  11  -5   0  243.18   14.40
  11  -5   0  237.88   13.40
  11   5   0  221.48   13.30
  11   5   0  226.88   15.50
 -11   5   0  240.48   13.10
  13  -5   0   14.10    4.80
  13  -5   0   18.40    3.60
 -13  -5   0   14.90    5.30
  13   5   0   33.60    7.50
 -13   5   0   21.00    5.20
  15  -5   0   58.09    8.80
  15  -5   0   74.89    7.00
 -15  -5   0   73.29   10.70
  15  -5   0   57.19    6.00
 -15   5   0   61.39    9.00
  15   5   0   66.79   11.70
 -17  -5   0   25.40    8.30
  17  -5   0   31.50    7.60
  17  -5   0   29.30    4.90
 -17   5   0   23.20    7.40
  17   5   0   12.20    8.20
   0  -6   0 1362.86   41.00
   0  -6   0 1333.87   45.70
   0   6   0 1405.26   44.60
   0   6   0 1408.36   45.80
   0   6   0 1376.36   44.50
  -2  -6   0 2371.76   74.19
  -2  -6   0 2381.76   68.99
   2  -6   0 2297.97   72.49
   2  -6   0 2341.77   68.89
   2   6   0 2418.76   72.79
  -2   6   0 2487.45   72.69
  -2   6   0 2347.36   72.09
   2   6   0 2369.06   73.99
  -2   6   0 2330.67   71.49
  -4  -6   0 2774.32   83.79
   4  -6   0 2821.62   81.39
  -4  -6   0 2764.62   81.29
   4  -6   0 2668.83   82.99
  -4  -6   0 2687.53   86.29
   4   6   0 3052.09   87.09
  -4   6   0 2708.03   83.99
  -4   6   0 2817.52   82.89
   4   6   0 2792.72   81.09
   4   6   0 2757.42   85.09
   6  -6   0 2280.17   68.09
  -6  -6   0 2296.27   69.09
   6  -6   0 2232.18   67.19
   6  -6   0 2179.78   66.79
  -6  -6   0 2176.48   71.79
  -6  -6   0 2229.98   67.29
  -6   6   0 2157.98   66.49
   6   6   0 2220.38   66.69
  -6   6   0 2138.99   69.49
   6   6   0 2282.07   71.49
   6   6   0 2263.97   71.59
   8  -6   0 1372.06   44.30
  -8  -6   0 1350.96   48.00
  -8  -6   0 1283.37   44.70
   8  -6   0 1366.96   41.80
  -8  -6   0 1286.17   43.90
   8  -6   0 1320.87   43.80
  -8   6   0 1301.67   46.00
   8   6   0 1334.87   47.80
   8   6   0 1316.77   47.60
   8   6   0 1338.37   43.30
  -8   6   0 1340.17   41.70
 -10  -6   0  339.27   16.80
  10  -6   0  289.67   12.80
  10  -6   0  367.26   17.40
  10  -6   0  301.07   15.50
  10   6   0  313.27   15.70
  10   6   0  293.37   18.40
 -10   6   0  309.87   15.20
  12  -6   0  347.87   17.30
 -12  -6   0  331.07   18.20
  12  -6   0  305.37   12.90
  12   6   0  290.47   19.60
 -12   6   0  313.17   16.50
  14  -6   0  563.34   20.20
  14  -6   0  606.64   26.20
 -14  -6   0  627.74   28.50
  14   6   0  561.54   30.30
 -14   6   0  579.04   26.00
 -16  -6   0  492.85   26.30
  16  -6   0  435.16   22.90
 -16   6   0  439.86   23.20
  16   6   0  407.56   27.00
   1  -7   0  774.22   26.00
   1  -7   0  793.92   25.90
  -1  -7   0  824.62   26.00
  -1  -7   0  766.72   30.80
   1  -7   0  808.92   30.70
  -1   7   0  805.62   29.90
  -1   7   0  854.01   30.90
   1   7   0  855.41   30.30
  -1   7   0  794.92   29.30
   1   7   0  854.31   31.70
   1   7   0  814.32   29.80
  -3  -7   0 1352.76   41.30
   3  -7   0 1313.37   41.30
   3  -7   0 1331.57   44.90
  -3  -7   0 1305.17   46.80
   3   7   0 1415.56   47.40
  -3   7   0 1379.36   44.80
  -3   7   0 1294.37   45.10
  -3   7   0 1303.67   44.10
   3   7   0 1364.96   45.80
  -5  -7   0  838.82   31.70
   5  -7   0  840.42   30.80
  -5  -7   0  909.61   35.00
  -5  -7   0  892.41   29.60
   5  -7   0  855.61   29.60
  -5   7   0  850.11   32.60
  -5   7   0  870.21   30.70
   5   7   0  888.31   34.50
   5   7   0  902.81   34.10
   7  -7   0 1110.89   36.90
  -7  -7   0 1060.09   38.00
  -7  -7   0 1066.29   36.40
  -7  -7   0 1119.49   41.80
   7  -7   0 1100.29   37.20
   7  -7   0 1017.80   35.90
  -7   7   0 1046.30   35.70
   7   7   0 1088.09   35.90
   7   7   0 1070.39   40.80
   9  -7   0 1203.28   41.30
   9  -7   0 1183.48   40.60
   9  -7   0 1147.19   38.10
  -9  -7   0 1202.68   41.00
   9   7   0 1141.99   45.20
   9   7   0 1155.28   39.70
  11  -7   0  946.91   32.50
 -11  -7   0 1039.90   37.80
  11  -7   0  991.60   36.40
  11   7   0 1021.60   42.30
  11   7   0  985.00   36.80
  13  -7   0  785.62   30.80
 -13  -7   0  772.02   32.30
  13  -7   0  719.73   25.10
  13   7   0  737.13   36.10
  15  -7   0  307.77   18.20
 -15  -7   0  335.07   20.50
 -15   7   0  296.57   18.60
  15   7   0  277.77   22.70
   0  -8   0   50.79    4.20
   0  -8   0   61.09    7.20
   0  -8   0   59.39    4.70
   0   8   0   39.40    6.00
   0   8   0   45.80    7.00
   0   8   0   50.99    7.80
  -2  -8   0   92.39    5.70
   2  -8   0   95.69    8.70
  -2  -8   0   79.59    8.70
   2  -8   0   89.09    5.70
   2   8   0  113.39    9.10
  -2   8   0   82.49    9.10
  -2   8   0   93.19    8.00
  -2   8   0   78.29    9.20
   2   8   0   88.19    9.80
   2   8   0  106.79    9.40
   4  -8   0   66.79    6.00
   4  -8   0   61.99    7.20
  -4  -8   0   68.19    8.30
  -4  -8   0   69.69    5.50
  -4   8   0   68.89    8.00
  -4   8   0   73.69    7.20
   6  -8   0  221.88   12.30
   6  -8   0  233.38   13.30
  -6  -8   0  253.07   12.20
  -6  -8   0  263.67   16.70
  -6   8   0  244.18   13.60
   6   8   0  252.27   16.20
  -8  -8   0  319.17   15.30
   8  -8   0  306.27   15.80
  -8  -8   0  295.07   18.70
   8  -8   0  283.77   14.60
   8  -8   0  290.57   15.40
   8   8   0  300.77   14.60
   8   8   0  298.37   19.00
  -8   8   0  313.57   15.00
  10  -8   0   19.20    4.50
  10  -8   0   17.40    4.90
 -10  -8   0   16.40    5.00
  10  -8   0   24.50    6.80
  10   8   0    9.60    5.20
  10   8   0    7.40    6.20
  12  -8   0   66.19    7.30
 -12  -8   0   72.89    9.40
  12  -8   0   76.09    9.40
  12   8   0   61.69   11.60
  14  -8   0   74.99    9.60
 -14  -8   0  102.89   11.90
  14   8   0   60.89   12.60
   1  -9   0 2335.67   70.79
   1  -9   0 2397.56   70.69
  -1  -9   0 2502.85   70.69
   1  -9   0 2481.35   78.19
  -1  -9   0 2527.55   79.29
  -1  -9   0 2300.67   70.59
  -1   9   0 2398.16   78.59
   1   9   0 2476.15   77.89
  -1   9   0 2426.16   77.09
  -3  -9   0 1738.93   59.59
   3  -9   0 1592.74   51.39
   3  -9   0 1706.03   51.49
  -3  -9   0 1784.72   51.39
   3  -9   0 1724.93   57.39
  -3   9   0 1701.93   56.79
  -3   9   0 1737.33   57.89
   3   9   0 1591.84   57.29
  -5  -9   0 1503.65   53.89
   5  -9   0 1423.96   49.40
   5  -9   0 1427.66   46.00
  -5  -9   0 1489.95   45.60
   5   9   0 1441.96   52.39
  -5   9   0 1466.65   49.80
  -5   9   0 1393.66   49.80
   7  -9   0 1141.69   40.40
   7  -9   0 1123.49   39.30
  -7  -9   0 1225.68   39.10
  -7  -9   0 1154.58   45.80
   7   9   0 1130.09   45.10
  -7   9   0 1136.49   40.40
   9  -9   0  828.02   30.10
  -9  -9   0  848.22   30.70
   9  -9   0  793.02   31.30
   9   9   0  758.62   36.00
  -9   9   0  780.52   29.70
 -11  -9   0  636.44   26.40
  11  -9   0  609.14   23.20
  11  -9   0  572.64   25.80
  11   9   0  555.44   31.70
   0 -10   0 1232.88   38.80
   0 -10   0 1299.47   38.70
   0 -10   0 1346.67   47.90
   0  10   0 1240.98   46.40
   2 -10   0  983.90   31.40
   2 -10   0 1027.30   38.70
  -2 -10   0 1041.90   40.40
  -2 -10   0 1033.10   31.10
  -2 -10   0  920.51   31.00
   2 -10   0  981.30   31.30
   2  10   0  977.40   38.60
  -2  10   0  958.30   37.70
  -4 -10   0  985.80   30.60
  -4 -10   0 1022.30   40.20
   4 -10   0  906.61   35.80
   4 -10   0  901.51   30.70
   4 -10   0  917.41   30.90
  -4  10   0  944.81   37.70
  -4  10   0  896.11   36.30
   4  10   0  907.41   37.50
   6 -10   0  986.20   36.50
  -6 -10   0 1023.00   33.00
  -6 -10   0  966.40   41.00
   6 -10   0  976.20   33.60
   6  10   0  939.11   40.10
  -6  10   0  934.21   37.20
  -6  10   0  932.11   37.70
   8 -10   0  598.44   24.80
  -8 -10   0  601.54   23.50
   8 -10   0  584.74   24.70
   8  10   0  551.34   29.70
  -8  10   0  574.94   25.90
  10 -10   0  413.06   19.20
 -10 -10   0  449.66   20.40
  10  10   0  401.76   26.30
   1 -11   0    6.50    2.60
  -1 -11   0    1.90    5.20
   1 -11   0    6.80    5.30
   1  11   0    8.90    5.20
  -1  11   0    2.00    4.70
   3 -11   0    9.50    5.40
  -3 -11   0    2.10    5.70
   3 -11   0   11.50    3.20
  -3 -11   0   11.70    3.00
   3  11   0    8.80    4.90
  -3  11   0    7.70    5.00
   5 -11   0    6.40    3.70
  -5 -11   0    3.40    3.30
   5 -11   0   -0.50    4.40
   5 -11   0    7.20    5.70
  -5 -11   0    3.20    6.20
  -5  11   0    1.50    4.80
   5  11   0   -4.20    5.20
  -7 -11   0   14.30    4.80
   7 -11   0    4.50    5.80
  -7  11   0    6.90    5.70
   7  11   0    2.60    6.10
   0 -12   0 1046.30   41.60
   0  12   0  883.61   39.40
  -2 -12   0  807.82   36.30
   2 -12   0  865.11   35.50
  -2  12   0  709.73   33.90
   2  12   0  747.43   34.80
  18   0  -1   -9.00    4.80
 -18   0   1    3.30    5.20
  16   0  -1    7.90    5.20
  16   0  -1   -2.80    4.00
 -16   0   1    0.40    3.60
 -14   0   1   -0.50    2.80
  14   0  -1    3.50    3.30
  14   0  -1    1.80    3.40
  12   0  -1    2.00    2.80
  12   0  -1    3.00    2.60
 -12   0   1    0.90    2.20
  12   0  -1    4.40    2.40
 -12   0   1    2.60    3.50
 -10   0   1    4.40    2.60
 -10   0   1   -0.60    1.50
  10   0  -1    3.30    2.10
  10   0  -1   -0.20    1.80
   8   0  -1    5.30    2.10
  -8   0   1    2.20    1.50
  -8   0   1    5.00    2.00
   8   0  -1    6.40    2.00
   6   0  -1    8.50    1.70
  -6   0   1    6.40    1.70
  -6   0   1    8.40    2.00
   6   0  -1    7.20    1.90
  -4   0   1    3.90    1.00
   4   0  -1    7.10    1.40
  -4   0   1    3.70    1.00
   4   0  -1    7.10    1.20
   2   0  -1    9.20    0.90
  -2   0   1   10.00    0.90
   2   0  -1    9.70    0.90
  -2   0   1   12.30    1.00
   0   0   1    6.10    0.70
   0   0   1    7.70    0.60
   0   0  -1    8.50    0.60
   0   0   1    6.60    0.90
  -2   0  -1    5.30    0.90
   2   0   1    5.20    1.10
  -2   0  -1    2.70    0.90
   2   0   1    5.50    1.10
  -2   0  -1    5.60    1.10
  -4   0  -1    7.80    1.70
   4   0   1   10.50    1.90
  -4   0  -1    5.00    1.50
   4   0   1    8.60    1.60
   4   0   1    6.90    1.70
   6   0   1    4.70    2.00
   6   0   1    2.20    1.40
  -6   0  -1    7.50    2.20
  -6   0  -1    7.20    2.20
   6   0   1    6.70    2.20
   8   0   1    2.00    1.80
   8   0   1    3.90    2.30
   8   0   1    3.90    2.10
  -8   0  -1    4.10    2.00
  -8   0  -1    4.50    2.30
  10   0   1    3.00    2.40
 -10   0  -1    1.00    2.20
 -10   0  -1    4.30    3.30
  10   0   1    4.50    2.60
  10   0   1   -0.70    2.40
  12   0   1   -0.60    2.80
 -12   0  -1   -0.10    2.60
  12   0   1    1.40    3.50
 -14   0  -1    1.90    3.10
  14   0   1   -3.30    4.80
  14   0   1   -6.20    3.60
 -16   0  -1    0.20    4.40
  16   0   1    3.00    7.80
  16   0   1   -0.60    4.90
  18   0   1    4.60    6.80
 -18   0  -1    7.80    6.20
  19  -1  -1  245.18   18.60
  19  -1  -1  269.97   16.90
 -19  -1   1  264.97   19.80
 -19   1   1  266.37   19.50
  19   1  -1  242.48   19.00
  17  -1  -1  112.59   11.10
 -17  -1   1  103.69   11.50
  17  -1  -1  100.29   11.20
  17   1  -1   96.59   11.10
 -17   1   1  105.99   11.30
 -15  -1   1  534.95   25.30
  15  -1  -1  534.05   21.80
  15  -1  -1  552.54   25.10
 -15   1   1  495.35   24.30
  15   1  -1  542.65   25.20
  15   1  -1  561.84   23.50
  13  -1  -1 1246.68   42.80
  13  -1  -1 1257.27   43.70
 -13  -1   1 1260.77   44.20
  13  -1  -1 1217.48   39.90
 -13   1   1 1209.38   44.00
 -13   1   1 1270.77   43.70
  13   1  -1 1178.68   43.80
  13   1  -1 1260.47   42.60
  13   1  -1 1227.08   41.40
  11  -1  -1 1615.84   53.79
 -11  -1   1 1625.34   54.09
  11  -1  -1 1731.13   53.29
 -11  -1   1 1680.23   53.79
  11   1  -1 1719.13   53.09
  11   1  -1 1678.73   54.69
  11   1  -1 1645.14   52.09
 -11   1   1 1708.93   54.29
 -11   1   1 1632.34   53.59
   9  -1  -1 2916.51   85.99
  -9  -1   1 2887.41   85.89
  -9  -1   1 2906.71   85.59
   9  -1  -1 2919.01   85.09
  -9   1   1 2919.81   85.99
   9   1  -1 2849.42   84.19
  -9   1   1 2847.62   85.39
   9   1  -1 2860.41   86.29
   9   1  -1 2823.42   84.59
   7  -1  -1 1834.22   54.99
  -7  -1   1 1784.52   54.59
   7  -1  -1 1793.12   54.29
  -7  -1   1 1795.82   54.69
   7   1  -1 1867.41   55.39
  -7   1   1 1861.71   55.09
  -7   1   1 1795.82   54.59
   7   1  -1 1803.82   53.89
   5  -1  -1 1368.06   40.90
  -5  -1   1 1390.96   40.90
  -5   1   1 1357.86   40.90
  -5   1   1 1386.86   41.30
   5   1  -1 1394.26   41.30
   5   1  -1 1328.87   40.30
   3  -1  -1 1031.20   30.20
   3  -1  -1 1019.60   30.20
   3  -1  -1  994.10   30.20
  -3  -1   1 1006.40   29.70
  -3  -1   1 1060.59   30.00
  -3   1   1 1024.90   30.20
  -3   1   1 1061.69   30.40
  -3   1   1 1004.20   30.20
   3   1  -1 1037.50   29.50
   3   1  -1  995.10   30.10
   3  -1   1  121.09    5.60
  -3  -1  -1  128.09    6.10
   3  -1   1  131.09    4.50
   3  -1   1  123.89    5.90
   3   1   1  136.39    6.30
  -3   1  -1  127.59    5.70
   3   1   1  140.99    6.30
   3   1   1  117.19    6.30
  -3   1  -1  126.99    5.80
   5  -1   1 1293.57   41.80
   5  -1   1 1459.55   44.00
   5  -1   1 1549.05   44.70
  -5  -1  -1 1503.45   43.90
   5   1   1 1492.25   44.60
   5   1   1 1379.26   44.50
   5   1   1 1472.05   44.60
  -5   1  -1 1477.75   44.40
   7  -1   1 1557.04   49.80
  -7  -1  -1 1599.44   50.69
  -7  -1  -1 1614.64   50.39
   7  -1   1 1602.44   47.60
   7  -1   1 1676.63   50.59
   7   1   1 1603.04   50.19
   7   1   1 1639.04   50.79
  -7   1  -1 1583.54   49.90
  -7   1  -1 1629.84   50.49
   7   1   1 1628.94   50.09
  -9  -1  -1 1106.29   39.30
   9  -1   1 1183.28   39.10
   9  -1   1 1166.78   39.40
   9  -1   1 1186.28   36.50
   9   1   1 1213.98   39.50
   9   1   1 1152.68   38.70
  -9   1  -1 1164.88   39.50
   9   1   1 1151.38   39.70
  -9   1  -1 1121.79   38.80
 -11  -1  -1 1483.15   50.89
 -11  -1  -1 1478.85   51.49
  11  -1   1 1585.64   48.40
  11  -1   1 1581.64   51.59
  11  -1   1 1511.85   50.79
 -11   1  -1 1541.45   51.59
 -11   1  -1 1523.25   51.09
  11   1   1 1459.55   51.29
  11   1   1 1553.84   51.29
  11   1   1 1584.44   50.79
  13  -1   1  471.95   22.00
 -13  -1  -1  453.95   22.60
  13  -1   1  478.35   20.10
  13   1   1  485.25   22.30
 -13   1  -1  485.45   22.40
  13   1   1  436.56   22.10
  15  -1   1  347.67   18.60
 -15  -1  -1  322.07   19.70
  15  -1   1  319.47   18.90
  15   1   1  313.27   19.10
 -15   1  -1  339.27   19.50
  15   1   1  382.06   21.10
 -17  -1  -1  269.27   20.00
  17  -1   1  299.17   20.30
  17  -1   1  279.67   18.50
  17   1   1  247.08   19.10
 -17   1  -1  291.77   19.60
  18  -2  -1  284.47   16.20
 -18  -2   1  287.37   20.30
  18  -2  -1  294.27   17.40
  18  -2  -1  332.07   19.90
  18   2  -1  263.97   19.20
 -18   2   1  296.27   19.20
  16  -2  -1  524.25   21.40
  16  -2  -1  503.65   24.50
 -16  -2   1  525.25   26.00
  16  -2  -1  480.35   21.60
  16   2  -1  493.65   25.50
 -16   2   1  525.05   24.90
 -14  -2   1 1098.09   41.50
  14  -2  -1 1071.39   37.60
  14  -2  -1 1098.19   40.60
  14   2  -1 1118.19   41.90
 -14   2   1 1110.89   40.50
  14   2  -1 1127.19   39.60
  12  -2  -1 1028.10   36.10
 -12  -2   1 1015.90   36.10
 -12  -2   1 1002.40   37.20
  12  -2  -1 1012.90   36.50
  12  -2  -1 1006.70   34.20
 -12   2   1 1031.40   37.30
  12   2  -1  972.90   37.20
  12   2  -1 1032.00   35.60
 -12   2   1 1038.50   36.50
  12   2  -1 1040.10   35.60
  10  -2  -1  315.57   15.10
  10  -2  -1  333.27   14.90
  10  -2  -1  330.87   13.80
 -10  -2   1  348.47   15.30
 -10  -2   1  337.37   15.70
 -10   2   1  347.47   16.00
 -10   2   1  325.67   15.00
  10   2  -1  351.46   14.90
  10   2  -1  325.97   15.80
  10   2  -1  320.77   14.30
  -8  -2   1 1943.21   61.79
   8  -2  -1 2092.19   61.89
   8  -2  -1 2045.00   62.19
   8  -2  -1 2075.69   60.59
  -8  -2   1 2093.19   61.89
   8   2  -1 2040.20   62.89
  -8   2   1 1979.20   61.59
  -8   2   1 2064.19   62.59
   8   2  -1 2091.89   61.69
   8   2  -1 2051.19   61.09
  -6  -2   1 3264.97   95.49
   6  -2  -1 3284.97   95.89
   6  -2  -1 3329.47   94.79
  -6  -2   1 3218.08   95.49
  -6   2   1 3405.16   96.39
   6   2  -1 3345.87   94.79
   6   2  -1 3373.56   96.39
   6   2  -1 3334.77   95.79
  -6   2   1 3371.66   95.59
   4  -2  -1  974.20   29.60
   4  -2  -1  974.80   29.50
  -4  -2   1  963.80   29.50
   4  -2  -1 1006.00   30.10
  -4  -2   1  956.80   29.10
   4   2  -1  950.70   29.90
  -4   2   1  962.00   29.50
   4   2  -1  967.30   28.70
   4   2  -1  959.60   30.00
  -4   2   1  974.10   30.10
  -4   2   1  971.10   29.50
   0  -2  -1 2873.51   78.39
   0  -2  -1 2735.43   78.79
   0  -2   1 2586.04   77.19
   0  -2  -1 2635.34   77.69
   0   2  -1 2897.11   77.29
   0   2  -1 2744.63   77.39
   2  -2   1  700.23   21.10
   2  -2   1  640.54   19.80
  -2  -2  -1  674.93   23.00
  -2  -2  -1  703.13   21.90
  -2  -2  -1  626.14   21.80
   2  -2   1  706.13   21.10
   2   2   1  710.83   22.10
   2   2   1  699.83   22.30
  -2   2  -1  685.63   21.40
  -2   2  -1  682.83   20.70
   2   2   1  691.73   23.20
  -4  -2  -1 3574.94  102.49
  -4  -2  -1 3406.96  103.19
  -4  -2  -1 3337.67  102.59
   4  -2   1 3601.74  101.89
   4  -2   1 3679.73   99.49
   4  -2   1 3574.14  102.09
  -4   2  -1 3568.34  101.59
   4   2   1 3615.84  102.69
  -4   2  -1 3633.94  102.39
   4   2   1 3669.13  104.09
   4   2   1 3687.13  103.19
  -6  -2  -1 2305.47   67.39
  -6  -2  -1 2246.98   67.39
   6  -2   1 2211.38   63.89
   6  -2   1 2359.66   67.39
   6  -2   1 2286.47   66.79
  -6  -2  -1 2082.89   67.29
  -6   2  -1 2248.38   67.29
   6   2   1 2288.57   67.39
  -6   2  -1 2162.08   66.39
   6   2   1 2277.67   68.39
   8  -2   1 1206.78   36.70
  -8  -2  -1 1226.38   40.20
   8  -2   1 1214.28   36.50
   8  -2   1 1215.28   40.30
  -8  -2  -1 1191.48   40.70
   8  -2   1 1202.68   39.60
   8   2   1 1242.38   41.20
  -8   2  -1 1177.28   40.30
  -8   2  -1 1231.78   39.70
   8   2   1 1234.58   41.00
   8   2   1 1236.58   40.20
 -10  -2  -1  867.51   30.90
  10  -2   1  800.92   26.80
  10  -2   1  816.92   30.00
 -10  -2  -1  791.52   30.90
  10  -2   1  879.71   31.30
  10  -2   1  785.62   26.70
 -10   2  -1  762.02   29.50
 -10   2  -1  875.01   31.50
  10   2   1  841.42   31.20
  10   2   1  846.92   30.60
  10   2   1  794.32   31.20
  12  -2   1  402.46   15.90
  12  -2   1  381.56   16.00
  12  -2   1  373.16   18.40
 -12  -2  -1  404.76   20.10
  12   2   1  368.26   19.60
  12   2   1  433.86   20.40
 -12   2  -1  381.26   18.70
  14  -2   1  289.87   14.60
  14  -2   1  269.07   13.20
 -14  -2  -1  297.07   18.20
  14  -2   1  259.07   15.80
  14   2   1  296.47   18.50
  14   2   1  259.07   17.20
 -14   2  -1  272.77   16.50
 -16  -2  -1  356.86   22.40
  16  -2   1  387.76   19.80
  16  -2   1  414.76   21.70
  16  -2   1  368.66   17.20
 -16   2  -1  369.06   21.20
  16   2   1  368.66   22.40
  19  -3  -1   53.09    8.10
 -19  -3   1   37.30   10.10
  19  -3  -1   60.69   10.50
 -19   3   1   43.10    8.90
  19   3  -1   30.30    8.70
  17  -3  -1   21.80    6.50
  17  -3  -1   29.80    5.80
 -17  -3   1   13.80    6.90
  17  -3  -1   18.40    6.30
 -17   3   1   16.60    6.10
  17   3  -1   30.50    8.10
  15  -3  -1   21.00    5.40
 -15  -3   1   26.20    6.40
  15  -3  -1   23.80    4.90
  15   3  -1   30.60    7.10
 -15   3   1   36.10    6.70
 -13  -3   1   90.59    9.00
  13  -3  -1   88.69    8.50
  13  -3  -1   94.39    7.20
  13   3  -1   93.49    9.40
  13   3  -1   97.69    8.70
 -13   3   1   94.19    8.30
  13   3  -1   83.79    9.10
 -11  -3   1    4.90    2.60
  11  -3  -1    2.20    2.20
 -11  -3   1    6.40    3.10
  11  -3  -1    2.50    2.00
  11  -3  -1    2.20    2.90
  11   3  -1   -1.60    2.40
  11   3  -1    2.20    2.40
 -11   3   1   10.40    3.80
  11   3  -1    1.50    2.80
 -11   3   1    6.30    3.00
   9  -3  -1  102.59    7.40
  -9  -3   1  127.09    8.00
   9  -3  -1  112.09    7.60
  -9  -3   1  100.29    7.40
   9  -3  -1   99.79    6.30
   9   3  -1  101.29    8.00
  -9   3   1  110.59    8.40
   9   3  -1  108.59    6.90
   9   3  -1  106.09    7.70
  -9   3   1  112.79    7.40
  -7  -3   1 1032.10   33.20
   7  -3  -1 1102.09   33.50
   7  -3  -1  981.70   31.90
   7  -3  -1  982.80   33.20
  -7  -3   1  971.50   32.90
  -7   3   1 1025.10   34.00
   7   3  -1 1015.60   34.40
  -7   3   1 1013.30   32.90
   7   3  -1 1035.60   32.10
   7   3  -1 1030.60   33.70
   5  -3  -1   23.20    2.80
  -5  -3   1   12.60    2.10
  -5  -3   1   22.50    2.70
   5  -3  -1   18.30    2.70
   5  -3  -1   15.60    2.50
   5   3  -1   23.70    3.40
   5   3  -1   14.20    2.50
  -5   3   1   19.00    2.70
  -5   3   1   13.60    2.60
   5   3  -1   17.20    2.00
  -5   3   1   19.50    2.80
   3  -3  -1  134.89    6.60
   3  -3  -1  136.99    6.30
   3  -3  -1  144.59    6.80
  -3  -3   1  135.79    5.40
  -3  -3   1  122.49    7.00
  -3  -3   1  139.49    6.60
   3   3  -1  137.79    6.90
   3   3  -1  137.69    7.10
  -3   3   1  136.99    6.80
   3   3  -1  141.49    5.40
  -3   3   1  145.39    6.90
  -1  -3   1   33.60    3.00
   1  -3  -1   26.70    2.90
  -1  -3   1   33.00    1.50
   1   3  -1   39.10    3.20
  -1   3   1   31.60    2.90
  -1   3   1   29.60    2.80
   1   3  -1   35.80    2.80
  -1   3   1   31.00    3.10
  -1  -3  -1    8.10    1.70
   1  -3   1   14.90    2.20
  -1  -3  -1    6.40    1.60
  -1  -3  -1    7.50    2.30
  -1   3  -1    7.30    1.60
  -1   3  -1    7.60    1.60
  -1   3  -1    8.80    1.10
   1   3   1    7.40    1.80
   1   3   1    6.60    2.10
   1   3   1    5.80    1.40
   3  -3   1   13.60    2.10
  -3  -3  -1   12.60    2.30
   3  -3   1   11.30    1.60
  -3  -3  -1   15.40    2.60
   3  -3   1   13.80    2.10
  -3  -3  -1   11.20    2.70
  -3   3  -1   13.60    1.50
   3   3   1   12.50    2.30
  -3   3  -1    6.70    1.80
   3   3   1   11.50    2.40
  -3   3  -1   14.40    1.80
   3   3   1   10.60    2.50
  -5  -3  -1  125.49    7.70
  -5  -3  -1  133.59    7.80
   5  -3   1  152.68    7.60
   5  -3   1  146.99    5.60
  -5  -3  -1  129.89    8.40
   5  -3   1  151.88    7.70
  -5   3  -1  142.39    7.90
   5   3   1  139.59    8.50
   5   3   1  142.99    7.80
  -5   3  -1  139.09    7.00
   5   3   1  158.38    9.40
   7  -3   1   23.90    4.20
  -7  -3  -1   18.20    3.70
  -7  -3  -1   22.40    4.50
   7  -3   1   15.20    3.20
   7  -3   1   16.10    2.10
  -7  -3  -1   31.40    4.70
  -7   3  -1   18.60    3.90
   7   3   1   17.90    3.80
   7   3   1   15.10    3.70
   7   3   1   18.70    4.20
  -7   3  -1   15.60    3.00
   9  -3   1    3.20    2.40
   9  -3   1    9.90    2.00
   9  -3   1    5.90    3.60
  -9  -3  -1    8.00    3.60
  -9  -3  -1    7.00    3.10
   9   3   1    3.10    2.70
  -9   3  -1    1.60    3.30
   9   3   1    7.60    3.40
   9   3   1    7.30    4.00
  -9   3  -1    8.20    2.80
  11  -3   1  108.79    8.70
 -11  -3  -1   97.69    9.20
  11  -3   1  100.29    6.10
  11  -3   1   92.19    6.10
  11  -3   1  103.79    9.60
 -11   3  -1   88.69   12.20
  11   3   1  112.59   10.60
 -11   3  -1  109.49    8.60
  11   3   1  100.59    9.50
  11   3   1  111.79    9.60
  13  -3   1   34.00    4.90
  13  -3   1   32.00    4.30
  13  -3   1   37.10    6.70
 -13  -3  -1   35.60    6.80
 -13   3  -1   35.40    6.50
  13   3   1   25.00    6.20
  15  -3   1    5.20    4.90
  15  -3   1    3.70    3.40
 -15  -3  -1   10.90    5.80
  15  -3   1    8.50    5.00
  15   3   1    2.60    5.20
 -15   3  -1    6.30    4.40
  17  -3   1    1.30    5.70
  17  -3   1    4.30    4.60
 -17  -3  -1   13.20    6.90
 -17   3  -1    4.40    5.40
  17   3   1   -0.90    6.10
  18  -4  -1  231.68   16.60
  18  -4  -1  219.28   13.20
 -18  -4   1  209.78   17.40
 -18   4   1  216.28   16.70
  18   4  -1  193.78   18.50
  16  -4  -1  350.46   16.00
  16  -4  -1  330.27   19.00
 -16  -4   1  343.07   20.70
  16   4  -1  314.57   20.90
 -16   4   1  336.07   19.20
 -14  -4   1  649.43   29.10
  14  -4  -1  647.84   27.60
  14  -4  -1  671.53   24.50
 -14   4   1  670.53   27.80
  14   4  -1  658.13   30.30
 -12  -4   1  889.31   33.90
  12  -4  -1  950.30   34.10
 -12  -4   1  911.61   34.90
  12  -4  -1  906.21   30.90
  12  -4  -1  969.80   34.70
  12   4  -1  914.71   36.30
  12   4  -1  902.61   34.80
 -12   4   1  902.21   33.50
  12   4  -1  923.31   32.80
  10  -4  -1 1224.48   38.70
 -10  -4   1 1235.98   40.90
  10  -4  -1 1203.08   41.00
  10  -4  -1 1284.47   41.50
 -10  -4   1 1198.98   41.40
  10   4  -1 1229.98   39.80
 -10   4   1 1175.28   40.40
  10   4  -1 1238.78   42.30
  10   4  -1 1179.68   42.90
 -10   4   1 1212.28   42.40
   8  -4  -1 1552.24   48.30
  -8  -4   1 1461.15   49.60
   8  -4  -1 1588.84   50.19
  -8  -4   1 1612.44   49.90
   8  -4  -1 1628.94   50.09
   8   4  -1 1588.54   51.99
  -8   4   1 1640.24   51.49
   8   4  -1 1571.84   51.29
  -8   4   1 1636.64   49.80
   8   4  -1 1608.64   48.80
   6  -4  -1 2801.42   82.09
  -6  -4   1 2752.52   82.29
  -6  -4   1 2667.83   81.49
   6  -4  -1 2809.12   81.59
   6  -4  -1 2805.42   82.69
   6   4  -1 2802.22   83.79
   6   4  -1 2896.31   84.09
   6   4  -1 2841.32   80.89
  -6   4   1 2785.02   83.39
  -6   4   1 2857.61   81.79
  -4  -4   1 3928.91  118.19
   4  -4  -1 4314.27  120.39
  -4  -4   1 3915.51  121.89
  -4  -4   1 4319.27  120.39
   4  -4  -1 4251.37  119.59
   4  -4  -1 4241.88  120.19
  -4   4   1 4298.17  120.99
  -4   4   1 4307.07  120.39
   4   4  -1 3905.71  121.19
   4   4  -1 4304.07  118.19
   4   4  -1 4446.75  121.49
   2  -4  -1 3618.04  107.99
  -2  -4   1 3607.34  104.49
  -2  -4   1 3367.66  108.29
   2   4  -1 3968.50  108.79
  -2   4   1 3798.72  107.89
  -2   4   1 3836.22  107.79
   2   4  -1 3948.20  107.89
  -2   4   1 3857.71  108.59
   0  -4  -1 6763.22  187.78
   0  -4  -1 6543.05  190.58
   0  -4   1 6213.68  188.98
   0   4   1 6924.91  190.98
   0   4  -1 6912.61  189.08
   0   4   1 6651.53  189.08
   0   4  -1 6963.60  188.48
   2  -4   1 5952.20  160.08
  -2  -4  -1 5518.35  162.48
  -2  -4  -1 5632.04  161.58
   2  -4   1 5318.77  161.08
  -2  -4  -1 5596.94  164.48
   2   4   1 5951.60  161.58
   2   4   1 5998.70  163.58
  -2   4  -1 5733.33  161.78
  -2   4  -1 5896.31  160.88
   2   4   1 5648.83  164.48
   4  -4   1 2244.78   65.99
  -4  -4  -1 2215.88   68.49
  -4  -4  -1 2200.98   68.19
   4  -4   1 2284.37   67.29
  -4  -4  -1 2177.88   70.49
   4  -4   1 2375.76   67.59
   4   4   1 2486.85   71.69
  -4   4  -1 2341.97   65.79
  -4   4  -1 2270.57   68.49
  -4   4  -1 2309.67   66.59
   4   4   1 2257.97   69.99
   4   4   1 2344.77   68.09
   6  -4   1 2416.06   69.69
   6  -4   1 2477.95   73.09
  -6  -4  -1 2477.95   76.09
  -6  -4  -1 2263.27   73.59
  -6  -4  -1 2441.56   73.59
   6  -4   1 2503.25   72.79
  -6   4  -1 2392.46   71.99
   6   4   1 2615.74   77.09
   6   4   1 2397.96   75.59
   6   4   1 2459.95   73.39
  -6   4  -1 2445.56   74.09
   8  -4   1 2386.56   72.39
  -8  -4  -1 2280.27   73.69
  -8  -4  -1 2308.77   74.89
   8  -4   1 2331.67   68.19
   8  -4   1 2488.05   73.69
  -8  -4  -1 2424.56   73.49
   8   4   1 2379.46   75.49
  -8   4  -1 2303.57   71.89
   8   4   1 2423.46   73.29
   8   4   1 2556.04   76.49
  -8   4  -1 2418.16   74.19
  10  -4   1 1160.98   38.70
  10  -4   1 1148.29   33.80
 -10  -4  -1 1077.79   40.10
  10  -4   1 1219.28   40.70
  10   4   1  990.40   40.60
  10   4   1 1181.08   42.10
 -10   4  -1 1097.49   40.60
  10   4   1 1112.09   39.30
 -10   4  -1 1085.59   38.20
 -12  -4  -1  441.76   22.30
  12  -4   1  449.86   15.90
  12  -4   1  475.55   21.00
  12  -4   1  448.96   16.10
  12   4   1  458.45   23.60
 -12   4  -1  475.05   21.10
  14  -4   1  409.56   15.30
 -14  -4  -1  425.76   22.90
  14  -4   1  438.06   21.10
  14  -4   1  396.96   16.10
  14   4   1  434.06   24.00
 -14   4  -1  425.16   21.10
 -16  -4  -1  334.97   22.00
  16  -4   1  322.57   18.90
  16  -4   1  315.47   12.80
 -16   4  -1  341.67   20.10
  16   4   1  308.47   21.80
 -17  -5   1  406.46   23.80
  17  -5  -1  404.66   21.70
  17  -5  -1  376.16   17.10
  17   5  -1  380.66   25.10
 -17   5   1  376.86   21.50
  15  -5  -1  721.83   30.40
 -15  -5   1  747.53   32.70
  15  -5  -1  723.73   26.30
 -15   5   1  722.93   30.50
  15   5  -1  722.03   34.30
 -13  -5   1  868.41   34.60
  13  -5  -1  873.31   29.70
  13  -5  -1  864.51   33.20
  13   5  -1  882.51   36.80
 -13   5   1  824.42   32.60
  11  -5  -1  822.32   28.10
  11  -5  -1  819.42   30.80
 -11  -5   1  779.22   30.60
  11  -5  -1  829.82   31.30
 -11  -5   1  829.62   31.40
  11   5  -1  837.22   33.90
 -11   5   1  842.72   30.60
  11   5  -1  845.62   29.90
  -9  -5   1 2019.20   62.39
   9  -5  -1 1933.81   60.09
  -9  -5   1 1910.71   62.09
   9  -5  -1 2078.99   62.59
   9  -5  -1 2047.70   62.69
  -9   5   1 1976.10   63.99
   9   5  -1 1925.51   64.99
   9   5  -1 2040.30   60.99
  -9   5   1 2008.10   61.79
   9   5  -1 1987.20   64.29
   7  -5  -1 3105.79   96.39
   7  -5  -1 3370.36   97.69
  -7  -5   1 3384.26   98.19
  -7  -5   1 3088.39   96.79
   7  -5  -1 3284.77   97.99
   7   5  -1 3376.66   96.19
   7   5  -1 3478.45  100.39
   7   5  -1 3476.55  100.79
  -7   5   1 3287.27   99.29
  -7   5   1 3392.96   97.09
  -5  -5   1 3430.16   98.89
   5  -5  -1 3464.45   98.89
  -5  -5   1 3080.39  100.89
   5  -5  -1 3369.66   97.99
  -5  -5   1 3158.48   96.49
   5  -5  -1 3247.48   98.19
   5   5  -1 3461.45  100.49
  -5   5   1 3396.46   99.69
   5   5  -1 3536.05  101.09
  -5   5   1 3462.55   98.69
   5   5  -1 3535.25   96.49
   3  -5  -1 3636.94  103.59
  -3  -5   1 3371.26  106.39
   3  -5  -1 3449.55  104.99
  -3  -5   1 3679.03  104.89
  -3  -5   1 3491.55  101.59
  -3   5   1 3603.24  105.49
   3   5  -1 3870.81  106.99
   3   5  -1 3699.53  105.59
  -3   5   1 3694.13  105.59
   1  -5  -1 2278.77   72.69
  -1  -5   1 2351.86   67.39
  -1  -5   1 2244.78   72.09
   1   5  -1 2446.26   71.09
   1   5  -1 2536.25   72.59
  -1   5   1 2349.76   71.69
  -1   5   1 2567.74   73.39
  -1   5   1 2390.06   71.79
   1  -5   1 1833.12   51.49
   1  -5   1 1657.83   54.59
  -1  -5  -1 1723.33   56.79
  -1  -5  -1 1835.82   55.59
  -1  -5  -1 1726.73   53.19
  -1   5  -1 1736.13   54.19
   1   5   1 1891.91   57.69
  -1   5  -1 1864.31   54.59
   1   5   1 1814.22   55.79
  -3  -5  -1 3554.54  103.89
   3  -5   1 3364.76  102.19
  -3  -5  -1 3421.36  102.49
   3  -5   1 3482.45  101.09
  -3  -5  -1 3404.16  106.09
  -3   5  -1 3677.13  101.89
   3   5   1 3662.73  105.39
   3   5   1 3792.32  106.99
   3   5   1 3638.34  102.59
  -3   5  -1 3454.15  103.29
   5  -5   1 3037.50   88.79
   5  -5   1 3044.30   90.19
  -5  -5  -1 3022.30   90.99
   5  -5   1 3020.60   90.09
  -5  -5  -1 3005.20   91.59
  -5  -5  -1 3120.69   94.49
   5   5   1 3358.96   95.49
  -5   5  -1 3135.39   89.29
   5   5   1 3144.39   90.79
  -5   5  -1 3010.40   88.09
  -5   5  -1 3051.49   91.79
   5   5   1 3038.80   93.49
  -7  -5  -1 1696.13   58.59
  -7  -5  -1 1716.33   56.09
  -7  -5  -1 1732.63   56.29
   7  -5   1 1822.32   55.89
   7  -5   1 1727.93   51.89
   7  -5   1 1818.02   55.19
   7   5   1 1765.92   58.99
  -7   5  -1 1734.63   54.39
   7   5   1 1786.72   55.69
   7   5   1 1904.41   59.79
  -7   5  -1 1770.12   57.09
  -9  -5  -1 1754.82   56.99
   9  -5   1 1758.22   56.59
   9  -5   1 1663.23   50.39
   9  -5   1 1751.72   55.19
   9   5   1 1774.02   56.19
  -9   5  -1 1705.53   57.59
   9   5   1 1687.93   59.09
   9   5   1 1792.02   59.69
  -9   5  -1 1706.03   54.69
  11  -5   1 1118.79   34.40
  11  -5   1 1217.98   52.09
 -11  -5  -1 1174.48   42.70
  11  -5   1 1163.18   40.50
 -11   5  -1 1180.28   40.50
  11   5   1 1122.49   44.50
  13  -5   1  516.45   23.20
 -13  -5  -1  563.04   26.20
 -13   5  -1  495.95   23.00
  13   5   1  493.05   26.90
  15  -5   1  534.65   24.10
 -15  -5  -1  506.95   26.50
  15   5   1  408.56   26.20
 -15   5  -1  479.65   23.90
 -16  -6   1    6.00    5.90
  16  -6  -1    5.20    4.80
  16  -6  -1   11.90    4.40
 -16   6   1    3.90    4.80
  16   6  -1    6.80    7.20
  14  -6  -1    1.80    3.30
 -14  -6   1    8.60    5.30
  14  -6  -1    4.10    4.10
  14   6  -1    4.40    5.60
 -14   6   1    6.70    4.00
  12  -6  -1   59.39    5.90
  12  -6  -1   64.49    7.60
 -12  -6   1   59.89    7.70
  12   6  -1   50.19    8.50
  12   6  -1   54.59    7.30
 -12   6   1   58.99    6.90
 -10  -6   1    7.00    4.40
 -10  -6   1    7.70    3.10
  10  -6  -1   13.00    4.30
  10  -6  -1    9.90    2.90
  10  -6  -1    4.90    2.90
  10   6  -1    5.30    4.00
  10   6  -1    2.60    3.00
  -8  -6   1   98.69    7.20
   8  -6  -1   89.29    7.20
   8  -6  -1   85.29    7.20
   8  -6  -1   91.29    6.70
  -8  -6   1   80.39    7.70
   8   6  -1   61.49    7.60
  -8   6   1   70.79    8.40
   8   6  -1   88.49    6.50
  -8   6   1   75.49    6.70
   8   6  -1   95.89    9.30
   6  -6  -1  196.38   10.60
  -6  -6   1  196.68   12.80
   6  -6  -1  208.98   11.20
  -6  -6   1  204.98    9.90
  -6  -6   1  226.08   11.80
   6  -6  -1  217.88   10.90
   6   6  -1  207.88   12.40
   6   6  -1  219.28    9.60
   6   6  -1  235.88   13.50
  -6   6   1  196.68   10.90
  -6   6   1  195.98   12.00
  -4  -6   1   13.00    3.60
   4  -6  -1   22.80    3.60
  -4  -6   1   22.30    2.80
   4  -6  -1   23.10    4.20
  -4  -6   1   26.50    4.40
  -4   6   1   24.40    4.30
  -4   6   1   21.90    4.10
   4   6  -1   20.10    3.90
   4   6  -1   19.10    4.40
   2  -6  -1  362.16   16.90
  -2  -6   1  386.36   12.60
  -2  -6   1  364.66   17.30
   2   6  -1  390.46   17.30
   2   6  -1  370.06   16.10
  -2   6   1  373.16   16.20
  -2   6   1  383.86   16.70
  -2   6   1  389.26   17.50
   0  -6  -1  289.47   15.10
   0  -6   1  296.57   10.30
   0  -6   1  282.77   14.10
   0  -6  -1  300.77   12.20
   0  -6   1  301.67   10.30
   0   6   1  295.97   14.20
   0   6  -1  286.67   13.40
   0   6  -1  329.17   14.80
   0   6   1  344.47   16.20
   0   6  -1  315.87   13.80
   0   6   1  299.67   14.20
   2  -6   1  559.74   22.00
   2  -6   1  553.54   18.90
  -2  -6  -1  545.75   24.00
  -2  -6  -1  571.04   22.50
  -2   6  -1  619.54   21.90
  -2   6  -1  574.04   22.20
   2   6   1  586.14   23.30
   2   6   1  629.14   25.30
   4  -6   1  492.65   19.50
  -4  -6  -1  514.55   19.80
  -4  -6  -1  503.85   21.00
  -4  -6  -1  497.65   22.80
   4  -6   1  509.15   18.80
   4   6   1  530.05   19.70
  -4   6  -1  537.95   19.20
  -4   6  -1  534.45   21.30
   4   6   1  546.15   22.70
   4   6   1  551.44   23.70
  -6  -6  -1   18.00    4.70
  -6  -6  -1   34.80    5.20
   6  -6   1   26.50    3.80
  -6  -6  -1   28.90    5.30
   6  -6   1   36.40    5.20
   6  -6   1   27.40    4.40
  -6   6  -1   22.40    3.70
  -6   6  -1   24.30    5.10
  -6   6  -1   27.30    3.70
   6   6   1   26.00    6.40
   6   6   1   31.70    6.30
   6   6   1   25.10    4.40
   8  -6   1   63.89    6.50
   8  -6   1   82.09    8.00
  -8  -6  -1   62.49    9.00
  -8  -6  -1   79.09    7.40
   8  -6   1   65.89    5.10
  -8   6  -1   58.59    8.40
   8   6   1   72.19    7.20
  -8   6  -1   73.69    6.20
   8   6   1   63.49    9.10
  10  -6   1   35.80    7.40
 -10  -6  -1   26.80    5.70
  10  -6   1   25.30    3.20
  10  -6   1   28.00    5.20
  10   6   1   25.10    5.90
 -10   6  -1   27.10    5.20
  10   6   1   10.90    4.90
  12  -6   1   26.70    5.50
 -12  -6  -1   20.40    5.70
  12   6   1   21.80    6.80
 -12   6  -1   14.90    4.70
 -14  -6  -1   47.30    8.90
  14  -6   1   43.10    7.40
  14   6   1   22.40    8.00
 -14   6  -1   35.10    7.40
  15  -7  -1  346.57   15.60
  15  -7  -1  337.87   19.40
 -15  -7   1  396.16   21.70
  15   7  -1  323.37   24.00
  13  -7  -1  543.55   21.70
 -13  -7   1  620.14   26.80
  13  -7  -1  566.24   25.20
  13   7  -1  560.34   29.80
 -11  -7   1  228.28   13.70
  11  -7  -1  234.28   15.00
  11  -7  -1  246.58   14.00
  11  -7  -1  227.98   12.00
  11   7  -1  231.48   16.90
  11   7  -1  197.88   12.50
   9  -7  -1  309.47   15.30
  -9  -7   1  314.77   20.30
   9  -7  -1  263.57   13.40
   9  -7  -1  278.87   15.00
  -9  -7   1  297.67   14.50
   9   7  -1  266.97   17.10
  -9   7   1  284.47   14.20
   9   7  -1  283.37   13.40
   7  -7  -1 1779.12   54.79
  -7  -7   1 1740.33   54.89
  -7  -7   1 1504.65   57.29
   7  -7  -1 1808.82   54.19
  -7  -7   1 1721.53   52.49
   7  -7  -1 1674.23   53.79
  -7   7   1 1617.84   56.59
  -7   7   1 1701.93   53.99
   7   7  -1 1560.54   51.19
   7   7  -1 1738.53   57.79
   7   7  -1 1717.03   58.19
  -5  -7   1 1411.06   49.20
  -5  -7   1 1378.76   42.30
  -5  -7   1 1351.06   45.70
   5  -7  -1 1383.66   44.10
   5  -7  -1 1333.57   45.60
   5   7  -1 1401.56   47.40
   5   7  -1 1423.66   48.20
  -5   7   1 1427.46   46.40
  -5   7   1 1349.36   47.00
   3  -7  -1  985.70   34.90
  -3  -7   1  973.80   36.10
   3  -7  -1  910.11   31.30
  -3  -7   1  959.40   29.20
  -3   7   1 1021.90   35.30
   3   7  -1  947.71   34.20
  -3   7   1  910.81   33.60
  -3   7   1  933.31   34.60
   3   7  -1  991.30   35.50
  -1  -7   1 1024.60   30.10
   1  -7  -1  983.90   36.80
  -1  -7   1  988.40   36.40
  -1  -7   1 1041.80   30.10
   1  -7  -1  959.40   32.30
   1   7  -1 1038.70   36.60
  -1   7   1 1060.69   37.70
   1   7  -1 1023.90   35.30
  -1   7   1  995.00   35.50
  -1   7   1 1013.10   36.00
   1   7  -1 1024.70   35.20
  -1  -7  -1  836.82   32.50
   1  -7   1  811.82   25.70
  -1  -7  -1  866.81   28.00
   1  -7   1  801.62   30.40
  -1   7  -1  790.12   30.10
   1   7   1  868.61   33.00
   1   7   1  808.02   30.90
  -1   7  -1  865.81   30.10
  -1   7  -1  883.91   30.70
   1   7   1  798.42   30.40
  -3  -7  -1 1189.88   42.80
  -3  -7  -1 1170.18   40.50
   3  -7   1 1153.28   39.50
   3  -7   1 1161.88   36.40
  -3  -7  -1 1126.99   37.60
   3   7   1 1119.89   41.20
  -3   7  -1 1197.48   39.10
   3   7   1 1213.98   43.60
  -3   7  -1 1205.58   40.70
   5  -7   1  639.64   25.30
  -5  -7  -1  723.03   28.40
  -5  -7  -1  808.72   27.20
  -5  -7  -1  761.82   31.20
   5  -7   1  727.13   26.40
   5   7   1  745.53   26.60
  -5   7  -1  750.22   25.90
   5   7   1  704.43   30.10
   5   7   1  755.92   31.60
  -5   7  -1  730.73   28.90
   7  -7   1  881.51   30.70
   7  -7   1  949.90   32.70
  -7  -7  -1  999.60   33.70
   7  -7   1  922.81   32.90
  -7  -7  -1  927.91   37.40
   7   7   1  916.31   37.30
  -7   7  -1  898.51   30.10
   7   7   1  900.61   32.70
  -9  -7  -1  718.93   28.20
   9  -7   1  694.03   26.70
   9  -7   1  658.33   23.20
   9  -7   1  717.93   28.50
  -9  -7  -1  696.03   31.30
   9   7   1  683.53   27.50
   9   7   1  713.73   32.50
  11  -7   1  100.79    9.20
 -11  -7  -1  111.79   10.80
  11   7   1  117.09   13.30
 -11   7  -1  115.69    9.60
 -13  -7  -1  203.88   15.70
  13  -7   1  211.38   13.90
 -13   7  -1  211.98   14.20
  13   7   1  174.68   17.70
  14  -8  -1  387.26   17.80
 -14  -8   1  491.65   23.50
  14  -8  -1  419.26   21.70
  12  -8  -1  611.64   24.40
  12  -8  -1  626.44   27.00
 -12  -8   1  693.13   27.90
  12   8  -1  651.13   27.00
  12   8  -1  612.54   32.00
 -10  -8   1 1328.37   43.80
  10  -8  -1 1223.18   42.70
  10  -8  -1 1314.67   45.10
  10  -8  -1 1293.37   44.90
 -10   8   1 1256.07   43.20
  10   8  -1 1267.17   49.60
  10   8  -1 1269.57   42.50
   8  -8  -1 1891.61   61.69
  -8  -8   1 2046.10   59.89
   8  -8  -1 1840.82   60.69
   8  -8  -1 1943.61   61.09
   8   8  -1 1874.11   65.69
   8   8  -1 1869.81   58.49
  -8   8   1 1933.81   61.39
  -6  -8   1 1312.07   38.70
  -6  -8   1 1252.57   46.10
   6  -8  -1 1164.48   41.90
   6  -8  -1 1179.68   40.20
  -6  -8   1 1166.88   41.90
  -6   8   1 1205.38   42.40
   6   8  -1 1208.68   44.50
  -4  -8   1 1299.47   38.30
   4  -8  -1 1214.48   44.00
  -4  -8   1 1316.87   46.80
   4  -8  -1 1262.17   40.90
  -4   8   1 1273.57   43.90
   4   8  -1 1247.08   44.40
   4   8  -1 1238.28   45.20
  -4   8   1 1289.67   44.90
  -2  -8   1 2123.49   64.19
  -2  -8   1 2331.97   64.29
   2  -8  -1 2293.07   67.39
  -2  -8   1 2275.47   73.09
   2  -8  -1 2269.37   72.59
   2  -8  -1 2276.67   67.59
  -2   8   1 2319.97   73.29
  -2   8   1 2152.78   72.09
  -2   8   1 2183.48   71.09
   2   8  -1 2165.98   70.49
   2   8  -1 2319.27   71.59
   2   8  -1 2349.46   73.09
   0  -8   1 2356.16   73.29
   0  -8   1 2361.36   65.19
   0  -8   1 2261.57   65.19
   0  -8  -1 2280.67   68.09
   0  -8  -1 2358.36   74.59
   0   8  -1 2341.87   72.99
   0   8  -1 2344.07   71.89
   0   8  -1 2190.48   71.79
   0   8   1 2246.58   74.09
   0   8   1 2055.39   71.89
   0   8   1 2374.86   75.09
  -2  -8  -1 2673.03   77.99
   2  -8   1 2601.74   81.29
   2  -8   1 2559.34   75.69
  -2  -8  -1 2717.33   84.49
  -2   8  -1 2560.44   81.79
  -2   8  -1 2500.35   80.59
   2   8   1 2659.43   84.89
  -2   8  -1 2727.33   81.59
   2   8   1 2644.54   82.89
  -4  -8  -1 2224.58   66.89
   4  -8   1 2169.98   65.59
  -4  -8  -1 2194.68   73.09
   4  -8   1 2159.88   68.39
   4   8   1 2154.18   71.99
  -4   8  -1 2266.77   68.59
  -6  -8  -1  807.82   29.40
   6  -8   1  783.02   28.70
  -6  -8  -1  810.12   34.50
   6  -8   1  797.22   28.70
  -6   8  -1  792.32   28.40
   6   8   1  831.02   34.50
  -8  -8  -1  693.43   27.60
   8  -8   1  705.73   27.90
  -8  -8  -1  774.22   33.10
   8  -8   1  692.03   24.90
   8   8   1  712.53   27.50
   8   8   1  645.04   31.70
  10  -8   1 1013.40   38.90
 -10  -8  -1 1090.39   38.60
  10  -8   1  982.40   31.30
  10  -8   1  986.10   36.40
  10   8   1  960.30   43.00
  12  -8   1  708.13   29.30
 -12  -8  -1  744.33   31.60
  13  -9  -1   82.89   10.30
 -13  -9   1   86.19   10.60
  13  -9  -1   73.59    9.40
  13   9  -1   73.89   13.30
  11  -9  -1  140.99   11.00
 -11  -9   1  158.98   11.60
  11  -9  -1  142.19   11.60
  11   9  -1  153.88   11.90
  11   9  -1  142.99   15.20
  -9  -9   1  157.28   10.30
   9  -9  -1  153.08   11.10
   9  -9  -1  157.48   12.70
  -9   9   1  161.78   13.00
   9   9  -1  145.99   13.80
   7  -9  -1   60.69    7.90
  -7  -9   1   69.19    6.30
   7  -9  -1   66.19    8.20
  -7   9   1   79.39    9.90
   7   9  -1   66.79   10.00
  -7   9   1   75.49    9.50
   5  -9  -1  280.37   15.90
   5  -9  -1  262.97   13.40
  -5  -9   1  273.57   17.60
  -5  -9   1  296.67   11.30
   5   9  -1  275.17   16.50
  -5   9   1  260.27   16.50
  -5   9   1  232.58   14.80
   3  -9  -1  230.18   14.60
  -3  -9   1  217.88   15.10
   3  -9  -1  205.58   11.00
   3  -9  -1  218.48   10.80
   3   9  -1  195.68   13.50
  -3   9   1  211.28   13.60
  -3   9   1  243.18   16.20
   1  -9  -1  134.49   11.30
   1  -9  -1  135.59    8.40
   1  -9  -1  130.09    7.90
  -1  -9   1  118.39   10.90
  -1   9   1  120.49   10.40
   1   9  -1  116.39   11.40
   1   9  -1  139.39   10.50
  -1  -9  -1  221.08   14.80
   1  -9   1  218.78    8.30
   1  -9   1  216.98    8.20
   1  -9   1  212.58   13.80
  -1  -9  -1  213.88   10.60
  -1   9  -1  206.28   14.50
   1   9   1  196.08   13.70
  -1   9  -1  217.98   13.40
  -3  -9  -1  107.39    7.50
   3  -9   1  100.39    9.30
   3  -9   1  106.29    6.50
  -3  -9  -1  109.59   11.00
  -3   9  -1  106.09   10.40
  -3   9  -1   86.99    8.80
   3   9   1  103.29   10.30
  -5  -9  -1  163.08   13.70
   5  -9   1  149.19    9.50
  -5  -9  -1  154.88    9.90
   5  -9   1  141.59   10.60
   5   9   1  172.88   13.70
  -5   9  -1  156.58   11.70
   7  -9   1  184.68   12.20
   7  -9   1  175.18   11.10
  -7  -9  -1  177.68   11.40
  -7  -9  -1  184.48   15.40
  -7   9  -1  176.68   11.60
   7   9   1  174.18   15.10
  -9  -9  -1   75.49    9.20
   9  -9   1   89.29   10.80
   9  -9   1   91.89    7.80
   9   9   1  107.69   14.30
 -11  -9  -1   58.09    9.00
  11   9   1   62.09   12.30
  10 -10  -1  135.09   12.00
 -10 -10   1  160.18   11.10
  10  10  -1  141.19   15.40
   8 -10  -1  473.45   21.40
  -8 -10   1  507.75   18.80
   8 -10  -1  442.96   21.70
  -8  10   1  427.06   22.70
   8  10  -1  427.16   24.60
  -8  10   1  418.56   23.10
  -6 -10   1  523.75   17.90
   6 -10  -1  472.05   23.30
   6 -10  -1  494.55   20.90
  -6  10   1  476.35   23.90
  -6  10   1  516.15   28.50
   6  10  -1  505.25   25.70
   4 -10  -1  156.88    9.60
   4 -10  -1  180.48   10.70
   4 -10  -1  161.68   13.00
  -4 -10   1  181.78   14.80
   4  10  -1  165.38   13.40
  -4  10   1  184.88   13.40
   2 -10  -1  243.38   16.20
  -2 -10   1  225.18   16.10
   2 -10  -1  228.28   11.30
   2 -10  -1  242.78   11.90
  -2  10   1  246.98   15.50
   2  10  -1  223.58   15.00
   0 -10   1  625.34   27.70
   0 -10  -1  626.94   28.30
   0 -10  -1  613.54   21.60
   0 -10  -1  566.14   21.70
   0  10  -1  575.14   26.20
   0  10   1  574.14   26.70
  -2 -10  -1  483.85   17.90
   2 -10   1  453.15   22.10
  -2 -10  -1  443.06   23.80
  -2  10  -1  438.66   21.80
   2  10   1  430.86   22.80
  -2  10  -1  441.26   23.10
   4 -10   1  254.07   15.10
  -4 -10  -1  245.98   12.40
  -4 -10  -1  251.27   17.70
   4 -10   1  278.57   11.60
  -4  10  -1  237.38   16.60
  -4  10  -1  255.17   15.80
   4  10   1  218.58   16.40
   6 -10   1  214.28   12.20
  -6 -10  -1  219.38   17.20
   6 -10   1  212.88   13.40
  -6 -10  -1  207.28   12.10
  -6  10  -1  201.78   14.60
   6  10   1  225.18   17.20
  -6  10  -1  188.18   14.20
   8 -10   1  159.28   11.70
   8 -10   1  172.98   14.20
  -8 -10  -1  215.48   17.50
  -8 -10  -1  194.28   12.60
   8  10   1  184.78   17.20
 -10 -10  -1  169.58   13.30
  10  10   1  137.29   20.90
  -9 -11   1 1217.28   37.30
   9 -11  -1 1116.69   41.60
  -9  11   1  979.60   43.20
   7 -11  -1 1209.48   45.90
  -7 -11   1 1326.17   38.60
   7  11  -1 1259.57   49.90
  -7  11   1 1216.28   47.50
   5 -11  -1  917.81   36.30
   5 -11  -1  919.61   31.00
   5  11  -1  828.42   36.90
  -5  11   1  840.42   36.30
   3 -11  -1 1310.27   40.10
  -3 -11   1 1291.17   48.90
   3 -11  -1 1191.88   39.90
   3 -11  -1 1226.28   46.80
   3  11  -1 1232.08   47.10
  -3  11   1 1214.58   46.70
   1 -11  -1 1465.55   44.90
   1 -11  -1 1498.05   53.59
   1 -11  -1 1446.46   45.10
  -1 -11   1 1479.15   53.79
  -1  11   1 1394.46   52.59
   1  11  -1 1389.76   52.19
  -1 -11  -1  935.11   29.80
  -1 -11  -1  871.41   30.20
  -1 -11  -1  917.41   38.70
   1 -11   1  928.61   37.20
  -1  11  -1  857.91   36.20
   1  11   1  865.41   37.10
   3 -11   1 1076.39   41.50
  -3 -11  -1 1170.98   45.90
  -3 -11  -1 1157.98   36.20
   3  11   1 1054.79   43.70
  -3  11  -1 1035.70   42.00
  -5 -11  -1 1155.68   36.80
   5 -11   1 1064.69   34.00
  -5 -11  -1 1109.79   45.80
   5 -11   1 1110.99   40.50
  -5  11  -1 1025.90   42.00
   5  11   1 1014.40   44.30
  -7 -11  -1  624.74   33.00
   7 -11   1  679.03   27.60
  -7 -11  -1  707.63   26.50
   7  11   1  636.74   33.50
  -7  11  -1  663.43   30.80
   4 -12  -1  250.37   17.90
   4 -12  -1  265.37   12.40
   4  12  -1  206.88   17.20
   2 -12  -1  274.77   19.10
  -2 -12   1  282.57   19.70
   2 -12  -1  266.67   11.70
  -2  12   1  246.38   18.10
   2  12  -1  259.47   18.50
   0 -12   1  235.08   18.10
   0 -12  -1  273.87   11.40
   0 -12  -1  280.17   19.10
   0  12  -1  260.07   18.20
   0  12   1  245.78   17.90
   2 -12   1  178.38   15.00
  -2 -12  -1  169.28    9.30
  -2 -12  -1  167.18   16.00
   2  12   1  137.79   14.50
  -2  12  -1  178.68   15.30
 -20   0   2  815.02   38.40
  20   0  -2  818.12   37.20
 -18   0   2  671.33   31.00
  18   0  -2  613.14   29.70
  16   0  -2  695.33   30.00
 -16   0   2  688.13   30.20
  16   0  -2  683.73   27.10
  14   0  -2 1946.01   63.59
 -14   0   2 1870.41   63.29
  14   0  -2 1907.01   64.69
 -14   0   2 1972.20   63.09
 -12   0   2 1252.37   42.30
 -12   0   2 1207.98   42.40
  12   0  -2 1294.97   43.10
  10   0  -2 2329.87   70.49
 -10   0   2 2259.67   69.99
  10   0  -2 2256.17   68.89
 -10   0   2 2365.66   70.09
  -8   0   2 5631.94  154.68
   8   0  -2 5378.26  153.68
   8   0  -2 5410.36  154.78
  -8   0   2 5323.97  154.48
   6   0  -2 2811.82   80.69
  -6   0   2 2765.12   80.89
   6   0  -2 2925.31   81.29
  -6   0   2 2769.72   81.09
   4   0   2 8252.97  230.48
  -6   0  -2 3710.23  105.89
   6   0   2 3782.42  106.69
  -6   0  -2 3497.65  105.79
   6   0   2 3710.33  105.59
   6   0   2 3474.25  104.89
   8   0   2 2358.06   73.29
   8   0   2 2379.06   72.59
  -8   0  -2 2385.76   73.59
   8   0   2 2504.15   74.59
  10   0   2 1708.63   55.79
  10   0   2 1727.93   54.19
 -10   0  -2 1639.04   55.09
 -10   0  -2 1681.33   55.29
  10   0   2 1625.94   54.49
  12   0   2  986.20   37.60
  12   0   2 1037.70   37.10
 -12   0  -2  991.70   38.00
  14   0   2  607.74   27.90
  14   0   2  651.03   28.30
 -14   0  -2  647.74   29.50
  16   0   2  557.34   27.60
  16   0   2  447.16   24.70
 -16   0  -2  446.86   25.50
  19  -1  -2   15.80    5.70
  19  -1  -2    0.10    5.40
 -19  -1   2    5.40    6.30
 -19   1   2   10.80    6.50
  19   1  -2    2.00    5.50
  17  -1  -2   51.59    8.40
 -17  -1   2   47.40    8.80
  17  -1  -2   51.59    7.50
 -17   1   2   65.59    9.60
  17   1  -2   45.80    8.20
  15  -1  -2  525.55   24.10
 -15  -1   2  525.15   24.60
  15   1  -2  538.55   22.50
  15   1  -2  510.05   24.40
 -15   1   2  543.35   24.40
 -13  -1   2  472.55   20.30
  13  -1  -2  461.35   19.70
  13  -1  -2  452.35   20.40
 -13  -1   2  458.75   20.80
  13   1  -2  452.85   18.80
 -13   1   2  424.66   20.00
  13   1  -2  449.56   19.20
 -13   1   2  460.05   20.70
  13   1  -2  431.46   20.50
  11  -1  -2  331.97   15.70
  11  -1  -2  338.17   15.00
 -11  -1   2  334.87   15.30
 -11  -1   2  389.56   16.50
 -11   1   2  333.17   15.70
 -11   1   2  323.57   15.30
  11   1  -2  334.37   15.90
  11   1  -2  341.17   14.60
  -9  -1   2 1290.87   42.40
   9  -1  -2 1322.27   41.80
  -9  -1   2 1319.27   42.10
   9  -1  -2 1333.67   42.70
   9   1  -2 1353.16   43.00
  -9   1   2 1347.07   42.50
  -9   1   2 1316.27   42.60
   9   1  -2 1367.56   41.50
  -7  -1   2 1894.41   58.69
   7  -1  -2 2059.99   59.29
  -7  -1   2 2001.20   58.69
   7  -1  -2 1986.40   58.99
   7  -1  -2 1863.01   58.49
   7   1  -2 2060.49   59.39
  -7   1   2 1958.60   59.09
   7   1  -2 2024.80   58.09
  -7   1   2 2006.50   59.19
   5  -1  -2  951.40   29.00
  -5  -1   2  937.71   28.60
   5  -1  -2  871.31   28.80
   5  -1  -2  981.80   29.30
  -5  -1   2  947.71   28.30
   5   1  -2  929.31   28.70
   5   1  -2  983.00   28.30
  -5   1   2  912.41   29.00
   3  -1  -2 3770.12  106.49
  -3   1   2 3948.60  106.59
  -3   1   2 3686.63  107.29
   1  -1  -2 2133.59   60.49
   1  -1  -2 2123.19   60.39
   1  -1  -2 2175.78   59.59
   1  -1  -2 2086.19   59.29
  -1  -1   2 2078.49   59.29
  -1   1   2 2051.09   60.39
  -1   1   2 2100.39   59.29
   1   1  -2 2012.50   59.19
  -1   1   2 2155.68   59.49
  -1  -1  -2  124.69    5.30
   1  -1   2  127.29    4.00
   1  -1   2  127.59    4.40
  -1  -1  -2  106.99    5.60
   1  -1   2  109.09    5.40
  -1  -1  -2  109.19    5.80
  -1   1  -2  114.09    3.90
   1   1   2  117.69    5.90
  -1   1  -2  120.19    4.70
   1   1   2  120.89    5.30
  -1   1  -2  112.49    5.10
   3  -1   2  907.41   27.20
  -3  -1  -2  888.11   28.00
   3  -1   2  859.11   25.80
   3  -1   2  884.41   28.50
  -3  -1  -2  887.11   28.40
  -3   1  -2  891.41   27.60
   3   1   2  881.11   28.10
  -3   1  -2  899.41   27.90
   3   1   2  866.21   28.80
  -5  -1  -2 1689.03   50.69
  -5  -1  -2 1591.64   51.69
   5  -1   2 1789.12   50.79
   5  -1   2 1635.84   49.10
  -5  -1  -2 1779.52   51.59
   5  -1   2 1761.72   51.99
   5   1   2 1576.24   51.79
   5   1   2 1637.04   51.29
   5   1   2 1741.23   52.29
  -5   1  -2 1623.44   50.89
  -5   1  -2 1628.64   50.99
  -7  -1  -2  506.65   20.80
   7  -1   2  528.85   20.00
   7  -1   2  568.14   21.50
   7  -1   2  489.35   18.60
  -7  -1  -2  550.44   20.90
   7   1   2  552.14   21.20
  -7   1  -2  549.74   20.80
  -7   1  -2  507.25   20.20
   7   1   2  540.35   20.90
  -9  -1  -2  900.01   33.30
   9  -1   2  930.61   33.60
  -9  -1  -2  917.01   33.00
   9  -1   2  897.01   32.10
   9  -1   2  867.51   30.50
  -9   1  -2  931.11   33.10
   9   1   2  895.51   32.90
  -9   1  -2  861.01   32.30
   9   1   2  999.00   33.70
  11  -1   2  501.05   20.90
 -11  -1  -2  511.05   23.40
  11  -1   2  543.05   22.70
  11   1   2  572.64   23.80
  11   1   2  503.75   23.00
 -11   1  -2  488.45   22.40
  13  -1   2  209.08   13.40
  13  -1   2  205.28   13.80
 -13  -1  -2  211.78   14.70
  13   1   2  233.88   15.80
 -13   1  -2  215.28   14.50
  13   1   2  198.58   14.20
 -15  -1  -2  208.18   16.00
  15  -1   2  189.08   15.30
  15  -1   2  191.68   14.70
 -15   1  -2  198.78   15.20
  15   1   2  198.38   15.50
  15   1   2  251.57   19.40
 -17  -1  -2  121.89   15.40
  17  -1   2  121.29   11.30
  17  -1   2  129.79   13.90
 -17   1  -2  103.09   13.20
  17   1   2  100.99   13.50
 -20  -2   2   35.30    9.60
  20  -2  -2   38.20    9.50
  20  -2  -2   43.30    8.70
 -20   2   2   46.90    9.70
  20   2  -2   58.39   11.00
  18  -2  -2   28.10    7.00
  18  -2  -2   41.00    8.10
  18  -2  -2   39.00    6.90
 -18  -2   2   40.90    8.90
 -18   2   2   31.80    7.20
  18   2  -2   25.60    7.30
  16  -2  -2  151.38   12.30
  16  -2  -2  151.88   11.10
 -16  -2   2  163.38   13.20
  16   2  -2  144.79   12.70
 -16   2   2  134.79   11.80
  14  -2  -2  486.25   21.90
 -14  -2   2  464.75   22.20
  14  -2  -2  463.85   20.00
  14   2  -2  466.75   22.40
  14   2  -2  460.55   20.40
  14   2  -2  475.75   20.60
 -14   2   2  472.45   21.60
  12  -2  -2  410.06   18.60
 -12  -2   2  415.76   18.90
  12  -2  -2  402.66   17.90
 -12  -2   2  418.76   18.20
  12  -2  -2  413.76   17.40
 -12   2   2  430.66   18.60
 -12   2   2  400.56   19.00
  12   2  -2  398.46   17.50
  12   2  -2  405.06   17.30
  12   2  -2  398.46   19.00
  10  -2  -2  875.81   29.40
  10  -2  -2  838.52   28.70
 -10  -2   2  824.02   29.90
 -10  -2   2  874.31   29.40
  10  -2  -2  837.12   29.80
  10   2  -2  851.91   30.40
 -10   2   2  877.31   30.40
 -10   2   2  821.52   29.50
  10   2  -2  790.32   28.60
  10   2  -2  841.62   28.30
  -8  -2   2 1146.79   35.50
   8  -2  -2 1111.69   35.40
   8  -2  -2 1090.89   35.60
  -8  -2   2 1040.40   35.60
   8  -2  -2 1114.09   36.10
  -8   2   2 1179.58   36.70
   8   2  -2 1164.98   36.70
   8   2  -2 1094.09   34.50
  -8   2   2 1140.89   36.00
   8   2  -2 1074.29   35.30
  -6  -2   2  750.22   24.50
  -6  -2   2  773.42   24.50
   6  -2  -2  735.13   25.20
   6  -2  -2  786.72   25.30
   6  -2  -2  755.32   25.10
  -6   2   2  759.02   25.20
  -6   2   2  798.72   25.70
   6   2  -2  762.52   23.80
  -6   2   2  768.02   25.20
   6   2  -2  821.32   25.50
   4  -2  -2 1764.82   51.79
  -4  -2   2 1739.33   50.39
   4  -2  -2 1773.62   52.19
  -4  -2   2 1805.82   50.89
   4   2  -2 1748.93   49.99
  -4   2   2 1727.63   51.89
  -4   2   2 1774.92   52.29
   4   2  -2 1785.02   51.29
   2  -2  -2  150.08    6.40
  -2   2   2  152.88    7.20
  -2   2   2  152.18    6.50
  -2   2   2  149.19    6.60
   2   2  -2  154.58    5.50
   0  -2   2   78.19    3.60
   0  -2  -2   67.99    4.40
   0  -2  -2   83.09    4.50
   0   2  -2   71.89    3.30
   0   2  -2   75.69    3.10
   0   2   2   74.49    4.40
   0   2   2   89.09    4.90
   0   2  -2   79.69    3.30
   0   2   2   70.79    4.80
  -2  -2  -2  698.23   24.40
  -2  -2  -2  670.13   23.90
   2  -2   2  746.03   22.00
   2  -2   2  703.23   22.90
  -2  -2  -2  709.33   23.20
   2   2   2  736.93   24.20
  -2   2  -2  728.43   22.60
  -2   2  -2  728.43   22.30
   2   2   2  714.13   23.60
   2   2   2  746.43   25.10
  -4  -2  -2  250.97   12.10
   4  -2   2  293.27   11.10
  -4  -2  -2  271.27   12.40
   4  -2   2  281.17   12.00
  -4  -2  -2  324.57   12.40
   4   2   2  274.07   13.10
   4   2   2  287.97   12.40
  -4   2  -2  274.17   11.10
  -4   2  -2  305.57   11.90
   4   2   2  283.97   12.60
   6  -2   2  462.95   16.80
   6  -2   2  431.96   13.50
   6  -2   2  455.95   17.90
  -6  -2  -2  427.16   17.40
  -6  -2  -2  396.26   17.60
  -6  -2  -2  448.76   17.50
   6  -2   2  392.76   13.90
  -6   2  -2  445.86   17.50
   6   2   2  440.96   18.80
   6   2   2  443.66   18.00
  -6   2  -2  429.16   16.70
   8  -2   2  164.78   10.40
   8  -2   2  182.88    9.80
  -8  -2  -2  173.28   10.30
   8  -2   2  142.89    7.40
  -8  -2  -2  151.28   10.10
  -8   2  -2  162.98    9.40
  -8   2  -2  158.98   10.20
   8   2   2  174.98   11.50
   8   2   2  152.48   10.20
   8   2   2  162.78   10.30
  10  -2   2   74.69    8.40
  10  -2   2   79.09    7.20
 -10  -2  -2   84.19    8.30
  10  -2   2   74.19    6.10
 -10  -2  -2   80.49    8.10
  10   2   2   76.89    9.20
  10   2   2   93.19    8.60
  10   2   2   77.39    8.40
 -10   2  -2   88.39    9.30
 -10   2  -2   86.69    7.60
  12  -2   2  248.58   12.70
 -12  -2  -2  219.88   14.80
  12  -2   2  259.07   11.40
  12  -2   2  235.18   14.00
  12   2   2  256.47   15.90
 -12   2  -2  242.98   14.60
  12   2   2  282.47   17.30
  14  -2   2  156.38    9.40
 -14  -2  -2  163.48   13.90
  14  -2   2  134.19   11.10
  14  -2   2  160.78   12.50
  14   2   2  148.39   13.50
 -14   2  -2  164.78   13.00
 -16  -2  -2   51.09    9.70
  16  -2   2   67.89    9.80
  16  -2   2   64.09    7.40
 -16   2  -2   45.00    8.50
  16   2   2   66.69   10.90
 -19  -3   2  372.66   24.00
  19  -3  -2  381.86   19.60
  19  -3  -2  380.86   20.00
  19  -3  -2  369.16   22.00
  19   3  -2  338.17   23.20
 -19   3   2  418.76   23.20
  17  -3  -2  593.34   27.10
 -17  -3   2  551.34   28.00
  17  -3  -2  549.15   23.80
 -17   3   2  565.44   26.70
  17   3  -2  574.14   28.60
  15  -3  -2 1158.18   39.80
 -15  -3   2 1158.48   43.90
  15  -3  -2 1143.89   42.50
  15   3  -2 1170.08   44.40
 -15   3   2 1144.09   42.30
  13  -3  -2 1711.53   56.89
  13  -3  -2 1758.22   56.59
  13  -3  -2 1742.33   54.69
 -13  -3   2 1731.03   56.19
 -13  -3   2 1713.33   57.79
  13   3  -2 1735.53   55.09
 -13   3   2 1949.60   71.59
 -13   3   2 1744.43   56.79
  13   3  -2 1507.25   57.29
  13   3  -2 1717.43   56.09
 -11  -3   2 1940.21   59.99
  11  -3  -2 1857.41   58.79
  11  -3  -2 2000.00   60.49
 -11  -3   2 1841.62   60.79
  11  -3  -2 1900.91   60.69
  11   3  -2 1921.41   60.09
  11   3  -2 1880.61   61.89
  11   3  -2 1943.61   58.89
 -11   3   2 1975.40   61.79
 -11   3   2 1910.91   60.39
   9  -3  -2 1581.94   51.59
   9  -3  -2 1584.24   50.39
  -9  -3   2 1567.94   51.29
  -9  -3   2 1638.34   50.89
   9  -3  -2 1756.62   51.89
   9   3  -2 1633.54   49.90
  -9   3   2 1657.93   52.49
  -9   3   2 1648.24   51.49
   9   3  -2 1705.33   52.79
   9   3  -2 1669.73   51.49
   7  -3  -2 3670.23  103.49
  -7  -3   2 3290.47  102.39
  -7  -3   2 3587.24  102.69
   7  -3  -2 3550.24  103.69
   7  -3  -2 3593.14  103.09
   7   3  -2 3634.74  101.59
   7   3  -2 3559.34  103.49
  -7   3   2 3602.94  104.29
   7   3  -2 3615.84  104.29
  -7   3   2 3627.04  103.29
   5  -3  -2 6974.50  193.28
  -5  -3   2 7105.69  192.58
  -5  -3   2 6510.45  191.28
   5  -3  -2 6927.91  193.48
   5   3  -2 6843.82  193.28
  -5   3   2 7106.69  193.88
   5   3  -2 6678.83  192.98
  -5   3   2 6840.02  193.48
   3  -3  -2 5256.47  149.88
  -3  -3   2 5434.56  146.09
  -3   3   2 5078.59  149.29
   3   3  -2 5488.85  148.69
  -3   3   2 5213.38  149.99
   3   3  -2 5263.57  148.79
   1  -3  -2 2143.39   64.99
   1  -3  -2 2235.48   64.09
   1  -3  -2 2148.39   64.39
  -1   3   2 2245.98   64.49
  -1   3   2 2209.08   65.49
   1   3  -2 2222.88   63.09
  -1   3   2 2105.69   63.79
   1  -3   2 3742.03  109.19
  -1  -3  -2 3642.74  111.19
  -1  -3  -2 3860.21  111.29
  -1  -3  -2 3699.03  112.59
   1   3   2 3994.70  113.39
  -1   3  -2 3883.91  109.79
  -1   3  -2 3799.62  108.49
   1   3   2 3853.41  111.39
  -1   3  -2 4037.90  108.89
   1   3   2 4379.26  112.39
  -3  -3  -2 3983.20  119.19
  -3  -3  -2 4091.69  120.69
   3  -3   2 4120.69  117.89
   3  -3   2 4223.18  116.99
  -3  -3  -2 4228.18  118.69
  -3   3  -2 4173.88  118.09
  -3   3  -2 4157.68  116.79
   3   3   2 4112.39  119.09
   3   3   2 4154.88  121.19
   3   3   2 4132.89  119.59
  -5  -3  -2 1863.41   57.19
  -5  -3  -2 1852.91   58.59
  -5  -3  -2 1831.12   57.89
   5  -3   2 1920.11   55.89
   5  -3   2 1731.43   56.69
  -5   3  -2 1895.21   57.09
   5   3   2 1826.82   58.19
  -5   3  -2 1785.12   55.59
   5   3   2 1960.50   58.19
   5   3   2 2004.10   60.39
  -7  -3  -2 1820.32   60.09
  -7  -3  -2 1911.21   60.49
   7  -3   2 1925.51   58.19
  -7  -3  -2 1941.91   59.59
   7  -3   2 1982.50   60.19
  -7   3  -2 1876.41   59.49
   7   3   2 1975.40   61.99
   7   3   2 1890.71   60.69
   7   3   2 1902.51   59.99
  -7   3  -2 1771.02   57.89
   9  -3   2 1966.00   60.69
   9  -3   2 2011.70   63.19
   9  -3   2 1927.91   55.39
   9  -3   2 1734.63   55.79
  -9  -3  -2 1834.42   62.59
  -9  -3  -2 1891.41   61.99
   9   3   2 2178.48   65.29
   9   3   2 2001.70   62.89
   9   3   2 1954.60   63.69
  -9   3  -2 1997.00   62.89
  -9   3  -2 1929.71   60.99
 -11  -3  -2  575.44   26.00
  11  -3   2  564.04   18.80
  11  -3   2  580.24   23.80
  11  -3   2  561.54   19.70
  11   3   2  589.44   26.40
 -11   3  -2  567.34   24.30
  11   3   2  665.03   27.90
  13  -3   2  396.96   19.50
  13  -3   2  391.06   15.40
  13  -3   2  411.06   14.50
 -13  -3  -2  391.16   21.60
  13   3   2  382.96   21.70
 -13   3  -2  400.96   20.10
  15  -3   2  516.85   24.20
 -15  -3  -2  491.75   26.50
  15  -3   2  499.55   17.60
 -15   3  -2  476.25   24.60
  15   3   2  478.55   26.30
  18  -4  -2  219.88   16.10
  18  -4  -2  209.48   13.40
 -18  -4   2  215.68   17.60
 -18   4   2  220.98   16.10
  18   4  -2  241.48   18.60
  16  -4  -2  331.97   16.50
  16  -4  -2  345.37   18.90
 -16  -4   2  344.67   20.30
 -16   4   2  350.06   19.10
  16   4  -2  323.17   20.60
  14  -4  -2  553.14   22.00
  14  -4  -2  553.14   24.20
 -14  -4   2  563.64   25.50
  14   4  -2  552.24   26.20
 -14   4   2  512.55   23.60
  12  -4  -2  432.36   19.60
 -12  -4   2  459.45   19.70
 -12  -4   2  427.46   20.00
  12  -4  -2  473.65   20.30
  12  -4  -2  440.06   18.10
 -12   4   2  429.66   21.20
  12   4  -2  438.16   18.30
  12   4  -2  439.96   21.30
 -12   4   2  433.46   19.50
  12   4  -2  444.46   20.00
  10  -4  -2  989.60   32.80
  10  -4  -2  936.91   33.90
  10  -4  -2 1005.90   34.20
 -10  -4   2  948.51   34.00
 -10  -4   2  982.30   33.30
 -10   4   2  923.51   33.40
  10   4  -2  996.20   34.50
 -10   4   2  968.60   35.20
  10   4  -2 1003.10   32.20
  10   4  -2 1008.50   35.90
   8  -4  -2 2389.36   70.89
  -8  -4   2 2205.38   69.79
   8  -4  -2 2358.06   70.19
   8  -4  -2 2346.17   71.09
  -8  -4   2 2328.97   70.09
  -8   4   2 2419.06   70.49
   8   4  -2 2424.56   68.69
   8   4  -2 2269.57   70.99
   8   4  -2 2379.16   72.39
  -8   4   2 2329.47   71.99
  -6  -4   2  928.21   30.10
   6  -4  -2  906.21   30.50
   6  -4  -2  949.51   31.00
   6  -4  -2  927.01   30.60
  -6  -4   2  901.01   29.00
  -6   4   2  906.71   31.40
   6   4  -2  924.51   28.20
   6   4  -2  916.11   31.00
  -6   4   2  937.81   30.90
   6   4  -2  953.30   31.60
   4  -4  -2 1440.46   43.20
   4  -4  -2 1360.96   43.30
  -4  -4   2 1396.76   39.90
  -4  -4   2 1435.46   42.40
  -4   4   2 1391.16   43.50
   4   4  -2 1448.66   43.40
   4   4  -2 1411.96   39.70
   4   4  -2 1198.58   42.40
  -4   4   2 1410.66   43.80
   2  -4  -2 2870.91   89.49
  -2  -4   2 2933.91   88.59
   2   4  -2 3166.58   87.79
  -2   4   2 3184.18   90.39
  -2   4   2 3150.58   89.19
   2   4  -2 3059.59   88.49
  -2   4   2 2998.60   88.89
   0  -4   2 1392.16   41.80
   0  -4  -2 1458.85   45.00
   0  -4   2 1465.85   44.20
   0   4   2 1431.76   47.30
   0   4   2 1489.95   45.60
   0   4  -2 1460.75   44.00
   0   4   2 1558.94   46.50
   0   4  -2 1517.65   44.40
  -2  -4  -2 1401.36   45.30
   2  -4   2 1411.06   43.20
   2  -4   2 1375.16   42.50
  -2  -4  -2 1461.85   45.60
  -2  -4  -2 1416.46   47.40
  -2   4  -2 1514.15   42.60
   2   4   2 1535.65   48.60
   2   4   2 1499.75   45.50
  -2   4  -2 1453.65   42.50
  -2   4  -2 1435.76   44.30
   2   4   2 1499.35   46.60
   4  -4   2 1212.18   37.10
  -4  -4  -2 1189.78   38.90
   4  -4   2 1243.48   38.10
  -4  -4  -2 1211.48   41.20
  -4  -4  -2 1197.98   39.30
   4   4   2 1206.58   40.30
   4   4   2 1231.68   41.80
  -4   4  -2 1060.79   36.20
   4   4   2 1220.98   39.10
  -4   4  -2 1181.08   38.40
  -6  -4  -2  750.42   26.90
  -6  -4  -2  717.03   28.30
   6  -4   2  738.93   26.70
  -6  -4  -2  671.23   26.90
   6  -4   2  746.33   25.40
   6   4   2  735.73   27.10
   6   4   2  743.73   28.40
   6   4   2  810.32   30.20
  -6   4  -2  743.03   27.00
  -6   4  -2  683.73   24.80
  -8  -4  -2  712.63   28.40
  -8  -4  -2  724.33   27.90
   8  -4   2  731.63   26.40
   8  -4   2  738.63   28.40
  -8  -4  -2  704.83   28.90
  -8   4  -2  739.03   28.50
   8   4   2  714.13   29.40
  -8   4  -2  686.03   26.10
   8   4   2  785.82   28.70
   8   4   2  787.22   31.20
  10  -4   2  799.12   29.50
  10  -4   2  802.52   32.20
 -10  -4  -2  814.42   32.30
 -10   4  -2  755.32   29.50
  10   4   2  858.41   34.40
  10   4   2  798.52   33.10
 -12  -4  -2  346.07   19.00
  12  -4   2  293.07   15.90
 -12   4  -2  286.57   16.10
  12   4   2  301.67   19.10
 -14  -4  -2  151.98   13.90
  14  -4   2  137.49   11.70
 -14   4  -2  135.09   11.90
  14   4   2  140.89   14.80
  16  -4   2  124.69   12.50
 -16  -4  -2  126.89   14.70
  16   4   2  108.69   15.00
 -16   4  -2  134.19   13.60
  17  -5  -2   27.10    6.80
 -17  -5   2   29.50    7.70
  17  -5  -2   32.30    5.90
 -17   5   2   29.40    7.20
  17   5  -2   26.40    8.10
  15  -5  -2  108.69    8.70
 -15  -5   2  100.69   10.70
  15  -5  -2   86.59    9.60
 -15   5   2   96.49    9.80
  15   5  -2   96.19   11.30
 -13  -5   2  117.79   10.50
  13  -5  -2  140.29   10.60
  13  -5  -2  134.99    9.10
  13   5  -2  136.79   12.30
  13   5  -2  130.89    9.80
 -13   5   2  126.39    9.90
  11  -5  -2  117.89    8.80
 -11  -5   2  112.49    8.80
  11  -5  -2  107.89    7.80
 -11  -5   2  105.19    8.70
  11  -5  -2  110.69    9.00
 -11   5   2  116.19   10.90
  11   5  -2  114.89   10.10
  11   5  -2  111.49    7.90
  11   5  -2   97.99    9.30
  -9  -5   2  256.97   12.90
  -9  -5   2  303.37   13.70
   9  -5  -2  267.77   12.90
   9  -5  -2  298.67   14.20
   9  -5  -2  293.67   14.00
  -9   5   2  288.07   13.40
  -9   5   2  259.87   14.60
   9   5  -2  260.57   14.40
   9   5  -2  278.67   12.00
   9   5  -2  285.37   15.30
  -7  -5   2  316.67   13.60
   7  -5  -2  328.47   14.20
   7  -5  -2  304.77   13.70
  -7  -5   2  276.97   12.20
   7  -5  -2  300.87   13.50
   7   5  -2  313.47   14.80
  -7   5   2  288.97   14.50
   7   5  -2  277.07   14.40
   7   5  -2  291.67   11.50
  -7   5   2  304.37   13.80
  -5  -5   2  690.33   22.30
   5  -5  -2  688.93   25.40
   5  -5  -2  720.03   25.30
  -5  -5   2  755.22   25.10
   5  -5  -2  721.53   25.10
  -5   5   2  732.03   26.20
  -5   5   2  761.92   26.30
   5   5  -2  746.33   26.10
   5   5  -2  669.33   25.80
   5   5  -2  704.43   22.00
   3  -5  -2  254.07   12.70
  -3  -5   2  257.27   12.80
  -3   5   2  271.47   12.80
   3   5  -2  283.17   12.20
   3   5  -2  281.27   12.80
  -3   5   2  286.27   12.70
  -3   5   2  284.37   13.50
  -1  -5   2   29.90    3.90
   1  -5  -2   31.70    3.60
   1  -5  -2   45.90    4.90
   1   5  -2   41.20    4.00
   1   5  -2   39.80    3.80
  -1   5   2   41.90    4.60
   1   5  -2   41.50    4.30
  -1   5   2   38.30    4.50
  -1   5   2   33.50    5.10
  -1  -5  -2  351.86   16.80
   1  -5   2  329.27   13.90
  -1  -5  -2  364.16   15.70
   1  -5   2  360.96   12.30
  -1  -5  -2  370.06   14.90
  -1   5  -2  360.16   14.50
   1   5   2  391.66   17.90
  -1   5  -2  393.86   14.30
  -3  -5  -2   91.89    7.90
  -3  -5  -2   87.89    6.60
  -3  -5  -2   91.19    7.00
   3  -5   2   86.09    5.60
   3  -5   2   75.49    4.90
   3   5   2   78.99    8.10
  -3   5  -2   91.59    5.10
  -3   5  -2   91.79    6.60
  -3   5  -2   93.69    5.10
   3   5   2   96.29    6.70
   3   5   2   83.79    7.30
   5  -5   2   43.70    4.40
  -5  -5  -2   32.00    5.60
  -5  -5  -2   35.50    5.30
   5  -5   2   40.90    2.90
  -5  -5  -2   40.40    5.70
   5  -5   2   42.10    5.00
  -5   5  -2   41.50    3.90
   5   5   2   38.80    5.40
  -5   5  -2   35.80    5.20
   5   5   2   37.90    6.20
   5   5   2   41.80    7.00
  -7  -5  -2  214.48   12.70
   7  -5   2  238.38   13.10
   7  -5   2  240.78   11.60
  -7  -5  -2  233.58   14.40
  -7  -5  -2  211.58   12.70
  -7   5  -2  223.58   11.20
   7   5   2  224.58   14.10
   7   5   2  246.68   15.60
   7   5   2  234.98   12.90
  -7   5  -2  239.98   13.50
   9  -5   2   31.60    6.90
  -9  -5  -2   41.30    6.80
  -9  -5  -2   48.10    7.80
   9  -5   2   36.40    5.40
   9   5   2   39.40    7.60
  -9   5  -2   35.90    5.30
   9   5   2   39.80    6.60
 -11  -5  -2   78.89    9.20
  11  -5   2   87.89    8.10
 -11   5  -2   82.59    8.00
  11   5   2   85.99   11.70
 -13  -5  -2   89.59   11.00
  13  -5   2   94.39    9.60
 -13   5  -2   91.99    9.90
  13   5   2  103.29   12.60
  15  -5   2   24.20    6.40
 -15  -5  -2   31.80    8.60
 -15   5  -2   24.10    7.10
  15   5   2   17.40    7.90
 -18  -6   2  390.66   23.80
  18  -6  -2  367.56   17.70
  18  -6  -2  368.86   21.60
  18   6  -2  297.67   25.10
 -16  -6   2  658.53   30.70
  16  -6  -2  631.94   25.10
  16  -6  -2  687.83   29.50
  16   6  -2  613.54   32.50
  14  -6  -2  757.52   28.60
 -14  -6   2  768.22   32.60
  14  -6  -2  817.02   32.30
  14   6  -2  824.12   36.30
  12  -6  -2 1105.99   38.50
  12  -6  -2 1171.28   42.20
 -12  -6   2 1166.68   41.20
  12  -6  -2 1125.19   40.90
  12   6  -2 1208.28   45.10
  12   6  -2 1128.19   38.90
 -10  -6   2  705.53   27.60
  10  -6  -2  754.62   28.70
  10  -6  -2  746.33   28.80
  10  -6  -2  712.83   27.00
 -10  -6   2  737.73   28.10
  10   6  -2  787.22   26.50
  10   6  -2  742.83   31.20
 -10   6   2  793.02   28.00
   8  -6  -2  809.12   29.00
  -8  -6   2  738.23   26.80
  -8  -6   2  824.32   28.60
   8  -6  -2  772.02   28.10
   8  -6  -2  837.72   29.00
   8   6  -2  770.92   25.90
   8   6  -2  777.92   30.20
  -8   6   2  794.92   28.70
   8   6  -2  767.82   30.60
  -8   6   2  745.13   30.00
   6  -6  -2 2312.47   69.39
   6  -6  -2 2336.17   70.09
  -6  -6   2 2423.46   69.69
  -6  -6   2 2110.09   66.19
   6  -6  -2 2247.98   69.99
  -6   6   2 2323.17   70.59
   6   6  -2 2258.77   71.29
  -6   6   2 2195.58   70.89
   6   6  -2 2316.47   71.29
   6   6  -2 2289.57   65.79
   4  -6  -2 2883.01   83.09
  -4  -6   2 2547.65   85.19
   4  -6  -2 2641.74   84.19
  -4  -6   2 2781.92   78.39
   4   6  -2 2863.41   84.29
  -4   6   2 2692.73   84.69
  -4   6   2 2794.32   84.19
   4   6  -2 3013.30   85.39
  -4   6   2 2967.90   85.69
   2  -6  -2 2427.46   76.29
   2  -6  -2 2482.95   73.49
  -2  -6   2 2225.38   75.29
   2   6  -2 2524.15   74.39
   2   6  -2 2575.84   75.49
  -2   6   2 2468.65   75.39
  -2   6   2 2446.26   75.59
  -2   6   2 2654.33   77.89
   0  -6  -2 2463.15   78.89
   0  -6  -2 2427.66   75.19
   0  -6   2 2167.18   75.69
   0  -6  -2 2590.74   77.69
   0   6  -2 2686.43   76.59
   0   6  -2 2592.84   75.69
   0   6   2 2744.93   80.49
   0   6  -2 2622.44   76.09
   0   6   2 2569.94   77.49
   0   6   2 2522.05   77.79
  -2  -6  -2 2238.28   71.39
  -2  -6  -2 2284.97   69.09
  -2  -6  -2 2233.08   67.39
   2  -6   2 2068.19   64.19
   2  -6   2 1965.50   65.99
   2   6   2 2214.28   69.89
  -2   6  -2 2257.67   67.89
   2   6   2 2331.47   72.39
  -2   6  -2 2401.96   66.59
   4  -6   2 1308.77   45.10
   4  -6   2 1432.16   46.50
  -4  -6  -2 1544.35   51.99
  -4  -6  -2 1476.95   49.30
  -4  -6  -2 1544.45   48.60
   4   6   2 1556.44   51.59
  -4   6  -2 1449.95   48.70
   4   6   2 1661.43   53.89
  -4   6  -2 1516.35   45.50
   4   6   2 1527.65   48.40
  -4   6  -2 1534.35   45.20
  -6  -6  -2 1244.48   42.00
   6  -6   2 1126.89   36.10
   6  -6   2 1212.38   39.60
  -6  -6  -2 1147.69   42.00
  -6  -6  -2 1256.37   45.10
   6  -6   2 1254.07   41.20
   6   6   2 1265.17   41.70
   6   6   2 1326.97   46.40
  -6   6  -2 1175.78   42.10
   6   6   2 1234.78   44.90
  -6   6  -2 1242.98   39.20
  -8  -6  -2 1547.85   54.09
   8  -6   2 1506.45   48.30
  -8  -6  -2 1521.75   51.09
   8  -6   2 1511.35   50.79
  -8   6  -2 1452.65   48.10
   8   6   2 1462.35   53.89
   8   6   2 1514.95   50.49
 -10  -6  -2  659.93   28.20
  10  -6   2  631.14   25.30
  10  -6   2  635.44   30.90
  10   6   2  627.54   30.60
 -10   6  -2  713.53   26.40
 -12  -6  -2  114.39   12.00
  12  -6   2  109.39    9.90
  12   6   2  122.29   14.20
 -12   6  -2  128.89   10.40
  14  -6   2  188.38   13.40
 -14  -6  -2  195.38   16.00
  14   6   2  162.78   17.40
 -14   6  -2  165.88   13.50
  17  -7  -2  326.47   19.60
  17  -7  -2  304.17   16.00
 -17  -7   2  329.67   21.20
  15  -7  -2  305.07   15.50
 -15  -7   2  324.97   19.20
  15  -7  -2  315.17   18.30
  15   7  -2  310.87   22.00
  13  -7  -2  563.94   25.80
 -13  -7   2  622.74   26.60
  13  -7  -2  608.14   23.80
  13   7  -2  606.34   24.70
  13   7  -2  602.84   30.40
  11  -7  -2 1850.01   60.29
  11  -7  -2 1888.61   60.29
  11  -7  -2 1759.32   57.79
 -11  -7   2 1911.91   59.59
  11   7  -2 1810.22   57.19
  11   7  -2 1762.22   64.09
  -9  -7   2 2055.29   64.89
   9  -7  -2 2131.29   66.99
   9  -7  -2 2148.69   66.49
   9  -7  -2 2208.38   67.59
  -9  -7   2 2091.49   66.69
   9   7  -2 2087.89   63.59
  -9   7   2 2135.69   66.99
   9   7  -2 2092.99   70.29
  -7  -7   2 2049.99   63.99
   7  -7  -2 2090.09   63.89
  -7  -7   2 1990.20   60.69
   7  -7  -2 1952.70   64.09
   7  -7  -2 2072.29   64.49
   7   7  -2 2056.79   60.09
  -7   7   2 2107.29   65.39
  -7   7   2 1934.61   65.99
   7   7  -2 2096.29   66.69
   7   7  -2 2070.19   66.49
   5  -7  -2 1391.46   44.30
   5  -7  -2 1321.77   45.80
  -5  -7   2 1298.47   39.80
  -5   7   2 1318.27   46.50
   5   7  -2 1421.86   46.30
  -5   7   2 1368.46   45.70
  -5   7   2 1402.06   46.80
   5   7  -2 1384.96   47.00
  -3  -7   2  885.31   35.00
   3  -7  -2  946.01   35.20
  -3   7   2  959.90   35.10
  -3   7   2  964.60   35.90
  -3   7   2  969.50   34.50
   3   7  -2 1014.30   35.20
   3   7  -2 1001.90   34.10
  -1  -7   2 1315.17   46.60
   1  -7  -2 1358.36   48.10
   1  -7  -2 1379.36   44.20
   1   7  -2 1408.06   45.50
  -1   7   2 1422.06   47.20
  -1   7   2 1490.05   49.90
   1   7  -2 1382.46   45.60
   1   7  -2 1477.55   46.80
  -1   7   2 1363.26   47.00
   1  -7   2 1385.46   39.90
  -1  -7  -2 1374.26   48.40
   1  -7   2 1242.68   44.50
  -1  -7  -2 1393.56   44.10
  -1  -7  -2 1364.76   46.30
   1   7   2 1326.37   46.00
   1   7   2 1361.76   46.90
  -1   7  -2 1363.76   45.30
   1   7   2 1491.35   49.90
  -1   7  -2 1412.66   44.80
  -3  -7  -2 1020.40   34.90
   3  -7   2  955.80   33.90
  -3  -7  -2 1026.50   36.70
   3  -7   2  982.70   32.30
  -3  -7  -2 1059.09   39.40
   3   7   2 1031.70   39.80
  -3   7  -2 1073.49   34.10
  -3   7  -2 1013.90   36.20
   3   7   2 1045.30   38.60
  -5  -7  -2  477.95   23.00
   5  -7   2  461.55   18.70
   5  -7   2  439.86   17.10
  -5  -7  -2  484.85   19.90
  -5   7  -2  457.25   16.80
   5   7   2  494.75   23.20
   5   7   2  436.26   19.40
  -5   7  -2  453.55   21.20
   7  -7   2  415.56   18.10
  -7  -7  -2  465.65   23.30
  -7  -7  -2  423.76   19.90
   7  -7   2  460.05   20.00
   7   7   2  416.56   22.80
   7   7   2  440.76   20.00
  -7   7  -2  428.06   17.70
  -9  -7  -2  824.52   32.60
  -9  -7  -2  860.21   36.00
   9  -7   2  815.12   33.10
   9  -7   2  823.32   30.10
   9   7   2  790.82   36.20
  -9   7  -2  808.22   30.10
 -11  -7  -2  603.04   27.40
  11  -7   2  587.34   24.10
 -11   7  -2  570.14   24.60
  11   7   2  562.44   30.40
  13  -7   2  468.75   21.80
 -13  -7  -2  492.55   25.60
  13   7   2  437.36   28.20
 -13   7  -2  467.85   23.00
 -14  -8   2   16.10    6.50
  14  -8  -2   17.20    6.10
  14  -8  -2   14.30    5.10
  14   8  -2   16.40    7.40
  12  -8  -2   77.89    9.30
 -12  -8   2   80.09    8.80
  12  -8  -2   70.39    8.00
  12   8  -2   67.99    8.20
  12   8  -2   87.89   12.20
  10  -8  -2   46.70    7.80
  10  -8  -2   40.70    7.10
 -10  -8   2   45.60    6.30
  10  -8  -2   42.30    6.40
 -10   8   2   29.60    6.40
  10   8  -2   26.60    7.00
  10   8  -2   39.90    5.30
   8  -8  -2   82.19    8.60
   8  -8  -2   72.59    7.80
  -8  -8   2   91.09    9.50
  -8  -8   2   85.39    6.50
   8  -8  -2   86.79    8.20
  -8   8   2   98.69    9.90
   8   8  -2   86.29    9.40
   6  -8  -2  320.37   15.50
   6  -8  -2  324.07   16.70
  -6  -8   2  336.77   12.00
   6   8  -2  332.57   17.40
  -6   8   2  313.57   17.70
  -6   8   2  307.87   16.40
  -4  -8   2   59.99    8.60
   4  -8  -2   56.59    6.50
   4  -8  -2   82.79    8.30
   4   8  -2   55.49    6.80
   4   8  -2   49.50    7.60
  -4   8   2   67.89    9.30
  -4   8   2   55.59    6.90
   2  -8  -2   95.29    9.30
  -2  -8   2   88.49    8.90
   2  -8  -2   89.09    6.80
  -2   8   2   87.79   10.20
   2   8  -2  101.39    8.90
  -2   8   2   94.79    8.40
   2   8  -2   90.99    9.20
   0  -8  -2   68.79    6.10
   0  -8  -2   65.89    8.20
   0  -8   2   57.59    7.30
   0   8  -2   56.69    6.40
   0   8  -2   66.89    7.70
   0   8  -2   67.39    8.30
   0   8   2   73.29    7.80
   0   8   2   57.59    9.30
  -2  -8  -2   14.00    5.10
  -2  -8  -2   18.00    4.00
   2  -8   2   21.20    2.90
   2  -8   2   17.70    4.30
  -2   8  -2    7.10    4.50
  -2   8  -2   14.90    4.00
  -2   8  -2   21.00    4.70
   2   8   2   29.90    5.90
   4  -8   2   82.49    6.60
  -4  -8  -2   86.19    9.60
   4  -8   2   74.99    7.00
  -4  -8  -2   84.79    7.40
  -4   8  -2   74.89    7.20
   4   8   2   82.99    9.50
   6  -8   2   26.40    5.40
  -6  -8  -2   19.30    5.80
  -6  -8  -2   22.60    5.40
   6  -8   2   20.60    3.80
   6   8   2   22.70    6.40
  -6   8  -2   21.20    3.90
   8  -8   2  112.59   11.70
  -8  -8  -2  117.69   10.30
  -8  -8  -2  120.49   12.40
   8   8   2  111.79   13.10
 -10  -8  -2  176.88   13.30
  10  -8   2  162.58   11.50
  10   8   2  175.98   16.60
 -12  -8  -2   15.00    6.60
  12  -8   2   24.20    6.10
  12   8   2   27.90    9.60
  13  -9  -2  440.36   22.20
 -13  -9   2  464.65   21.40
  13  -9  -2  393.96   19.80
  13   9  -2  386.26   26.10
 -11  -9   2  698.83   25.70
  11  -9  -2  627.94   26.50
  11  -9  -2  626.04   27.50
  11   9  -2  643.74   31.90
 -11   9   2  641.04   28.00
  11   9  -2  616.24   24.30
   9  -9  -2 1201.98   43.70
   9  -9  -2 1233.78   43.70
  -9  -9   2 1327.07   40.40
   9   9  -2 1223.38   47.70
  -9   9   2 1198.48   44.70
   7  -9  -2 1161.38   42.90
  -7  -9   2 1221.68   36.20
   7  -9  -2 1172.88   40.80
  -7   9   2 1182.68   43.30
  -7   9   2 1172.58   44.00
   7   9  -2 1175.08   44.50
   5  -9  -2  825.52   33.50
   5  -9  -2  835.82   30.50
  -5   9   2  844.82   33.20
   5   9  -2  849.12   33.60
  -5   9   2  882.11   35.40
  -3  -9   2 1226.78   47.90
   3  -9  -2 1372.96   43.70
   3  -9  -2 1320.27   43.80
   3  -9  -2 1385.76   48.90
   3   9  -2 1339.67   46.80
  -3   9   2 1373.36   47.70
   3   9  -2 1344.17   50.69
  -1  -9   2 1822.62   61.69
   1  -9  -2 1860.81   57.29
   1  -9  -2 1851.61   63.29
  -1   9   2 1790.72   61.49
   1   9  -2 1816.12   60.09
   1   9  -2 1874.41   61.29
  -1  -9  -2 2265.77   69.19
   1  -9   2 2296.57   72.69
  -1  -9  -2 2296.67   75.99
  -1   9  -2 2309.37   72.39
   1   9   2 2160.18   73.69
  -1   9  -2 2243.98   71.89
   3  -9   2 1932.31   63.29
   3  -9   2 2055.99   57.99
  -3  -9  -2 1933.81   68.09
  -3  -9  -2 1970.00   61.99
  -3   9  -2 1981.50   64.39
  -3   9  -2 2037.50   63.39
   3   9   2 1947.51   67.39
  -5  -9  -2 1060.19   41.80
   5  -9   2  989.60   33.50
   5  -9   2  932.71   34.40
  -5  -9  -2 1073.19   36.30
   5   9   2  987.10   41.10
  -5   9  -2 1009.80   34.80
   7  -9   2  677.53   26.40
  -7  -9  -2  664.53   31.90
  -7  -9  -2  719.13   27.50
  -7   9  -2  600.54   22.60
   7   9   2  655.23   32.20
  -9  -9  -2  753.92   30.80
  -9  -9  -2  776.72   35.70
   9  -9   2  768.42   32.00
   9   9   2  700.73   36.30
  12 -10  -2  399.26   20.40
 -12 -10   2  430.16   19.20
  12  10  -2  348.17   24.80
 -10 -10   2  613.74   22.40
  10 -10  -2  581.44   26.10
  10  10  -2  572.84   29.90
 -10  10   2  574.24   27.60
   8 -10  -2  544.35   24.30
  -8 -10   2  562.84   18.80
   8 -10  -2  527.15   25.10
   8  10  -2  550.04   27.70
  -8  10   2  556.34   26.10
   6 -10  -2  563.34   23.90
   6 -10  -2  590.74   27.10
  -6  10   2  622.94   27.20
   6  10  -2  594.84   27.60
   4 -10  -2 1057.89   36.30
   4 -10  -2 1061.79   36.60
   4 -10  -2 1086.79   41.70
   4  10  -2 1051.89   40.50
  -4  10   2 1036.30   40.50
   2 -10  -2  952.10   34.20
   2 -10  -2 1016.90   34.30
  -2 -10   2 1025.20   39.80
   2 -10  -2 1013.80   40.10
   2  10  -2  999.40   38.30
  -2  10   2  964.90   38.80
   0 -10   2  756.22   32.10
   0 -10  -2  811.02   28.30
   0 -10  -2  783.92   34.10
   0  10  -2  770.32   32.70
   0  10  -2  763.32   31.40
   0  10   2  789.22   33.10
  -2 -10  -2  961.30   39.10
  -2 -10  -2  934.81   32.30
   2 -10   2  898.31   35.10
   2  10   2  919.51   37.70
  -2  10  -2  925.91   35.70
  -2  10  -2  874.91   35.40
  -4 -10  -2  799.12   35.30
   4 -10   2  811.02   24.90
  -4 -10  -2  774.62   28.80
   4 -10   2  747.13   29.70
  -4  10  -2  779.32   30.50
  -4  10  -2  713.03   31.20
   4  10   2  761.12   34.50
  -6 -10  -2  651.53   26.10
  -6 -10  -2  669.03   32.30
  -6  10  -2  633.64   24.90
   6  10   2  606.94   31.60
  -8 -10  -2  522.55   23.90
  -8 -10  -2  537.35   29.40
   8  10   2  548.45   30.70
   9 -11  -2    6.90    6.40
  -9  11   2    2.40    5.80
   9  11  -2   -3.00    5.80
   7 -11  -2    9.80    6.30
   7 -11  -2   12.20    7.40
  -7  11   2   14.80    5.90
   7  11  -2    4.00    5.80
   5 -11  -2   -3.70    5.40
   5 -11  -2    6.30    4.20
   5 -11  -2    4.10    5.50
   5  11  -2    9.20    5.50
  -5  11   2    4.90    4.60
   3 -11  -2    6.50    4.00
   3 -11  -2    2.50    5.40
   3 -11  -2    9.10    5.80
   3  11  -2   17.60    5.90
  -3  11   2   13.30    5.70
   1 -11  -2    4.50    5.30
   1 -11  -2    6.40    4.10
   1 -11  -2   -0.60    5.20
   1  11  -2    5.90    5.20
  -1  11   2    2.00    5.00
  -1 -11  -2    8.70    5.40
  -1 -11  -2   15.50    4.30
  -1  11  -2   11.50    5.30
   1  11   2   10.50    5.50
  -3 -11  -2    2.40    5.40
  -3 -11  -2    6.70    4.30
  -3  11  -2   -1.90    4.80
  -3  11  -2   15.70    8.70
   3  11   2    0.40    5.50
  -5 -11  -2    8.40    4.80
  -5 -11  -2    4.20    6.60
   5  11   2   10.10    6.80
  -5  11  -2    9.20    6.20
   4 -12  -2  473.15   25.20
   4 -12  -2  462.65   19.40
   4  12  -2  410.16   23.90
   2 -12  -2  788.12   27.10
   2 -12  -2  733.43   34.20
  -2  12   2  673.73   33.10
   2  12  -2  752.82   33.70
   0 -12  -2  827.12   27.40
   0 -12  -2  764.72   35.50
   0  12   2  695.83   34.40
   0  12  -2  694.53   33.10
 -20   0   3    4.80    5.80
  20   0  -3    4.00    6.00
 -18   0   3   -0.60    4.00
  18   0  -3    9.60    5.00
 -16   0   3    3.10    3.50
  16   0  -3    1.30    3.40
 -14   0   3   -1.00    2.20
  14   0  -3    0.90    2.80
  14   0  -3    0.40    2.70
 -14   0   3    5.00    3.80
 -12   0   3    3.50    2.20
 -12   0   3    4.30    2.60
  12   0  -3    2.70    2.20
  12   0  -3    2.90    2.30
  10   0  -3    8.10    2.50
 -10   0   3    3.60    2.20
 -10   0   3    4.20    2.10
  10   0  -3    5.40    2.20
  -8   0   3    8.50    2.10
   8   0  -3    2.60    1.40
   8   0  -3    3.60    1.60
  -8   0   3    5.70    1.90
   6   0  -3   16.80    2.50
   6   0  -3    3.60    1.30
   4   0  -3    4.90    1.30
  -4   0   3    5.50    0.90
   4   0  -3    6.10    1.00
   2   0  -3    4.10    1.10
   2   0  -3    6.90    0.60
   2   0  -3    5.10    0.60
  -2   0   3    2.70    1.00
   0   0   3    5.90    0.80
   0   0  -3    8.60    1.80
   0   0  -3    6.50    1.10
   0   0   3    5.40    1.30
   0   0   3    5.90    1.70
   0   0  -3   10.00    1.60
  -2   0  -3    5.40    1.70
  -2   0  -3   11.90    2.00
   2   0   3   11.30    1.90
  -2   0  -3    8.00    1.70
   2   0   3    9.00    2.30
   2   0   3    9.50    1.70
   4   0   3    6.50    1.90
   4   0   3    7.60    2.10
  -4   0  -3    7.30    2.10
  -4   0  -3    5.00    2.00
   4   0   3    2.40    2.00
  -4   0  -3    4.20    1.60
  -6   0  -3    1.70    2.10
  -6   0  -3   10.10    2.90
   6   0   3    3.70    2.30
   6   0   3    3.90    2.70
   6   0   3    2.30    1.80
   8   0   3    5.70    2.70
   8   0   3    1.20    3.20
  -8   0  -3    0.30    2.40
   8   0   3    7.20    3.30
  -8   0  -3    0.90    3.00
  10   0   3    0.60    3.10
  10   0   3    2.90    3.90
 -10   0  -3    2.90    2.80
 -12   0  -3   10.20    4.50
  12   0   3    2.00    3.80
  12   0   3    0.80    5.40
  14   0   3   -9.80    7.40
  14   0   3   -0.80    4.90
 -14   0  -3    1.00    4.70
  16   0   3    3.20    6.40
 -16   0  -3    1.70    7.20
  21  -1  -3  165.68   14.80
  21  -1  -3  156.58   16.00
 -21  -1   3  139.79   16.40
  21   1  -3  174.08   17.00
 -21   1   3  167.68   16.50
  19  -1  -3  462.65   23.60
 -19  -1   3  504.35   27.00
  19  -1  -3  499.25   25.80
  19   1  -3  497.45   26.00
 -19   1   3  469.35   25.80
  17  -1  -3  561.54   26.50
 -17  -1   3  559.54   27.30
  17  -1  -3  595.84   25.90
  17   1  -3  565.34   27.00
 -17   1   3  592.34   27.30
  15  -1  -3  600.34   25.80
 -15  -1   3  607.84   26.30
  15   1  -3  567.94   25.60
 -15   1   3  578.14   25.50
  15   1  -3  569.34   23.50
 -13  -1   3  970.50   35.60
  13  -1  -3  956.00   35.30
  13  -1  -3  953.90   34.10
 -13  -1   3 1000.20   34.70
  13   1  -3  981.80   33.70
  13   1  -3  944.21   35.50
 -13   1   3  991.80   35.60
 -13   1   3 1013.80   35.40
 -11  -1   3 1372.26   43.60
  11  -1  -3 1395.36   43.70
  11  -1  -3 1356.56   44.50
 -11  -1   3 1280.47   44.10
  11   1  -3 1367.86   44.70
 -11   1   3 1303.27   44.20
 -11   1   3 1366.26   44.30
  11   1  -3 1368.46   42.80
   9  -1  -3 4452.35  125.19
  -9  -1   3 4405.76  124.79
  -9  -1   3 4228.58  125.49
   9  -1  -3 4352.16  125.69
   9  -1  -3 4350.66  125.89
  -9   1   3 4404.76  125.59
   9   1  -3 4338.97  124.19
   9   1  -3 4392.26  125.79
  -9   1   3 4295.87  125.79
  -7  -1   3 5159.48  150.98
  -7  -1   3 5428.06  150.28
   7  -1  -3 5401.96  151.98
   7  -1  -3 5430.56  151.38
   7  -1  -3 5325.57  151.18
  -7   1   3 5361.36  151.08
   7   1  -3 5362.36  150.28
   7   1  -3 5303.07  150.98
   5  -1  -3 3805.02  109.49
  -5  -1   3 3873.11  106.99
   5  -1  -3 3853.41  108.39
   5   1  -3 3866.51  107.59
  -5   1   3 3802.92  108.19
   5   1  -3 3760.02  107.79
  -5   1   3 3878.11  109.59
   3  -1  -3 2675.03   73.69
   3  -1  -3 2621.84   73.49
  -3   1   3 2571.04   73.39
  -3   1   3 2558.24   75.09
  -3   1   3 2575.44   73.49
   1  -1  -3   35.30    2.40
  -1  -1   3   30.30    2.60
   1  -1  -3   34.40    2.90
   1  -1  -3   27.50    2.90
  -1   1   3   42.00    2.50
  -1   1   3   27.30    2.80
   1   1  -3   39.20    2.80
  -1   1   3   45.50    2.50
   1   1  -3   38.70    2.50
   1  -1   3 4172.78  110.09
  -1  -1  -3 4013.60  112.09
  -1  -1  -3 3766.92  112.69
   1  -1   3 3718.83  113.09
  -1  -1  -3 3813.82  113.69
   1  -1   3 4295.77  110.59
   1   1   3 3884.21  113.09
  -1   1  -3 3930.81  110.49
  -1   1  -3 4058.79  111.19
  -1   1  -3 3900.21  112.49
   1   1   3 4062.69  111.99
   1   1   3 3971.50  114.09
   3  -1   3 6022.40  172.08
   3  -1   3 5916.21  167.88
  -3  -1  -3 5832.82  170.98
  -3  -1  -3 6289.07  170.88
   3  -1   3 6180.48  169.28
  -3  -1  -3 5805.92  171.88
   3   1   3 6063.59  171.58
   3   1   3 6118.49  170.58
  -3   1  -3 5872.31  170.78
  -3   1  -3 6058.99  170.18
  -3   1  -3 6377.86  167.78
  -5  -1  -3  402.96   17.60
  -5  -1  -3  375.96   16.00
   5  -1   3  424.76   14.70
   5  -1   3  447.16   18.30
   5  -1   3  435.06   16.10
  -5  -1  -3  437.06   17.20
   5   1   3  467.15   18.70
   5   1   3  446.06   17.20
  -5   1  -3  466.15   17.20
  -5   1  -3  430.46   17.10
   5   1   3  427.36   17.70
   7  -1   3  519.15   19.90
   7  -1   3  521.65   18.50
  -7  -1  -3  498.65   20.70
  -7  -1  -3  490.75   21.10
   7  -1   3  530.35   22.10
  -7   1  -3  545.35   21.10
   7   1   3  520.95   21.30
  -7   1  -3  497.45   20.50
   7   1   3  519.35   20.80
  -9  -1  -3  544.65   23.40
   9  -1   3  551.04   20.90
  -9  -1  -3  555.34   24.10
   9  -1   3  566.74   22.50
  -9   1  -3  570.44   23.40
   9   1   3  578.14   24.20
   9   1   3  554.24   23.20
  -9   1  -3  563.04   23.70
   9   1   3  546.35   24.90
  11  -1   3  515.95   22.40
 -11  -1  -3  513.75   24.00
  11  -1   3  501.05   20.70
  11   1   3  502.35   23.10
  11   1   3  505.95   23.70
 -11   1  -3  523.65   23.40
 -13  -1  -3  618.24   29.20
  13  -1   3  638.14   27.40
  13  -1   3  611.84   25.40
  13   1   3  652.13   29.30
 -13   1  -3  631.04   28.60
  13   1   3  614.74   27.90
  15  -1   3  240.28   16.60
 -15  -1  -3  229.18   17.90
  15   1   3  346.07   34.30
 -15   1  -3  219.68   17.00
  15   1   3  241.38   17.50
  20  -2  -3  321.67   20.80
  20  -2  -3  323.57   19.40
 -20  -2   3  317.37   22.60
  20   2  -3  316.87   21.90
 -20   2   3  344.07   21.70
 -18  -2   3  326.27   20.50
  18  -2  -3  315.17   19.10
  18  -2  -3  317.47   17.90
  18   2  -3  299.47   19.50
 -18   2   3  339.47   19.80
  16  -2  -3 1022.90   39.00
 -16  -2   3 1033.40   40.20
  16  -2  -3 1009.70   37.20
  16   2  -3  996.10   39.70
 -16   2   3 1004.60   38.90
 -14  -2   3 1300.47   46.70
 -14  -2   3 1341.77   45.00
  14  -2  -3 1333.37   46.10
  14  -2  -3 1325.97   44.80
 -14   2   3 1314.07   46.30
  14   2  -3 1307.27   44.30
 -14   2   3 1326.77   46.00
  14   2  -3 1345.97   44.00
  14   2  -3 1290.57   46.60
  12  -2  -3 1478.95   47.50
  12  -2  -3 1449.85   47.30
 -12  -2   3 1493.25   47.10
  12  -2  -3 1471.65   48.20
 -12  -2   3 1343.17   47.90
 -12   2   3 1442.36   48.10
  12   2  -3 1463.35   46.10
 -12   2   3 1501.85   48.70
  12   2  -3 1448.16   48.70
 -10  -2   3 2266.07   68.09
  10  -2  -3 2253.57   68.99
 -10  -2   3 2209.98   69.09
  10  -2  -3 2338.37   69.09
  10  -2  -3 2268.17   69.39
  10   2  -3 2305.77   69.69
  10   2  -3 2243.78   67.29
 -10   2   3 2336.77   69.69
 -10   2   3 2253.57   69.29
   8  -2  -3  938.91   31.00
   8  -2  -3  930.91   30.80
  -8  -2   3  921.31   30.40
  -8  -2   3  949.11   29.80
   8  -2  -3  956.00   31.00
   8   2  -3  944.71   29.30
   8   2  -3  911.21   30.70
   6  -2  -3 2483.55   73.49
  -6  -2   3 2438.66   71.89
   6  -2  -3 2463.05   72.89
  -6  -2   3 2496.85   71.29
   6  -2  -3 2495.85   73.19
   6   2  -3 2452.15   72.19
  -6   2   3 2577.24   73.89
  -6   2   3 2594.84   73.19
   6   2  -3 2489.05   71.19
  -4   2   3 5817.02  166.78
  -4   2   3 5992.60  165.68
   2  -2  -3 2223.58   63.39
   2  -2  -3 2149.98   64.19
   2  -2  -3 2217.68   62.79
  -2   2   3 2161.58   64.39
  -2   2   3 2238.08   63.29
  -2   2   3 2118.59   62.69
   2   2  -3 2127.39   61.59
   0  -2   3 2574.94   76.59
   0  -2  -3 2527.35   78.19
   0  -2  -3 2773.12   77.19
   0   2   3 2692.13   78.59
   0   2  -3 2755.22   75.09
   0   2   3 2655.73   77.09
   0   2  -3 2690.03   75.99
   0   2   3 2686.73   78.79
   0   2  -3 2726.43   75.09
  -2  -2  -3 2989.10   84.49
  -2  -2  -3 2817.52   85.69
   2  -2   3 2809.12   84.69
   2  -2   3 2993.80   81.99
  -2  -2  -3 2756.42   85.59
   2   2   3 2986.00   86.09
   2   2   3 2919.31   86.29
   2   2   3 2976.60   84.79
  -2   2  -3 2968.70   83.39
  -2   2  -3 2894.31   83.49
  -4  -2  -3 2108.29   64.19
  -4  -2  -3 1976.10   63.99
   4  -2   3 2140.99   64.09
  -4  -2  -3 2110.09   63.09
   4  -2   3 2147.49   61.29
   4   2   3 2047.00   63.39
  -4   2  -3 2003.60   62.09
   4   2   3 2018.20   64.89
  -4   2  -3 2162.58   62.59
   4   2   3 2215.58   64.99
   6  -2   3 1153.48   36.40
  -6  -2  -3 1018.20   38.40
   6  -2   3 1196.68   39.30
  -6  -2  -3 1159.88   38.10
  -6  -2  -3 1134.49   37.90
   6   2   3 1085.99   39.30
   6   2   3 1269.47   40.10
  -6   2  -3 1091.19   37.00
   6   2   3 1121.69   38.40
  -6   2  -3 1160.78   38.00
  -8  -2  -3 1132.09   41.50
   8  -2   3 1178.68   39.30
   8  -2   3 1222.28   42.40
  -8  -2  -3 1210.08   41.00
   8  -2   3 1210.88   35.70
  -8   2  -3 1177.58   40.20
   8   2   3 1258.07   42.60
   8   2   3 1172.48   41.40
  -8   2  -3 1189.78   41.20
   8   2   3 1184.98   42.50
  10  -2   3  691.43   26.60
 -10  -2  -3  653.23   28.70
  10  -2   3  694.93   23.20
  10   2   3  731.23   30.10
 -10   2  -3  699.13   27.60
  10   2   3  681.33   28.40
  12  -2   3  223.48   11.00
  12  -2   3  220.48    9.90
 -12  -2  -3  222.78   15.40
  12  -2   3  206.58   13.40
 -12   2  -3  233.18   14.80
  12   2   3  220.38   16.90
  12   2   3  201.38   14.60
  14  -2   3  187.58    9.80
 -14  -2  -3  200.78   15.80
  14  -2   3  197.48   14.10
  14   2   3  173.58   14.80
 -14   2  -3  175.88   14.30
  19  -3  -3    6.10    4.90
  19  -3  -3    0.50    5.30
 -19  -3   3    4.40    6.60
  19   3  -3    6.70    6.10
 -19   3   3    0.50    4.90
 -17  -3   3   64.69   10.00
  17  -3  -3   65.79    8.50
  17  -3  -3   79.19    9.80
  17   3  -3   93.19   10.90
 -17   3   3   68.89    9.60
  15  -3  -3   76.19    8.40
 -15  -3   3   90.19    9.40
  15  -3  -3   72.89    7.60
  15   3  -3   96.39   10.00
 -15   3   3   77.99    8.40
 -13  -3   3   63.39    7.20
  13  -3  -3   78.09    7.00
  13  -3  -3   69.49    7.20
 -13  -3   3   71.99    7.30
  13  -3  -3   74.09    7.40
  13   3  -3   70.99    8.00
  13   3  -3   69.79    6.50
 -13   3   3   67.09    6.80
  13   3  -3   69.29    7.30
 -13   3   3   73.29    8.50
 -11  -3   3  374.76   16.10
  11  -3  -3  383.96   17.00
 -11  -3   3  375.86   17.00
  11  -3  -3  373.26   17.10
  11  -3  -3  368.46   16.30
 -11   3   3  382.96   17.10
  11   3  -3  394.06   15.50
  11   3  -3  405.06   18.00
 -11   3   3  404.36   18.10
  11   3  -3  394.16   16.90
   9  -3  -3  368.66   15.20
   9  -3  -3  349.87   15.00
   9  -3  -3  351.46   15.20
  -9  -3   3  342.47   14.00
  -9  -3   3  332.37   14.50
   9   3  -3  350.06   14.80
  -9   3   3  353.76   15.60
   9   3  -3  366.96   15.60
   9   3  -3  349.96   13.20
   7  -3  -3   50.19    4.60
  -7  -3   3   61.49    4.30
   7  -3  -3   53.69    4.60
  -7  -3   3   55.29    4.10
   7  -3  -3   53.79    4.70
   7   3  -3   54.79    3.50
   7   3  -3   58.89    4.60
   7   3  -3   65.69    4.90
  -7   3   3   58.29    5.10
  -7   3   3   58.29    5.00
   5  -3  -3  400.86   14.60
   5  -3  -3  380.26   15.10
  -5  -3   3  391.86   13.00
   5   3  -3  335.47   11.70
   5   3  -3  359.36   13.80
  -5   3   3  390.76   15.40
  -5   3   3  383.36   14.70
   5   3  -3  380.26   13.80
   3  -3  -3 1440.76   40.30
   3   3  -3 1201.58   36.80
   3   3  -3 1338.97   38.50
  -3   3   3 1284.67   40.20
   3   3  -3 1296.67   39.10
  -3   3   3 1352.76   40.60
   3   3  -3 1310.77   37.00
  -3   3   3 1294.87   41.60
   1  -3  -3  139.99    7.90
   1  -3  -3  140.59    7.40
   1  -3  -3  154.78    7.90
  -1  -3   3  136.89    5.50
  -1   3   3  150.78    7.60
  -1   3   3  148.09    8.50
   1   3  -3  133.19    5.00
   1   3  -3  146.39    5.90
  -1   3   3  135.89    7.10
  -1  -3  -3    5.10    2.10
  -1  -3  -3    1.80    1.50
  -1  -3  -3    6.80    2.00
   1  -3   3    6.20    1.70
  -1   3  -3    6.50    1.60
   1   3   3    5.10    2.40
   1   3   3   11.60    2.50
   1   3   3    3.30    1.70
  -1   3  -3    4.80    1.20
  -1   3  -3    3.70    0.90
   3  -3   3   40.20    4.30
   3  -3   3   46.70    3.30
  -3  -3  -3   41.10    4.60
  -3  -3  -3   46.00    4.50
  -3  -3  -3   41.30    5.00
   3   3   3   39.10    4.70
   3   3   3   46.60    5.70
  -3   3  -3   44.90    4.10
   3   3   3   44.10    4.70
  -3   3  -3   32.50    3.10
  -5  -3  -3    5.60    2.70
  -5  -3  -3    1.00    2.20
   5  -3   3    2.20    1.60
   5  -3   3    7.60    2.90
  -5  -3  -3    0.10    1.60
  -5   3  -3    3.80    1.80
   5   3   3    3.30    2.10
   5   3   3    8.30    3.50
  -5   3  -3    3.00    2.20
   5   3   3    5.30    2.70
  -7  -3  -3   37.00    5.50
  -7  -3  -3   42.80    6.40
   7  -3   3   32.20    5.80
  -7  -3  -3   37.90    5.90
   7  -3   3   36.60    4.40
   7   3   3   33.60    5.80
   7   3   3   49.99    7.60
   7   3   3   29.50    5.40
  -7   3  -3   42.40    6.10
  -7   3  -3   35.30    4.30
   9  -3   3   96.49    7.60
   9  -3   3  102.79   10.40
  -9  -3  -3   88.79    8.80
   9   3   3   98.29    9.40
   9   3   3  119.99   11.70
  -9   3  -3  109.99   10.30
  -9   3  -3  101.19    8.00
 -11  -3  -3   12.10    4.90
  11  -3   3    6.00    3.50
  11   3   3    7.10    4.30
 -11   3  -3    5.80    3.40
  11   3   3   21.30    7.80
 -13  -3  -3   -1.30    4.50
  13  -3   3    2.40    4.10
  13   3   3    3.50    5.10
 -13   3  -3   -2.50    3.80
  15  -3   3    6.90    5.90
 -15  -3  -3   30.00    8.40
 -15   3  -3   10.90    5.90
  15   3   3   19.60    7.50
  20  -4  -3  248.98   18.60
  20  -4  -3  265.37   16.60
 -20  -4   3  252.97   20.60
 -20   4   3  243.98   18.20
  20   4  -3  206.78   19.80
 -18  -4   3  526.05   28.00
  18  -4  -3  528.95   23.90
  18  -4  -3  565.64   27.10
  18   4  -3  562.54   29.40
 -18   4   3  548.05   26.70
  16  -4  -3  425.86   19.80
  16  -4  -3  459.15   22.00
 -16  -4   3  394.16   22.20
  16   4  -3  443.96   23.80
 -16   4   3  437.56   21.70
 -14  -4   3  627.04   25.30
  14  -4  -3  612.74   26.00
 -14  -4   3  575.54   26.20
  14  -4  -3  628.44   24.60
  14   4  -3  633.54   28.00
  14   4  -3  600.74   23.90
 -14   4   3  619.14   25.90
  12  -4  -3 1194.68   41.10
 -12  -4   3 1195.98   39.80
  12  -4  -3 1183.98   39.80
 -12  -4   3 1102.59   40.70
  12  -4  -3 1180.68   41.00
 -12   4   3 1227.88   42.50
  12   4  -3 1205.48   42.80
  12   4  -3 1167.58   38.50
  12   4  -3 1192.58   41.00
  10  -4  -3  963.60   33.40
 -10  -4   3  882.71   32.40
  10  -4  -3  948.91   32.70
  10  -4  -3  942.91   33.40
 -10  -4   3  939.21   31.90
  10   4  -3  963.00   33.20
  10   4  -3  969.60   30.90
  10   4  -3  987.40   34.60
 -10   4   3  993.40   34.70
   8  -4  -3 1130.69   37.80
   8  -4  -3 1157.48   37.90
  -8  -4   3 1066.39   36.00
   8  -4  -3 1142.09   37.80
  -8  -4   3 1180.28   36.50
   8   4  -3 1116.99   38.00
   8   4  -3 1168.68   37.70
   8   4  -3 1154.38   34.80
  -8   4   3 1150.58   38.50
  -8   4   3 1178.38   38.20
   6  -4  -3 3663.23  100.99
  -6  -4   3 3366.96   97.49
   6  -4  -3 3445.26  100.49
   6  -4  -3 3388.56  100.99
  -6  -4   3 3456.55   98.79
   6   4  -3 3343.87   96.59
  -6   4   3 3610.74  101.59
   6   4  -3 3318.37   99.79
  -6   4   3 3465.35  101.09
   6   4  -3 3415.86  100.19
   4  -4  -3 2871.91   81.19
   4  -4  -3 2654.33   81.99
   4   4  -3 2802.22   80.49
  -4   4   3 2640.44   82.39
  -4   4   3 2801.52   81.49
   4   4  -3 2863.41   80.19
  -4   4   3 2705.63   81.39
   2  -4  -3 1146.19   38.90
   2  -4  -3 1164.18   37.80
   2  -4  -3 1216.48   38.40
  -2   4   3 1165.88   39.50
  -2   4   3 1215.08   38.30
  -2   4   3 1197.18   37.80
   2   4  -3 1192.38   36.40
   0  -4   3 2638.14   79.69
   0  -4  -3 2796.42   83.29
   0  -4  -3 2750.32   84.69
   0  -4  -3 2827.82   83.39
   0   4  -3 2876.31   81.09
   0   4   3 2808.12   83.79
   0   4   3 3002.20   86.29
   0   4  -3 2906.31   80.79
   0   4   3 2809.12   83.09
   0   4  -3 2774.02   78.99
   2  -4   3 4387.86  133.99
  -2  -4  -3 4669.43  138.19
  -2  -4  -3 4652.23  135.89
  -2  -4  -3 4496.15  136.39
  -2   4  -3 4843.82  134.59
   2   4   3 5021.10  139.89
  -2   4  -3 4827.02  132.79
   2   4   3 4819.62  136.79
   2   4   3 4801.52  137.29
   4  -4   3 2112.69   64.79
   4  -4   3 2056.79   62.19
  -4  -4  -3 2076.09   65.99
  -4  -4  -3 2116.59   67.59
  -4  -4  -3 2125.99   65.19
  -4   4  -3 2146.69   64.59
  -4   4  -3 2092.79   62.69
   4   4   3 2191.88   66.99
   4   4   3 2130.29   65.99
   4   4   3 2211.48   69.39
  -6  -4  -3 1322.77   45.60
   6  -4   3 1336.27   44.60
  -6  -4  -3 1365.06   44.20
   6  -4   3 1298.67   41.30
  -6  -4  -3 1233.78   44.60
   6   4   3 1359.16   45.80
   6   4   3 1318.47   44.80
  -6   4  -3 1264.97   41.80
   6   4   3 1385.76   47.90
  -6   4  -3 1331.37   43.90
   8  -4   3 1066.69   39.90
  -8  -4  -3 1148.29   40.70
  -8  -4  -3 1077.19   40.00
   8  -4   3 1110.09   36.60
   8   4   3 1186.28   43.00
   8   4   3 1085.89   40.80
  -8   4  -3 1073.09   39.30
   8   4   3 1081.39   39.80
  -8   4  -3 1080.19   37.20
 -10  -4  -3  634.44   27.60
  10  -4   3  620.34   24.00
  10   4   3  600.24   28.00
 -10   4  -3  596.14   24.80
  12  -4   3  488.15   21.60
 -12  -4  -3  510.75   25.30
 -12   4  -3  479.05   22.60
  12   4   3  473.75   25.70
 -14  -4  -3  279.77   19.50
  14  -4   3  282.27   16.30
 -14   4  -3  268.47   17.20
  14   4   3  249.68   19.30
 -19  -5   3  182.88   17.70
  19  -5  -3  182.08   15.50
  19  -5  -3  171.58   13.30
  19   5  -3  193.18   18.80
 -17  -5   3  338.27   21.10
  17  -5  -3  338.87   19.30
  17  -5  -3  333.67   17.10
  17   5  -3  322.57   22.00
 -15  -5   3  608.74   27.70
  15  -5  -3  647.44   27.40
  15  -5  -3  613.54   24.90
  15   5  -3  591.54   29.30
 -13  -5   3 1251.57   46.10
 -13  -5   3 1327.67   45.00
  13  -5  -3 1331.87   44.80
  13  -5  -3 1346.77   46.60
  13   5  -3 1421.56   49.60
  13   5  -3 1352.16   43.80
 -11  -5   3 1644.14   52.09
 -11  -5   3 1548.84   52.49
  11  -5  -3 1672.23   53.69
  11  -5  -3 1622.54   52.39
  11  -5  -3 1584.64   53.29
  11   5  -3 1705.23   50.59
 -11   5   3 1644.24   55.09
  11   5  -3 1575.54   53.49
  11   5  -3 1698.43   55.79
  -9  -5   3  990.10   34.30
  -9  -5   3 1071.19   35.00
   9  -5  -3 1073.59   36.40
   9  -5  -3 1119.89   36.80
   9  -5  -3 1051.99   35.80
  -9   5   3 1059.59   36.40
   9   5  -3 1016.20   36.30
   9   5  -3 1060.69   33.00
   9   5  -3 1014.00   37.10
  -9   5   3 1065.99   37.40
  -7  -5   3 1714.23   56.39
   7  -5  -3 1859.11   58.19
   7  -5  -3 1829.62   58.49
  -7  -5   3 1856.91   55.09
   7  -5  -3 1886.51   58.39
  -7   5   3 1907.21   59.09
   7   5  -3 1929.21   58.99
   7   5  -3 1953.10   54.29
   7   5  -3 1890.91   58.29
  -7   5   3 1906.21   59.39
   5  -5  -3 3263.57   98.99
   5  -5  -3 3393.96   98.39
   5   5  -3 3255.67   97.89
   5   5  -3 3452.75   98.09
  -5   5   3 3356.66   99.69
  -5   5   3 3445.26   98.69
  -5   5   3 3241.78   98.79
   3  -5  -3 2888.01   90.29
   3   5  -3 2979.30   88.39
   3   5  -3 3154.58   87.89
  -3   5   3 3112.19   91.49
  -3   5   3 3063.59   89.69
  -3   5   3 2896.51   89.39
   1  -5  -3 3258.57   96.09
   1  -5  -3 3156.38   94.89
   1  -5  -3 3143.19   96.99
  -1   5   3 3122.29   95.39
   1   5  -3 3286.17   93.49
   1   5  -3 3387.46   94.09
  -1   5   3 3321.27   98.39
  -1   5   3 3183.88   96.09
  -1  -5  -3 1894.71   62.69
  -1  -5  -3 1860.61   60.39
  -1  -5  -3 1963.20   60.99
   1  -5   3 1891.21   57.09
  -1   5  -3 1984.60   56.19
   1   5   3 1957.90   61.89
  -1   5  -3 2099.89   57.89
   1   5   3 2018.10   64.29
  -1   5  -3 1985.50   59.09
  -3  -5  -3  658.83   25.20
  -3  -5  -3  656.43   27.10
   3  -5   3  607.44   23.00
  -3  -5  -3  671.53   25.40
  -3   5  -3  685.63   21.80
  -3   5  -3  662.23   24.00
   3   5   3  671.53   25.10
   3   5   3  680.43   28.30
   3   5   3  673.23   26.40
  -3   5  -3  671.43   20.00
  -5  -5  -3 1214.88   42.90
   5  -5   3 1311.17   39.80
   5  -5   3 1207.28   41.90
  -5  -5  -3 1322.67   45.30
  -5  -5  -3 1254.67   42.80
   5   5   3 1257.07   44.90
   5   5   3 1291.97   47.00
   5   5   3 1282.27   43.20
  -5   5  -3 1270.57   42.40
  -5   5  -3 1295.97   40.00
  -7  -5  -3 1934.91   62.59
   7  -5   3 1858.51   60.49
   7  -5   3 1873.51   56.79
  -7  -5  -3 1802.72   60.69
   7   5   3 1644.44   61.39
  -7   5  -3 1810.82   60.09
  -7   5  -3 1823.12   57.29
   7   5   3 1890.21   60.69
   7   5   3 2035.70   65.29
   9  -5   3 1017.40   33.80
   9  -5   3  940.81   37.60
  -9  -5  -3 1030.20   38.60
  -9  -5  -3  975.70   37.50
   9   5   3  944.31   39.00
  -9   5  -3  932.61   34.30
 -11  -5  -3  601.54   27.40
  11  -5   3  558.64   22.90
 -11   5  -3  525.95   23.70
  11   5   3  541.15   27.90
  13  -5   3  413.26   19.90
 -13  -5  -3  422.66   23.80
  13   5   3  399.66   24.90
 -13   5  -3  417.26   21.50
  18  -6  -3    8.20    6.00
  18  -6  -3   17.20    5.90
 -18  -6   3   12.20    7.00
  18   6  -3   17.10    8.70
 -16  -6   3   28.70    7.60
  16  -6  -3   41.90    7.80
  16  -6  -3   38.40    6.30
  16   6  -3   39.60    9.10
 -14  -6   3    5.70    4.40
  14  -6  -3   -1.00    3.40
  14  -6  -3    1.80    3.40
  14   6  -3    6.30    4.30
  14   6  -3    1.80    4.50
 -12  -6   3   42.90    6.60
  12  -6  -3   42.00    6.70
  12  -6  -3   43.60    7.00
  12  -6  -3   37.40    6.00
 -12  -6   3   39.80    6.40
  12   6  -3   24.20    6.10
  12   6  -3   48.40    5.80
  10  -6  -3   94.69    7.70
  10  -6  -3   81.39    7.50
  10  -6  -3   88.99    8.50
 -10  -6   3   84.59    7.60
 -10  -6   3   88.49    7.10
  10   6  -3   69.59    8.50
 -10   6   3  119.09   15.80
 -10   6   3   90.39    8.40
  10   6  -3   84.79    6.00
  10   6  -3   83.49    8.70
  -8  -6   3   67.89    5.20
   8  -6  -3   67.09    6.60
  -8  -6   3   72.69    6.50
   8  -6  -3   70.29    6.90
   8  -6  -3   63.09    6.20
  -8   6   3   77.69    7.70
  -8   6   3   54.39    7.30
   8   6  -3   86.19    8.00
   8   6  -3   66.59    4.50
   8   6  -3   68.19    7.20
   6  -6  -3   20.00    4.30
   6  -6  -3   18.80    4.10
   6  -6  -3   17.20    3.70
  -6  -6   3   21.20    2.10
  -6   6   3   17.00    4.50
   6   6  -3   19.30    1.90
  -6   6   3   14.80    3.30
   6   6  -3   26.90    5.10
   6   6  -3   20.90    4.00
  -6   6   3   22.40    5.10
   4  -6  -3   60.49    6.30
  -4   6   3   64.99    7.20
  -4   6   3   81.69    7.30
   4   6  -3   69.49    6.40
   4   6  -3   57.59    5.40
  -4   6   3   63.49    6.00
   2  -6  -3   59.69    6.60
   2  -6  -3   54.79    5.40
   2   6  -3   60.79    5.20
  -2   6   3   66.49    7.70
  -2   6   3   64.39    6.20
   2   6  -3   66.89    5.60
  -2   6   3   65.29    6.60
   2   6  -3   57.19    5.80
   0  -6  -3  364.36   17.20
   0  -6  -3  363.86   18.20
   0  -6  -3  394.66   16.60
   0   6   3  352.56   17.00
   0   6  -3  383.46   15.80
   0   6   3  390.36   19.70
   0   6  -3  398.76   15.70
   0   6   3  396.46   17.80
  -2  -6  -3   93.09    7.40
  -2  -6  -3   87.49    8.50
   2  -6   3   90.69    5.60
  -2  -6  -3   80.59    7.70
   2   6   3   81.39    7.70
  -2   6  -3   83.39    4.70
   2   6   3   90.19    9.60
  -2   6  -3   95.09    7.30
  -2   6  -3   84.19    5.60
   4  -6   3  118.19    8.30
  -4  -6  -3  127.99    9.10
  -4  -6  -3  119.69    9.50
  -4  -6  -3  100.39    9.80
  -4   6  -3  137.99    7.10
   4   6   3  136.79    9.60
   4   6   3  118.19   10.30
   4   6   3  129.19   12.10
  -4   6  -3  134.29    9.50
   6  -6   3  134.69    8.10
  -6  -6  -3  141.49   10.30
   6  -6   3  131.89   10.10
  -6  -6  -3  147.79   11.80
  -6   6  -3  128.09   10.50
  -6   6  -3  132.59    8.30
   6   6   3  151.48   10.90
   6   6   3  136.29   11.90
   8  -6   3   75.59    6.70
  -8  -6  -3   88.49    9.10
  -8  -6  -3   71.99    9.20
   8  -6   3   84.19   10.20
  -8   6  -3   66.19    6.80
   8   6   3   77.29   10.60
  10  -6   3   40.10    6.20
 -10  -6  -3   49.30    8.70
  10   6   3   49.50   10.00
 -10   6  -3   49.99    7.00
 -12  -6  -3    2.50    5.30
  12  -6   3   -1.00    4.10
 -12   6  -3    0.80    4.50
  12   6   3   -2.60    6.50
  17  -7  -3  262.17   18.00
 -17  -7   3  278.07   19.10
  17  -7  -3  277.47   15.80
  17   7  -3  243.38   21.60
 -15  -7   3  366.96   20.50
  15  -7  -3  381.86   20.30
  15  -7  -3  359.26   18.00
  15   7  -3  351.26   23.20
 -13  -7   3  725.63   28.60
  13  -7  -3  702.43   27.50
  13  -7  -3  701.73   29.10
  13   7  -3  645.94   32.00
  13   7  -3  711.13   26.50
  11  -7  -3 1382.06   47.00
 -11  -7   3 1329.47   45.30
  11  -7  -3 1309.17   46.20
  11  -7  -3 1274.97   45.10
 -11  -7   3 1384.16   44.70
 -11   7   3 1349.56   46.40
  11   7  -3 1367.76   49.90
  11   7  -3 1327.57   42.60
   9  -7  -3  321.37   16.00
   9  -7  -3  293.97   15.20
  -9  -7   3  255.17   12.40
  -9  -7   3  294.37   14.70
   9  -7  -3  270.37   14.70
  -9   7   3  293.67   16.10
   9   7  -3  318.77   17.20
   9   7  -3  288.47   11.70
   7  -7  -3  463.05   19.70
   7  -7  -3  430.76   19.80
  -7  -7   3  422.86   14.80
   7  -7  -3  463.25   19.80
   7   7  -3  445.86   20.20
  -7   7   3  452.05   19.70
   7   7  -3  444.76   20.60
  -7   7   3  452.45   21.00
  -7   7   3  415.26   20.60
   5  -7  -3 2258.17   73.99
   5   7  -3 2379.16   73.79
   5   7  -3 2347.77   73.09
  -5   7   3 2341.47   73.59
  -5   7   3 2362.76   74.69
  -5   7   3 2481.25   75.89
   3  -7  -3 1403.96   49.50
   3  -7  -3 1426.96   46.60
  -3   7   3 1432.46   48.50
  -3   7   3 1532.65   51.39
  -3   7   3 1402.56   48.90
   3   7  -3 1487.15   47.20
   3   7  -3 1471.45   47.80
   1  -7  -3 1178.38   39.20
   1  -7  -3 1104.79   42.20
  -1   7   3 1217.58   44.30
  -1   7   3 1154.68   41.20
   1   7  -3 1183.28   39.30
  -1   7   3 1176.28   41.40
   1   7  -3 1178.78   39.00
   1   7  -3 1212.78   39.60
  -1  -7  -3 1008.50   35.20
   1  -7   3 1006.80   30.00
  -1  -7  -3  972.10   36.50
  -1  -7  -3 1006.20   38.70
  -1   7  -3 1066.49   34.10
  -1   7  -3 1035.40   35.50
   1   7   3 1069.29   40.60
   1   7   3 1030.50   37.70
   1   7   3  958.90   36.50
   3  -7   3  505.75   18.70
  -3  -7  -3  498.55   24.20
  -3  -7  -3  523.75   21.60
   3   7   3  522.75   24.20
  -3   7  -3  503.35   21.80
  -3   7  -3  526.85   18.60
  -5  -7  -3  599.34   24.80
   5  -7   3  621.74   23.70
  -5  -7  -3  618.24   27.80
  -5   7  -3  609.44   21.60
  -5   7  -3  594.64   25.60
   5   7   3  586.24   24.90
   5   7   3  591.04   27.70
  -7  -7  -3  606.14   27.90
   7  -7   3  579.24   24.70
  -7  -7  -3  583.54   25.10
   7   7   3  539.05   27.90
  -7   7  -3  538.75   21.70
  -9  -7  -3  601.74   29.00
  -9  -7  -3  606.34   26.70
   9  -7   3  600.24   23.00
   9  -7   3  576.14   27.70
   9   7   3  574.54   29.90
  -9   7  -3  533.65   23.20
 -11  -7  -3  221.68   16.30
  11  -7   3  209.68   12.80
 -11   7  -3  208.18   13.80
  11   7   3  215.48   18.90
 -16  -8   3  552.14   26.10
  16  -8  -3  483.55   22.40
  16  -8  -3  513.25   25.30
  16   8  -3  433.66   28.60
 -14  -8   3  590.44   25.20
  14  -8  -3  525.35   23.30
  14  -8  -3  530.15   25.20
  14   8  -3  531.65   29.60
  14   8  -3  541.95   23.20
  12  -8  -3  942.61   35.90
 -12  -8   3 1042.10   35.70
  12  -8  -3  962.50   37.20
  12   8  -3  974.00   33.40
  12   8  -3  988.20   41.60
 -12   8   3  976.50   37.50
  10  -8  -3 1331.97   47.00
 -10  -8   3 1340.27   46.10
 -10  -8   3 1359.26   43.30
  10  -8  -3 1302.37   46.50
  10  -8  -3 1395.26   47.50
 -10   8   3 1326.97   47.80
  10   8  -3 1329.37   49.80
  10   8  -3 1413.46   42.20
  -8  -8   3 1495.95   44.80
   8  -8  -3 1541.85   50.59
   8  -8  -3 1512.35   50.99
   8  -8  -3 1480.15   51.09
  -8   8   3 1458.45   51.09
   8   8  -3 1476.65   52.29
  -8   8   3 1572.54   52.79
   6  -8  -3 1961.20   62.39
   6  -8  -3 2000.10   64.79
   6   8  -3 1936.61   64.69
  -6   8   3 2012.50   65.89
  -6   8   3 1912.01   63.59
   6   8  -3 1967.00   63.89
   4  -8  -3 1310.57   43.90
   4  -8  -3 1309.37   47.00
  -4   8   3 1328.07   46.00
   4   8  -3 1340.07   45.30
  -4   8   3 1394.36   48.90
   4   8  -3 1284.57   45.70
   2  -8  -3 1495.55   48.20
   2  -8  -3 1448.36   52.09
  -2   8   3 1532.95   54.29
   2   8  -3 1452.15   48.90
   2   8  -3 1511.05   49.80
  -2   8   3 1495.55   51.09
   2   8  -3 1461.95   48.80
   0  -8  -3 2421.26   74.59
   0  -8  -3 2296.97   78.79
   0   8  -3 2410.26   75.49
   0   8   3 2446.56   77.79
   0   8  -3 2514.55   75.09
   0   8  -3 2458.15   75.09
  -2  -8  -3 1754.82   56.29
  -2  -8  -3 1753.02   61.19
   2  -8   3 1768.92   50.89
  -2   8  -3 1673.83   57.29
  -2   8  -3 1796.12   54.99
   2   8   3 1746.53   60.19
  -4  -8  -3 1296.97   44.30
  -4  -8  -3 1306.97   48.60
   4  -8   3 1333.87   41.30
  -4   8  -3 1297.17   40.40
   4   8   3 1220.38   48.00
  -6  -8  -3 1223.68   42.80
  -6  -8  -3 1236.08   47.00
   6  -8   3 1149.58   40.80
   6   8   3 1182.88   47.20
  -8  -8  -3  650.23   30.80
  -8  -8  -3  599.54   26.60
   8  -8   3  612.44   27.10
   8   8   3  566.74   30.70
 -10  -8  -3  411.26   22.00
  10   8   3  344.27   24.50
 -10   8  -3  415.86   19.40
  13  -9  -3   76.39   10.00
  13  -9  -3   77.89    9.40
 -13  -9   3  114.69   10.20
  13   9  -3   81.79    9.30
  13   9  -3   69.89   11.40
  11  -9  -3  125.79   11.70
 -11  -9   3  153.78    9.80
  11  -9  -3  135.69   11.40
  11   9  -3  137.39    8.70
  11   9  -3  148.49   14.30
   9  -9  -3  138.69   11.60
   9  -9  -3  118.49   12.20
  -9  -9   3  156.08    7.60
  -9   9   3  152.68   12.00
   9   9  -3  133.39   12.70
   7  -9  -3  160.68   12.00
   7  -9  -3  135.59   11.30
  -7   9   3  150.88   11.70
   7   9  -3  158.78   12.10
   5  -9  -3  163.58   12.90
   5  -9  -3  179.68   11.10
   5  -9  -3  159.18   11.70
   5   9  -3  171.78   12.20
  -5   9   3  180.88   12.70
   3  -9  -3  188.08   11.30
   3  -9  -3  202.68   14.40
   3   9  -3  168.28   13.40
  -3   9   3  212.98   13.70
   3   9  -3  190.68   12.50
   1  -9  -3  110.89    8.50
   1  -9  -3   93.89   10.70
   1   9  -3  112.09   10.50
   1   9  -3   97.19    8.90
  -1   9   3   87.99    9.60
  -1  -9  -3  150.38   13.10
  -1  -9  -3  156.18   10.50
   1   9   3  175.08   13.40
  -1   9  -3  170.88   12.00
  -1   9  -3  175.48   11.80
  -3  -9  -3  105.19    9.10
   3  -9   3  103.89    5.90
  -3  -9  -3  116.59   11.60
  -3   9  -3   99.99    8.90
   3   9   3  117.39   12.00
  -5  -9  -3   37.40    6.80
  -5  -9  -3   39.60    8.50
   5  -9   3   55.19    6.60
   5   9   3   53.89    9.80
  -5   9  -3   42.00    5.20
  -7  -9  -3  124.19   11.20
  -7  -9  -3  112.89   12.80
   7  -9   3  120.19   12.10
   7   9   3  159.28   15.80
  -9  -9  -3   51.29   10.60
  -9  -9  -3   57.29    8.90
   9   9   3   58.39   11.70
 -12 -10   3  447.26   18.10
  12 -10  -3  381.46   20.80
  12  10  -3  397.06   25.30
 -12  10   3  387.76   22.60
  10 -10  -3  388.46   21.50
 -10 -10   3  458.45   15.20
 -10  10   3  410.86   22.60
  10  10  -3  406.26   24.00
   8 -10  -3  265.27   16.50
   8 -10  -3  241.28   16.50
   8  10  -3  253.07   17.30
  -8  10   3  240.28   16.20
   6 -10  -3  411.46   18.70
   6 -10  -3  391.66   21.40
   6 -10  -3  362.46   19.10
   6  10  -3  392.36   20.80
   4 -10  -3  608.84   24.20
   4 -10  -3  612.24   24.90
   4 -10  -3  556.14   27.70
  -4  10   3  576.54   27.00
   4  10  -3  606.74   26.70
   2 -10  -3  353.36   17.00
   2 -10  -3  403.36   22.10
   2  10  -3  345.77   18.80
  -2  10   3  376.46   20.60
   0 -10  -3  283.07   14.60
   0 -10  -3  280.77   18.70
   0  10  -3  269.07   17.10
   0  10  -3  275.57   16.10
   0  10   3  259.67   17.20
  -2 -10  -3  503.55   21.30
  -2 -10  -3  523.55   26.50
  -2  10  -3  476.55   22.90
  -2  10  -3  491.05   22.70
   2  10   3  459.35   25.20
  -4 -10  -3  265.87   18.80
  -4 -10  -3  294.27   15.50
  -4  10  -3  258.97   14.60
   4  10   3  236.78   18.50
  -6 -10  -3  116.99   13.90
  -6 -10  -3  106.49   10.50
   6  10   3   85.79   13.00
   9 -11  -3 1347.77   50.59
  -9  11   3 1324.27   51.19
   9  11  -3 1419.96   53.39
   7 -11  -3 1438.56   48.20
   7 -11  -3 1385.16   47.20
   7 -11  -3 1369.16   51.59
   7  11  -3 1366.96   51.59
  -7  11   3 1308.87   50.89
   5 -11  -3 1504.55   55.09
   5 -11  -3 1453.05   49.70
   5 -11  -3 1481.45   49.30
   5  11  -3 1492.65   53.49
  -5  11   3 1433.76   53.79
   3 -11  -3 1264.87   43.40
   3 -11  -3 1283.57   42.90
   3 -11  -3 1259.27   48.80
  -3  11   3 1228.88   47.60
   3  11  -3 1196.98   46.10
   1 -11  -3 1234.28   41.40
   1 -11  -3 1226.68   48.30
  -1  11   3 1182.08   46.60
   1  11  -3 1159.08   44.70
  -1 -11  -3 1182.48   40.10
  -1 -11  -3 1074.09   46.10
  -1  11  -3 1126.59   43.50
   1  11   3 1127.79   45.90
  -1  11  -3 1286.27   57.19
  -3 -11  -3  893.31   32.80
  -3 -11  -3  878.01   39.70
   3  11   3  845.12   39.00
  -3  11  -3  879.91   36.20
   2 -12  -3  243.68   19.00
   2 -12  -3  258.87   14.40
   2  12  -3  221.68   16.70
 -20   0   4  686.43   33.30
  20   0  -4  694.33   32.40
 -18   0   4 2303.57   76.59
  18   0  -4 2208.18   75.39
  16   0  -4 1410.16   49.99
 -16   0   4 1418.96   50.49
 -14   0   4  676.53   27.10
 -14   0   4  677.63   26.10
  14   0  -4  645.94   25.00
  14   0  -4  621.64   26.30
 -12   0   4 2613.44   76.49
  12   0  -4 2553.14   77.19
 -12   0   4 2458.15   77.29
  12   0  -4 2447.76   75.59
 -10   0   4 3077.79   95.19
  10   0  -4 3381.26   95.79
 -10   0   4 3321.07   96.89
  10   0  -4 3345.17   96.49
   8   0  -4 3466.25  100.09
  -8   0   4 3512.65   99.39
   8   0  -4 3452.15  100.09
   6   0  -4 4019.80  113.29
   6   0  -4 3955.20  115.49
  -6   0   4 4086.89  112.59
   4   0  -4 2520.65   71.19
   4   0  -4 2582.34   71.19
   4   0  -4 2570.54   73.99
  -4   0   4 2481.45   73.89
  -2   0   4 3429.76   97.79
   2   0  -4 3459.75   95.09
   2   0  -4 3324.77   98.39
   2   0  -4 3417.36   97.69
   2   0  -4 3491.75   95.19
   0   0   4 3201.38   85.79
   0   0   4 3110.39   88.29
   0   0   4 2919.91   89.89
   0   0  -4 2983.10   89.69
   0   0   4 3063.69   85.69
   0   0  -4 3075.49   88.09
   0   0  -4 3224.88   87.29
   2   0   4 9999.00  281.57
   4   0   4 6600.44  191.38
  -4   0  -4 6529.15  193.58
  -4   0  -4 6880.51  192.48
   4   0   4 6899.41  195.38
   4   0   4 7009.10  191.38
  -4   0  -4 6864.01  190.88
   6   0   4 1512.75   48.80
   6   0   4 1623.74   52.69
  -6   0  -4 1546.75   49.99
   6   0   4 1581.34   48.80
  -6   0  -4 1535.55   50.69
  -8   0  -4 1607.44   52.39
   8   0   4 1614.54   51.19
   8   0   4 1575.04   54.69
   8   0   4 1545.95   50.49
  -8   0  -4 1557.74   52.79
  10   0   4  909.71   34.30
 -10   0  -4  940.61   36.20
  10   0   4  939.91   33.80
  12   0   4  592.04   26.40
  12   0   4  601.94   26.20
 -12   0  -4  621.24   28.50
 -14   0  -4  339.97   21.40
  14   0   4  346.87   20.10
  21  -1  -4   59.49   10.40
 -21  -1   4   84.79   13.40
  21  -1  -4   64.59   10.30
  21   1  -4   66.79   11.30
 -21   1   4   82.89   12.30
  19  -1  -4   66.29    9.60
  19  -1  -4   58.89    9.50
 -19  -1   4   88.19   12.60
 -19   1   4   62.39   10.60
  19   1  -4   62.29   10.00
  17  -1  -4   38.20    7.10
  17  -1  -4   46.80    7.70
 -17  -1   4   27.00    6.20
  17   1  -4   26.90    6.00
 -17   1   4   32.40    6.70
 -15  -1   4  154.28   11.70
  15  -1  -4  159.58   11.40
  15  -1  -4  168.08   11.80
 -15  -1   4  178.08   11.70
  15   1  -4  181.78   12.50
 -15   1   4  174.38   12.50
  15   1  -4  177.88   11.00
 -15   1   4  164.18   11.90
  13  -1  -4  455.25   19.20
  13  -1  -4  454.15   19.90
  13  -1  -4  448.56   19.90
 -13  -1   4  429.46   19.90
 -13  -1   4  484.55   19.40
  13   1  -4  476.95   18.70
  13   1  -4  418.46   19.50
 -13   1   4  453.35   19.70
 -13   1   4  448.16   20.00
  11  -1  -4  936.71   32.60
  11  -1  -4  891.81   31.10
 -11  -1   4  911.81   32.10
 -11  -1   4  944.61   30.90
  11  -1  -4  892.01   31.70
 -11   1   4  921.11   31.60
  11   1  -4  898.31   31.80
  11   1  -4  929.61   30.60
 -11   1   4  911.21   32.20
   9  -1  -4  504.95   19.20
  -9  -1   4  510.85   19.40
   9  -1  -4  514.25   19.30
   9  -1  -4  528.55   20.30
  -9  -1   4  542.55   18.50
   9   1  -4  528.65   18.50
   9   1  -4  513.35   19.20
  -9   1   4  533.75   19.20
   7  -1  -4  504.55   19.30
   7  -1  -4  522.05   18.70
   7  -1  -4  520.25   18.00
  -7  -1   4  538.85   16.70
   7   1  -4  515.75   17.60
  -7   1   4  503.05   17.70
   7   1  -4  526.45   17.70
   5  -1  -4 2164.38   65.49
   5  -1  -4 2224.48   63.59
  -5   1   4 2171.58   63.19
  -5   1   4 2198.88   63.29
  -5   1   4 2271.27   65.89
   5   1  -4 2231.38   62.29
   3  -1  -4  785.42   24.60
   3  -1  -4  808.32   24.40
   3  -1  -4  791.42   26.40
  -3   1   4  832.12   26.70
   3   1  -4  794.32   25.60
  -3   1   4  812.82   23.90
   3   1  -4  802.22   25.70
  -3   1   4  822.62   24.00
   1  -1  -4  621.14   21.40
   1  -1  -4  669.73   20.10
  -1  -1   4  658.93   20.20
   1  -1  -4  612.94   22.10
  -1  -1   4  603.14   21.30
   1   1  -4  653.43   18.30
  -1   1   4  642.64   21.70
  -1   1   4  672.63   19.50
  -1   1   4  639.04   19.60
  -1   1   4  597.54   22.20
   1   1  -4  585.54   21.00
   1   1  -4  637.54   20.10
  -1  -1  -4  945.51   31.00
   1  -1   4  930.11   28.80
   1  -1   4  973.10   32.20
  -1  -1  -4  979.70   30.20
  -1  -1  -4  878.41   31.90
  -1   1  -4  972.50   28.90
   1   1   4  951.90   31.20
   1   1   4  990.80   29.90
  -1   1  -4  974.20   29.30
   1   1   4 1029.10   33.00
  -1   1  -4  997.80   31.20
   3  -1   4   34.10    2.80
  -3  -1  -4   46.60    4.40
   3  -1   4   38.80    3.20
  -3  -1  -4   38.00    4.40
  -3  -1  -4   56.59    4.90
   3  -1   4   39.60    5.50
   3   1   4   42.10    5.30
  -3   1  -4   33.50    4.00
  -3   1  -4   37.70    3.80
   3   1   4   42.30    4.70
  -3   1  -4   42.00    2.90
   3   1   4   41.10    4.00
  -5  -1  -4  125.19    7.60
   5  -1   4  118.39    9.20
  -5  -1  -4  120.69    8.50
   5  -1   4  114.09    6.80
   5  -1   4  128.79    6.20
  -5  -1  -4  123.19    8.10
  -5   1  -4  133.89    8.30
   5   1   4  132.59    9.80
   5   1   4  117.59    8.50
   5   1   4  117.69    7.80
  -5   1  -4  124.99    8.10
  -7  -1  -4  477.55   18.60
  -7  -1  -4  425.56   20.40
   7  -1   4  528.75   22.80
  -7  -1  -4  490.15   20.50
   7  -1   4  451.65   17.00
   7  -1   4  487.25   18.90
   7   1   4  464.05   19.70
   7   1   4  486.65   22.30
  -7   1  -4  454.35   20.10
  -7   1  -4  476.25   20.30
   7   1   4  486.35   20.80
   9  -1   4  280.37   12.80
  -9  -1  -4  286.77   16.30
   9  -1   4  283.77   14.40
   9   1   4  318.27   17.00
  -9   1  -4  316.67   16.20
   9   1   4  279.77   15.30
  11  -1   4  234.28   13.70
  11  -1   4  215.58   11.80
 -11  -1  -4  206.88   14.80
  11   1   4  213.38   14.10
 -11   1  -4  203.28   14.20
  11   1   4  229.58   16.00
  13  -1   4  116.39   11.00
 -13  -1  -4  146.49   13.80
  13  -1   4  145.89   12.20
 -13   1  -4  137.99   12.70
  13   1   4  136.79   12.70
  13   1   4  124.79   16.10
 -20  -2   4  163.18   16.00
  20  -2  -4  158.18   14.30
  20  -2  -4  159.68   13.90
 -20   2   4  161.18   14.70
  20   2  -4  136.59   14.50
  18  -2  -4  223.98   14.90
 -18  -2   4  216.48   16.40
  18  -2  -4  243.38   16.10
  18   2  -4  219.88   16.20
 -18   2   4  213.48   15.50
  16  -2  -4   49.30    7.50
 -16  -2   4   43.90    7.80
  16  -2  -4   53.19    7.80
  16   2  -4   42.70    7.30
 -16   2   4   35.40    6.60
  14  -2  -4  266.87   14.40
 -14  -2   4  273.77   14.10
 -14  -2   4  287.97   15.60
  14  -2  -4  256.97   14.60
  14  -2  -4  281.17   14.70
 -14   2   4  281.17   15.50
 -14   2   4  275.07   15.00
  14   2  -4  252.47   14.90
  14   2  -4  264.17   13.30
  12  -2  -4  816.62   29.50
  12  -2  -4  768.82   29.10
 -12  -2   4  759.22   29.20
 -12  -2   4  780.02   27.60
  12  -2  -4  846.72   29.10
 -12   2   4  838.72   29.70
  12   2  -4  786.62   27.20
  12   2  -4  742.03   29.00
 -12   2   4  766.22   29.20
 -10  -2   4  718.73   26.20
  10  -2  -4  747.53   27.00
 -10  -2   4  749.13   25.00
  10  -2  -4  692.83   26.20
  10  -2  -4  769.62   26.70
 -10   2   4  781.72   26.90
  10   2  -4  753.22   26.50
  10   2  -4  729.03   24.70
   8  -2  -4 3524.85  102.79
  -8  -2   4 3400.46  102.19
   8  -2  -4 3653.23  103.49
   8  -2  -4 3515.25  103.79
  -8  -2   4 3625.44  100.79
  -8   2   4 3325.97  103.69
   8   2  -4 3611.24  101.19
   8   2  -4 3613.94  102.29
  -8   2   4 3673.33  103.09
   6  -2  -4 2279.17   69.79
   6  -2  -4 2382.36   68.49
  -6  -2   4 2288.87   65.59
   6   2  -4 2304.67   66.99
   6   2  -4 2344.87   67.09
  -6   2   4 2369.26   68.49
  -6   2   4 2405.96   70.39
   4  -2  -4   50.89    3.70
   4  -2  -4   42.00    4.20
  -4   2   4   61.99    4.00
  -4   2   4   60.49    4.90
   4   2  -4   55.89    2.40
  -4   2   4   55.99    3.80
   2  -2  -4  986.10   32.00
   2  -2  -4  958.00   31.70
   2  -2  -4  964.60   30.40
  -2   2   4  984.40   32.10
  -2   2   4  949.80   29.70
  -2   2   4 1012.10   30.20
   2   2  -4  944.31   29.60
   0  -2  -4 1245.58   41.60
   0  -2   4 1252.37   40.10
   0  -2  -4 1345.27   39.80
   0  -2  -4 1304.27   41.30
   0   2  -4 1306.17   39.30
   0   2  -4 1363.56   37.80
   0   2  -4 1291.87   37.70
   0   2   4 1328.87   39.80
   0   2   4 1308.47   42.00
   0   2   4 1241.68   39.30
   0   2   4 1326.97   41.80
   2  -2   4  593.84   22.60
  -2  -2  -4  625.84   23.10
  -2  -2  -4  614.94   23.40
  -2  -2  -4  624.74   21.70
   2  -2   4  636.64   18.50
  -2   2  -4  609.74   21.20
   2   2   4  644.14   23.90
  -2   2  -4  622.04   20.60
   2   2   4  606.34   23.30
   2   2   4  597.54   21.60
  -4  -2  -4  301.27   13.50
  -4  -2  -4  290.17   14.50
  -4  -2  -4  285.77   13.90
   4  -2   4  303.27   11.40
   4  -2   4  304.47   14.90
   4   2   4  296.77   14.90
  -4   2  -4  297.07   13.00
   4   2   4  290.87   13.40
  -4   2  -4  318.37   13.20
   4   2   4  293.47   15.00
  -6  -2  -4  130.79    9.80
   6  -2   4  130.49    7.60
   6  -2   4  144.99   10.80
  -6  -2  -4  144.59    9.20
  -6  -2  -4  142.99    9.40
   6   2   4  148.89   11.00
  -6   2  -4  133.69    9.10
  -6   2  -4  135.99    8.70
   6   2   4  137.59   10.50
   6   2   4  150.08    9.60
  -8  -2  -4  121.89   10.40
   8  -2   4  129.19    8.40
  -8  -2  -4  122.39    9.90
   8  -2   4  122.69   11.30
  -8  -2  -4  149.69    9.50
  -8   2  -4  125.69    9.20
  -8   2  -4  124.29   10.40
   8   2   4  115.59    9.60
   8   2   4  116.09   11.30
  10  -2   4  125.09    9.40
 -10  -2  -4  126.79   11.40
  10   2   4  122.19   10.90
 -10   2  -4  135.19   10.60
  10   2   4  146.99   13.80
  12  -2   4  148.19   11.30
 -12  -2  -4  135.59   13.00
 -12   2  -4  156.68   12.40
  12   2   4  139.79   12.70
  12   2   4  164.88   17.50
  14  -2   4   66.99    9.30
 -14  -2  -4   55.79   10.30
  14   2   4   55.19   10.30
 -14   2  -4   63.59    9.90
  21  -3  -4  281.67   18.70
 -21  -3   4  306.67   22.50
 -21   3   4  287.57   20.50
  19  -3  -4  734.63   32.40
  19  -3  -4  716.13   30.40
 -19  -3   4  676.53   33.40
  19   3  -4  693.73   33.30
 -19   3   4  714.63   32.50
  17  -3  -4  867.41   34.80
  17  -3  -4  855.01   33.30
 -17  -3   4  845.92   36.00
  17   3  -4  810.22   35.50
 -17   3   4  853.31   34.90
  15  -3  -4 1091.19   39.40
 -15  -3   4 1104.39   37.80
  15  -3  -4 1024.50   38.00
 -15  -3   4 1023.00   39.70
  15   3  -4 1061.89   40.40
  15   3  -4 1077.59   36.70
 -15   3   4 1018.40   38.90
 -13  -3   4 1866.51   63.29
  13  -3  -4 2012.00   62.99
  13  -3  -4 1889.01   62.59
  13  -3  -4 1981.60   63.49
 -13  -3   4 1968.40   61.49
  13   3  -4 2035.70   64.39
  13   3  -4 1940.41   62.19
 -13   3   4 2113.29   64.49
  13   3  -4 1981.60   60.59
 -11  -3   4 3185.08  102.79
  11  -3  -4 3400.76  103.39
  11  -3  -4 3580.54  103.69
 -11  -3   4 3545.65  101.59
  11  -3  -4 3539.85  103.79
  11   3  -4 3554.14  100.89
  11   3  -4 3497.45  103.99
 -11   3   4 3597.14  104.39
  -9  -3   4 2615.44   82.59
   9  -3  -4 2739.73   83.79
   9  -3  -4 2948.41   84.59
  -9  -3   4 2831.52   81.69
   9  -3  -4 2809.22   84.49
  -9   3   4 2844.42   84.89
   9   3  -4 2876.41   81.29
   9   3  -4 2833.62   83.79
  -9   3   4 2885.91   84.59
   7  -3  -4 2717.43   78.99
  -7  -3   4 2679.33   76.29
   7  -3  -4 2521.25   79.59
   7   3  -4 2618.74   75.99
  -7   3   4 2613.84   80.09
  -7   3   4 2855.61   79.49
   7   3  -4 2697.23   77.89
   5  -3  -4 5134.99  145.49
   5  -3  -4 5089.59  147.09
  -5   3   4 5217.18  145.59
  -5   3   4 5123.49  147.49
   5   3  -4 5026.50  142.49
  -5   3   4 5064.89  145.59
   5   3  -4 5205.38  143.69
   3  -3  -4 4663.93  131.59
   3  -3  -4 4745.73  132.49
   3  -3  -4 4475.95  133.39
  -3   3   4 4909.21  132.39
  -3   3   4 4488.25  131.59
   3   3  -4 4508.55  129.09
   1  -3  -4 4033.90  110.99
   1  -3  -4 3781.22  112.19
   1  -3  -4 3679.73  111.79
  -1  -3   4 3817.02  108.89
   1   3  -4 3947.90  107.69
   1   3  -4 3930.71  108.09
  -1   3   4 3882.71  110.89
  -1   3   4 3811.42  112.79
  -1   3   4 3726.53  110.19
  -1  -3  -4 3323.57   98.89
  -1  -3  -4 3164.98   98.49
   1  -3   4 3247.48   96.69
  -1  -3  -4 3367.76   96.99
   1   3   4 3411.76   97.49
  -1   3  -4 3427.06   95.09
   1   3   4 3254.27   98.69
  -1   3  -4 3307.37   94.89
   1   3   4 3484.95  100.29
   3  -3   4 2247.68   72.09
   3  -3   4 2448.35   67.69
  -3  -3  -4 2398.76   71.59
  -3  -3  -4 2423.16   73.79
  -3  -3  -4 2260.77   73.09
   3   3   4 2439.66   73.69
  -3   3  -4 2259.67   69.69
  -3   3  -4 2409.16   70.39
   3   3   4 2392.66   72.19
   3   3   4 2485.95   75.09
  -5  -3  -4 1759.52   54.79
  -5  -3  -4 1664.63   55.99
   5  -3   4 1751.72   56.29
  -5  -3  -4 1661.03   55.49
   5  -3   4 1707.63   51.29
   5   3   4 1736.63   57.79
   5   3   4 1743.33   55.59
   5   3   4 1769.02   56.69
  -5   3  -4 1722.73   53.99
  -5   3  -4 1686.93   53.09
  -7  -3  -4 1026.00   38.20
   7  -3   4 1054.89   33.90
  -7  -3  -4 1069.79   37.50
  -7  -3  -4 1039.30   36.90
   7  -3   4 1028.90   38.80
  -7   3  -4  992.70   35.30
   7   3   4 1029.50   37.60
  -7   3  -4 1006.00   36.70
   7   3   4 1026.70   39.80
   7   3   4 1050.09   38.70
   9  -3   4  798.82   28.30
  -9  -3  -4  765.02   32.20
   9   3   4  801.92   34.50
   9   3   4  772.12   31.90
  -9   3  -4  798.82   30.10
 -11  -3  -4  655.93   30.90
  11  -3   4  728.33   27.20
  11   3   4  678.73   30.50
 -11   3  -4  700.83   29.20
 -13  -3  -4  254.17   18.60
  13  -3   4  257.37   15.20
  13   3   4  241.88   18.10
 -13   3  -4  244.28   16.40
  20  -4  -4  103.59   11.80
  20  -4  -4  115.89   12.90
 -20  -4   4  112.19   15.30
  20   4  -4  101.99   14.10
 -18  -4   4  199.88   16.20
  18  -4  -4  206.08   15.30
  18  -4  -4  215.68   14.30
  18   4  -4  209.48   17.20
  16  -4  -4  502.85   22.40
  16  -4  -4  473.55   23.00
 -16  -4   4  486.35   24.20
  16   4  -4  497.75   25.20
 -14  -4   4  817.12   29.50
  14  -4  -4  796.52   30.10
  14  -4  -4  766.32   30.70
 -14  -4   4  752.32   31.00
  14   4  -4  788.42   28.30
  14   4  -4  801.92   32.60
 -12  -4   4 1155.28   38.60
 -12  -4   4 1122.29   40.20
  12  -4  -4 1147.19   40.10
  12  -4  -4 1199.68   40.90
  12  -4  -4 1257.67   41.30
 -12   4   4 1148.99   41.60
  12   4  -4 1170.58   40.30
  12   4  -4 1179.28   41.80
  12   4  -4 1200.28   37.80
 -10  -4   4  616.04   23.60
  10  -4  -4  678.43   25.30
  10  -4  -4  649.24   24.90
 -10  -4   4  658.93   23.00
  10  -4  -4  622.64   24.70
  10   4  -4  654.83   25.30
 -10   4   4  674.23   25.80
 -10   4   4  657.83   25.40
  10   4  -4  679.43   22.00
  10   4  -4  662.83   24.70
   8  -4  -4  686.13   25.50
  -8  -4   4  693.13   23.00
   8  -4  -4  689.23   25.50
   8  -4  -4  688.33   25.00
  -8  -4   4  673.83   22.80
   8   4  -4  670.73   24.50
   8   4  -4  697.43   21.60
  -8   4   4  686.63   25.50
  -8   4   4  683.73   25.90
   8   4  -4  688.53   24.60
   6  -4  -4 2579.44   76.29
   6  -4  -4 2492.75   77.39
   6   4  -4 2666.63   75.29
  -6   4   4 2495.05   76.59
   6   4  -4 2578.44   71.99
  -6   4   4 2642.54   78.29
   6   4  -4 2578.24   75.59
  -6   4   4 2465.05   75.99
   4  -4  -4 2103.49   65.09
   4  -4  -4 2089.89   63.29
  -4   4   4 2118.59   63.89
   4   4  -4 2106.29   62.09
  -4   4   4 2142.39   65.69
   4   4  -4 2107.99   61.29
  -4   4   4 2098.49   63.69
   2  -4  -4 1650.33   49.60
   2  -4  -4 1480.45   50.09
   2  -4  -4 1578.74   49.60
   2   4  -4 1605.94   46.50
  -2   4   4 1564.44   51.09
  -2   4   4 1531.05   48.70
  -2   4   4 1561.34   49.30
   2   4  -4 1581.14   44.30
   0  -4  -4 1205.68   40.90
   0  -4   4 1171.28   36.60
   0  -4  -4 1187.78   40.00
   0  -4  -4 1192.78   39.10
   0   4  -4 1279.57   35.90
   0   4   4 1189.08   39.70
   0   4  -4 1203.68   36.60
   0   4   4 1265.57   42.30
   0   4   4 1162.08   38.80
   0   4  -4 1171.88   35.30
   2  -4   4  741.63   26.10
  -2  -4  -4  693.93   28.20
  -2  -4  -4  705.43   27.70
  -2  -4  -4  732.73   26.80
  -2   4  -4  765.22   25.40
   2   4   4  783.52   28.00
   2   4   4  789.12   28.30
   2   4   4  797.52   30.40
  -4  -4  -4  677.33   27.40
   4  -4   4  653.93   25.80
   4  -4   4  681.13   21.90
  -4  -4  -4  719.03   25.90
  -4  -4  -4  655.93   26.50
  -4   4  -4  698.03   24.90
   4   4   4  733.13   29.60
   4   4   4  630.54   26.30
   4   4   4  696.33   27.00
  -4   4  -4  658.43   23.30
   6  -4   4  916.71   29.30
  -6  -4  -4  910.31   34.20
  -6  -4  -4  870.51   32.70
  -6  -4  -4  892.01   34.00
   6  -4   4  857.41   33.80
   6   4   4  895.71   34.10
   6   4   4  898.11   36.60
  -6   4  -4  914.21   32.60
   6   4   4  926.11   34.50
  -6   4  -4  884.41   30.70
  -8  -4  -4  521.15   23.30
   8  -4   4  478.95   18.90
   8  -4   4  459.75   23.70
  -8  -4  -4  475.45   23.00
   8   4   4  544.95   26.60
   8   4   4  467.85   23.10
  -8   4  -4  484.05   20.50
  -8   4  -4  474.85   22.40
  10  -4   4  177.18   10.80
 -10  -4  -4  180.68   13.80
  10   4   4  169.38   14.10
 -10   4  -4  177.08   12.00
  12  -4   4  211.08   13.10
 -12  -4  -4  205.98   16.40
 -12   4  -4  219.28   14.70
  12   4   4  219.48   17.00
  19  -5  -4   55.39    9.90
  19  -5  -4   69.59    9.30
 -19  -5   4   80.39   12.70
  19   5  -4   74.69   12.70
  17  -5  -4   47.70    8.10
  17  -5  -4   61.29    8.50
 -17  -5   4   46.60    8.70
  17   5  -4   61.09   10.50
 -15  -5   4   29.20    6.30
  15  -5  -4   26.60    5.70
  15  -5  -4   26.10    6.00
  15   5  -4   20.50    6.80
  15   5  -4   18.20    5.10
 -13  -5   4  287.77   15.40
  13  -5  -4  281.27   14.90
  13  -5  -4  313.57   24.10
 -13  -5   4  294.67   14.70
  13  -5  -4  282.77   15.50
  13   5  -4  287.27   17.00
  13   5  -4  282.47   13.10
  11  -5  -4  176.48   10.90
 -11  -5   4  158.18    9.60
  11  -5  -4  164.18   11.10
  11  -5  -4  159.28   10.40
 -11  -5   4  158.88    9.70
 -11   5   4  171.68   11.30
  11   5  -4  152.08    8.20
  11   5  -4  181.58   11.90
  11   5  -4  155.38   10.70
 -11   5   4  160.48   11.90
  -9  -5   4  213.88   10.30
   9  -5  -4  223.38   12.50
  -9  -5   4  235.68   10.90
   9  -5  -4  228.98   12.20
   9  -5  -4  222.88   12.20
   9   5  -4  213.18   12.20
   9   5  -4  232.78    9.20
  -9   5   4  224.58   13.10
  -9   5   4  244.38   13.30
   9   5  -4  226.48   12.10
   7  -5  -4  984.00   33.80
   7  -5  -4  953.50   34.60
   7   5  -4  989.10   29.10
   7   5  -4 1006.70   33.60
  -7   5   4  972.70   34.60
  -7   5   4 1045.80   35.70
   7   5  -4 1009.10   33.60
  -7   5   4  968.40   33.70
   5  -5  -4  180.38    9.60
   5  -5  -4  148.39    9.70
   5   5  -4  161.88    8.70
   5   5  -4  170.98    8.70
  -5   5   4  161.88   10.60
  -5   5   4  161.68    9.40
  -5   5   4  165.28    9.80
   3  -5  -4  191.78   10.50
   3  -5  -4  184.08   11.20
  -3   5   4  204.08   11.00
  -3   5   4  188.28   12.00
   3   5  -4  172.48    8.50
  -3   5   4  207.28   10.90
   3   5  -4  192.48    9.30
   1  -5  -4  456.05   18.70
   1  -5  -4  398.46   19.00
   1  -5  -4  402.66   17.90
   1   5  -4  441.56   13.30
  -1   5   4  459.35   18.90
  -1   5   4  427.96   18.20
   1   5  -4  471.95   16.30
  -1   5   4  429.56   20.50
   1   5  -4  431.46   16.00
   1  -5   4   79.79    5.40
  -1  -5  -4   78.79    6.80
  -1  -5  -4   65.49    6.80
  -1  -5  -4   81.99    7.80
   1   5   4   72.99    8.30
  -1   5  -4   80.79    4.50
  -1   5  -4   82.49    5.90
  -1   5  -4   77.99    4.30
   1   5   4   56.89    6.40
   1   5   4   76.39    7.10
   3  -5   4  188.78   10.40
  -3  -5  -4  169.58   11.10
  -3  -5  -4  188.98   12.50
  -3  -5  -4  185.88   11.30
   3   5   4  202.78   12.10
   3   5   4  210.98   14.20
  -3   5  -4  177.98   10.20
  -3   5  -4  181.18    8.50
   3   5   4  172.58   11.70
  -5  -5  -4   50.89    6.40
   5  -5   4   60.39    4.70
  -5  -5  -4   64.19    7.60
   5  -5   4   63.89    7.60
  -5  -5  -4   62.19    8.10
   5   5   4   61.69    7.60
   5   5   4   63.99    8.10
  -5   5  -4   51.69    5.00
   5   5   4   55.39    9.00
  -5   5  -4   58.89    7.00
  -7  -5  -4   20.90    5.40
   7  -5   4   24.00    3.90
  -7  -5  -4   20.70    5.50
   7  -5   4   21.00    6.40
  -7   5  -4   22.10    4.30
  -7   5  -4   30.50    6.80
   7   5   4   22.50    5.90
  -9  -5  -4   52.39    8.00
  -9  -5  -4   58.29    9.10
   9  -5   4   50.59    6.00
   9   5   4   39.40    8.20
  -9   5  -4   54.39    7.20
 -11  -5  -4   60.29    9.60
  11  -5   4   70.29    7.80
 -11   5  -4   49.30    7.30
  11   5   4   53.89    9.70
 -13  -5  -4   40.70    9.40
  13  -5   4   45.80    7.40
 -13   5  -4   41.00    8.00
  13   5   4   54.99   11.10
  18  -6  -4  424.26   21.60
  18  -6  -4  500.85   24.90
 -18  -6   4  462.25   25.30
  18   6  -4  421.26   26.80
  16  -6  -4  643.64   27.50
  16  -6  -4  677.03   29.80
 -16  -6   4  699.73   30.40
  16   6  -4  677.03   32.90
  14  -6  -4 1376.16   48.30
 -14  -6   4 1322.47   47.50
  14  -6  -4 1321.27   46.50
 -14  -6   4 1361.06   46.40
  14   6  -4 1359.06   51.19
  14   6  -4 1433.46   44.80
  12  -6  -4 2058.39   65.19
  12  -6  -4 1997.40   65.29
  12  -6  -4 1958.80   64.09
 -12  -6   4 1845.02   62.69
 -12  -6   4 2018.10   62.79
 -12   6   4 2040.20   65.29
  12   6  -4 2086.19   67.89
  12   6  -4 2035.10   60.59
 -10  -6   4 1262.67   39.20
  10  -6  -4 1179.58   41.10
  10  -6  -4 1161.08   40.80
 -10  -6   4 1118.39   37.90
  10  -6  -4 1191.58   41.40
 -10   6   4 1243.08   42.30
  10   6  -4 1203.18   36.50
  10   6  -4 1203.48   42.30
 -10   6   4 1119.29   42.10
  10   6  -4 1114.49   40.80
   8  -6  -4  713.03   26.50
   8  -6  -4  672.63   26.70
   8  -6  -4  701.03   26.80
  -8   6   4  645.74   25.80
   8   6  -4  695.73   26.50
   8   6  -4  673.83   26.10
  -8   6   4  670.73   27.40
   8   6  -4  703.73   21.30
  -8   6   4  669.73   27.30
   6  -6  -4 1983.00   59.89
   6  -6  -4 1868.01   60.89
  -6   6   4 1829.82   59.59
   6   6  -4 1836.32   59.19
  -6   6   4 1954.60   62.19
  -6   6   4 1831.62   60.49
   6   6  -4 1951.40   59.09
   4  -6  -4 2408.06   78.09
  -4   6   4 2510.75   77.09
  -4   6   4 2638.44   80.19
   4   6  -4 2506.65   75.59
   4   6  -4 2499.35   74.59
  -4   6   4 2486.85   77.39
   2  -6  -4 2831.42   84.69
   2  -6  -4 2729.43   86.79
  -2   6   4 2989.40   89.09
  -2   6   4 2769.62   85.69
   2   6  -4 2853.41   82.49
   2   6  -4 2685.93   82.69
  -2   6   4 2721.63   85.19
   2   6  -4 2822.62   82.29
   0  -6   4 2526.65   73.89
   0  -6  -4 2574.34   79.99
   0  -6  -4 2539.25   80.29
   0  -6  -4 2536.75   82.59
   0   6   4 2835.12   85.39
   0   6   4 2631.94   81.49
   0   6  -4 2713.33   76.89
   0   6   4 2580.64   80.39
   0   6  -4 2614.54   77.99
  -2  -6  -4 1109.99   42.10
  -2  -6  -4 1154.68   40.00
   2  -6   4 1122.49   36.40
  -2  -6  -4 1125.09   39.90
   2   6   4 1230.48   44.70
  -2   6  -4 1122.39   38.10
  -2   6  -4 1189.78   34.30
   2   6   4 1077.99   39.60
   2   6   4 1149.29   41.50
  -2   6  -4 1159.28   34.80
  -4  -6  -4 1297.77   45.30
  -4  -6  -4 1297.17   47.80
   4  -6   4 1315.87   43.60
   4   6   4 1313.37   47.50
  -4   6  -4 1324.97   41.10
  -4   6  -4 1280.67   44.10
   4   6   4 1375.46   45.90
  -6  -6  -4 1447.46   50.39
  -6  -6  -4 1561.14   52.79
   6  -6   4 1390.66   49.50
  -6   6  -4 1398.96   49.50
  -6   6  -4 1490.55   46.50
   6   6   4 1427.26   52.69
  -8  -6  -4  669.13   29.80
  -8  -6  -4  657.33   28.50
   8  -6   4  617.14   22.90
   8  -6   4  630.94   29.10
   8   6   4  570.24   29.30
  -8   6  -4  650.93   25.00
 -10  -6  -4  515.45   26.10
  10  -6   4  522.45   20.30
 -10  -6  -4  494.85   25.00
  10   6   4  479.95   27.20
 -10   6  -4  449.06   21.70
 -12  -6  -4  249.78   18.30
  12  -6   4  243.58   14.00
  12   6   4  250.07   20.50
 -12   6  -4  237.38   15.80
  17  -7  -4  285.87   17.10
  17  -7  -4  309.57   19.00
 -17  -7   4  330.37   19.90
  17   7  -4  295.77   22.30
  15  -7  -4  560.54   25.40
 -15  -7   4  634.34   27.20
  15  -7  -4  596.94   27.30
  15   7  -4  579.74   30.40
  15   7  -4  630.64   24.80
 -13  -7   4  795.62   30.60
  13  -7  -4  806.52   32.10
 -13  -7   4  814.32   30.60
  13  -7  -4  782.72   31.20
  13   7  -4  831.32   28.50
  13   7  -4  766.22   34.70
  11  -7  -4 1188.18   41.50
  11  -7  -4 1107.49   40.80
 -11  -7   4 1167.68   39.50
  11  -7  -4 1139.59   41.80
 -11  -7   4 1108.39   38.00
  11   7  -4 1140.39   43.30
  11   7  -4 1208.98   36.70
 -11   7   4 1169.18   42.40
   9  -7  -4 1967.80   62.89
   9  -7  -4 2077.09   63.79
   9  -7  -4 1951.50   63.39
   9   7  -4 1918.61   63.89
  -9   7   4 1975.10   63.19
   9   7  -4 1968.30   56.69
  -9   7   4 1806.42   63.79
   7  -7  -4 3054.89   92.99
   7  -7  -4 2869.31   91.19
   7  -7  -4 3097.59   91.89
   7   7  -4 3075.59   91.49
   7   7  -4 2960.80   91.69
  -7   7   4 2946.61   92.99
  -7   7   4 3093.29   94.29
  -7   7   4 2943.71   91.69
   5  -7  -4 2922.01   91.19
  -5   7   4 2938.11   90.89
  -5   7   4 3027.60   92.99
   5   7  -4 2936.11   89.29
   5   7  -4 2936.81   88.39
  -5   7   4 2875.61   89.79
   3  -7  -4 1295.67   43.80
   3  -7  -4 1224.58   46.00
  -3   7   4 1403.66   49.00
  -3   7   4 1289.67   45.30
   3   7  -4 1343.27   42.70
   3   7  -4 1347.17   43.80
  -3   7   4 1302.07   45.60
   3   7  -4 1302.37   42.60
   1  -7  -4 1360.46   49.99
   1  -7  -4 1357.06   48.20
   1  -7  -4 1415.66   47.00
   1   7  -4 1384.06   45.60
  -1   7   4 1439.46   48.90
   1   7  -4 1453.65   45.50
   1   7  -4 1488.15   45.70
  -1   7   4 1481.35   52.39
  -1   7   4 1355.76   48.10
  -1  -7  -4 1006.20   39.80
   1  -7   4 1021.50   31.10
  -1  -7  -4 1042.90   37.10
  -1   7  -4 1033.60   36.20
   1   7   4 1001.50   38.10
  -1   7  -4 1115.89   34.00
   3  -7   4  572.64   21.10
  -3  -7  -4  535.15   23.70
  -3  -7  -4  544.45   26.40
  -3   7  -4  589.84   18.30
   3   7   4  574.64   26.30
  -3   7  -4  562.54   23.70
  -3   7  -4  585.54   19.60
  -5  -7  -4  968.00   36.70
  -5  -7  -4 1001.30   39.70
   5  -7   4 1004.50   35.40
  -5   7  -4 1016.10   32.80
   5   7   4  932.01   39.60
   7  -7   4  457.35   22.50
  -7  -7  -4  452.95   23.90
  -7  -7  -4  426.96   21.80
   7   7   4  407.56   24.10
  -7   7  -4  455.65   18.80
  -9  -7  -4  151.68   14.70
  -9  -7  -4  182.88   14.00
   9   7   4  137.19   15.60
  -9   7  -4  168.88   11.50
 -11  -7  -4  341.07   21.10
  11  -7   4  331.67   16.00
  11   7   4  314.77   23.60
 -11   7  -4  343.87   18.50
 -16  -8   4    1.20    5.90
  16  -8  -4    9.80    5.70
  16  -8  -4    1.90    5.00
  16   8  -4   -6.20    6.60
  14  -8  -4    7.30    5.00
  14  -8  -4   13.10    5.20
 -14  -8   4   17.90    5.40
  14   8  -4    5.40    5.70
  14   8  -4   10.80    5.10
 -12  -8   4   28.00    6.90
 -12  -8   4   38.70    5.60
  12  -8  -4   27.10    6.20
  12  -8  -4   26.50    6.30
  12   8  -4   34.40    5.00
  12   8  -4   39.00    8.60
  10  -8  -4  129.79   10.70
  10  -8  -4  116.29   10.10
  10  -8  -4  106.69   11.60
  10   8  -4  120.89   11.40
  10   8  -4  116.89    6.20
 -10   8   4  130.69   10.60
 -10   8   4  134.89   12.80
   8  -8  -4   -0.60    4.90
   8  -8  -4    2.30    3.30
   8  -8  -4    4.40    3.60
   8   8  -4   11.90    4.40
  -8   8   4    1.70    3.20
  -8   8   4   17.00    6.40
   6  -8  -4   58.69    7.90
   6  -8  -4   53.19    7.70
  -6   8   4   58.19    9.60
   6   8  -4   59.19    7.90
  -6   8   4   59.59    7.90
   6   8  -4   53.49    7.30
   4  -8  -4  342.67   19.00
   4  -8  -4  376.96   17.40
   4   8  -4  340.17   17.50
  -4   8   4  412.06   19.20
   4   8  -4  352.06   16.80
   2  -8  -4   20.40    5.60
   2  -8  -4    9.70    3.60
   2   8  -4   10.70    3.20
  -2   8   4   17.40    5.00
   2   8  -4   12.30    4.40
   2   8  -4    7.90    3.90
   0  -8  -4   10.00    4.50
   0  -8  -4   10.00    3.70
   0   8  -4    9.50    3.30
   0   8  -4    5.30    4.50
   0   8  -4    1.40    3.50
   0   8   4   11.90    4.70
  -2  -8  -4    5.00    4.10
  -2  -8  -4    8.20    4.00
   2  -8   4    5.20    2.20
   2   8   4    8.60    4.80
  -2   8  -4    5.80    3.30
  -2   8  -4    9.00    5.00
  -4  -8  -4    8.20    3.60
  -4  -8  -4    2.50    4.50
   4  -8   4    7.70    3.90
   4   8   4    0.00    4.40
  -6  -8  -4   19.80    6.40
   6  -8   4   12.60    6.20
  -6  -8  -4   12.10    5.00
   6   8   4   18.00    7.10
  -6   8  -4   15.30    3.90
  -8  -8  -4   14.40    5.90
   8  -8   4    7.50    9.00
  -8  -8  -4    9.90    5.80
  -8   8  -4   12.10    4.40
   8   8   4   13.20    7.70
 -10  -8  -4   53.89    9.30
 -10  -8  -4   49.30   10.50
  10   8   4   43.10   11.20
 -10   8  -4   43.80    7.50
  15  -9  -4  369.26   20.40
  15  -9  -4  361.06   20.80
 -15  -9   4  417.06   20.00
  15   9  -4  373.56   25.50
  13  -9  -4  525.25   25.30
 -13  -9   4  579.54   22.70
  13  -9  -4  568.64   26.60
  13   9  -4  565.44   29.90
  13   9  -4  561.34   21.10
  11  -9  -4  659.93   29.40
  11  -9  -4  702.43   29.90
  11   9  -4  703.63   32.30
 -11   9   4  750.02   31.00
   9  -9  -4  537.95   25.60
   9  -9  -4  559.24   25.50
  -9   9   4  555.24   25.50
   9   9  -4  544.15   26.00
   7  -9  -4 1095.89   41.90
   7  -9  -4 1074.79   39.70
  -7   9   4 1123.69   41.20
   7   9  -4 1072.59   40.30
   5  -9  -4 1358.96   45.80
   5  -9  -4 1307.87   49.00
  -5   9   4 1337.17   47.80
   5   9  -4 1326.07   46.30
   3  -9  -4  782.72   29.90
   3  -9  -4  763.02   33.40
  -3   9   4  792.22   32.30
   3   9  -4  800.32   31.10
   3   9  -4  779.62   30.30
   1  -9  -4  879.21   37.00
   1  -9  -4  852.21   32.40
   1   9  -4  860.31   32.50
  -1   9   4  834.02   35.00
   1   9  -4  911.81   32.90
  -1  -9  -4 1078.09   39.10
  -1  -9  -4 1034.80   43.20
  -1   9  -4 1129.79   39.40
  -1   9  -4 1141.79   37.90
   1   9   4 1069.29   42.80
   3  -9   4 1174.68   35.70
  -3  -9  -4 1200.38   42.50
  -3  -9  -4 1179.68   46.80
   3   9   4 1185.88   46.90
  -3   9  -4 1195.78   38.00
  -5  -9  -4 1089.89   44.40
   5  -9   4 1089.49   36.20
  -5  -9  -4 1066.19   39.90
   5   9   4 1039.20   44.70
  -7  -9  -4  551.14   26.10
  -7  -9  -4  626.84   30.60
   7   9   4  501.35   30.30
  12 -10  -4  414.86   22.70
  12  10  -4  446.26   25.90
 -12  10   4  460.25   24.20
  10 -10  -4  486.55   24.80
 -10  10   4  484.45   24.70
  10  10  -4  527.85   26.70
   8 -10  -4  580.24   27.60
   8  10  -4  582.64   27.50
  -8  10   4  561.34   26.80
   6 -10  -4  601.74   25.60
   6 -10  -4  626.54   29.20
   6 -10  -4  585.44   26.40
   6  10  -4  610.34   27.00
  -6  10   4  618.14   27.90
   4 -10  -4  532.85   23.20
   4 -10  -4  531.05   27.00
  -4  10   4  551.74   26.10
   4  10  -4  536.55   24.40
   2 -10  -4  723.73   32.80
   2 -10  -4  699.33   27.90
  -2  10   4  704.53   31.00
   2  10  -4  686.33   29.30
   2  10  -4  658.53   28.50
   0 -10  -4  724.93   28.80
   0 -10  -4  719.93   33.60
   0  10   4  726.33   32.60
   0  10  -4  730.23   29.50
   0  10  -4  704.73   29.50
  -2 -10  -4  524.05   23.60
  -2 -10  -4  574.04   28.70
  -2  10  -4  562.24   25.00
  -2  10  -4  536.15   22.90
   2  10   4  510.65   27.60
  -4 -10  -4  457.35   21.40
  -4 -10  -4  395.56   24.60
   4  10   4  442.76   25.90
  -6 -10  -4  363.56   23.90
  -6 -10  -4  395.56   20.90
   6  10   4  395.16   25.70
   9 -11  -4    9.90    6.50
  -9  11   4   10.20    6.10
   9  11  -4   -0.40    5.90
   7 -11  -4    9.10    5.30
   7 -11  -4    9.70    6.20
   7  11  -4   -1.20    5.30
  -7  11   4    1.80    5.30
   5 -11  -4   27.80    7.60
   5 -11  -4   38.40    7.40
   5 -11  -4   16.80   10.40
   5  11  -4   34.80    7.50
  -5  11   4   40.50    8.60
   3 -11  -4   35.10    8.90
   3 -11  -4   27.30    6.30
   3  11  -4   18.20    6.20
  -3  11   4   34.90    8.10
   1 -11  -4   12.10    6.60
   1 -11  -4    1.90    4.60
  -1  11   4    7.90    5.60
   1  11  -4   13.10    5.60
  -1 -11  -4   -2.70    4.60
  -1 -11  -4    5.90    6.20
  -1  11  -4   -1.00    4.80
   1  11   4    9.30    6.40
  -3 -11  -4   10.30    7.00
  -3 -11  -4   12.70    5.50
  -3  11  -4   15.40    6.40
   3  11   4   13.80    7.70
  22   0  -5    0.60    6.10
 -22   0   5    6.90    6.70
  22   0  -5    1.10    6.90
  20   0  -5    0.90    5.10
 -20   0   5    4.50    5.50
  20   0  -5    6.90    5.80
 -18   0   5   -1.50    3.60
  18   0  -5    2.50    4.10
 -16   0   5    2.40    3.60
  16   0  -5    3.80    3.70
 -16   0   5    2.40    4.00
 -14   0   5    3.50    3.20
  14   0  -5    6.50    3.10
 -14   0   5    6.60    3.00
  14   0  -5    6.30    3.10
  12   0  -5   16.00    3.60
  12   0  -5    5.30    2.50
 -12   0   5    1.40    2.30
  10   0  -5    9.20    2.60
 -10   0   5    4.60    1.90
  10   0  -5    8.40    2.70
  10   0  -5    3.90    1.90
   8   0  -5    2.30    1.30
   8   0  -5    9.40    2.30
  -8   0   5    4.60    1.50
   8   0  -5    3.00    1.60
   6   0  -5    4.80    1.20
   6   0  -5    7.30    2.20
   4   0  -5    4.10    0.90
   4   0  -5    3.10    1.60
  -4   0   5    5.10    1.70
   4   0  -5    3.10    0.90
   2   0  -5    6.20    1.10
  -2   0   5    3.20    1.70
   2   0  -5    0.90    1.30
   2   0  -5    7.00    1.90
   0   0   5    4.70    2.30
   0   0   5    2.50    1.50
   0   0  -5    4.00    1.50
   0   0  -5    5.70    1.60
  -2   0  -5    1.00    1.80
  -2   0  -5    2.30    1.90
   2   0   5    3.40    1.30
  -2   0  -5    2.60    1.60
   2   0   5    0.00    1.70
   2   0   5    2.60    2.60
   4   0   5    6.40    2.50
   4   0   5    5.10    3.50
  -4   0  -5   -1.10    2.10
  -4   0  -5    4.10    1.90
  -4   0  -5    0.30    2.00
   4   0   5    3.40    1.90
   6   0   5    1.00    4.40
   6   0   5    2.70    2.20
   6   0   5    2.90    2.80
  -6   0  -5   -0.90    3.00
  -6   0  -5    2.10    1.90
  -6   0  -5    2.80    2.80
   8   0   5    1.30    2.80
  -8   0  -5    3.40    3.30
   8   0   5    1.30    3.70
 -10   0  -5    0.60    3.70
  10   0   5    5.40    4.10
  10   0   5    7.20    5.10
  12   0   5    1.30    7.20
  12   0   5    5.80    5.40
 -12   0  -5   -6.30    4.70
  21  -1  -5  220.28   17.20
 -21  -1   5  258.57   19.80
  21  -1  -5  222.58   17.60
 -21   1   5  251.37   19.00
  21   1  -5  206.38   17.60
 -19  -1   5  534.25   27.30
  19  -1  -5  517.35   25.60
  19  -1  -5  517.55   26.00
 -19   1   5  514.75   26.20
  19   1  -5  509.75   26.00
  17  -1  -5  969.10   37.00
 -17  -1   5  939.01   37.80
  17  -1  -5  900.21   36.40
  17   1  -5  948.81   37.00
 -17   1   5  905.61   36.90
 -15  -1   5  440.46   19.50
  15  -1  -5  445.96   21.10
  15  -1  -5  433.86   19.90
 -15  -1   5  430.46   21.10
  15  -1  -5  484.15   21.30
 -15   1   5  465.15   20.60
  15   1  -5  461.05   19.30
  15   1  -5  427.46   20.70
 -15   1   5  422.46   20.70
  13  -1  -5 1176.28   40.40
  13  -1  -5 1239.18   41.70
  13  -1  -5 1212.48   40.00
 -13  -1   5 1093.99   40.40
 -13  -1   5 1170.08   38.80
  13   1  -5 1204.18   39.00
  13   1  -5 1138.79   40.20
 -13   1   5 1183.88   39.80
  11  -1  -5 2678.03   80.19
  11  -1  -5 2687.83   81.79
  11  -1  -5 2679.53   80.09
 -11  -1   5 2722.03   78.49
 -11   1   5 2692.73   79.59
  11   1  -5 2591.74   79.89
  11   1  -5 2646.64   78.89
   9  -1  -5 2026.80   61.29
   9  -1  -5 1961.00   60.39
  -9  -1   5 1985.30   58.49
   9  -1  -5 1978.90   62.49
   9   1  -5 2075.79   60.19
   9   1  -5 2046.60   60.19
  -9   1   5 2026.40   59.99
   7  -1  -5 4122.29  121.89
   7  -1  -5 4379.46  119.69
  -7   1   5 4285.57  118.79
  -7   1   5 3963.30  121.69
   7   1  -5 4277.97  118.49
  -7   1   5 4203.48  118.69
   5  -1  -5 3410.36   98.59
   5  -1  -5 3323.47   95.69
  -5   1   5 3351.46   98.69
   5   1  -5 3472.65   98.19
  -5   1   5 3326.07   94.69
  -5   1   5 3383.16   94.79
   3  -1  -5 2963.90   88.29
   3  -1  -5 3014.90   84.89
   3  -1  -5 2985.00   85.29
   3  -1  -5 2783.42   87.39
   3   1  -5 2980.70   87.09
   3   1  -5 3074.79   86.89
  -3   1   5 2987.00   87.89
  -3   1   5 3123.19   83.89
  -3   1   5 3075.49   83.79
  -1  -1   5 2929.81   89.49
   1  -1  -5 3000.60   90.49
   1  -1  -5 3013.20   89.09
  -1  -1   5 3063.09   87.49
   1  -1  -5 2951.20   87.09
  -1   1   5 3061.89   90.89
  -1   1   5 3112.69   89.59
  -1   1   5 3260.27   86.09
   1   1  -5 3176.98   85.69
   1   1  -5 3024.30   87.49
   1   1  -5 2930.71   89.09
  -1   1   5 3138.69   86.19
   1  -1   5  650.13   24.40
  -1  -1  -5  700.13   23.20
  -1  -1  -5  648.84   21.90
   1  -1   5  657.33   20.90
  -1  -1  -5  618.54   24.20
   1   1   5  646.84   24.90
  -1   1  -5  641.84   20.90
   1   1   5  630.84   23.00
   1   1   5  631.34   21.00
  -1   1  -5  629.34   21.10
  -1   1  -5  640.34   23.10
   3  -1   5 1497.25   50.49
   3  -1   5 1576.34   44.70
  -3  -1  -5 1498.85   48.10
  -3  -1  -5 1451.65   49.60
   3  -1   5 1539.35   45.10
  -3  -1  -5 1571.84   47.90
  -3   1  -5 1551.54   45.20
  -3   1  -5 1480.55   47.10
   3   1   5 1576.44   48.70
  -3   1  -5 1537.95   48.70
   3   1   5 1510.85   46.70
   3   1   5 1487.75   50.69
   5  -1   5 1398.86   42.70
   5  -1   5 1458.45   49.00
  -5  -1  -5 1344.97   45.30
  -5  -1  -5 1440.66   44.60
  -5  -1  -5 1232.88   46.30
   5  -1   5 1362.66   41.60
   5   1   5 1469.75   49.00
  -5   1  -5 1367.56   45.90
  -5   1  -5 1442.56   45.40
   5   1   5 1392.76   45.80
   5   1   5 1364.86   44.30
  -7  -1  -5  426.46   19.80
  -7  -1  -5  462.05   17.90
   7  -1   5  415.06   17.20
   7  -1   5  414.76   30.70
  -7  -1  -5  414.86   20.40
   7  -1   5  416.06   15.80
  -7   1  -5  442.76   19.80
   7   1   5  427.86   19.80
   7   1   5  428.06   18.70
  -7   1  -5  436.36   19.80
  -9  -1  -5  380.06   20.40
   9  -1   5  407.66   17.80
   9  -1   5  368.66   15.20
   9   1   5  415.16   20.30
  -9   1  -5  392.26   19.80
   9   1   5  389.76   18.80
  11  -1   5  196.68   11.10
 -11  -1  -5  213.08   15.70
  11  -1   5  234.88   13.90
  11   1   5  211.18   14.60
 -11   1  -5  211.38   15.10
  11   1   5  219.58   16.80
  13  -1   5  167.48   13.30
 -13  -1  -5  147.39   14.80
  13   1   5  149.09   13.90
 -13   1  -5  171.48   14.70
 -22  -2   5  217.18   20.00
  22  -2  -5  214.98   17.40
  22  -2  -5  196.08   18.80
 -22   2   5  221.58   21.80
 -20  -2   5  538.45   28.70
  20  -2  -5  510.05   26.60
  20  -2  -5  493.35   25.60
  20   2  -5  531.25   27.70
 -20   2   5  505.95   27.10
  18  -2  -5  777.32   32.30
 -18  -2   5  736.03   33.50
  18  -2  -5  772.02   32.70
  18   2  -5  737.73   32.80
 -18   2   5  778.32   33.20
 -16  -2   5  576.34   26.40
  16  -2  -5  603.44   26.00
 -16  -2   5  571.24   24.00
  16  -2  -5  594.74   25.90
  16   2  -5  572.34   26.10
  14  -2  -5 1578.34   52.69
 -14  -2   5 1610.14   50.49
  14  -2  -5 1525.25   51.69
 -14  -2   5 1534.95   53.09
  14  -2  -5 1550.64   52.89
  14   2  -5 1588.34   50.19
 -14   2   5 1675.53   52.99
  14   2  -5 1570.64   52.89
  12  -2  -5 2765.82   84.39
  12  -2  -5 2692.53   83.39
 -12  -2   5 2811.22   81.19
  12  -2  -5 2804.72   83.59
 -12  -2   5 2657.13   83.49
  12   2  -5 2699.83   83.39
 -12   2   5 2777.22   83.39
  12   2  -5 2797.72   81.39
  10  -2  -5 2688.13   80.19
  10  -2  -5 2669.23   79.49
 -10  -2   5 2646.74   76.99
  10  -2  -5 2632.94   80.89
  10   2  -5 2622.24   78.99
 -10   2   5 2741.23   79.59
  10   2  -5 2639.14   77.79
   8  -2  -5 1609.54   50.49
   8  -2  -5 1620.64   52.19
  -8  -2   5 1696.13   47.50
   8   2  -5 1671.83   49.40
   8   2  -5 1647.24   49.30
  -8   2   5 1688.83   50.49
  -8   2   5 1643.44   52.49
   6  -2  -5 1503.85   44.40
   6  -2  -5 1419.76   46.20
  -6   2   5 1493.45   44.10
  -6   2   5 1442.46   43.90
  -6   2   5 1415.36   46.40
   6   2  -5 1459.95   42.10
   4  -2  -5 3351.76   96.49
   4  -2  -5 3301.67   98.49
   4  -2  -5 3350.06   95.89
   4   2  -5 3279.17   96.09
  -4   2   5 3284.37   95.69
  -4   2   5 3467.95   95.69
  -4   2   5 3472.95   99.09
   2  -2  -5 3061.29   86.79
   2  -2  -5 2971.80   89.29
   2  -2  -5 2971.60   88.69
   2   2  -5 3076.89   86.29
  -2   2   5 2997.50   89.09
   2   2  -5 2917.01   86.59
  -2   2   5 2975.50   85.89
  -2   2   5 3054.99   86.09
   0  -2  -5 2850.11   81.29
   0  -2  -5 2747.43   83.09
   0  -2  -5 2792.62   84.19
   0  -2   5 2774.22   82.69
   0   2  -5 2824.52   79.19
   0   2   5 2729.03   80.59
   0   2   5 2630.64   83.99
   0   2   5 2848.31   83.89
   0   2  -5 2847.52   79.19
   0   2  -5 2773.82   81.29
   0   2   5 2844.52   80.99
  -2  -2  -5 1824.22   58.99
  -2  -2  -5 1793.52   59.79
  -2  -2  -5 1910.51   57.59
   2  -2   5 1966.70   59.99
   2   2   5 1826.22   56.99
  -2   2  -5 1806.42   57.19
   2   2   5 1978.50   59.99
  -2   2  -5 1973.10   56.39
   2   2   5 1898.91   60.59
  -4  -2  -5 1009.10   34.00
   4  -2   5  991.80   36.60
   4  -2   5 1007.20   30.30
  -4  -2  -5  970.30   35.80
  -4  -2  -5  966.90   34.60
   4   2   5  979.20   36.00
  -4   2  -5  944.91   33.40
   4   2   5 1051.69   37.20
   4   2   5  982.10   33.70
  -4   2  -5 1014.80   33.40
   6  -2   5 1135.49   41.70
  -6  -2  -5 1102.59   38.50
  -6  -2  -5  937.61   38.90
   6  -2   5 1117.79   35.00
  -6  -2  -5 1146.09   38.40
   6   2   5 1082.49   38.10
   6   2   5 1171.68   40.80
  -6   2  -5 1084.99   37.90
  -6   2  -5 1138.19   38.40
  -8  -2  -5  655.03   29.30
  -8  -2  -5  742.23   27.60
   8  -2   5  689.13   25.30
  -8   2  -5  776.92   38.30
   8   2   5  728.53   30.60
  -8   2  -5  713.93   28.10
   8   2   5  661.53   27.90
  10  -2   5  469.25   20.00
 -10  -2  -5  448.86   23.60
 -10   2  -5  465.65   22.60
  10   2   5  519.75   26.10
  10   2   5  437.16   22.10
  12  -2   5  244.38   14.50
 -12  -2  -5  236.28   17.70
  12   2   5  225.78   16.50
 -12   2  -5  255.07   16.90
  21  -3  -5    6.00    6.30
 -21  -3   5    8.40    6.90
  21  -3  -5    6.70    5.80
  21   3  -5    3.20    6.50
  19  -3  -5   -1.80    4.80
 -19  -3   5    8.60    6.00
  19  -3  -5   -0.80    4.60
  19   3  -5    2.20    5.20
 -17  -3   5   73.19    9.40
  17  -3  -5   88.59    9.70
  17  -3  -5   69.79    8.50
  17   3  -5   72.19   10.40
  15  -3  -5  161.18   11.50
 -15  -3   5  145.69   10.40
  15  -3  -5  146.99   11.00
 -15  -3   5  124.99   10.70
  15   3  -5  167.58   12.20
  15   3  -5  146.39    9.70
  13  -3  -5   62.79    6.70
 -13  -3   5   64.69    7.10
  13  -3  -5   71.79    7.60
 -13  -3   5   66.79    6.10
  13  -3  -5   58.19    6.50
  13   3  -5   67.39    7.30
 -13   3   5   63.59    7.90
  13   3  -5   64.89    5.80
  11  -3  -5  199.98   11.20
  11  -3  -5  201.88   11.70
 -11  -3   5  193.78   10.90
  11  -3  -5  195.38   11.50
 -11  -3   5  200.18    9.50
  11   3  -5  201.38    9.50
 -11   3   5  230.48   12.10
  11   3  -5  206.48   11.30
   9  -3  -5  195.88   11.10
  -9  -3   5  191.98    8.20
   9  -3  -5  190.68   10.30
   9  -3  -5  194.78   10.90
  -9   3   5  200.58   11.50
  -9   3   5  202.48   10.70
   9   3  -5  215.18    8.80
   9   3  -5  204.88   10.00
   7  -3  -5  482.35   19.80
   7  -3  -5  490.15   18.50
  -7   3   5  508.45   18.70
  -7   3   5  486.05   18.20
   7   3  -5  488.25   16.20
   7   3  -5  490.55   17.00
  -7   3   5  494.95   20.30
   5  -3  -5 1494.75   47.50
   5  -3  -5 1456.35   45.20
  -5   3   5 1457.85   45.30
  -5   3   5 1464.45   45.50
   5   3  -5 1500.75   42.60
   3  -3  -5  225.38   10.50
   3  -3  -5  203.28   11.20
   3  -3  -5  219.88   11.50
  -3   3   5  221.68   10.00
   3   3  -5  228.88    8.90
  -3   3   5  239.08   10.50
  -3   3   5  209.38   11.60
   1  -3  -5   78.29    5.90
  -1  -3   5   80.79    5.50
   1  -3  -5   89.79    7.00
   1  -3  -5   82.29    6.80
   1   3  -5   78.59    4.10
  -1   3   5   95.09    6.30
   1   3  -5   88.29    5.00
  -1   3   5   92.59    7.70
  -1   3   5   87.39    5.90
   1   3  -5   96.49    4.90
  -1  -3  -5  288.67   14.40
  -1  -3  -5  300.07   14.90
  -1  -3  -5  322.57   13.50
   1  -3   5  289.17   13.50
   1   3   5  295.87   13.40
  -1   3  -5  281.77   11.90
   1   3   5  295.87   15.00
   1   3   5  310.77   15.60
  -1   3  -5  294.97   11.60
   1   3   5  297.97   13.10
   3  -3   5  142.09    9.90
  -3  -3  -5  159.28   10.40
  -3  -3  -5  140.69    9.10
  -3  -3  -5  140.59   10.00
   3   3   5  136.29    9.10
  -3   3  -5  143.49    8.40
  -3   3  -5  141.09    8.10
   3   3   5  162.98   11.60
   3   3   5  157.38   11.10
   5  -3   5   55.29    8.30
  -5  -3  -5   56.09    6.80
   5  -3   5   50.89    4.00
  -5  -3  -5   55.29    6.90
  -5  -3  -5   51.99    6.80
   5   3   5   71.49    8.80
  -5   3  -5   62.89    6.90
  -5   3  -5   49.80    5.40
   5   3   5   66.89    9.20
   5   3   5   56.79    6.50
  -7  -3  -5   18.50    5.00
  -7  -3  -5   18.40    4.70
   7  -3   5   26.10    4.00
   7  -3   5   23.20    7.10
  -7   3  -5   34.50    6.50
   7   3   5   23.90    5.30
  -7   3  -5   22.20    4.50
   7   3   5   13.50    6.70
   9  -3   5    4.10    3.10
  -9  -3  -5    0.90    3.90
   9   3   5    7.50    4.60
  -9   3  -5    3.30    3.40
   9   3   5    1.60    7.90
  11  -3   5    6.20    4.30
 -11  -3  -5   19.10    6.60
  11   3   5   20.60    6.30
 -11   3  -5   17.10    5.10
  13  -3   5   17.00    6.30
 -13  -3  -5   27.90    8.60
 -13   3  -5   27.90    7.30
  13   3   5   21.00    7.80
  20  -4  -5  341.67   21.00
  20  -4  -5  309.27   19.20
 -20  -4   5  321.37   22.30
  20   4  -5  332.97   22.60
 -18  -4   5  475.05   26.00
  18  -4  -5  509.95   24.10
  18  -4  -5  500.85   24.90
  18   4  -5  553.14   27.50
  16  -4  -5  694.53   28.80
  16  -4  -5  736.53   29.80
 -16  -4   5  644.94   29.60
 -16  -4   5  727.23   27.70
  16   4  -5  689.33   26.70
  16   4  -5  680.33   30.70
  14  -4  -5  978.60   36.10
 -14  -4   5  975.90   33.90
  14  -4  -5 1022.40   36.80
 -14  -4   5  972.60   36.50
  14   4  -5  989.00   33.20
  14   4  -5  964.70   37.40
  12  -4  -5 1009.60   36.50
 -12  -4   5  961.10   35.30
  12  -4  -5 1030.70   36.40
  12  -4  -5 1034.70   36.90
 -12  -4   5 1051.89   33.80
  12   4  -5  974.80   35.60
 -12   4   5 1065.39   37.50
  12   4  -5 1046.20   36.90
  12   4  -5 1037.10   33.00
 -10  -4   5 1306.37   40.00
  10  -4  -5 1233.18   43.40
  10  -4  -5 1328.77   43.90
  10  -4  -5 1321.07   43.00
  10   4  -5 1297.17   39.30
 -10   4   5 1327.07   43.70
  10   4  -5 1289.37   42.80
 -10   4   5 1261.17   44.20
   8  -4  -5 1592.64   49.50
   8  -4  -5 1530.95   50.59
  -8   4   5 1543.75   51.09
   8   4  -5 1570.34   48.30
  -8   4   5 1566.64   49.00
   8   4  -5 1533.85   45.30
  -8   4   5 1545.35   49.70
   6  -4  -5  645.44   25.00
   6  -4  -5  644.04   23.30
   6   4  -5  660.53   19.70
  -6   4   5  665.63   23.70
  -6   4   5  650.93   23.70
   6   4  -5  643.74   21.60
  -6   4   5  637.54   25.50
   4  -4  -5 1377.16   46.40
   4  -4  -5 1423.46   44.40
   4  -4  -5 1463.85   45.60
  -4   4   5 1444.76   47.50
  -4   4   5 1412.26   44.70
   4   4  -5 1415.16   40.70
   4   4  -5 1406.56   42.80
  -4   4   5 1370.06   44.90
   2  -4  -5 2809.52   88.79
   2  -4  -5 3039.80   88.29
   2  -4  -5 2894.31   89.49
   2   4  -5 2952.70   83.49
  -2   4   5 2904.41   87.29
   2   4  -5 3062.09   84.09
  -2   4   5 2926.61   87.99
  -2   4   5 3043.80   90.99
   2   4  -5 2980.20   84.39
   0  -4  -5  808.62   30.70
   0  -4   5  791.12   27.20
   0  -4  -5  817.42   29.10
   0  -4  -5  770.32   30.00
   0   4  -5  821.92   25.70
   0   4   5  838.52   29.50
   0   4  -5  883.41   24.90
   0   4  -5  831.62   25.00
   0   4   5  764.32   28.50
   0   4  -5  832.82   26.30
   0   4   5  876.41   32.50
  -2  -4  -5  712.43   28.90
   2  -4   5  738.93   27.30
  -2  -4  -5  699.93   28.50
  -2  -4  -5  760.72   27.50
   2   4   5  798.32   31.50
   2   4   5  741.13   29.20
   2   4   5  763.62   28.30
  -2   4  -5  725.23   24.70
  -2   4  -5  784.02   25.80
  -4  -4  -5 1909.41   61.99
  -4  -4  -5 1830.22   59.49
  -4  -4  -5 1794.52   61.09
   4  -4   5 1823.72   60.79
   4   4   5 1958.00   64.59
  -4   4  -5 1865.71   58.39
   4   4   5 1838.62   60.59
  -4   4  -5 1866.31   57.19
   4   4   5 1961.80   62.29
  -6  -4  -5  754.22   30.20
  -6  -4  -5  766.82   30.90
   6  -4   5  768.92   24.30
   6  -4   5  664.03   30.40
   6   4   5  798.92   33.70
  -6   4  -5  736.83   28.80
  -6   4  -5  725.83   27.00
   6   4   5  721.53   30.00
  -8  -4  -5  402.86   20.10
  -8  -4  -5  339.97   19.70
   8  -4   5  377.56   15.00
  -8   4  -5  343.07   17.30
   8   4   5  360.16   19.90
 -10  -4  -5  473.05   24.80
  10  -4   5  460.85   19.00
  10   4   5  479.65   24.70
 -10   4  -5  475.35   22.30
 -12  -4  -5  222.68   17.60
  12  -4   5  207.08   12.80
  12   4   5  178.98   16.90
 -12   4  -5  209.38   15.40
  19  -5  -5  371.26   21.20
 -19  -5   5  341.77   22.10
  19  -5  -5  358.26   19.80
  19   5  -5  322.17   22.80
  17  -5  -5  306.87   17.40
 -17  -5   5  287.57   18.60
  17  -5  -5  324.07   18.40
  17   5  -5  302.47   20.00
  15  -5  -5  864.81   33.30
 -15  -5   5  859.11   33.90
  15  -5  -5  840.92   33.70
 -15  -5   5  850.21   31.50
  15   5  -5  851.31   30.40
  15   5  -5  885.51   36.00
  13  -5  -5 1197.68   42.90
 -13  -5   5 1186.68   42.10
 -13  -5   5 1305.97   40.90
  13  -5  -5 1197.98   43.00
  13   5  -5 1238.48   39.30
  13   5  -5 1219.48   44.30
  11  -5  -5 1153.88   40.70
 -11  -5   5 1126.39   37.90
  11  -5  -5 1161.28   40.10
  11  -5  -5 1124.49   40.30
 -11  -5   5 1191.68   37.20
 -11   5   5 1143.09   41.00
  11   5  -5 1069.69   35.40
  11   5  -5 1185.48   39.90
  11   5  -5 1173.58   40.70
 -11   5   5 1149.39   40.90
   9  -5  -5 1473.15   49.00
  -9  -5   5 1502.65   45.70
   9  -5  -5 1533.85   50.19
   9  -5  -5 1521.55   50.19
  -9   5   5 1513.85   50.09
   9   5  -5 1500.15   48.80
   9   5  -5 1512.65   48.70
  -9   5   5 1514.95   50.99
   9   5  -5 1515.95   44.30
   7  -5  -5 1865.01   60.69
   7  -5  -5 1844.62   58.89
   7   5  -5 1909.01   57.69
  -7   5   5 1929.21   59.29
   7   5  -5 1858.21   58.09
  -7   5   5 1896.91   61.59
   7   5  -5 1979.50   53.39
  -7   5   5 1827.12   59.59
   5  -5  -5 1656.73   55.59
   5  -5  -5 1792.02   54.19
  -5   5   5 1785.82   57.19
  -5   5   5 1775.82   54.69
   5   5  -5 1688.23   52.29
  -5   5   5 1657.33   54.29
   5   5  -5 1666.73   51.39
   3  -5  -5 2041.90   64.49
   3  -5  -5 2020.60   65.79
   3  -5  -5 2039.40   64.69
   3   5  -5 2042.90   61.09
  -3   5   5 2250.97   67.99
  -3   5   5 2087.39   64.59
  -3   5   5 1968.80   63.69
   1  -5  -5 1880.21   59.99
   1  -5  -5 1872.51   60.49
   1  -5  -5 1822.12   61.49
   1   5  -5 1893.11   56.49
  -1   5   5 1896.61   59.79
  -1   5   5 1969.70   63.69
   1   5  -5 1906.81   54.29
   1   5  -5 1912.51   55.99
  -1   5   5 1931.01   60.49
  -1  -5  -5 1086.59   39.70
  -1  -5  -5 1066.79   37.30
   1  -5   5 1075.59   34.90
  -1  -5  -5 1054.49   38.30
  -1   5  -5 1083.49   32.90
   1   5   5 1051.69   38.10
  -1   5  -5 1058.99   34.80
   1   5   5 1175.68   42.30
   1   5   5 1033.10   37.10
  -3  -5  -5  929.91   35.40
   3  -5   5  920.01   32.60
  -3  -5  -5  853.21   33.70
  -3  -5  -5  832.82   32.50
   3   5   5  949.90   34.80
   3   5   5  874.21   34.20
  -3   5  -5  881.01   31.30
   3   5   5  959.30   38.10
  -3   5  -5  899.51   29.40
   5  -5   5  709.33   28.90
  -5  -5  -5  730.43   30.00
  -5  -5  -5  724.43   29.30
  -5   5  -5  672.23   27.20
   5   5   5  677.43   29.40
  -5   5  -5  673.03   24.90
   7  -5   5  396.56   15.10
   7  -5   5  381.26   21.90
  -7  -5  -5  412.46   21.40
  -7  -5  -5  445.56   21.90
   7   5   5  369.86   21.20
  -7   5  -5  403.16   17.90
   9  -5   5  441.46   17.20
  -9  -5  -5  473.45   23.60
  -9  -5  -5  411.16   22.60
  -9   5  -5  409.26   19.80
   9   5   5  414.06   23.60
 -11  -5  -5  397.86   23.20
  11  -5   5  372.76   16.90
  11   5   5  364.96   23.60
 -11   5  -5  401.36   20.30
  18  -6  -5   28.80    7.10
 -18  -6   5   31.40    8.30
  18  -6  -5   31.00    7.40
  18   6  -5   20.70    7.90
 -16  -6   5   61.99    9.30
  16  -6  -5   78.89    9.50
  16  -6  -5   63.59    8.90
  16   6  -5   67.69   10.90
  16   6  -5   65.29    7.80
 -14  -6   5  100.79    9.00
  14  -6  -5   67.39    8.40
  14  -6  -5   80.39    8.60
 -14  -6   5   68.59    8.20
  14   6  -5   89.89   10.50
  14   6  -5   69.79    6.70
  12  -6  -5   24.30    5.20
 -12  -6   5   37.90    5.60
  12  -6  -5   41.40   11.60
  12  -6  -5   44.30    7.00
 -12  -6   5   33.40    5.30
  12   6  -5   32.30    4.20
 -12   6   5   35.90    7.10
  12   6  -5   29.70    6.40
  10  -6  -5   39.20    6.40
 -10  -6   5   40.50    5.10
  10  -6  -5   42.30    7.10
  10  -6  -5   48.90    6.00
 -10   6   5   27.40    5.90
  10   6  -5   31.60    5.60
  10   6  -5   28.50    3.20
  10   6  -5   29.70    5.60
 -10   6   5   33.40    6.40
   8  -6  -5   91.39    8.20
   8  -6  -5   95.19    7.70
   8   6  -5   78.39    6.90
  -8   6   5   98.69    7.80
   8   6  -5   87.69    3.80
   8   6  -5   77.49    7.40
  -8   6   5   72.79    8.80
  -8   6   5   76.69    8.40
   6  -6  -5   26.10    4.50
   6  -6  -5   33.20    5.80
  -6   6   5   17.30    5.10
   6   6  -5   26.30    4.60
  -6   6   5   21.00    4.40
   6   6  -5   25.80    4.00
  -6   6   5   32.20    5.70
   4  -6  -5   25.50    5.00
   4  -6  -5   18.10    4.50
  -4   6   5   27.70    5.10
   4   6  -5   15.30    3.10
   4   6  -5   12.70    3.20
  -4   6   5   17.60    5.60
  -4   6   5   16.00    4.20
   2  -6  -5    6.50    3.20
   2  -6  -5   13.00    4.20
   2  -6  -5    6.10    3.10
  -2   6   5    3.30    3.60
   2   6  -5    4.60    2.50
   2   6  -5    4.70    2.40
  -2   6   5   21.00    6.20
  -2   6   5   12.10    3.50
   0  -6  -5   12.00    3.90
   0  -6  -5   11.00    3.90
   0  -6   5   11.60    2.40
   0  -6  -5   13.00    3.80
   0   6   5   18.90    6.10
   0   6  -5   10.60    2.80
   0   6   5   13.30    4.40
   0   6  -5   11.30    3.30
   0   6  -5   14.10    2.10
   0   6   5    6.50    3.50
   2  -6   5  104.99    7.60
  -2  -6  -5  117.59   10.70
  -2  -6  -5  122.59    9.70
   2   6   5  116.69   10.20
   2   6   5  105.09    9.90
  -2   6  -5  109.59    6.20
  -2   6  -5  109.79    8.60
  -4  -6  -5   90.69    8.90
   4  -6   5   80.19    8.70
  -4  -6  -5   65.39    9.50
   4   6   5   83.49    9.90
  -4   6  -5   85.69    6.40
  -4   6  -5   85.29    8.90
   6  -6   5   79.99   10.20
  -6  -6  -5   70.99    8.90
  -6  -6  -5   79.19    9.60
  -6   6  -5   70.79    6.70
   6   6   5   92.99   12.10
  -8  -6  -5    8.90    5.40
  -8  -6  -5   13.70    5.80
   8   6   5    1.40    5.50
  -8   6  -5    6.90    4.00
 -10  -6  -5   17.90    7.20
 -10   6  -5   16.80    5.60
  10   6   5   20.90    9.00
 -17  -7   5  197.98   15.50
  17  -7  -5  200.18   15.20
  17  -7  -5  211.18   14.80
  17   7  -5  183.08   17.90
 -15  -7   5  564.24   24.80
  15  -7  -5  546.75   25.10
  15  -7  -5  561.44   25.80
  15   7  -5  515.55   28.00
  15   7  -5  587.44   22.60
  13  -7  -5  718.93   29.80
  13  -7  -5  720.83   30.00
 -13  -7   5  764.82   28.00
 -13  -7   5  739.83   27.70
  13   7  -5  733.33   25.40
  13   7  -5  693.93   31.90
  11  -7  -5  860.81   33.70
  11  -7  -5  886.41   33.50
 -11  -7   5  895.21   30.60
  11   7  -5  856.91   27.50
 -11   7   5  823.92   34.80
  11   7  -5  879.91   34.50
   9  -7  -5 1377.56   46.40
   9  -7  -5 1300.37   45.10
   9  -7  -5 1250.67   45.80
   9   7  -5 1375.86   45.60
   9   7  -5 1190.98   48.10
  -9   7   5 1316.47   47.50
  -9   7   5 1303.27   45.20
   7  -7  -5  397.16   20.00
   7  -7  -5  444.96   19.50
   7   7  -5  439.36   18.50
   7   7  -5  414.96   19.00
  -7   7   5  408.66   21.80
  -7   7   5  414.26   20.70
  -7   7   5  396.76   19.20
   5  -7  -5  764.42   29.60
   5  -7  -5  743.73   31.00
  -5   7   5  832.42   33.40
   5   7  -5  796.92   27.80
  -5   7   5  769.92   30.00
   5   7  -5  735.53   28.20
  -5   7   5  752.02   30.50
   3  -7  -5 1702.93   62.29
   3  -7  -5 1864.11   60.69
  -3   7   5 1947.41   61.99
   3   7  -5 1866.21   57.89
  -3   7   5 1819.12   61.59
  -3   7   5 2052.79   68.89
   3   7  -5 1922.11   58.19
   3   7  -5 1853.81   58.49
   1  -7  -5  900.61   37.60
   1  -7  -5  988.40   35.80
   1   7  -5 1022.60   32.50
   1   7  -5  980.40   33.40
  -1   7   5  922.51   36.10
  -1   7   5  962.00   36.60
  -1  -7  -5  679.63   30.40
  -1  -7  -5  663.93   27.80
   1  -7   5  666.43   22.40
   1   7   5  662.73   29.30
  -1   7  -5  707.03   21.70
  -1   7  -5  719.43   22.90
  -1   7  -5  705.63   26.50
   3  -7   5  636.24   23.80
  -3  -7  -5  642.84   29.40
  -3  -7  -5  651.83   27.30
  -3   7  -5  652.43   21.90
   3   7   5  595.14   28.50
  -3   7  -5  621.54   25.90
   5  -7   5  469.55   21.80
  -5  -7  -5  455.35   22.60
  -5  -7  -5  520.75   25.20
   5   7   5  429.86   24.50
  -5   7  -5  471.05   18.60
  -7  -7  -5  247.38   17.30
   7  -7   5  243.28   18.00
  -7  -7  -5  247.98   16.40
   7   7   5  227.88   18.00
  -7   7  -5  233.98   13.00
  -9  -7  -5  233.28   18.20
  -9  -7  -5  239.18   16.90
   9   7   5  207.78   18.70
  -9   7  -5  214.78   13.80
  16  -8  -5  673.83   29.80
  16  -8  -5  694.63   31.00
 -16  -8   5  744.13   29.90
  16   8  -5  676.03   35.00
 -14  -8   5  970.90   36.90
 -14  -8   5 1078.59   36.30
  14  -8  -5  977.20   38.60
  14  -8  -5 1033.80   39.50
  14   8  -5  983.80   42.60
  14   8  -5 1024.20   34.10
  12  -8  -5  686.73   28.90
  12  -8  -5  666.23   29.10
  12   8  -5  695.63   31.10
  12   8  -5  715.83   23.10
 -12   8   5  664.73   28.90
  10  -8  -5  868.51   33.90
  10  -8  -5  834.92   34.40
  10   8  -5  888.91   35.00
 -10   8   5  901.61   34.50
   8  -8  -5 1969.40   66.89
   8  -8  -5 2061.09   66.09
  -8   8   5 2014.20   65.79
   8   8  -5 1965.60   64.69
   6  -8  -5 2037.90   69.39
  -6   8   5 2100.49   68.29
   6   8  -5 2128.49   67.29
   6   8  -5 2118.69   66.39
   4  -8  -5 1354.86   49.99
   4  -8  -5 1362.86   47.10
   4   8  -5 1402.76   45.60
  -4   8   5 1397.96   48.50
   4   8  -5 1355.76   45.20
   4   8  -5 1361.36   46.30
   2  -8  -5  974.30   36.30
   2  -8  -5  986.60   39.90
   2   8  -5  994.80   34.60
   2   8  -5 1031.90   34.90
   2   8  -5  979.60   35.10
  -2   8   5  988.80   38.10
   0  -8  -5 1031.70   38.20
   0  -8  -5  986.20   41.20
   0   8   5 1081.39   40.60
   0   8  -5 1033.00   37.30
   0   8  -5 1043.60   34.50
  -2  -8  -5 1262.07   49.00
   2  -8   5 1207.88   38.60
  -2  -8  -5 1279.47   45.60
  -2   8  -5 1344.57   51.09
   2   8   5 1282.87   48.30
  -2   8  -5 1287.97   38.30
   4  -8   5 1335.97   43.90
  -4  -8  -5 1381.46   51.49
  -4  -8  -5 1400.76   48.40
  -4   8  -5 1319.67   41.90
   4   8   5 1273.87   51.29
  -6  -8  -5  768.72   34.90
   6  -8   5  798.42   31.40
  -6  -8  -5  745.33   32.10
  -6   8  -5  763.32   27.50
   6   8   5  708.03   35.50
  -8  -8  -5  307.47   20.90
  -8  -8  -5  300.57   19.50
  -8   8  -5  318.37   16.20
   8   8   5  273.37   22.40
  15  -9  -5   46.90    8.90
  15  -9  -5   33.60    7.30
  15   9  -5   31.80    9.70
  13  -9  -5   46.80    8.50
  13  -9  -5   39.40    7.40
  13   9  -5   42.70    9.30
 -13   9   5   49.60    8.60
  13   9  -5   43.60    5.40
  11  -9  -5   92.29   10.30
  11  -9  -5   73.09    9.50
  11   9  -5   84.99   11.10
 -11   9   5   76.29    9.50
   9  -9  -5  199.78   14.30
   9   9  -5  199.58   14.10
  -9   9   5  197.68   14.00
   7  -9  -5  215.28   15.80
   7  -9  -5  243.18   16.20
   7   9  -5  248.78   14.50
  -7   9   5  221.18   14.80
   5  -9  -5   27.00    6.40
   5  -9  -5   50.79    7.40
   5   9  -5   26.70    6.40
  -5   9   5   37.00    7.10
   5   9  -5   31.30    6.00
   3  -9  -5  136.09   12.80
   3  -9  -5  161.08   11.60
   3   9  -5  137.59   11.50
  -3   9   5  141.49   12.20
   3   9  -5  163.18   10.80
   1  -9  -5  258.67   15.40
   1  -9  -5  230.28   17.50
   1   9  -5  277.57   14.70
   1   9  -5  267.67   14.80
  -1   9   5  273.57   17.30
  -1  -9  -5   30.00    6.60
  -1  -9  -5   38.00    8.30
  -1   9  -5   34.60    5.50
   1   9   5   36.50    8.20
  -3  -9  -5   55.99    9.80
   3  -9   5   68.89    5.80
  -3  -9  -5   69.59    9.30
   3   9   5   88.99   12.50
  -5  -9  -5   68.09   11.60
  -5  -9  -5   61.29    9.30
   5   9   5   39.10   10.10
  -7  -9  -5   12.40    6.20
  -7  -9  -5   16.30    7.70
   7   9   5    8.50    9.00
  12 -10  -5  211.68   15.80
 -12  10   5  196.28   15.50
  12  10  -5  225.48   17.60
  10 -10  -5  516.85   26.10
  10  10  -5  491.95   25.70
 -10  10   5  534.85   25.90
   8 -10  -5  354.76   21.10
  -8  10   5  363.86   20.80
   8  10  -5  382.26   20.30
   6 -10  -5  474.35   22.10
   6 -10  -5  429.16   24.50
  -6  10   5  450.05   23.50
   6  10  -5  447.86   22.00
   4 -10  -5  521.75   27.10
   4 -10  -5  515.15   23.40
  -4  10   5  503.45   25.50
   4  10  -5  520.35   23.70
   2 -10  -5  332.27   18.10
   2 -10  -5  340.57   21.60
   2  10  -5  342.07   18.60
  -2  10   5  334.17   20.00
   2  10  -5  325.37   17.70
   0 -10  -5  240.58   18.30
   0 -10  -5  255.97   15.40
   0  10  -5  236.88   15.00
   0  10  -5  216.88   14.30
   0  10   5  225.18   16.90
  -2 -10  -5  290.87   20.60
  -2 -10  -5  290.87   17.20
  -2  10  -5  334.47   18.20
   2  10   5  286.87   20.50
  -4 -10  -5  365.76   19.60
  -4 -10  -5  330.17   22.80
   4  10   5  322.27   23.40
   9 -11  -5 1190.98   48.30
   9 -11  -5 1288.67   45.70
   9  11  -5 1197.08   47.10
  -9  11   5 1168.08   47.20
   7 -11  -5 1653.53   55.99
   7 -11  -5 1614.94   60.19
  -7  11   5 1570.04   58.59
   7  11  -5 1624.44   57.39
   5 -11  -5 1439.26   56.79
   5 -11  -5 1516.25   52.09
  -5  11   5 1459.65   54.99
   5  11  -5 1539.35   53.59
   3 -11  -5 1249.47   49.70
   3 -11  -5 1215.68   43.60
  -3  11   5 1132.69   46.50
   3  11  -5 1147.49   44.10
   1 -11  -5 1074.99   40.50
   1 -11  -5 1098.29   46.20
   1  11  -5 1095.59   41.60
  -1  11   5 1054.49   44.40
  -1 -11  -5 1009.20   38.30
  -1 -11  -5  914.71   42.80
  -1  11  -5 1051.59   39.90
  22   0  -6  415.56   25.10
  22   0  -6  425.66   25.40
 -22   0   6  418.56   26.70
 -20   0   6  682.93   32.60
  20   0  -6  654.53   31.00
  20   0  -6  676.43   31.80
  18   0  -6 1584.04   55.99
  18   0  -6 1452.65   54.09
 -18   0   6 1589.84   56.19
 -16   0   6 3529.35  104.29
  16   0  -6 3515.65  106.09
  16   0  -6 3341.97  107.39
  14   0  -6 2140.69   69.49
 -14   0   6 2262.37   69.09
  14   0  -6 2316.07   71.09
  14   0  -6 2311.27   73.09
  12   0  -6 2221.88   69.49
 -12   0   6 2388.76   68.29
  12   0  -6 2315.77   69.59
  12   0  -6 2179.28   71.79
 -10   0   6 2485.45   72.09
  10   0  -6 2444.86   73.69
  10   0  -6 2524.15   76.99
  10   0  -6 2504.65   74.59
   8   0  -6 1795.22   52.99
  -8   0   6 1780.12   50.99
   8   0  -6 1793.42   56.49
  -8   0   6 1805.82   50.89
   6   0  -6 4148.38  118.09
   6   0  -6 4282.27  122.39
   4   0  -6 3128.99   89.49
   4   0  -6 3236.68   93.69
   4   0  -6 3346.87   89.69
   4   0  -6 3094.29   93.99
  -4   0   6 3173.48   93.59
   2   0  -6 2360.26   64.99
  -2   0   6 2352.26   67.89
   2   0  -6 2263.97   67.59
   2   0  -6 2094.99   68.69
   0   0   6 1500.65   49.80
   0   0   6 1538.65   46.90
   0   0  -6 1481.95   48.90
   0   0  -6 1574.94   45.70
   0   0  -6 1470.95   46.40
   2   0   6  840.92   27.30
   2   0   6  940.91   27.50
  -2   0  -6 1009.70   30.90
   2   0   6  926.41   30.30
   2   0   6  843.72   33.60
  -2   0  -6  869.31   32.40
  -2   0  -6  925.91   30.30
  -4   0  -6 3678.33  104.69
   4   0   6 3683.93  111.29
   4   0   6 3685.33  103.69
   4   0   6 3524.15  104.99
  -4   0  -6 3653.13  106.59
  -4   0  -6 3435.06  108.29
  -6   0  -6 2409.66   75.09
   6   0   6 2429.36   72.59
  -6   0  -6 2303.07   76.29
   6   0   6 2397.76   71.99
  -6   0  -6 2467.35   71.19
   8   0   6  661.23   25.20
  -8   0  -6  646.84   28.40
   8   0   6  650.23   25.00
 -10   0  -6  357.16   20.60
  10   0   6  333.07   17.60
  10   0   6  378.96   18.10
 -12   0  -6  231.68   17.40
  12   0   6  198.78   14.80
  21  -1  -6   86.39   12.20
 -21  -1   6   79.69   12.10
  21  -1  -6  110.89   12.50
  21   1  -6   76.19   11.00
  19  -1  -6  259.37   17.00
  19  -1  -6  252.77   17.30
 -19  -1   6  285.57   18.70
  19   1  -6  253.07   17.00
 -17  -1   6  122.29   11.30
  17  -1  -6  106.89   10.30
 -17  -1   6  125.99   10.70
  17  -1  -6  107.79   10.70
  17   1  -6   99.69    9.90
 -17   1   6  111.59   12.80
  15  -1  -6   36.80    6.10
  15  -1  -6   35.50    6.20
  15  -1  -6   27.90    5.80
 -15  -1   6   44.60    6.00
 -15   1   6   43.90    6.50
  15   1  -6   42.10    6.00
  15   1  -6   42.00    6.40
  13  -1  -6  568.64   23.10
 -13  -1   6  566.44   21.20
  13  -1  -6  587.04   23.20
  13  -1  -6  588.74   24.80
 -13   1   6  625.64   22.90
  13   1  -6  585.84   23.20
  13   1  -6  572.94   22.10
  11  -1  -6  775.92   27.70
 -11  -1   6  764.72   24.70
  11  -1  -6  731.93   28.80
  11  -1  -6  773.82   27.10
  11   1  -6  758.62   26.60
  11   1  -6  750.22   26.40
 -11   1   6  777.82   26.20
   9  -1  -6  470.45   19.70
   9  -1  -6  446.76   17.30
  -9  -1   6  479.45   14.60
   9   1  -6  476.55   17.80
  -9   1   6  494.65   16.80
   9   1  -6  459.65   16.80
   7  -1  -6  669.53   21.60
   7  -1  -6  658.03   24.30
  -7   1   6  652.23   20.30
  -7   1   6  638.74   20.40
  -7   1   6  633.54   24.30
   7   1  -6  650.33   20.30
   7   1  -6  648.94   24.10
   5  -1  -6  906.61   27.50
   5  -1  -6  906.21   30.70
   5  -1  -6  899.61   27.70
  -5   1   6  852.81   30.60
   5   1  -6  876.21   29.90
   3  -1  -6  724.73   22.60
   3  -1  -6  748.43   23.00
   3  -1  -6  675.23   25.90
   3  -1  -6  684.63   25.10
   3   1  -6  677.23   24.90
  -3   1   6  756.52   25.90
   3   1  -6  738.23   24.50
   1  -1  -6  458.85   18.30
   1  -1  -6  464.05   19.80
  -1  -1   6  486.05   19.60
  -1  -1   6  483.35   17.20
   1  -1  -6  495.15   17.00
   1   1  -6  465.05   17.10
  -1   1   6  487.35   15.00
  -1   1   6  481.85   19.00
  -1   1   6  505.85   15.10
  -1   1   6  480.35   20.50
   1   1  -6  497.45   15.80
   1   1  -6  471.25   18.80
  -1  -1  -6  480.95   18.90
  -1  -1  -6  505.75   18.10
  -1  -1  -6  456.15   20.30
   1  -1   6  478.85   20.90
   1  -1   6  499.25   17.20
  -1   1  -6  509.45   17.50
   1   1   6  482.95   21.50
   1   1   6  485.85   16.50
  -1   1  -6  486.65   19.50
  -1   1  -6  486.85   17.10
   1   1   6  454.55   16.30
   1   1   6  479.45   19.30
   3  -1   6  125.29    5.30
  -3  -1  -6  133.19    8.70
   3  -1   6  127.09   10.50
  -3  -1  -6  128.29    8.40
  -3  -1  -6  120.09    9.40
   3  -1   6  127.19    6.80
   3   1   6  129.59    9.00
   3   1   6  136.29   10.90
  -3   1  -6  126.69    8.90
  -3   1  -6  133.89    8.30
  -3   1  -6  128.49    6.70
   3   1   6  134.89    7.40
   5  -1   6   31.10    3.90
  -5  -1  -6   27.90    5.30
  -5  -1  -6   33.00    6.10
  -5  -1  -6   27.50    4.70
   5  -1   6   25.20    3.60
   5  -1   6   24.40    6.70
   5   1   6   32.90    5.80
  -5   1  -6   25.70    5.10
   5   1   6   20.80    3.90
  -5   1  -6   22.90    4.80
  -7  -1  -6  102.99    9.90
   7  -1   6  104.19    6.70
   7  -1   6  102.59    7.30
  -7  -1  -6  114.69    8.20
   7   1   6  108.59   10.40
   7   1   6   99.09    8.40
  -7   1  -6   97.59   11.40
  -7   1  -6   98.19    9.20
   9  -1   6   96.59    8.30
   9  -1   6   89.69    7.00
  -9  -1  -6  101.69   10.60
   9   1   6  106.69    9.60
   9   1   6   92.99   11.80
  -9   1  -6   88.09   10.10
  11  -1   6   57.69    7.70
 -11  -1  -6   63.89   10.20
 -11   1  -6   85.49   10.50
  11   1   6   63.59    8.80
  11   1   6   74.29   11.70
  22  -2  -6   70.69   11.60
 -22  -2   6   68.29   12.80
  22  -2  -6   45.80   10.00
  22   2  -6   53.99   10.30
  20  -2  -6   68.49   10.20
  20  -2  -6   78.39   11.00
 -20  -2   6   69.29   11.20
  20   2  -6   52.89    9.20
  18  -2  -6  168.18   13.30
 -18  -2   6  144.29   13.10
  18  -2  -6  180.68   13.50
  18   2  -6  154.08   12.90
  16  -2  -6  287.27   16.60
 -16  -2   6  285.67   17.00
  16  -2  -6  300.57   16.60
 -16  -2   6  304.07   14.80
  16   2  -6  286.87   14.60
  16   2  -6  249.97   15.70
 -16   2   6  286.87   16.60
  14  -2  -6  146.19   11.10
 -14  -2   6  154.68    9.10
  14  -2  -6  148.39   10.70
  14  -2  -6  144.49   10.20
 -14   2   6  156.08   10.90
  14   2  -6  149.79    9.20
  14   2  -6  155.68   10.50
 -12  -2   6  498.45   17.70
  12  -2  -6  489.95   20.10
  12  -2  -6  500.35   20.70
  12  -2  -6  478.95   21.30
  12   2  -6  462.65   19.60
 -12   2   6  516.45   20.20
  12   2  -6  499.85   18.80
 -10  -2   6  893.81   26.00
  10  -2  -6  849.72   30.40
  10  -2  -6  842.02   31.10
  10  -2  -6  829.52   29.20
  10   2  -6  843.22   28.40
  10   2  -6  823.82   28.00
 -10   2   6  880.21   29.10
   8  -2  -6  580.64   20.70
   8  -2  -6  574.84   22.80
  -8   2   6  555.94   19.90
   8   2  -6  581.74   20.00
  -8   2   6  563.04   22.90
  -8   2   6  585.94   20.20
   8   2  -6  600.24   19.20
   6  -2  -6 2064.69   58.69
   6  -2  -6 1952.20   61.39
  -6   2   6 1979.90   57.99
  -6   2   6 1877.91   61.39
  -6   2   6 1977.60   57.79
   4  -2  -6 2309.97   66.29
   4  -2  -6 2251.47   69.69
   4  -2  -6 2292.67   66.99
   4  -2  -6 2223.08   69.09
   4   2  -6 2183.48   66.99
   4   2  -6 2301.47   67.59
  -4   2   6 2328.47   65.49
  -4   2   6 2232.48   65.39
  -4   2   6 2261.17   69.59
   2  -2  -6  714.23   27.10
   2  -2  -6  791.12   25.70
   2  -2  -6  755.22   28.30
  -2   2   6  793.12   24.50
  -2   2   6  788.32   28.10
  -2   2   6  749.33   24.20
   2   2  -6  744.23   26.00
   2   2  -6  780.92   25.10
   0  -2  -6  185.68   10.60
   0  -2  -6  205.58    9.70
   0  -2   6  186.98   10.80
   0  -2  -6  193.58   11.70
   0   2   6  191.38   11.90
   0   2  -6  189.18    9.70
   0   2   6  195.98   11.50
   0   2   6  213.58    9.20
   0   2  -6  199.18    8.20
   0   2   6  169.88    8.50
   0   2  -6  190.68    8.00
  -2  -2  -6  292.57   15.40
  -2  -2  -6  288.67   14.40
  -2  -2  -6  267.27   13.00
   2  -2   6  284.27   15.30
   2   2   6  282.67   14.90
   2   2   6  282.47   15.60
  -2   2  -6  280.27   12.30
  -2   2  -6  300.27   10.10
   2   2   6  268.07   12.40
  -2   2  -6  285.27   13.30
   4  -2   6  463.05   22.40
  -4  -2  -6  501.75   20.60
  -4  -2  -6  455.05   21.30
   4  -2   6  466.75   14.40
  -4  -2  -6  438.16   19.30
   4   2   6  479.55   21.70
   4   2   6  447.96   18.70
  -4   2  -6  442.76   19.20
  -4   2  -6  456.45   19.00
   4   2   6  448.66   22.20
  -6  -2  -6  153.08   12.30
   6  -2   6  169.78    8.30
  -6  -2  -6  195.18   11.60
   6   2   6  185.98   13.90
   6   2   6  187.88   11.40
  -6   2  -6  178.48   11.40
  -6   2  -6  180.68   12.30
   8  -2   6  105.09    7.40
  -8  -2  -6   83.59    9.90
  -8  -2  -6  114.09    9.10
   8   2   6   93.19   12.20
  -8   2  -6  109.89   10.00
   8   2   6   92.69    9.30
  10  -2   6   50.89    6.50
 -10  -2  -6   53.49    8.90
  10   2   6   37.70   11.50
 -10   2  -6   68.69    9.90
  10   2   6   43.20    7.90
 -12  -2  -6   12.60    8.90
  12  -2   6   21.60    6.30
  12   2   6   17.50    7.30
 -12   2  -6   17.60    6.40
  21  -3  -6  453.55   25.20
  21  -3  -6  451.15   24.40
 -21  -3   6  417.86   26.20
  21   3  -6  440.36   25.80
 -19  -3   6  566.54   29.20
  19  -3  -6  590.04   27.90
  19  -3  -6  603.04   28.20
  19   3  -6  620.34   29.50
 -17  -3   6 1106.59   43.20
  17  -3  -6 1128.59   42.30
  17  -3  -6 1138.19   42.30
 -17  -3   6 1141.19   39.30
  17   3  -6 1112.29   43.00
  15  -3  -6 1528.65   52.99
 -15  -3   6 1551.54   49.30
  15  -3  -6 1552.04   52.59
 -15  -3   6 1554.04   53.29
  15   3  -6 1486.75   52.59
 -15   3   6 1599.44   53.19
  15   3  -6 1552.54   49.40
  13  -3  -6 1749.12   57.29
 -13  -3   6 1778.92   53.79
  13  -3  -6 1848.42   57.99
  13  -3  -6 1696.23   58.09
  13   3  -6 1720.23   56.99
 -13   3   6 1866.41   57.79
  13   3  -6 1730.43   54.19
 -11  -3   6 2473.95   70.79
  11  -3  -6 2443.06   75.69
  11  -3  -6 2309.87   75.79
  11  -3  -6 2443.16   74.59
 -11   3   6 2482.35   74.69
  11   3  -6 2565.64   72.19
  11   3  -6 2381.16   73.69
   9  -3  -6 4128.59  118.39
   9  -3  -6 3959.10  120.19
   9   3  -6 4016.80  115.79
  -9   3   6 4028.30  117.59
  -9   3   6 4108.79  121.19
  -9   3   6 4105.69  118.29
   9   3  -6 4141.49  116.79
   7  -3  -6 2051.39   62.19
   7  -3  -6 1982.20   64.49
  -7   3   6 2020.60   61.89
  -7   3   6 2040.20   65.09
   7   3  -6 2081.19   59.69
   7   3  -6 2134.49   60.19
  -7   3   6 2100.89   62.09
   5  -3  -6 2286.17   70.49
   5  -3  -6 2265.97   68.29
   5  -3  -6 2265.67   67.39
  -5   3   6 2304.97   67.39
  -5   3   6 2284.17   67.59
   5   3  -6 2212.58   66.39
  -5   3   6 2285.07   70.99
   3  -3  -6 5013.30  138.69
   3  -3  -6 4670.93  140.29
   3  -3  -6 4704.73  140.79
  -3   3   6 4680.83  137.09
  -3   3   6 4875.61  137.69
   3   3  -6 4687.23  136.59
  -3   3   6 4908.81  141.39
   3   3  -6 5034.70  137.59
  -1  -3   6 2638.74   80.69
   1  -3  -6 2707.13   83.09
   1  -3  -6 2658.43   83.59
   1  -3  -6 2796.42   81.09
   1   3  -6 2720.33   79.49
   1   3  -6 2788.32   77.39
   1   3  -6 2783.42   78.19
  -1   3   6 2621.84   79.89
  -1   3   6 2766.72   80.59
  -1   3   6 2733.83   84.29
  -1  -3  -6 1440.06   46.10
   1  -3   6 1455.65   47.50
  -1  -3  -6 1450.65   48.20
  -1  -3  -6 1419.16   48.90
   1   3   6 1425.16   45.90
   1   3   6 1514.75   49.80
  -1   3  -6 1426.96   43.90
   1   3   6 1470.95   49.60
   1   3   6 1386.46   45.40
  -1   3  -6 1415.86   44.90
   3  -3   6 1726.63   58.69
  -3  -3  -6 1800.42   58.49
  -3  -3  -6 1811.72   56.49
  -3  -3  -6 1659.83   58.39
  -3   3  -6 1796.12   55.09
  -3   3  -6 1718.23   54.99
   3   3   6 1828.92   60.29
   3   3   6 1843.22   60.29
   3   3   6 1764.42   56.19
   5  -3   6 1166.58   44.50
  -5  -3  -6 1231.78   42.50
  -5  -3  -6 1109.49   43.00
  -5   3  -6 1198.48   40.90
  -5   3  -6 1194.58   40.40
   5   3   6 1174.18   41.40
   5   3   6 1266.07   45.70
  -7  -3  -6  631.24   29.20
   7  -3   6  664.83   22.00
  -7  -3  -6  694.33   28.00
   7   3   6  634.74   27.40
   7   3   6  707.13   32.00
  -7   3  -6  651.73   26.50
  -9  -3  -6  451.55   24.00
   9  -3   6  451.05   17.60
   9   3   6  427.86   22.20
  -9   3  -6  451.95   21.70
 -11  -3  -6  283.17   20.00
  11  -3   6  287.47   14.40
  11   3   6  284.87   18.90
 -11   3  -6  282.77   17.90
  20  -4  -6  270.47   18.00
  20  -4  -6  253.67   17.50
 -20  -4   6  247.18   19.50
  20   4  -6  238.18   19.10
  18  -4  -6  301.27   18.20
  18  -4  -6  305.77   18.10
 -18  -4   6  294.87   19.30
  18   4  -6  302.17   19.50
 -16  -4   6  456.65   22.50
  16  -4  -6  458.85   22.20
 -16  -4   6  464.85   19.70
  16  -4  -6  411.96   21.20
  16   4  -6  466.65   19.50
  16   4  -6  452.15   22.90
  14  -4  -6  612.74   26.30
  14  -4  -6  629.04   26.90
 -14  -4   6  670.33   23.80
  14   4  -6  654.93   27.20
 -14   4   6  659.83   27.60
  14   4  -6  646.04   23.50
  12  -4  -6  904.01   34.30
  12  -4  -6  880.51   33.90
  12  -4  -6  897.11   33.30
 -12  -4   6  911.11   29.80
  12   4  -6  927.41   30.00
  12   4  -6  949.01   33.40
 -12   4   6  978.30   34.40
  10  -4  -6 1449.26   48.30
  10  -4  -6 1454.75   49.90
  10  -4  -6 1544.45   50.09
  10   4  -6 1512.75   47.60
 -10   4   6 1535.15   50.89
 -10   4   6 1460.05   48.70
 -10   4   6 1453.75   47.60
  10   4  -6 1513.65   44.80
   8  -4  -6  964.10   35.40
   8  -4  -6 1001.60   33.70
  -8   4   6  890.31   35.40
   8   4  -6  988.20   31.80
   8   4  -6 1039.30   30.20
  -8   4   6 1022.00   33.60
  -8   4   6  993.20   34.00
   6  -4  -6 1086.69   38.30
   6  -4  -6 1066.79   35.70
  -6   4   6 1090.49   36.30
   6   4  -6 1118.39   32.50
   6   4  -6 1071.49   33.00
  -6   4   6 1101.09   39.10
   6   4  -6 1114.49   33.10
  -6   4   6 1045.30   35.90
   4  -4  -6 1163.38   40.90
   4  -4  -6 1176.18   40.90
   4  -4  -6 1188.88   39.80
   4   4  -6 1208.88   35.80
  -4   4   6 1241.78   39.40
  -4   4   6 1206.08   42.20
  -4   4   6 1170.18   38.70
   2  -4  -6  860.11   30.30
   2  -4  -6  799.22   31.50
   2  -4  -6  843.12   31.70
   2   4  -6  872.71   26.20
  -2   4   6  842.42   33.10
  -2   4   6  874.21   30.20
  -2   4   6  849.91   29.60
   2   4  -6  845.72   26.40
   2   4  -6  910.31   27.90
   2   4  -6  832.42   26.60
   0  -4  -6 1093.39   39.70
   0  -4  -6 1020.40   39.20
   0  -4  -6 1156.38   38.00
   0  -4   6 1107.99   36.70
   0   4   6 1125.19   38.10
   0   4   6 1080.59   37.20
   0   4  -6 1124.19   32.30
   0   4  -6 1116.29   34.70
   0   4  -6 1126.49   32.70
   0   4   6 1154.78   41.70
   0   4  -6 1114.99   34.70
  -2  -4  -6  839.22   32.60
  -2  -4  -6  849.81   32.60
   2  -4   6  813.32   30.90
  -2  -4  -6  813.32   30.40
   2   4   6  850.51   33.20
  -2   4  -6  809.52   27.90
   2   4   6  917.71   35.40
   2   4   6  854.71   31.00
   2   4   6  795.52   30.10
  -2   4  -6  814.72   28.40
  -4  -4  -6  375.16   19.40
   4  -4   6  367.16   19.60
  -4  -4  -6  371.66   19.40
   4   4   6  366.46   18.40
  -4   4  -6  364.26   16.00
   4   4   6  403.46   22.60
  -4   4  -6  394.06   17.40
  -6  -4  -6  232.68   14.60
  -6  -4  -6  187.78   13.90
   6  -4   6  196.18   16.90
  -6   4  -6  183.68   13.60
  -6   4  -6  206.88   11.80
   6   4   6  199.98   13.80
  -8  -4  -6  262.17   17.60
  -8  -4  -6  285.57   17.20
   8  -4   6  251.77   10.80
  -8   4  -6  265.17   14.90
   8   4   6  254.77   16.80
  10  -4   6  181.98   10.20
 -10  -4  -6  184.28   15.80
  10   4   6  182.18   16.10
 -10   4  -6  189.98   14.00
  19  -5  -6   11.40    6.10
  19  -5  -6    6.10    5.00
 -19  -5   6   10.80    6.60
  19   5  -6    0.10    6.60
 -17  -5   6   78.49    9.70
  17  -5  -6   76.09    9.20
  17  -5  -6   98.29   10.20
 -17  -5   6   85.99   10.40
  17   5  -6   74.19   10.60
  15  -5  -6  157.18   11.70
 -15  -5   6  150.28   10.20
 -15  -5   6  130.09   10.90
  15  -5  -6  153.38   11.70
  15   5  -6  136.29    9.30
  15   5  -6  158.28   12.90
 -13  -5   6   78.39    6.60
  13  -5  -6   65.89    7.90
  13  -5  -6   73.29    7.70
 -13   5   6   76.29   10.00
  13   5  -6   80.89    8.40
  13   5  -6   75.39    6.00
  11  -5  -6  265.37   15.50
  11  -5  -6  276.37   14.40
  11  -5  -6  248.08   14.70
 -11  -5   6  285.67   11.30
  11   5  -6  274.77   14.30
  11   5  -6  263.07   14.10
  11   5  -6  272.57   10.80
 -11   5   6  270.07   15.90
 -11   5   6  258.47   15.00
   9  -5  -6  179.48   10.60
   9  -5  -6  153.08   11.00
   9   5  -6  163.28    6.90
   9   5  -6  162.28   10.10
  -9   5   6  182.18   12.40
  -9   5   6  169.48   10.20
  -9   5   6  170.38   11.30
   9   5  -6  163.58    9.60
   7  -5  -6  154.18    9.40
   7  -5  -6  153.88   10.70
  -7   5   6  162.78   10.40
  -7   5   6  161.38   11.90
   7   5  -6  154.88    6.30
  -7   5   6  151.58    9.60
   7   5  -6  154.28    5.80
   7   5  -6  169.38    8.50
   7   5  -6  150.58    8.90
   5  -5  -6  611.94   25.60
   5  -5  -6  613.24   26.10
  -5   5   6  659.63   27.50
   5   5  -6  661.83   19.20
  -5   5   6  678.43   25.20
   5   5  -6  647.24   21.40
   5   5  -6  645.64   22.60
  -5   5   6  639.04   24.70
   5   5  -6  648.54   19.10
   3  -5  -6  508.35   21.30
   3  -5  -6  485.35   22.20
   3  -5  -6  509.15   21.90
  -3   5   6  490.35   23.40
  -3   5   6  516.55   21.10
  -3   5   6  465.75   20.30
   3   5  -6  493.85   17.70
   3   5  -6  507.05   15.70
   3   5  -6  520.05   17.40
   1  -5  -6  171.48   11.80
   1  -5  -6  180.48   11.10
   1  -5  -6  160.38   10.90
   1   5  -6  160.98    7.70
  -1   5   6  156.68   10.50
  -1   5   6  163.08   10.70
   1   5  -6  156.78    7.10
   1   5  -6  155.38    8.20
  -1   5   6  164.38   13.50
   1   5  -6  162.38    7.40
  -1  -5  -6   34.30    6.20
  -1  -5  -6   20.70    5.00
  -1  -5  -6   15.60    4.80
   1  -5   6   25.70    4.60
   1   5   6   25.10    7.20
  -1   5  -6   23.20    3.30
   1   5   6   20.90    5.10
  -1   5  -6   26.50    4.20
   1   5   6   29.00    5.50
   3  -5   6  103.89    9.50
  -3  -5  -6  110.19   10.30
  -3  -5  -6  107.89    9.80
  -3   5  -6  106.89    7.10
   3   5   6  101.29    9.60
   3   5   6  106.19   10.00
  -3   5  -6  101.29    8.60
   5  -5   6  140.09   13.00
  -5  -5  -6  118.09   11.20
  -5  -5  -6  129.09   11.00
  -5   5  -6  118.49    8.40
  -5   5  -6  117.19   11.10
   5   5   6  118.79   11.30
  -7  -5  -6   23.60    6.40
  -7  -5  -6   29.70    7.00
   7   5   6   25.50    7.10
  -7   5  -6   26.10    5.30
  -9  -5  -6   33.70    8.00
  -9  -5  -6   37.10    8.10
  -9   5  -6   22.80    5.90
   9   5   6   21.30    7.60
  20  -6  -6  461.25   26.00
 -20  -6   6  500.55   27.50
  20  -6  -6  456.95   24.50
  20   6  -6  481.65   29.30
  18  -6  -6  536.75   26.90
  18  -6  -6  548.35   26.30
 -18  -6   6  564.24   27.70
  18   6  -6  582.04   29.90
 -16  -6   6  852.41   34.20
 -16  -6   6  862.81   31.80
  16  -6  -6  813.92   34.30
  16  -6  -6  861.01   35.00
  16   6  -6  893.71   30.90
  16   6  -6  872.41   37.30
 -14  -6   6 1165.28   39.40
  14  -6  -6 1174.58   43.10
  14  -6  -6 1182.98   43.50
  14   6  -6 1151.98   44.40
  14   6  -6 1263.07   38.50
 -12  -6   6 1151.98   36.80
  12  -6  -6 1111.89   41.60
  12  -6  -6 1151.38   41.00
  12   6  -6 1213.68   35.80
  12   6  -6 1127.19   41.50
 -12   6   6 1090.59   42.90
  10  -6  -6 2539.65   83.39
  10  -6  -6 2678.43   82.09
  10  -6  -6 2700.03   83.79
  10   6  -6 2657.53   81.49
 -10   6   6 2660.53   83.49
  10   6  -6 2744.03   75.59
 -10   6   6 2624.84   81.89
 -10   6   6 2604.34   84.69
  10   6  -6 2649.93   81.69
   8  -6  -6 1805.42   59.89
   8  -6  -6 1775.02   57.79
  -8   6   6 1740.53   60.69
   8   6  -6 1831.42   56.29
   8   6  -6 1776.92   56.79
  -8   6   6 1765.92   58.79
  -8   6   6 1860.51   58.29
   6  -6  -6  342.77   17.90
  -6   6   6  380.36   19.90
   6   6  -6  330.67   14.90
  -6   6   6  338.27   17.30
   6   6  -6  353.96   14.40
  -6   6   6  336.67   16.60
   4  -6  -6 1449.06   52.09
   4  -6  -6 1521.45   51.09
   4   6  -6 1458.35   47.00
  -4   6   6 1617.34   54.79
  -4   6   6 1487.85   50.59
  -4   6   6 1534.55   50.69
   4   6  -6 1525.55   46.40
   2  -6  -6 2156.48   69.19
   2  -6  -6 2180.88   68.89
   2  -6  -6 2140.99   70.69
  -2   6   6 2192.28   73.29
  -2   6   6 2183.88   69.19
   2   6  -6 2098.89   60.59
   2   6  -6 2171.58   64.49
  -2   6   6 2083.79   68.19
   2   6  -6 2159.58   64.09
   0  -6  -6 1289.57   47.80
   0  -6  -6 1273.57   46.00
   0  -6   6 1300.57   40.50
   0   6  -6 1308.37   39.20
   0   6   6 1261.87   46.00
   0   6   6 1309.67   45.50
   0   6  -6 1387.46   39.20
   0   6  -6 1337.97   39.10
   0   6  -6 1286.97   42.00
  -2  -6  -6 1658.03   55.09
  -2  -6  -6 1635.74   56.69
   2  -6   6 1586.44   50.69
  -2   6  -6 1614.44   48.20
   2   6   6 1388.26   53.99
   2   6   6 1569.64   53.69
  -2   6  -6 1614.94   51.19
   4  -6   6  850.91   33.40
  -4  -6  -6  922.81   37.00
  -4  -6  -6  889.81   35.30
   4   6   6  800.02   35.10
  -4   6  -6  887.51   29.90
  -4   6  -6  862.21   32.80
  -6  -6  -6  385.06   21.40
  -6  -6  -6  454.85   23.20
   6  -6   6  418.56   23.30
  -6   6  -6  397.56   18.00
   6   6   6  406.26   22.90
  -8  -6  -6  522.75   26.70
  -8  -6  -6  513.35   26.70
  -8   6  -6  513.25   22.60
   8   6   6  489.35   27.30
  17  -7  -6  358.26   20.70
  17  -7  -6  325.77   19.60
  17   7  -6  351.86   17.70
  17   7  -6  377.66   23.60
 -15  -7   6  551.54   23.10
  15  -7  -6  584.74   26.00
  15  -7  -6  536.75   25.70
  15   7  -6  550.94   28.10
  15   7  -6  555.84   21.40
  13  -7  -6  567.14   24.80
  13  -7  -6  507.85   24.60
 -13  -7   6  583.94   21.60
  13   7  -6  498.75   25.50
  13   7  -6  554.24   19.50
  11  -7  -6  726.53   30.70
  11  -7  -6  738.83   29.70
  11   7  -6  741.33   23.10
 -11   7   6  747.53   29.70
  11   7  -6  746.83   30.10
   9  -7  -6 2176.08   71.69
   9  -7  -6 2298.77   70.89
   9  -7  -6 2248.38   72.49
  -9   7   6 2218.98   70.59
   9   7  -6 2111.49   69.79
   9   7  -6 2185.08   69.59
   7  -7  -6 1961.30   65.99
   7   7  -6 1942.91   62.69
   7   7  -6 2011.20   61.99
  -7   7   6 2013.00   64.49
   5  -7  -6 1964.10   63.39
   5  -7  -6 1926.31   65.09
  -5   7   6 1936.81   63.19
   5   7  -6 1974.90   59.49
   5   7  -6 1915.71   60.49
  -5   7   6 1859.41   63.39
   3  -7  -6 2321.27   71.39
   3  -7  -6 2301.77   73.79
  -3   7   6 2070.69   70.89
   3   7  -6 2211.48   66.99
   3   7  -6 2292.37   67.29
   3   7  -6 2243.88   66.79
  -3   7   6 1975.10   70.29
   1  -7  -6  846.62   35.90
   1  -7  -6  821.82   33.40
   1   7  -6  901.51   29.00
  -1   7   6  911.01   35.20
   1   7  -6  851.71   30.60
  -1  -7  -6  875.51   37.00
   1  -7   6  835.82   28.70
  -1  -7  -6  924.51   35.20
  -1   7  -6  862.61   31.90
   1   7   6  925.91   36.40
  -1   7  -6  883.11   27.70
  -3  -7  -6  885.21   35.30
  -3  -7  -6  892.71   37.30
   3  -7   6  894.41   31.50
  -3   7  -6  850.31   33.10
   3   7   6  848.62   36.70
  -3   7  -6  873.01   29.10
   5  -7   6  332.57   18.70
  -5  -7  -6  315.87   18.60
  -5  -7  -6  295.67   19.20
   5   7   6  298.07   19.90
  -5   7  -6  290.47   14.20
  -7  -7  -6  245.98   17.50
  -7  -7  -6  261.67   18.30
  -7   7  -6  240.68   13.80
   7   7   6  220.88   18.90
  16  -8  -6    3.80    5.30
 -16  -8   6   24.40    8.80
  16  -8  -6   12.50    6.20
  16   8  -6    6.60    6.90
  14  -8  -6    5.80    4.90
  14  -8  -6    6.20    4.60
  14   8  -6    7.50    3.90
 -14   8   6   16.90    5.50
  14   8  -6    6.00    5.60
  12  -8  -6   24.60    5.90
  12  -8  -6   19.20    5.70
  12   8  -6   24.90    6.30
  12   8  -6   22.40    2.90
 -12   8   6   20.50    5.50
  10  -8  -6   41.20    6.70
  10  -8  -6   33.10    7.20
 -10   8   6   43.80    7.00
  10   8  -6   28.70    6.70
   8  -8  -6  115.69   11.00
   8   8  -6  120.39    9.40
  -8   8   6   98.49    9.50
   6  -8  -6    2.80    3.20
   6  -8  -6    9.40    4.50
   6   8  -6   12.10    4.80
   6   8  -6   10.50    3.70
   4  -8  -6   66.89    8.10
   4  -8  -6   67.19    9.90
  -4   8   6   53.59    8.00
   4   8  -6   53.99    6.10
   4   8  -6   71.59    8.30
   4   8  -6   69.89    7.80
   2  -8  -6  116.39   11.70
   2  -8  -6  102.79    9.70
   2   8  -6   79.79    7.70
   2   8  -6   93.29    9.20
  -2   8   6  105.59   10.50
   2   8  -6   98.69    8.00
   0  -8  -6    6.10    4.70
   0  -8  -6   12.80    4.80
   0   8  -6    3.10    3.20
   0   8  -6    3.40    4.80
   0   8   6   12.90    5.50
   2  -8   6   11.40    3.60
  -2  -8  -6    4.40    5.30
  -2  -8  -6    4.60    4.40
   2   8   6    6.40    5.40
   4  -8   6    4.00    5.50
  -4  -8  -6   -0.10    4.30
  -4  -8  -6    5.40    5.30
  -4   8  -6    8.80    3.60
   4   8   6   10.30    6.30
  -6  -8  -6   -2.80    5.70
  -6  -8  -6   -0.60    5.60
   6   8   6   -4.30    7.20
  -6   8  -6    3.20    4.20
  15  -9  -6  596.34   28.60
  15  -9  -6  599.04   29.00
  15   9  -6  692.93   33.90
 -15   9   6  640.84   29.60
  13  -9  -6  517.95   25.50
  13  -9  -6  503.05   24.80
  13   9  -6  496.45   26.60
 -13   9   6  501.85   25.00
  11  -9  -6  682.83   30.90
  11  -9  -6  670.03   29.40
  11   9  -6  684.73   30.30
 -11   9   6  660.53   29.30
   9  -9  -6  944.51   38.70
  -9   9   6 1001.40   38.00
   9   9  -6  902.11   36.10
   7  -9  -6  768.32   31.50
   7  -9  -6  765.12   33.70
  -7   9   6  760.32   32.10
   7   9  -6  767.82   30.20
   5  -9  -6  809.12   35.90
   5  -9  -6  832.92   33.40
  -5   9   6  837.22   34.50
   5   9  -6  857.61   31.70
   5   9  -6  837.32   32.40
   3  -9  -6  760.12   31.30
   3  -9  -6  753.92   34.50
  -3   9   6  755.52   32.50
   3   9  -6  757.42   29.10
   3   9  -6  759.32   29.10
   1  -9  -6  522.75   24.50
   1  -9  -6  553.94   28.10
  -1   9   6  481.65   25.50
   1   9  -6  537.55   22.60
   1   9  -6  486.25   20.80
  -1  -9  -6  578.04   27.20
  -1  -9  -6  606.54   30.90
   1   9   6  631.94   30.40
  -1   9  -6  631.64   20.80
  -3  -9  -6  672.43   29.60
  -3  -9  -6  672.73   32.90
   3   9   6  640.54   32.80
  -5  -9  -6  489.55   24.80
   5   9   6  445.36   27.90
  12 -10  -6  391.96   22.70
 -12  10   6  382.36   22.00
  12  10  -6  385.06   23.10
  10 -10  -6  591.64   29.00
  10  10  -6  559.94   27.10
 -10  10   6  539.75   27.00
   8 -10  -6  640.24   30.30
   8 -10  -6  561.64   26.60
   8  10  -6  573.94   26.30
   6 -10  -6  452.55   22.30
   6 -10  -6  421.76   24.60
  -6  10   6  425.46   23.00
   6  10  -6  445.26   21.50
   4 -10  -6  446.86   25.60
   4 -10  -6  484.25   23.20
  -4  10   6  457.65   24.40
   4  10  -6  455.65   21.70
   2 -10  -6  522.55   24.60
   2 -10  -6  479.35   27.50
  -2  10   6  469.35   25.70
   2  10  -6  515.85   23.00
   2  10  -6  506.95   23.10
   0 -10  -6  394.96   20.90
   0 -10  -6  380.66   24.00
   0  10  -6  376.06   19.50
   0  10   6  308.07   21.50
  -2 -10  -6  334.17   19.50
  -2 -10  -6  340.07   23.00
   2  10   6  339.77   23.00
   9 -11  -6   61.89    9.50
   9 -11  -6   63.29   11.70
  -9  11   6   45.70    9.40
   9  11  -6   47.30    9.40
   7 -11  -6    5.30    6.00
   7 -11  -6    0.70    7.10
   7  11  -6    3.00    5.50
  -7  11   6    4.20    6.20
   5 -11  -6    0.80    6.50
   5 -11  -6    7.00    6.10
  -5  11   6   -2.80    5.80
   5  11  -6    3.80    5.30
   3 -11  -6    3.80    5.60
   3 -11  -6   11.70    7.90
   3  11  -6    5.10    5.40
  -3  11   6    2.90    6.20
  22   0  -7    2.70    6.40
  22   0  -7   -0.70    5.80
  20   0  -7   -3.10    5.00
  20   0  -7   -5.30    4.30
 -18   0   7   -3.20    4.80
  18   0  -7    3.60    4.10
  18   0  -7   -4.80    3.90
  16   0  -7    0.30    2.80
  16   0  -7   -2.20    3.40
 -16   0   7    5.40    4.00
  14   0  -7    9.40    3.70
  14   0  -7    3.60    2.80
 -14   0   7    5.10    2.90
  14   0  -7    9.60    3.90
  12   0  -7    0.10    1.90
  12   0  -7   10.30    3.20
  12   0  -7   -0.70    2.20
 -12   0   7    2.70    1.90
 -10   0   7    8.20    1.60
  10   0  -7    3.20    2.40
 -10   0   7    3.90    1.30
  10   0  -7    5.10    2.50
  10   0  -7    5.50    2.20
   8   0  -7    1.40    2.10
   8   0  -7    3.30    1.50
   6   0  -7    6.10    1.50
   6   0  -7    4.00    1.40
   6   0  -7    5.90    2.40
   4   0  -7    5.90    2.50
   4   0  -7    4.20    1.30
  -4   0   7    2.30    2.20
   4   0  -7    2.60    2.10
   4   0  -7    4.20    1.20
   2   0  -7   -0.30    2.10
   2   0  -7    1.10    1.30
   2   0  -7    1.60    1.70
  -2   0   7    1.40    2.10
   0   0  -7    6.50    2.30
   0   0  -7    7.30    2.30
   0   0  -7    1.50    2.30
   0   0   7    2.70    2.30
   0   0   7    4.30    3.20
  -2   0  -7    3.50    2.80
   2   0   7   -1.20    4.00
   2   0   7    0.30    2.60
  -2   0  -7   -2.10    2.10
  -2   0  -7    3.30    2.60
  -4   0  -7   -0.50    3.70
   4   0   7    1.60    2.90
  -4   0  -7    4.60    2.50
   4   0   7    1.50    2.00
  -4   0  -7    1.50    2.90
  -6   0  -7    1.50    2.60
   6   0   7    0.60    2.70
   6   0   7    2.90    3.90
  -6   0  -7    3.50    3.80
   8   0   7    4.60    3.70
   8   0   7    5.80    5.10
  -8   0  -7   -1.50    3.90
 -10   0  -7    3.40    5.50
  10   0   7   -0.90    4.70
  21  -1  -7  231.08   17.20
  21  -1  -7  244.58   18.00
  21   1  -7  247.08   18.00
  21   1  -7  247.08   19.20
  19  -1  -7  358.76   20.00
  19  -1  -7  361.66   21.10
  19   1  -7  332.27   19.80
 -17  -1   7 1022.10   36.40
  17  -1  -7 1044.70   40.80
  17  -1  -7 1084.09   39.50
 -17   1   7 1078.09   38.20
  17   1  -7  984.70   38.70
  15  -1  -7 1534.45   51.69
  15  -1  -7 1529.25   53.79
  15  -1  -7 1553.64   51.49
 -15  -1   7 1576.84   48.90
 -15   1   7 1548.95   50.29
  15   1  -7 1569.64   51.79
  15   1  -7 1517.25   50.19
  13  -1  -7  508.15   20.70
  13  -1  -7  524.35   23.10
  13  -1  -7  535.35   21.50
 -13  -1   7  484.65   18.00
  13   1  -7  490.25   20.30
 -13   1   7  493.95   19.50
  13   1  -7  506.75   20.30
  11  -1  -7 1070.69   35.50
  11  -1  -7 1056.49   38.30
  11  -1  -7 1048.40   36.60
 -11  -1   7 1084.39   31.80
  11   1  -7 1110.69   35.20
  11   1  -7 1052.99   35.50
  11   1  -7 1063.39   38.60
 -11   1   7 1103.09   34.20
   9  -1  -7 1688.93   49.40
   9  -1  -7 1624.14   52.89
   9   1  -7 1561.84   52.59
  -9   1   7 1571.54   47.50
   9   1  -7 1624.64   48.30
  -9   1   7 1638.84   47.40
   7  -1  -7 2430.06   76.29
   7  -1  -7 2544.95   72.59
   7   1  -7 2497.95   76.19
  -7   1   7 2453.15   76.49
   7   1  -7 2555.84   70.79
   5  -1  -7 4060.19  117.99
   5  -1  -7 4068.99  122.29
   5  -1  -7 4187.48  117.59
   5  -1  -7 4206.18  121.89
   5   1  -7 4109.99  121.09
  -5   1   7 4285.47  122.39
   5   1  -7 4204.08  120.89
   3  -1  -7 1572.34   46.40
   3  -1  -7 1499.65   50.49
   3  -1  -7 1529.55   49.30
   3   1  -7 1520.45   49.40
  -3   1   7 1553.74   49.80
   3   1  -7 1512.05   48.00
   3   1  -7 1621.84   44.20
   1  -1  -7  947.71   36.20
   1  -1  -7 1018.20   34.70
  -1  -1   7 1061.69   33.20
   1  -1  -7 1057.19   32.90
  -1  -1   7 1060.09   36.70
   1   1  -7 1074.79   31.70
   1   1  -7  981.50   35.20
   1   1  -7  981.00   32.90
  -1   1   7 1037.70   35.30
   1  -1   7  958.50   30.40
  -1  -1  -7  949.51   32.70
   1  -1   7  935.11   35.50
  -1  -1  -7  881.01   34.40
  -1  -1  -7  941.61   31.40
   1   1   7  911.31   35.90
  -1   1  -7  915.51   33.30
  -1   1  -7  948.01   30.40
   1   1   7  899.41   28.30
  -1   1  -7  996.10   31.00
   1   1   7  920.81   28.40
   1   1   7  953.80   33.00
  -3  -1  -7  569.64   25.30
   3  -1   7  583.44   27.10
  -3  -1  -7  573.54   22.90
   3  -1   7  577.64   20.50
  -3  -1  -7  594.04   23.40
   3   1   7  576.54   20.60
  -3   1  -7  609.94   20.70
  -3   1  -7  584.74   24.30
   3   1   7  610.24   20.60
  -3   1  -7  596.14   22.80
   3   1   7  594.74   23.80
   3   1   7  640.04   31.10
  -5  -1  -7  925.01   36.20
  -5  -1  -7  921.61   32.50
   5  -1   7  917.61   28.10
   5  -1   7  932.71   29.70
  -5  -1  -7  902.51   33.90
  -5   1  -7  910.91   33.80
   5   1   7  935.51   34.00
  -5   1  -7  927.41   35.00
   5   1   7  925.01   31.20
   7  -1   7  387.36   15.00
   7  -1   7  373.06   14.60
  -7  -1  -7  382.06   20.60
  -7  -1  -7  411.36   17.40
   7   1   7  365.16   19.40
  -7   1  -7  371.36   19.70
   7   1   7  378.96   17.20
   9  -1   7   94.79    8.20
  -9  -1  -7  108.59   11.70
  -9   1  -7   67.89   10.00
   9   1   7  102.39   12.00
   9   1   7   90.09    9.60
  22  -2  -7  277.87   19.70
  22  -2  -7  290.57   20.00
  22   2  -7  310.97   21.20
  20  -2  -7  390.56   22.10
  20  -2  -7  381.66   21.80
  20   2  -7  377.06   22.20
  18  -2  -7 1002.30   39.70
 -18  -2   7  987.70   35.40
  18  -2  -7  972.50   38.40
  18   2  -7  992.30   39.00
 -16  -2   7  852.61   29.80
  16  -2  -7  865.41   34.40
  16  -2  -7  839.22   32.90
 -16   2   7  843.22   32.30
  16   2  -7  842.12   33.10
  16   2  -7  835.02   30.60
 -14  -2   7  873.01   28.70
  14  -2  -7  856.21   32.00
  14  -2  -7  907.11   34.30
  14  -2  -7  824.12   32.20
  14   2  -7  856.11   31.80
  14   2  -7  888.41   30.60
 -14   2   7  885.21   31.70
  12  -2  -7 2086.59   65.09
  12  -2  -7 1994.20   63.49
 -12  -2   7 2122.69   59.29
  12  -2  -7 2033.60   66.09
  12   2  -7 2020.30   62.79
 -12   2   7 2062.29   62.79
  12   2  -7 2001.10   62.19
  10  -2  -7 2009.40   61.89
  10  -2  -7 1966.30   64.79
 -10   2   7 2050.29   60.99
  10   2  -7 2091.29   61.29
 -10   2   7 1995.20   60.69
  10   2  -7 2058.19   60.49
   8  -2  -7 2385.56   74.09
   8  -2  -7 2333.37   70.59
  -8   2   7 2434.56   74.69
  -8   2   7 2377.56   69.39
   8   2  -7 2449.66   73.89
   8   2  -7 2385.76   68.19
  -8   2   7 2325.07   69.59
   6  -2  -7 1557.44   51.79
   6  -2  -7 1547.45   48.70
   6  -2  -7 1617.64   48.40
   6   2  -7 1577.44   49.70
  -6   2   7 1589.14   52.19
  -6   2   7 1636.64   47.10
   6   2  -7 1681.93   51.09
  -6   2   7 1567.54   46.80
   4  -2  -7  988.30   32.00
   4  -2  -7  933.51   34.90
   4  -2  -7  971.70   34.40
  -4   2   7 1013.70   35.10
  -4   2   7 1000.20   29.70
   4   2  -7 1007.30   32.70
   4   2  -7  955.20   32.50
  -4   2   7  967.90   29.70
   2  -2  -7 1580.04   54.79
   2  -2  -7 1705.03   53.89
   2  -2  -7 1713.93   51.49
   2   2  -7 1661.43   50.79
  -2   2   7 1681.83   49.20
  -2   2   7 1736.83   54.79
   2   2  -7 1622.44   52.29
   2   2  -7 1706.63   48.10
  -2   2   7 1681.33   49.30
   0  -2  -7 1479.95   46.20
   0  -2   7 1455.55   49.10
   0  -2  -7 1418.46   47.90
   0  -2  -7 1436.56   49.80
   0   2  -7 1529.55   44.40
   0   2   7 1425.96   50.49
   0   2   7 1426.16   44.10
   0   2   7 1496.35   49.10
   0   2  -7 1496.65   44.00
   0   2   7 1469.75   44.50
   0   2  -7 1443.96   47.00
  -2  -2  -7 1209.88   42.30
  -2  -2  -7 1258.27   41.10
   2  -2   7 1206.48   44.40
  -2  -2  -7 1140.59   43.60
  -2   2  -7 1241.98   41.50
  -2   2  -7 1243.88   36.80
   2   2   7 1335.17   44.10
  -2   2  -7 1269.87   39.90
   2   2   7 1164.38   39.00
   2   2   7 1240.28   45.40
   2   2   7 1242.78   39.30
  -4  -2  -7  740.03   30.90
   4  -2   7  708.43   32.20
  -4  -2  -7  774.32   29.30
  -4  -2  -7  758.22   28.80
   4   2   7  741.63   26.90
  -4   2  -7  754.82   28.10
   4   2   7  750.92   30.60
  -4   2  -7  742.73   28.70
  -6  -2  -7  529.45   22.40
  -6  -2  -7  514.35   25.00
  -6   2  -7  485.75   22.50
   6   2   7  489.95   21.20
   6   2   7  521.95   25.00
  -6   2  -7  513.35   25.40
   8  -2   7  336.57   13.50
  -8  -2  -7  347.27   20.80
   8   2   7  358.36   18.00
   8   2   7  376.16   22.50
  -8   2  -7  331.87   18.70
  10  -2   7  208.68   11.30
 -10  -2  -7  204.38   17.20
  10   2   7  224.68   15.40
 -10   2  -7  197.88   15.60
  21  -3  -7   16.80    7.40
  21  -3  -7   18.30    7.00
  21   3  -7   19.70    7.10
  19  -3  -7   14.20    5.90
  19  -3  -7   22.70    6.20
  19   3  -7   24.90    6.90
  17  -3  -7   20.10    5.70
  17  -3  -7   21.50    5.50
 -17  -3   7   18.20    4.90
  17   3  -7   23.20    5.70
  15  -3  -7   20.90    5.30
  15  -3  -7   24.30    5.70
 -15  -3   7   29.60    4.40
  15   3  -7   46.00    5.90
 -15   3   7   29.60    6.10
  15   3  -7   23.10    5.10
  13  -3  -7  244.18   14.40
  13  -3  -7  237.08   13.30
 -13  -3   7  249.38   10.30
  13  -3  -7  232.98   14.30
  13   3  -7  248.38   11.80
 -13   3   7  265.27   13.90
  13   3  -7  236.78   12.90
  11  -3  -7   70.39    7.70
  11  -3  -7   66.39    7.10
  11  -3  -7   64.19    6.20
 -11   3   7   57.69    8.10
  11   3  -7   56.99    5.00
  11   3  -7   63.69    5.60
 -11   3   7   60.99    5.70
 -11   3   7   64.79    6.30
   9  -3  -7  150.38    8.90
   9  -3  -7  141.99   10.10
   9   3  -7  155.18    7.60
  -9   3   7  155.38   11.10
  -9   3   7  149.19    8.50
   9   3  -7  154.28    7.90
  -9   3   7  156.58    8.80
   7  -3  -7  174.78   11.10
   7  -3  -7  188.38    9.60
  -7   3   7  187.98    9.40
  -7   3   7  187.88    9.40
  -7   3   7  183.98   11.90
   7   3  -7  186.98    7.10
   5  -3  -7   47.40    5.20
   5  -3  -7   32.60    5.20
   5  -3  -7   51.29    5.90
   5  -3  -7   42.00    4.30
  -5   3   7   40.60    4.20
   5   3  -7   45.10    5.00
  -5   3   7   38.60    6.20
   5   3  -7   38.80    4.00
   3  -3  -7  325.47   16.70
   3  -3  -7  336.47   14.90
   3  -3  -7  327.87   16.30
   3   3  -7  348.77   14.10
   3   3  -7  362.46   14.20
  -3   3   7  352.26   17.40
  -3   3   7  345.17   13.80
  -3   3   7  353.36   14.10
   1  -3  -7  489.75   21.40
   1  -3  -7  509.95   19.80
  -1  -3   7  497.25   20.40
   1  -3  -7  486.05   22.10
   1   3  -7  508.05   18.90
  -1   3   7  485.35   18.60
   1   3  -7  494.25   16.70
   1   3  -7  517.05   17.30
  -1   3   7  502.85   18.90
  -1   3   7  472.65   22.20
   1  -3   7   82.59    8.80
  -1  -3  -7   90.39    8.20
  -1  -3  -7   92.99    8.80
  -1  -3  -7   89.99    7.70
  -1   3  -7   84.49    6.70
   1   3   7   98.09    9.60
   1   3   7   83.39    7.10
   1   3   7  103.19   10.30
  -1   3  -7   94.79    6.50
   1   3   7  100.59    7.30
  -3  -3  -7    8.50    4.00
   3  -3   7    9.00    5.50
  -3  -3  -7    9.10    4.00
  -3  -3  -7    7.30    4.40
   3   3   7   -2.30    5.80
   3   3   7   10.00    4.10
  -3   3  -7    9.90    3.90
  -3   3  -7    9.20    3.10
   3   3   7   16.00    4.40
  -5  -3  -7   47.80    7.20
  -5  -3  -7   59.79    9.00
  -5   3  -7   53.79    6.50
   5   3   7   42.80    6.70
   5   3   7   58.29   10.30
  -5   3  -7   49.80    7.90
  -7  -3  -7   47.20    7.90
  -7  -3  -7   34.70    7.50
   7   3   7   30.30    6.50
  -7   3  -7   42.20    7.30
  -9  -3  -7   17.00    6.60
   9   3   7   15.80    6.20
  -9   3  -7   17.30    6.40
  20  -4  -7  296.97   19.50
  20  -4  -7  331.27   19.80
  20   4  -7  271.17   20.20
  18  -4  -7  666.83   28.90
  18  -4  -7  599.14   28.30
 -18  -4   7  616.34   24.80
  18   4  -7  606.04   29.10
 -16  -4   7 1428.86   45.60
  16  -4  -7 1434.36   50.99
  16  -4  -7 1425.96   49.99
  16   4  -7 1432.66   46.30
  16   4  -7 1396.46   50.49
  14  -4  -7  798.72   33.80
 -14  -4   7  879.41   29.00
  14  -4  -7  892.41   33.50
  14   4  -7  873.41   33.30
  14   4  -7  916.11   30.20
 -14   4   7  939.91   34.50
  12  -4  -7 1016.00   36.50
  12  -4  -7 1052.49   38.40
  12  -4  -7 1021.10   38.30
 -12   4   7 1016.60   39.00
  12   4  -7 1047.10   33.30
  12   4  -7 1029.70   35.80
 -12   4   7 1059.09   37.10
  10  -4  -7 1707.63   57.99
  10  -4  -7 1781.42   55.89
 -10   4   7 1768.42   55.29
 -10   4   7 1686.23   58.59
  10   4  -7 1774.32   53.99
 -10   4   7 1776.62   55.89
  10   4  -7 1762.42   52.19
   8  -4  -7 1098.69   37.20
   8  -4  -7 1079.29   39.60
  -8   4   7 1118.59   37.30
   8   4  -7 1084.89   34.50
  -8   4   7 1124.69   37.30
   8   4  -7 1128.69   34.10
  -8   4   7 1155.88   41.00
   6  -4  -7 1154.88   37.80
   6   4  -7 1151.28   33.80
  -6   4   7 1079.09   41.10
   6   4  -7 1146.69   35.30
  -6   4   7 1136.69   37.60
  -6   4   7 1190.58   38.20
   4  -4  -7 1343.97   46.00
   4  -4  -7 1337.67   43.80
   4  -4  -7 1272.27   45.40
  -4   4   7 1291.67   42.90
   4   4  -7 1372.86   42.50
  -4   4   7 1293.57   46.60
   4   4  -7 1340.17   40.30
  -4   4   7 1315.67   42.50
   2  -4  -7  771.42   27.80
   2  -4  -7  710.03   29.10
   2  -4  -7  720.63   29.20
   2   4  -7  764.62   24.60
   2   4  -7  714.83   24.30
  -2   4   7  735.63   26.80
  -2   4   7  713.03   30.30
   2   4  -7  744.73   23.10
  -2   4   7  713.93   26.30
   0  -4   7  744.83   27.70
   0  -4  -7  725.03   27.70
   0  -4  -7  746.13   29.90
   0  -4  -7  693.23   29.70
   0   4   7  714.53   27.00
   0   4   7  738.93   27.50
   0   4   7  782.92   32.20
   0   4  -7  747.13   24.80
   0   4  -7  736.73   25.30
  -2  -4  -7  632.64   27.20
   2  -4   7  611.84   26.40
  -2  -4  -7  615.44   27.40
  -2  -4  -7  608.74   25.20
   2   4   7  628.74   25.10
   2   4   7  665.73   30.10
  -2   4  -7  627.54   23.00
   2   4   7  630.74   25.30
  -2   4  -7  616.74   23.30
  -4  -4  -7  491.65   23.90
  -4  -4  -7  484.05   23.30
   4  -4   7  507.25   25.00
  -4   4  -7  466.85   20.00
   4   4   7  509.35   22.50
  -4   4  -7  487.55   21.30
   4   4   7  460.75   21.60
  -6  -4  -7  542.65   26.10
  -6  -4  -7  517.05   24.20
  -6   4  -7  473.35   21.40
   6   4   7  474.75   23.40
  -8  -4  -7  300.67   19.40
  -8  -4  -7  273.57   18.10
   8   4   7  251.07   17.40
  -8   4  -7  266.47   16.00
  21  -5  -7  310.27   21.10
  21  -5  -7  366.96   21.60
  21   5  -7  289.17   22.60
  19  -5  -7  591.64   27.80
  19  -5  -7  526.45   26.70
  19   5  -7  548.85   29.20
  17  -5  -7  691.43   30.30
 -17  -5   7  697.93   26.40
  17  -5  -7  688.03   29.90
  17   5  -7  691.23   26.20
  17   5  -7  669.13   31.00
  15  -5  -7  494.45   24.20
 -15  -5   7  551.94   20.10
  15  -5  -7  520.25   23.70
  15   5  -7  520.35   20.00
  15   5  -7  506.35   24.30
  13  -5  -7  919.21   34.80
  13  -5  -7  929.71   36.20
 -13  -5   7  922.61   29.30
  13   5  -7  967.50   35.10
  13   5  -7  928.81   30.30
 -13   5   7  921.11   35.70
  11  -5  -7 2249.57   70.39
  11  -5  -7 2254.07   72.49
  11  -5  -7 2229.58   72.39
 -11   5   7 2281.87   71.09
  11   5  -7 2308.87   65.19
  11   5  -7 2222.68   69.69
  11   5  -7 2181.38   69.09
 -11   5   7 2256.67   69.89
 -11   5   7 2114.79   72.89
   9  -5  -7 1721.13   59.59
   9  -5  -7 1816.02   57.49
   9   5  -7 1783.02   55.29
  -9   5   7 1784.02   60.89
  -9   5   7 1774.72   57.89
   9   5  -7 1907.81   52.39
  -9   5   7 1782.72   57.29
   7  -5  -7  741.43   27.70
   7  -5  -7  682.73   29.60
   7   5  -7  782.32   23.40
  -7   5   7  733.73   27.90
   7   5  -7  743.23   24.70
   7   5  -7  747.03   26.40
  -7   5   7  757.52   28.20
   7   5  -7  781.52   23.00
  -7   5   7  773.52   31.60
   5  -5  -7 1464.25   49.30
   5  -5  -7 1436.06   49.70
  -5   5   7 1449.95   47.30
   5   5  -7 1432.46   41.70
   5   5  -7 1428.16   44.30
   5   5  -7 1444.36   42.60
  -5   5   7 1405.96   46.90
  -5   5   7 1370.46   50.59
   3  -5  -7 1595.24   54.89
   3  -5  -7 1664.53   53.79
   3  -5  -7 1605.44   55.59
   3   5  -7 1606.94   48.80
  -3   5   7 1631.94   57.39
  -3   5   7 1640.84   53.29
   3   5  -7 1616.84   48.40
   3   5  -7 1668.03   47.90
  -3   5   7 1602.34   52.69
   3   5  -7 1648.34   50.49
   1  -5  -7 1203.18   42.30
   1  -5  -7 1167.88   42.50
   1  -5  -7 1148.69   40.10
   1   5  -7 1141.29   34.60
   1   5  -7 1127.79   35.10
   1   5  -7 1148.09   34.20
  -1   5   7 1103.19   44.10
   1   5  -7 1133.49   35.90
  -1   5   7 1110.99   39.80
  -1   5   7 1084.89   39.20
  -1  -5  -7 1161.08   43.60
  -1  -5  -7 1217.38   43.80
   1  -5   7 1161.88   40.00
   1   5   7 1159.78   41.10
   1   5   7 1151.28   41.70
  -1   5  -7 1177.68   38.30
  -1   5  -7 1139.39   37.10
  -3  -5  -7  524.75   25.30
  -3  -5  -7  572.54   26.10
   3  -5   7  516.15   24.30
   3   5   7  563.74   24.80
   3   5   7  517.65   23.80
  -3   5  -7  513.05   22.00
  -3   5  -7  534.55   20.60
  -5  -5  -7  192.68   14.30
  -5  -5  -7  167.58   13.70
  -5   5  -7  171.18   10.80
   5   5   7  172.18   13.80
  -7  -5  -7  293.77   19.20
  -7  -5  -7  292.67   18.50
  -7   5  -7  270.07   15.30
   7   5   7  230.28   17.40
  -9  -5  -7  231.28   18.30
  -9   5  -7  233.78   15.60
  20  -6  -7   30.60    8.10
  20  -6  -7   22.40    7.60
  20   6  -7    4.30    8.30
  18  -6  -7   79.69   10.80
 -18  -6   7   81.29    9.60
  18  -6  -7   56.69    9.00
  18   6  -7   66.69   11.10
 -16  -6   7   34.70    6.10
  16  -6  -7   52.09    8.50
  16  -6  -7   25.60    6.10
  16   6  -7   43.20    8.40
  16   6  -7   45.90    6.10
 -14  -6   7  110.79    7.40
  14  -6  -7   89.49    9.10
  14  -6  -7   85.59    9.80
  14   6  -7  110.89    7.10
  14   6  -7   85.69    9.60
  12  -6  -7  108.39    9.70
  12  -6  -7  128.39   11.10
  12   6  -7  134.29    6.80
  12   6  -7  134.59   10.30
 -12   6   7  144.19   10.40
  10  -6  -7   16.60    5.00
  10  -6  -7    7.10    3.40
 -10   6   7   12.00    4.10
  10   6  -7    6.10    3.90
  10   6  -7    9.80    1.80
  10   6  -7   14.10    3.80
 -10   6   7   -0.50    4.70
   8  -6  -7   67.89    6.80
   8  -6  -7   50.59    7.90
  -8   6   7   60.59    8.30
  -8   6   7   55.59    6.70
   8   6  -7   49.00    6.20
   8   6  -7   55.49    5.60
   6  -6  -7    5.10    3.30
   6  -6  -7   10.60    4.10
  -6   6   7    5.20    4.30
   6   6  -7    3.40    2.70
   6   6  -7    5.30    2.30
  -6   6   7    2.70    2.80
   4  -6  -7    0.00    2.80
   4  -6  -7    3.00    2.90
   4  -6  -7   11.50    5.10
   4   6  -7    7.30    2.70
  -4   6   7   15.90    5.10
   4   6  -7   13.70    3.10
  -4   6   7   12.40    4.20
   2  -6  -7   32.00    6.50
   2  -6  -7   24.50    5.80
   2   6  -7   46.70    5.20
   2   6  -7   28.20    2.90
   2   6  -7   27.00    4.10
  -2   6   7   39.40    6.60
   2   6  -7   38.20    4.40
  -2   6   7   29.20    6.30
   0  -6  -7    4.20    3.80
   0  -6  -7    5.00    3.50
   0   6   7    0.60    3.90
   0   6  -7    2.00    1.90
   0   6   7    2.40    5.10
   0   6  -7    4.20    3.40
   2  -6   7   14.50    5.10
  -2  -6  -7   11.70    5.30
  -2  -6  -7   13.00    4.90
   2   6   7   17.40    6.30
  -2   6  -7   17.60    5.00
  -2   6  -7   22.20    3.90
  -4  -6  -7   15.30    5.70
  -4  -6  -7   19.10    6.20
   4  -6   7   12.20    7.40
  -4   6  -7    8.60    7.00
   4   6   7   11.20    5.80
  -4   6  -7   11.20    3.90
  -6  -6  -7   23.00    7.10
  -6  -6  -7   25.70    7.60
  -6   6  -7   19.80    5.20
   6   6   7    9.70    6.80
  -8  -6  -7   38.60    9.10
  -8  -6  -7   22.80    8.40
  -8   6  -7   28.20    6.70
   8   6   7   26.90    9.80
  19  -7  -7  206.38   18.40
  19  -7  -7  218.08   16.80
  19   7  -7  224.38   20.10
  17  -7  -7  301.97   18.80
  17  -7  -7  291.77   19.00
 -17  -7   7  323.37   16.90
  17   7  -7  295.47   20.90
  17   7  -7  333.47   16.00
  15  -7  -7  307.27   17.50
  15  -7  -7  288.57   18.10
  15   7  -7  305.07   13.40
 -15   7   7  272.27   16.70
  15   7  -7  268.77   18.50
  13  -7  -7  554.14   26.40
  13  -7  -7  557.24   25.20
  13   7  -7  592.74   19.40
 -13   7   7  555.44   25.00
  13   7  -7  562.34   26.10
  11  -7  -7  895.11   33.10
  11  -7  -7  783.62   33.70
 -11   7   7  852.71   32.50
  11   7  -7  787.02   31.70
   9  -7  -7 1188.98   45.00
   9  -7  -7 1219.38   42.90
   9   7  -7 1196.38   40.90
  -9   7   7 1240.98   43.40
   9   7  -7 1188.58   42.00
   7  -7  -7  680.93   30.20
   7  -7  -7  689.63   29.50
  -7   7   7  721.43   28.80
   7   7  -7  682.13   26.60
   7   7  -7  751.42   26.10
   5  -7  -7  217.38   14.20
   5  -7  -7  201.28   14.60
  -5   7   7  220.48   14.00
   5   7  -7  206.08   11.70
   5   7  -7  226.78   11.00
   3  -7  -7  787.42   33.70
   3  -7  -7  756.02   31.60
  -3   7   7  776.52   31.60
   3   7  -7  770.22   27.10
   3   7  -7  777.42   27.50
   1  -7  -7  978.30   38.80
   1  -7  -7  964.20   40.60
   1   7  -7 1038.70   30.30
   1   7  -7  981.10   32.00
   1   7  -7 1041.20   35.00
  -1   7   7 1011.70   39.30
   1   7  -7 1040.30   32.00
  -1  -7  -7  602.64   27.10
  -1  -7  -7  542.65   27.90
   1  -7   7  590.24   21.70
   1   7   7  570.24   27.40
  -1   7  -7  568.44   19.90
  -1   7  -7  573.94   23.90
  -3  -7  -7  350.76   20.00
  -3  -7  -7  365.66   21.70
   3  -7   7  349.96   18.20
   3   7   7  334.97   21.10
  -3   7  -7  360.06   15.10
   5  -7   7  148.89   16.50
  -5  -7  -7  201.58   16.00
  -5  -7  -7  182.88   14.80
   5   7   7  157.68   16.30
  -5   7  -7  177.78   11.20
  16  -8  -7  846.42   35.60
  16  -8  -7  829.32   36.20
  16   8  -7  823.32   38.30
 -16   8   7  900.21   35.90
  14  -8  -7  769.62   33.00
  14  -8  -7  768.42   33.80
 -14   8   7  777.82   32.90
  14   8  -7  804.32   35.10
  14   8  -7  830.42   25.80
  12  -8  -7 1126.29   41.80
  12  -8  -7 1091.29   43.00
 -12   8   7 1111.79   41.40
  12   8  -7 1084.09   41.70
  10  -8  -7 1173.58   42.50
  10  -8  -7 1114.29   44.00
 -10   8   7 1173.88   42.70
  10   8  -7 1119.79   41.00
   8  -8  -7  803.42   34.80
   8   8  -7  808.82   30.30
  -8   8   7  833.22   33.20
   6  -8  -7 1205.48   45.70
   6  -8  -7 1170.18   43.60
  -6   8   7 1190.38   43.60
   6   8  -7 1170.78   39.70
   6   8  -7 1137.19   40.70
   4  -8  -7 1731.73   62.69
   4  -8  -7 1833.82   60.69
   4   8  -7 1771.22   55.99
  -4   8   7 1673.33   59.99
   4   8  -7 1763.72   55.59
   4   8  -7 1774.52   56.29
   2  -8  -7  897.01   36.10
   2  -8  -7  893.91   38.80
  -2   8   7  902.71   37.00
   2   8  -7  920.61   30.90
   2   8  -7  879.41   32.80
   0  -8  -7  560.74   26.10
   0  -8  -7  558.44   28.20
   0   8  -7  518.25   23.60
   0   8   7  521.95   26.70
  -2  -8  -7  704.63   31.30
  -2  -8  -7  683.83   33.20
  -2   8  -7  700.73   23.70
   2   8   7  705.03   33.20
  -4  -8  -7  462.75   26.20
  -4  -8  -7  493.15   25.00
   4   8   7  464.25   27.30
  -4   8  -7  472.15   19.10
  15  -9  -7   89.59   12.00
  15  -9  -7   75.59   10.50
  15   9  -7   84.99   13.20
 -15   9   7   91.89   12.10
  13  -9  -7   14.20    5.90
  13  -9  -7   25.20    7.30
 -13   9   7   21.30    6.50
  13   9  -7   33.60    7.80
  11  -9  -7   73.19   10.80
  11   9  -7   76.69   10.20
 -11   9   7   58.29    8.80
   9  -9  -7  129.19   12.80
   9   9  -7  104.29   10.20
  -9   9   7  116.59   11.50
   7  -9  -7  115.69   12.40
   7  -9  -7  107.29   10.80
   7   9  -7  107.19    9.70
  -7   9   7  120.59   11.70
   5  -9  -7  228.18   17.10
   5  -9  -7  241.88   15.80
  -5   9   7  238.08   16.10
   5   9  -7  220.78   14.50
   5   9  -7  219.48   13.10
   3  -9  -7   51.19   10.00
   3  -9  -7   58.19    9.10
   3   9  -7   66.99    7.70
  -3   9   7   45.40    9.00
   3   9  -7   58.79    7.70
   1  -9  -7   69.59   11.80
   1  -9  -7   41.50    8.30
   1   9  -7   69.19    7.80
   1   9  -7   51.59    7.40
  -1   9   7   65.49   10.60
  -1  -9  -7  145.89   13.10
  -1  -9  -7   81.59   12.10
   1   9   7  120.39   14.30
  -3  -9  -7   20.60    8.00
  -3  -9  -7   19.40    7.00
   3   9   7   20.60    8.70
  12 -10  -7  115.29   13.30
 -12  10   7  126.99   13.30
  12  10  -7  131.69   14.40
  10 -10  -7  269.37   19.30
  10  10  -7  283.17   17.90
 -10  10   7  279.17   18.50
   8 -10  -7  428.66   25.10
   8 -10  -7  451.15   23.40
   8  10  -7  402.96   21.00
  -8  10   7  436.26   23.40
   6 -10  -7  242.48   16.50
   6 -10  -7  197.38   17.20
  -6  10   7  222.28   16.50
   6  10  -7  255.37   15.20
   4 -10  -7  251.27   17.20
   4 -10  -7  276.17   19.90
  -4  10   7  264.37   18.40
   4  10  -7  256.87   15.60
   4  10  -7  265.77   17.10
   2 -10  -7  387.86   25.10
   2 -10  -7  401.26   22.00
   2  10  -7  416.76   20.20
  -2  10   7  372.46   23.40
   0 -10  -7  291.07   18.60
   0 -10  -7  249.78   20.70
   0  10  -7  279.07   16.80
   0  10   7  259.47   20.40
  22   0  -8  369.76   23.80
  22   0  -8  367.06   22.30
  20   0  -8 1041.80   43.50
  20   0  -8 1030.60   41.20
  18   0  -8 1336.27   50.29
  18   0  -8 1306.57   47.50
 -18   0   8 1313.57   44.70
  16   0  -8 2805.22   90.89
  16   0  -8 2812.12   87.59
 -16   0   8 2841.92   84.39
  14   0  -8 4451.85  136.89
  14   0  -8 4550.24  133.49
  14   0  -8 4539.05  133.09
 -14   0   8 4622.24  129.89
 -12   0   8 1865.51   55.59
  12   0  -8 1880.51   63.09
  12   0  -8 1967.40   60.69
  12   0  -8 1929.81   59.09
 -12   0   8 1936.81   55.39
  10   0  -8 2546.15   79.99
  10   0  -8 2574.64   75.19
   8   0  -8 3906.81  111.79
   8   0  -8 3985.00  117.29
   6   0  -8 2134.49   62.59
   6   0  -8 2152.38   68.29
   6   0  -8 2157.58   62.89
  -6   0   8 2261.07   68.19
   6   0  -8 2209.98   67.99
   4   0  -8 1621.14   52.59
   4   0  -8 1698.73   48.60
   4   0  -8 1613.84   53.89
  -4   0   8 1682.23   52.99
  -2   0   8 1431.56   45.50
   2   0  -8 1383.86   42.20
   2   0  -8 1368.56   47.20
   2   0  -8 1374.26   44.90
   0   0  -8 1515.95   49.00
   0   0   8 1511.05   53.69
   0   0  -8 1584.14   48.00
   0   0   8 1571.94   49.40
   0   0  -8 1525.55   52.09
  -2   0  -8  673.93   28.40
  -2   0  -8  703.93   26.10
   2   0   8  662.23   25.40
  -2   0  -8  745.83   26.10
  -4   0  -8  670.93   27.00
  -4   0  -8  668.13   28.80
  -4   0  -8  688.53   24.60
   4   0   8  648.04   24.90
   6   0   8  971.50   32.70
   6   0   8 1080.39   36.30
  -6   0  -8 1087.39   41.30
   6   0   8 1067.59   32.70
  -8   0  -8  473.95   24.60
   8   0   8  425.56   17.50
  23  -1  -8  179.28   17.30
  23  -1  -8  134.69   15.10
  23   1  -8  156.38   16.60
  23   1  -8  187.18   18.70
  21  -1  -8  207.78   17.30
  21  -1  -8  241.78   17.20
  21   1  -8  223.28   18.40
  21   1  -8  223.28   16.90
 -19  -1   8  233.68   14.40
  19  -1  -8  230.88   15.70
  19  -1  -8  251.27   17.60
  19   1  -8  252.87   18.00
  19   1  -8  230.98   15.80
  17  -1  -8  396.76   19.80
 -17  -1   8  414.06   17.40
  17  -1  -8  409.16   21.90
  17   1  -8  368.56   19.40
  17   1  -8  392.86   21.70
 -17   1   8  394.76   18.60
  15  -1  -8  187.58   11.90
 -15  -1   8  199.18    9.60
  15  -1  -8  193.58   13.60
  15   1  -8  180.88   11.40
 -15   1   8  185.28   10.80
  15   1  -8  176.98   11.50
  15   1  -8  179.78   13.50
  13  -1  -8  167.88   10.10
  13  -1  -8  160.78   11.00
 -13  -1   8  167.38    7.20
  13  -1  -8  164.78   11.70
  13   1  -8  179.78   10.10
  13   1  -8  176.88   10.70
 -13   1   8  182.78    9.30
  13   1  -8  170.78   12.30
  11  -1  -8  545.85   24.00
  11  -1  -8  546.75   20.80
 -11   1   8  560.74   18.70
  11   1  -8  597.54   22.10
  11   1  -8  560.74   20.30
  11   1  -8  563.24   24.30
 -11   1   8  562.24   18.90
   9  -1  -8  939.21   35.60
   9  -1  -8 1002.90   32.00
   9   1  -8  969.50   35.60
   9   1  -8 1031.20   30.70
   7  -1  -8  847.92   31.60
   7  -1  -8  891.21   27.80
   7   1  -8  897.51   31.60
   7   1  -8  885.01   25.70
  -7   1   8  873.11   32.10
   7   1  -8  792.62   30.60
   5  -1  -8  331.67   16.70
   5  -1  -8  353.56   13.50
   5  -1  -8  336.37   16.20
   5  -1  -8  356.56   13.00
  -5   1   8  346.27   16.50
   5   1  -8  340.77   15.40
   5   1  -8  334.07   15.80
   5   1  -8  351.96   10.90
   3  -1  -8  592.44   20.30
   3  -1  -8  549.25   24.00
   3  -1  -8  571.74   22.90
  -3   1   8  596.14   23.60
   3   1  -8  583.54   21.80
   3   1  -8  604.74   18.50
   3   1  -8  550.84   23.00
   1  -1  -8  630.64   22.50
  -1  -1   8  635.24   22.90
  -1  -1   8  613.04   26.50
   1  -1  -8  624.24   24.30
   1  -1  -8  600.34   26.10
   1   1  -8  633.44   25.20
   1   1  -8  649.64   21.50
  -1   1   8  659.93   25.10
   1   1  -8  614.04   22.50
   1  -1   8  236.78   11.00
   1  -1   8  225.58   15.40
  -1  -1  -8  221.68   11.80
  -1  -1  -8  203.68   13.50
  -1  -1  -8  229.08   12.60
  -1   1  -8  218.58   11.10
   1   1   8  204.68   22.30
   1   1   8  225.68   13.00
  -1   1  -8  223.68   13.10
  -1   1  -8  219.58   10.80
  -3  -1  -8  242.48   13.40
   3  -1   8  215.08   10.40
  -3  -1  -8  222.58   14.40
  -3  -1  -8  214.18   12.60
   3   1   8  187.58    8.70
  -3   1  -8  205.78   13.10
   3   1   8  214.28   13.20
  -3   1  -8  216.58   12.50
  -3   1  -8  210.88   10.00
   3   1   8  201.98    9.00
  -5  -1  -8   80.39    7.70
   5  -1   8   76.89    6.60
  -5  -1  -8   73.59    9.30
  -5   1  -8   89.69    9.30
   5   1   8   64.99    6.20
   5   1   8   77.09    7.20
   5   1   8   82.39   10.50
   7  -1   8    9.40    3.60
  -7  -1  -8    3.40    4.80
   7   1   8   11.80    7.60
   7   1   8   -2.60    3.70
  -7   1  -8    3.30    4.60
  -9  -1  -8   13.10    7.60
   9  -1   8   23.70    4.50
   9   1   8   18.40    6.30
  -9   1  -8   16.00    7.10
  22  -2  -8   25.60    8.40
  22  -2  -8   38.60    8.20
  22   2  -8   28.00    8.20
  20  -2  -8   58.59    9.20
  20  -2  -8   58.19    9.80
 -20  -2   8   64.99   11.20
  20   2  -8   58.29    9.40
  18  -2  -8  216.58   14.30
  18  -2  -8  208.08   15.60
 -18  -2   8  195.68   11.90
 -18   2   8  212.08   18.50
  18   2  -8  183.08   13.70
  16  -2  -8  327.97   17.20
  16  -2  -8  332.77   18.90
 -16  -2   8  310.77   13.70
  16   2  -8  318.27   15.80
  16   2  -8  311.17   16.70
 -16   2   8  346.07   16.90
 -14  -2   8   59.59    4.30
  14  -2  -8   65.69    7.90
  14  -2  -8   52.29    8.80
  14  -2  -8   54.89    6.40
  14   2  -8   60.69    6.30
 -14   2   8   63.49    6.80
  14   2  -8   60.99    6.40
  12  -2  -8   73.39    7.60
  12  -2  -8   82.89    8.30
  12  -2  -8   67.79    6.50
 -12   2   8   90.59    6.70
 -12   2   8   72.69    5.80
  12   2  -8   78.99    6.40
  12   2  -8   90.59    6.90
  10  -2  -8  582.74   21.70
 -10   2   8  586.84   25.20
  10   2  -8  591.84   24.70
  10   2  -8  584.24   21.60
  10   2  -8  599.24   20.10
 -10   2   8  566.74   20.20
 -10   2   8  567.44   20.00
   8  -2  -8  487.55   18.50
   8  -2  -8  467.25   21.30
   8   2  -8  516.35   21.40
   8   2  -8  505.85   15.80
  -8   2   8  508.05   16.60
  -8   2   8  515.85   22.40
  -8   2   8  484.85   16.50
   6  -2  -8  646.04   26.40
   6  -2  -8  684.83   23.20
   6  -2  -8  651.83   23.70
   6  -2  -8  663.83   27.10
   6   2  -8  691.13   25.60
  -6   2   8  698.53   27.40
   6   2  -8  672.93   25.00
  -6   2   8  686.33   20.40
  -6   2   8  684.13   20.40
   4  -2  -8  735.63   25.30
   4  -2  -8  704.83   27.60
   4  -2  -8  727.93   28.90
   4   2  -8  704.73   25.70
   4   2  -8  693.33   26.30
  -4   2   8  767.02   29.00
   2  -2  -8  248.38   15.00
   2  -2  -8  261.57   14.00
   2  -2  -8  274.37   12.70
   2   2  -8  264.67   11.90
  -2   2   8  270.47    9.70
   2   2  -8  263.67   13.40
   2   2  -8  282.77   10.30
  -2   2   8  285.77    9.80
  -2   2   8  272.67   15.20
   0  -2  -8  359.06   19.60
   0  -2  -8  388.06   17.00
   0  -2  -8  376.86   18.20
   0  -2   8  433.56   20.60
   0   2  -8  414.26   15.80
   0   2   8  408.16   19.70
   0   2  -8  405.56   18.00
   0   2  -8  429.36   15.50
   0   2   8  397.16   14.50
   0   2   8  422.36   14.60
  -2  -2  -8  260.77   14.30
   2  -2   8  265.47   17.70
  -2  -2  -8  270.27   15.10
  -2  -2  -8  291.27   16.80
  -2   2  -8  285.97   13.70
   2   2   8  264.97   16.40
   2   2   8  289.27   12.10
   2   2   8  256.97   11.80
  -2   2  -8  279.57   10.60
  -2   2  -8  261.57   14.40
  -4  -2  -8   98.29   10.20
  -4  -2  -8   90.69    8.90
   4   2   8   88.09    7.30
   4   2   8  101.49   12.00
  -4   2  -8   85.79    9.60
   4   2   8   76.39    7.90
  -4   2  -8   95.69    8.80
  -6  -2  -8   75.99    8.80
  -6  -2  -8   94.89   10.60
  -6   2  -8   75.39    9.10
   6   2   8   68.59    8.50
   6   2   8   85.79   12.10
   6   2   8   88.79    8.40
  -8  -2  -8   26.40    7.60
  -8   2  -8   40.80    7.80
   8   2   8   42.10    7.20
  21  -3  -8  547.25   28.30
  21  -3  -8  571.64   28.10
  21   3  -8  528.55   28.50
  19  -3  -8  717.73   31.60
  19  -3  -8  716.63   32.80
 -19  -3   8  739.63   27.70
  19   3  -8  737.03   32.20
  17  -3  -8 1099.59   42.60
  17  -3  -8 1097.29   40.90
 -17  -3   8 1069.59   35.60
 -17   3   8 1076.59   43.70
  17   3  -8 1091.19   40.80
 -15  -3   8 1139.49   35.60
  15  -3  -8 1119.19   43.00
  15  -3  -8 1134.29   41.00
  15   3  -8 1113.69   40.40
 -15   3   8 1190.38   40.90
  15   3  -8 1195.98   38.80
  13  -3  -8 1547.45   53.89
  13  -3  -8 1605.84   51.49
 -13   3   8 1517.25   49.70
  13   3  -8 1572.64   50.19
 -13   3   8 1557.34   50.59
  13   3  -8 1572.74   49.10
  11  -3  -8 1809.12   61.89
  11  -3  -8 1890.71   59.09
 -11   3   8 1932.21   63.29
 -11   3   8 1870.01   58.09
 -11   3   8 1858.61   57.89
  11   3  -8 1863.61   57.19
  11   3  -8 1933.21   57.19
   9  -3  -8 2000.90   65.59
   9  -3  -8 2016.60   62.09
  -9   3   8 1942.81   60.89
  -9   3   8 2015.30   66.39
   9   3  -8 2088.79   59.09
  -9   3   8 2046.40   60.99
   7  -3  -8 2734.73   87.19
   7  -3  -8 2912.61   83.69
  -7   3   8 2932.31   88.69
   7   3  -8 2921.71   86.19
   7   3  -8 2825.02   83.69
  -7   3   8 2903.91   82.39
  -7   3   8 2534.15   81.99
   5  -3  -8 1340.47   43.50
   5  -3  -8 1251.57   45.50
   5  -3  -8 1293.97   46.40
  -5   3   8 1372.56   47.10
  -5   3   8 1359.26   41.20
  -5   3   8 1353.16   41.00
   5   3  -8 1343.37   43.40
   5   3  -8 1349.47   42.70
   3  -3  -8  989.20   37.60
   3  -3  -8  974.30   36.50
   3  -3  -8 1041.10   34.70
   3   3  -8 1003.90   33.80
  -3   3   8 1003.30   32.10
  -3   3   8 1017.50   32.40
  -3   3   8 1035.60   38.20
   3   3  -8 1002.40   33.00
   3   3  -8 1005.80   29.60
   1  -3  -8 1791.82   66.39
  -1  -3   8 2039.80   65.29
   1  -3  -8 2038.20   65.99
   1  -3  -8 2047.10   63.59
  -1   3   8 2035.70   61.39
   1   3  -8 2094.59   60.19
   1   3  -8 2091.49   60.09
  -1   3   8 2104.39   67.79
   1   3  -8 2059.19   62.89
  -1   3   8 2095.89   61.59
   1  -3   8 1430.56   49.20
  -1  -3  -8 1393.26   49.70
  -1  -3  -8 1388.86   48.10
  -1  -3  -8 1361.06   45.80
   1   3   8 1394.56   44.10
  -1   3  -8 1366.56   43.60
   1   3   8 1282.27   43.60
  -1   3  -8 1331.47   45.00
   1   3   8 1422.76   50.09
  -3  -3  -8  606.74   27.80
  -3  -3  -8  621.44   26.70
   3   3   8  646.74   29.50
   3   3   8  601.34   23.60
  -3   3  -8  627.64   24.50
  -3   3  -8  595.14   24.40
   3   3   8  565.84   23.40
  -5  -3  -8  591.24   28.20
  -5  -3  -8  616.54   26.40
  -5   3  -8  584.84   25.00
   5   3   8  588.04   24.20
   5   3   8  554.04   24.40
  -7  -3  -8  418.06   21.30
  -7  -3  -8  423.36   24.00
   7   3   8  382.06   20.00
  -7   3  -8  404.06   20.60
  20  -4  -8  235.98   16.80
  20  -4  -8  217.88   16.80
 -20  -4   8  230.58   15.10
  20   4  -8  198.98   16.90
  18  -4  -8  358.26   20.70
 -18  -4   8  355.36   16.30
  18  -4  -8  354.96   19.70
  18   4  -8  364.36   20.70
  16  -4  -8  288.47   17.60
  16  -4  -8  275.27   16.10
 -16  -4   8  285.77   12.20
  16   4  -8  256.47   15.80
  16   4  -8  269.47   13.80
  14  -4  -8  711.43   30.80
  14  -4  -8  726.33   29.20
 -14   4   8  818.92   30.20
 -14   4   8  708.53   27.80
  14   4  -8  735.13   28.70
  14   4  -8  751.62   26.20
  12  -4  -8 1053.89   36.90
  12  -4  -8 1025.30   39.00
  12   4  -8  994.20   33.20
 -12   4   8 1021.20   36.50
 -12   4   8 1073.09   35.90
  12   4  -8 1023.40   35.10
  10  -4  -8  752.32   31.00
  10  -4  -8  796.22   28.80
 -10   4   8  789.32   28.50
  10   4  -8  780.32   26.30
 -10   4   8  743.33   31.80
 -10   4   8  786.42   28.20
  10   4  -8  786.72   25.80
   8  -4  -8  798.22   31.80
   8  -4  -8  819.92   28.90
  -8   4   8  799.72   28.50
  -8   4   8  788.12   32.60
   8   4  -8  803.02   25.30
   8   4  -8  794.52   27.00
  -8   4   8  805.92   28.40
   6  -4  -8  636.54   26.50
   6  -4  -8  570.74   25.70
   6  -4  -8  609.94   23.20
   6  -4  -8  619.64   24.40
  -6   4   8  612.74   22.90
  -6   4   8  635.94   22.90
  -6   4   8  610.94   27.10
   6   4  -8  604.84   23.90
   6   4  -8  611.94   21.50
   4  -4  -8  877.01   33.90
   4  -4  -8  883.01   32.00
   4  -4  -8  845.02   34.00
  -4   4   8  865.71   30.40
   4   4  -8  912.91   29.20
  -4   4   8  866.01   30.20
  -4   4   8  894.21   35.60
   4   4  -8  873.51   30.20
   4   4  -8  909.81   26.30
   2  -4  -8  832.62   33.40
   2  -4  -8  795.22   32.40
   2  -4  -8  806.32   30.60
  -2   4   8  875.11   35.10
   2   4  -8  820.52   26.20
   2   4  -8  849.72   27.20
   2   4  -8  829.82   28.00
  -2   4   8  834.52   29.40
  -2   4   8  833.02   29.60
   0  -4   8  397.26   19.30
   0  -4  -8  424.46   19.30
   0  -4  -8  415.66   21.30
   0  -4  -8  391.06   20.30
   0   4  -8  420.86   16.30
   0   4   8  422.06   23.30
   0   4   8  405.96   18.10
   0   4  -8  419.16   17.00
   0   4   8  408.06   18.10
  -2  -4  -8  247.98   16.50
   2  -4   8  274.67   17.40
  -2  -4  -8  269.27   16.40
   2   4   8  232.68   14.10
   2   4   8  253.97   14.20
  -2   4  -8  253.67   13.40
  -2   4  -8  255.27   12.90
  -4  -4  -8  269.47   17.00
  -4  -4  -8  261.77   17.30
  -4   4  -8  265.47   14.30
   4   4   8  231.68   15.80
   4   4   8  266.17   15.50
  -4   4  -8  272.07   16.10
  -6  -4  -8  206.58   16.10
  -6  -4  -8  204.08   15.10
  -6   4  -8  212.88   13.70
   6   4   8  218.88   14.90
  -8  -4  -8  107.59   12.70
  -8  -4  -8   79.69   12.60
  -8   4  -8   77.39   10.10
   8   4   8   78.29   10.90
  21  -5  -8   12.40    7.10
  21  -5  -8    5.40    6.50
  21   5  -8   22.80    8.70
  19  -5  -8   20.80    6.90
 -19  -5   8   25.70    7.00
  19  -5  -8   41.30    8.00
  19   5  -8   26.70    8.20
  17  -5  -8   36.20    7.00
  17  -5  -8   45.80    8.40
 -17  -5   8   48.70    6.10
  17   5  -8   50.39    6.80
  17   5  -8   52.49    8.80
  15  -5  -8   82.49    9.70
  15  -5  -8   72.69    8.30
 -15   5   8   67.99    7.90
  15   5  -8   67.49    6.40
  15   5  -8   71.59    8.70
  13  -5  -8   34.90    7.20
  13  -5  -8   32.00    6.00
  13   5  -8   39.90    6.30
 -13   5   8   31.90    7.10
 -13   5   8   38.20    5.90
  13   5  -8   40.40    4.60
  11  -5  -8  188.38   11.80
  11  -5  -8  176.28   12.80
 -11   5   8  183.68   11.30
  11   5  -8  175.88    8.30
 -11   5   8  177.78   12.40
  11   5  -8  182.08   10.50
   9  -5  -8  212.08   14.20
   9  -5  -8  236.08   13.00
  -9   5   8  245.58   13.30
   9   5  -8  243.58   11.20
   9   5  -8  252.07   10.60
   9   5  -8  254.87    9.80
  -9   5   8  235.38   13.60
   7  -5  -8   78.39    8.20
   7  -5  -8   69.79    7.70
   7  -5  -8   77.89    7.20
  -7   5   8   76.39    7.90
   7   5  -8   77.59    5.10
   7   5  -8   79.69    5.00
  -7   5   8   85.09    7.50
   7   5  -8   75.39    4.90
   5  -5  -8  235.68   14.40
   5  -5  -8  216.28   14.40
   5  -5  -8  230.08   13.80
  -5   5   8  238.78   13.00
   5   5  -8  226.58    9.40
  -5   5   8  226.48   12.70
   5   5  -8  220.48   12.10
   3  -5  -8  183.88   12.50
   3  -5  -8  161.28   12.10
   3  -5  -8  172.38   12.80
  -3   5   8  185.98   11.50
   3   5  -8  166.58    8.20
   3   5  -8  181.58    8.30
   3   5  -8  178.88    8.40
   3   5  -8  179.08    9.50
  -3   5   8  163.28   11.20
   1  -5  -8  128.89   11.40
   1  -5  -8  121.79   11.00
   1   5  -8  130.29    5.80
  -1   5   8  122.29    9.80
  -1   5   8  106.59   10.40
   1   5  -8  127.79    6.00
   1   5  -8  122.79    7.30
   1   5  -8  122.79    7.80
  -1  -5  -8  164.68   13.20
   1  -5   8  182.28   12.80
  -1  -5  -8  170.88   13.30
   1   5   8  167.28   12.20
   1   5   8  150.18   12.40
  -1   5  -8  165.38    9.40
  -1   5  -8  162.98   10.30
  -3  -5  -8   18.00    6.10
  -3  -5  -8   12.70    5.30
   3  -5   8   21.70    8.10
   3   5   8   19.70    6.00
   3   5   8   21.70    7.00
  -3   5  -8   17.60    6.10
  -3   5  -8   18.40    4.20
  -5  -5  -8   22.00    6.70
  -5  -5  -8   11.60    5.50
   5   5   8   15.00    6.90
  -5   5  -8   26.20    5.30
  -7  -5  -8   31.50    8.50
  -7  -5  -8   35.50    8.60
   7   5   8   18.80    7.50
  -7   5  -8   26.50    6.30
  20  -6  -8  331.67   21.20
  20  -6  -8  373.46   22.60
  20   6  -8  348.97   23.80
  18  -6  -8  781.02   34.00
  18  -6  -8  706.73   32.20
 -18  -6   8  742.53   27.40
  18   6  -8  757.22   34.70
  16  -6  -8  646.44   30.30
  16  -6  -8  669.33   29.40
 -16   6   8  703.23   28.90
  16   6  -8  686.13   24.70
  16   6  -8  672.83   30.40
  14  -6  -8  830.12   32.30
  14  -6  -8  786.42   33.40
  14   6  -8  798.32   32.20
 -14   6   8  776.32   31.10
  14   6  -8  781.52   26.40
  12  -6  -8 1656.23   57.19
  12  -6  -8 1646.14   54.69
 -12   6   8 1584.24   53.99
  12   6  -8 1537.85   53.19
  12   6  -8 1674.93   48.10
  10  -6  -8 1310.47   44.30
  10  -6  -8 1259.97   46.80
  10   6  -8 1266.47   43.40
  10   6  -8 1278.47   38.10
 -10   6   8 1219.98   44.90
  10   6  -8 1231.98   42.00
  10   6  -8 1325.87   37.30
 -10   6   8 1272.77   44.20
   8  -6  -8 1269.17   46.70
   8  -6  -8 1273.27   43.90
   8   6  -8 1279.07   36.70
   8   6  -8 1270.07   40.50
  -8   6   8 1280.27   44.80
  -8   6   8 1235.38   44.00
   8   6  -8 1273.47   42.30
   8   6  -8 1303.47   36.60
   6  -6  -8 1042.60   40.10
   6  -6  -8 1106.19   41.40
   6   6  -8 1096.59   31.00
   6   6  -8 1075.59   33.70
  -6   6   8 1007.30   38.10
   6   6  -8 1030.40   35.20
  -6   6   8 1063.69   38.30
   4  -6  -8  471.25   22.20
   4  -6  -8  416.26   21.80
   4   6  -8  420.36   16.40
  -4   6   8  387.76   19.80
   4   6  -8  436.56   16.10
  -4   6   8  384.16   19.90
   4   6  -8  436.46   14.00
   4   6  -8  416.56   17.80
   2  -6  -8  790.52   33.10
   2  -6  -8  771.72   32.10
  -2   6   8  706.63   29.90
  -2   6   8  672.63   29.60
   2   6  -8  761.62   24.50
   2   6  -8  766.12   25.10
   2   6  -8  736.73   25.80
   2   6  -8  752.12   24.00
   0  -6  -8 1013.80   41.40
   0  -6  -8 1101.59   41.50
   0   6  -8 1018.40   33.10
   0   6  -8 1022.50   35.10
   0   6   8  987.40   38.60
   0   6   8 1046.30   39.50
  -2  -6  -8  608.44   28.80
   2  -6   8  616.04   26.20
  -2  -6  -8  598.64   29.20
  -2   6  -8  548.35   24.60
  -2   6  -8  623.14   22.60
   2   6   8  630.74   28.20
  -4  -6  -8  494.35   25.90
  -4  -6  -8  458.85   24.60
  -4   6  -8  450.15   19.60
   4   6   8  435.16   24.00
  -6  -6  -8  368.96   22.50
  -6  -6  -8  363.66   22.40
   6   6   8  332.87   22.10
  -6   6  -8  376.16   18.40
  19  -7  -8  261.87   24.00
  19  -7  -8  236.08   18.10
  19   7  -8  214.48   19.70
  17  -7  -8  447.66   24.30
  17  -7  -8  448.76   23.50
  17   7  -8  432.86   25.50
 -17   7   8  472.45   23.50
  17   7  -8  475.65   19.30
  15  -7  -8  282.17   18.30
  15  -7  -8  311.57   18.10
  15   7  -8  280.37   18.40
 -15   7   8  293.77   17.20
  15   7  -8  296.37   12.80
  13  -7  -8  658.23   29.80
  13  -7  -8  658.73   28.00
  13   7  -8  674.23   21.10
  13   7  -8  596.64   27.40
 -13   7   8  646.14   27.60
  11  -7  -8  670.63   28.10
  11  -7  -8  639.24   29.60
 -11   7   8  678.33   28.20
  11   7  -8  664.53   26.80
   9  -7  -8  335.87   17.90
   9  -7  -8  331.07   19.50
   9   7  -8  362.86   16.10
  -9   7   8  358.16   18.30
   9   7  -8  321.67   19.10
   7  -7  -8 1268.27   48.10
   7  -7  -8 1296.17   47.30
   7   7  -8 1287.27   42.80
   7   7  -8 1287.97   41.40
  -7   7   8 1261.67   45.50
   5  -7  -8 1664.53   59.59
   5  -7  -8 1686.63   58.39
  -5   7   8 1674.13   57.19
   5   7  -8 1641.94   52.69
   5   7  -8 1688.23   51.79
   5   7  -8 1666.43   51.49
   3  -7  -8 1283.97   47.10
   3  -7  -8 1198.28   47.60
   3   7  -8 1263.47   39.80
   3   7  -8 1252.57   40.80
   3   7  -8 1272.57   40.90
  -3   7   8 1204.08   45.60
   1  -7  -8  893.11   38.70
   1  -7  -8  900.81   37.20
   1   7  -8  900.01   28.30
  -1   7   8  919.91   37.00
   1   7  -8  917.91   32.40
  -1  -7  -8  428.66   24.40
  -1  -7  -8  436.26   23.50
  -1   7  -8  442.56   16.80
  -1   7  -8  427.86   20.50
   1   7   8  405.56   23.10
  -3  -7  -8  345.77   20.60
   3  -7   8  294.27   18.30
  -3  -7  -8  310.57   20.70
  -3   7  -8  303.17   14.50
   3   7   8  328.47   21.00
  -5  -7  -8  288.37   20.60
  -5  -7  -8  262.97   19.40
  -5   7  -8  275.77   15.10
   5   7   8  288.37   21.00
  16  -8  -8   19.60    7.20
  16  -8  -8   13.00    6.10
  16   8  -8   16.50    7.30
 -16   8   8   22.20    6.30
  14  -8  -8    1.40    4.30
  14  -8  -8   -7.20    4.70
  14   8  -8   14.20    6.20
 -14   8   8    3.80    4.30
  12  -8  -8   26.20    7.00
  12  -8  -8   31.50    7.00
  12   8  -8   36.70    7.50
 -12   8   8   37.40    7.20
  10  -8  -8   33.00    7.60
  10   8  -8   43.00    6.80
 -10   8   8   36.50    7.20
   8  -8  -8   95.79   11.30
   8  -8  -8  104.09   11.10
   8   8  -8   98.29    8.50
  -8   8   8   98.59   10.40
   6  -8  -8   55.39    9.30
   6  -8  -8   52.09    8.70
   6   8  -8   53.29    7.70
   6   8  -8   57.99    6.40
   6   8  -8   66.29    7.40
  -6   8   8   48.20    8.10
   4  -8  -8   14.90    5.60
   4  -8  -8    1.30    5.00
   4   8  -8   14.80    5.30
   4   8  -8    5.90    4.40
  -4   8   8   12.70    5.40
   4   8  -8   11.50    3.80
   2  -8  -8  148.79   13.20
   2  -8  -8  165.98   15.20
   2   8  -8  148.79    9.30
   2   8  -8  169.18    9.50
   2   8  -8  140.89   12.20
  -2   8   8  142.49   13.40
   0  -8  -8   40.90    8.50
   0  -8  -8   37.10    8.70
   0   8  -8   39.20    9.60
   0   8  -8   48.40    4.50
   0   8   8   47.70    9.60
  -2  -8  -8    4.30    5.30
  -2  -8  -8    0.20    6.10
  -2   8  -8    4.50    3.60
   2   8   8    6.00    7.40
  15  -9  -8  882.51   38.10
  15  -9  -8  837.32   37.10
 -15   9   8  866.61   36.30
  15   9  -8  836.42   38.30
  13  -9  -8  906.41   36.80
  13  -9  -8  848.72   37.80
 -13   9   8  867.01   36.30
  13   9  -8  872.31   36.60
  11  -9  -8  578.94   29.80
  11   9  -8  632.24   27.50
 -11   9   8  614.54   28.20
   9  -9  -8  687.63   32.00
   9  -9  -8  680.53   30.50
   9   9  -8  603.64   26.50
  -9   9   8  640.44   29.40
   7  -9  -8  716.23   31.50
   7  -9  -8  701.33   33.10
   7   9  -8  653.43   26.90
  -7   9   8  703.13   30.90
   5  -9  -8  681.93   33.50
   5  -9  -8  723.83   31.60
   5   9  -8  689.63   27.90
  -5   9   8  660.63   31.00
   5   9  -8  716.03   27.40
   3  -9  -8  700.23   34.70
   3  -9  -8  712.83   32.30
  -3   9   8  666.73   32.30
   3   9  -8  734.93   27.10
   3   9  -8  759.22   28.20
   1  -9  -8  476.65   24.70
   1  -9  -8  422.66   26.10
  -1   9   8  448.86   25.60
  -1  -9  -8  276.47   19.00
   1   9   8  249.38   20.20
  10 -10  -8  442.76   24.40
  10 -10  -8  432.36   25.50
  10  10  -8  471.55   23.10
 -10  10   8  434.66   24.10
   8 -10  -8  477.95   28.00
   8 -10  -8  576.04   27.70
   8  10  -8  509.35   23.90
  -8  10   8  555.74   27.40
   6 -10  -8  606.84   28.70
   6 -10  -8  551.34   30.00
  -6  10   8  541.45   27.60
   6  10  -8  557.94   24.60
   4 -10  -8  377.56   21.90
   4 -10  -8  298.27   22.50
  -4  10   8  347.27   22.10
   4  10  -8  385.16   18.90
  22   0  -9   11.30    7.20
  22   0  -9    6.30    6.00
  20   0  -9    0.50    4.90
 -20   0   9   -4.20    5.60
  20   0  -9    3.10    5.40
  18   0  -9    1.50    4.30
 -18   0   9   -0.30    4.20
  18   0  -9    5.40    4.10
 -16   0   9    2.10    2.90
  16   0  -9    8.50    3.90
  16   0  -9   -4.10    3.20
  14   0  -9    6.00    3.20
  14   0  -9    1.00    3.50
 -14   0   9    2.30    1.90
 -14   0   9    5.20    2.00
  14   0  -9    1.10    3.90
  12   0  -9    3.30    3.30
  12   0  -9    5.00    2.70
  12   0  -9    4.50    3.60
  10   0  -9    1.00    2.70
  10   0  -9    2.30    2.10
   8   0  -9    1.10    2.50
   8   0  -9    3.70    1.60
   6   0  -9   -0.60    1.60
   6   0  -9    0.40    2.40
   6   0  -9    2.60    2.50
   6   0  -9    4.90    1.60
   4   0  -9    4.00    1.90
  -4   0   9    0.50    3.00
   4   0  -9    4.80    3.00
   4   0  -9    6.10    3.00
   2   0  -9    6.60    3.10
   2   0  -9    4.70    2.70
   2   0  -9   -1.00    2.10
  -2   0   9   -2.10    3.20
   0   0  -9   -1.40    3.10
   0   0  -9    4.00    3.10
   0   0  -9   -0.60    2.60
   0   0   9    8.00    3.90
  -2   0  -9    2.10    4.10
  -2   0  -9    2.20    3.20
   2   0   9   -0.20    4.00
  -2   0  -9   -0.60    3.10
  -4   0  -9   -1.20    3.90
  -4   0  -9    4.30    3.60
   4   0   9   -2.30    4.90
   6   0   9    2.30    6.00
  -6   0  -9   -4.10    4.50
  23  -1  -9  288.67   20.80
  23  -1  -9  307.27   22.20
  23   1  -9  306.87   21.50
  23   1  -9  283.17   22.80
  21  -1  -9  357.26   22.70
  21  -1  -9  350.26   20.90
  21   1  -9  316.07   22.30
  21   1  -9  349.96   21.10
  19  -1  -9  467.45   25.10
  19  -1  -9  465.05   23.00
 -19  -1   9  449.16   19.50
  19   1  -9  437.56   24.90
  19   1  -9  458.05   22.90
 -19   1   9  425.96   20.70
  17  -1  -9  340.97   17.80
 -17  -1   9  335.87   14.20
  17  -1  -9  330.47   19.70
 -17   1   9  332.27   15.90
  17   1  -9  305.37   16.90
  17   1  -9  336.27   20.20
 -15  -1   9 1236.58   36.30
  15  -1  -9 1216.98   42.10
  15  -1  -9 1236.08   45.80
  15   1  -9 1153.98   45.40
 -15   1   9 1236.58   39.00
  15   1  -9 1190.58   41.60
  15   1  -9 1219.28   41.60
  13  -1  -9 1228.48   40.70
  13  -1  -9 1243.18   42.90
  13  -1  -9 1214.38   44.80
  13   1  -9 1165.58   44.50
  13   1  -9 1256.87   40.20
 -13   1   9 1260.27   37.30
  13   1  -9 1240.68   41.50
 -13   1   9 1159.78   37.30
  11  -1  -9  446.56   21.40
  11  -1  -9  444.66   17.80
  11   1  -9  482.05   17.20
  11   1  -9  440.36   21.40
   9  -1  -9 1367.26   47.70
   9  -1  -9 1374.46   42.90
   9   1  -9 1354.86   47.30
   9   1  -9 1438.66   41.50
   7  -1  -9  840.32   27.30
   7  -1  -9  845.52   32.10
   7  -1  -9  825.82   32.40
   7  -1  -9  864.51   28.00
   7   1  -9  825.72   25.30
   7   1  -9  865.41   31.70
   7   1  -9  801.92   31.10
  -7   1   9  862.41   32.50
   7   1  -9  887.11   25.50
   5  -1  -9  741.33   29.90
   5  -1  -9  732.43   28.50
   5  -1  -9  775.32   25.40
   5   1  -9  722.63   28.40
   5   1  -9  720.93   27.50
   5   1  -9  787.62   22.80
  -5   1   9  714.43   28.90
   3  -1  -9 1741.03   58.79
   3  -1  -9 1707.63   56.19
   3  -1  -9 1733.33   53.09
  -3   1   9 1791.42   57.29
   3   1  -9 1722.93   54.89
   3   1  -9 1710.93   57.09
   3   1  -9 1773.22   51.39
   1  -1  -9  944.11   34.80
   1  -1  -9  958.40   32.80
   1  -1  -9  924.41   37.20
  -1  -1   9 1030.30   33.50
   1   1  -9  963.00   31.70
   1   1  -9  991.70   33.10
   1   1  -9  971.40   36.10
  -1   1   9 1003.90   35.90
  -1  -1  -9  461.75   20.70
  -1  -1  -9  463.55   19.90
  -1  -1  -9  438.36   22.60
   1  -1   9  472.85   18.60
  -1   1  -9  478.95   19.40
   1   1   9  457.05   21.30
  -1   1  -9  460.95   21.60
  -1   1  -9  503.55   19.20
   3  -1   9  267.67   12.50
  -3  -1  -9  263.27   14.60
  -3  -1  -9  245.58   16.30
  -3   1  -9  269.87   16.10
  -3   1  -9  261.47   15.10
  -3   1  -9  247.88   11.50
   3   1   9  263.27   15.80
   5  -1   9  208.48   10.40
  -5  -1  -9  192.58   15.30
  -5  -1  -9  216.48   12.60
   5   1   9  199.28   15.40
  -5   1  -9  192.78   14.50
  -7  -1  -9  197.88   16.90
  -7   1  -9  240.48   17.30
  22  -2  -9  322.07   21.30
  22  -2  -9  364.86   23.30
  22   2  -9  335.47   22.10
  22   2  -9  340.97   24.20
  20  -2  -9  457.35   26.00
  20  -2  -9  514.05   25.20
 -20  -2   9  489.15   21.10
  20   2  -9  471.65   27.20
  20   2  -9  476.95   24.60
 -18  -2   9  423.46   17.00
  18  -2  -9  408.46   23.20
  18  -2  -9  397.66   21.00
  18   2  -9  392.06   20.70
  18   2  -9  457.55   24.80
 -18   2   9  446.56   20.60
  16  -2  -9 1131.09   41.10
 -16  -2   9 1158.48   34.70
  16  -2  -9 1141.89   44.10
  16   2  -9 1124.19   44.80
 -16   2   9 1152.48   39.20
  16   2  -9 1108.39   39.40
  16   2  -9 1168.28   40.70
  14  -2  -9  932.01   33.20
  14  -2  -9  874.81   35.90
 -14   2   9  875.41   30.70
  14   2  -9  938.31   32.40
  14   2  -9  930.51   32.30
  14   2  -9  885.31   36.50
 -14   2   9  901.31   30.90
  12  -2  -9  688.23   25.40
  12  -2  -9  666.43   28.60
  12   2  -9  702.53   24.10
 -12   2   9  585.94   22.70
 -12   2   9  702.33   23.20
  12   2  -9  706.83   25.60
  12   2  -9  707.33   29.20
  10  -2  -9 1621.34   52.29
  10  -2  -9 1642.84   56.69
  10   2  -9 1686.13   56.59
 -10   2   9 1744.63   49.30
 -10   2   9 1669.53   49.00
 -10   2   9 1724.13   57.69
  10   2  -9 1706.73   50.09
   8  -2  -9 1674.73   56.69
   8  -2  -9 1695.63   51.99
   8   2  -9 1751.02   48.50
   8   2  -9 1666.53   55.59
   8   2  -9 1706.33   54.79
  -8   2   9 1680.93   57.39
   6  -2  -9  827.32   33.00
   6  -2  -9  845.92   28.20
   6  -2  -9  846.32   29.10
   6  -2  -9  863.21   32.40
   6   2  -9  828.12   30.60
   6   2  -9  866.41   30.90
  -6   2   9  825.32   32.90
   4  -2  -9  553.44   20.80
   4  -2  -9  531.65   24.30
   4  -2  -9  561.94   23.40
   4   2  -9  523.05   20.90
  -4   2   9  528.55   23.80
   4   2  -9  511.85   21.80
   2  -2  -9  826.92   28.80
   2  -2  -9  792.22   30.90
   2  -2  -9  798.12   33.00
   2   2  -9  797.42   30.10
   2   2  -9  792.92   27.80
   2   2  -9  817.82   26.00
  -2   2   9  813.82   32.10
   0  -2   9  580.94   27.70
   0  -2  -9  566.74   27.10
   0  -2  -9  609.64   25.60
   0  -2  -9  592.74   23.80
   0   2  -9  615.34   21.50
   0   2  -9  612.14   24.90
   0   2  -9  597.94   22.00
   0   2   9  656.03   27.20
  -2  -2  -9  466.55   23.40
  -2  -2  -9  444.46   21.20
  -2   2  -9  450.35   19.60
  -2   2  -9  449.56   20.90
   2   2   9  427.56   15.70
  -2   2  -9  450.75   15.40
   2   2   9  449.95   22.70
   2   2   9  437.96   15.50
  -4  -2  -9  540.05   23.20
  -4  -2  -9  430.76   24.00
   4   2   9  494.25   25.00
   4   2   9  454.05   18.20
   4   2   9  476.95   18.00
  -4   2  -9  499.25   22.90
  -6  -2  -9  199.18   13.60
  -6  -2  -9  169.88   15.40
   6   2   9  180.88   11.00
  -6   2  -9  182.18   14.10
  21  -3  -9   27.80    8.70
 -21  -3   9   32.00    7.50
  21  -3  -9   14.10    6.40
  21   3  -9   26.90    7.60
  19  -3  -9   -2.40    4.10
  19  -3  -9    0.90    5.00
 -19  -3   9    7.00    4.40
  19   3  -9    5.80    4.80
  17  -3  -9    2.40    4.20
  17  -3  -9    3.40    4.00
 -17  -3   9    5.90    2.90
 -17   3   9    5.30    5.40
  17   3  -9    2.10    3.90
  15  -3  -9    5.40    3.90
  15  -3  -9    4.80    3.60
  15   3  -9    7.90    3.70
  15   3  -9    4.80    3.40
 -15   3   9    2.80    4.20
 -15   3   9   12.00    3.70
  13  -3  -9   15.10    4.20
  13  -3  -9   15.20    4.80
 -13   3   9   15.30    4.40
 -13   3   9   21.20    4.20
  13   3  -9   24.90    4.40
  13   3  -9   17.70    3.90
  11  -3  -9   10.50    3.30
  11  -3  -9   15.40    4.60
  11   3  -9   10.60    4.30
  11   3  -9    9.90    3.30
 -11   3   9    9.90    3.30
  11   3  -9   12.00    2.90
 -11   3   9   20.20    3.80
   9  -3  -9   33.00    6.10
   9  -3  -9   34.90    4.90
  -9   3   9   26.80    3.90
   9   3  -9   28.60    5.40
   9   3  -9   26.70    2.90
   9   3  -9   31.30    5.00
  -9   3   9   24.90    3.90
  -9   3   9   29.00    6.50
   7  -3  -9   55.69    7.00
   7  -3  -9   46.30    5.10
   7  -3  -9   47.60    7.60
  -7   3   9   52.29    4.50
  -7   3   9   54.69    4.40
   7   3  -9   45.40    5.30
  -7   3   9   63.39    9.20
   7   3  -9   53.59    6.40
   5  -3  -9   44.40    7.10
   5  -3  -9   53.09    6.40
   5  -3  -9   45.30    7.00
  -5   3   9   37.90    3.90
   5   3  -9   45.80    5.50
  -5   3   9   53.19    8.30
  -5   3   9   47.60    4.10
   5   3  -9   48.50    5.50
   3  -3  -9   82.79    8.00
   3  -3  -9   77.19    8.60
   3  -3  -9   70.89    7.80
   3   3  -9   80.49    6.60
  -3   3   9   83.29   10.60
  -3   3   9   86.69    5.60
  -3   3   9   87.39    5.60
   3   3  -9   72.89    4.70
   3   3  -9   97.19    7.30
   1  -3  -9   29.10    5.60
   1  -3  -9   32.10    6.80
   1  -3  -9   30.70    6.10
   1   3  -9   33.30    5.20
   1   3  -9   31.90    4.00
  -1   3   9   35.40    8.00
  -1   3   9   31.20    4.10
  -1   3   9   35.40    4.30
   1   3  -9   34.70    4.40
  -1  -3  -9   13.20    5.10
  -1  -3  -9   34.70    7.70
   1  -3   9   26.90    8.30
   1   3   9   17.10    8.10
  -1   3  -9   34.60    5.60
   1   3   9   32.50    5.10
   1   3   9   27.20    4.50
  -1   3  -9   16.80    4.30
  -3  -3  -9   62.99    9.10
  -3  -3  -9   69.89   10.40
  -3   3  -9   59.49    7.50
   3   3   9   63.79    7.10
   3   3   9   67.09    7.60
  -3   3  -9   67.59    8.70
  -5  -3  -9   19.10    7.20
  -5  -3  -9   18.20    6.00
  -5   3  -9   20.20    5.90
   5   3   9   10.60    6.90
   5   3   9   10.60    5.20
  20  -4  -9  575.74   28.00
 -20  -4   9  591.34   23.40
  20  -4  -9  611.24   30.10
  20   4  -9  560.34   28.70
  18  -4  -9  553.24   28.10
 -18  -4   9  586.54   20.40
  18  -4  -9  566.04   26.50
  18   4  -9  583.34   27.00
  16  -4  -9  662.23   28.40
  16  -4  -9  651.73   30.30
 -16   4   9  679.43   27.10
 -16   4   9  681.73   28.80
  16   4  -9  705.73   25.70
  16   4  -9  699.83   28.50
  14  -4  -9 1517.15   55.69
  14  -4  -9 1638.34   53.39
 -14   4   9 1591.04   52.69
  14   4  -9 1627.44   49.90
 -14   4   9 1558.94   51.69
  14   4  -9 1567.74   51.89
  12  -4  -9 1350.26   51.39
  12  -4  -9 1505.65   49.10
 -12   4   9 1471.75   48.10
  12   4  -9 1440.56   46.40
  12   4  -9 1501.65   45.90
 -12   4   9 1501.15   48.00
  10  -4  -9 1026.50   36.00
  10  -4  -9 1000.10   39.10
 -10   4   9 1072.69   35.30
 -10   4   9 1034.90   35.30
  10   4  -9 1032.90   32.80
  10   4  -9 1035.60   33.60
   8  -4  -9 1325.97   47.90
   8  -4  -9 1361.06   44.30
   8  -4  -9 1352.96   48.40
  -8   4   9 1325.57   43.30
   8   4  -9 1304.57   45.90
  -8   4   9 1331.47   43.00
   8   4  -9 1374.66   42.90
   8   4  -9 1346.47   39.50
   6  -4  -9 1057.99   40.20
   6  -4  -9 1043.70   37.80
   6  -4  -9 1071.29   40.80
   6   4  -9 1084.19   37.50
  -6   4   9 1069.59   35.50
   6   4  -9 1095.39   35.30
  -6   4   9 1095.89   35.40
   4  -4  -9  584.84   24.40
   4  -4  -9  601.94   27.10
   4  -4  -9  574.34   26.00
  -4   4   9  597.54   22.20
   4   4  -9  578.44   18.50
   4   4  -9  609.64   22.50
  -4   4   9  580.24   21.80
   4   4  -9  608.34   22.00
   2  -4  -9  741.93   29.00
   2  -4  -9  740.23   32.00
   2  -4  -9  701.93   30.50
  -2   4   9  709.63   26.40
  -2   4   9  768.82   26.80
   2   4  -9  750.92   24.30
   2   4  -9  734.83   24.70
   2   4  -9  746.63   26.40
   0  -4  -9  678.53   31.30
   0  -4  -9  708.23   30.50
   0  -4   9  747.23   30.50
   0   4  -9  721.43   26.60
   0   4   9  733.43   27.00
   0   4   9  702.23   26.80
   0   4  -9  723.43   25.70
  -2  -4  -9  274.97   18.20
  -2  -4  -9  336.47   19.00
  -2   4  -9  258.77   14.30
   2   4   9  283.97   15.00
   2   4   9  280.67   15.80
  -2   4  -9  294.87   15.70
  -4  -4  -9  179.18   14.70
  -4  -4  -9  176.78   15.00
   4   4   9  177.38   12.80
  -4   4  -9  154.08   11.70
   4   4   9  167.08   14.50
  -6  -4  -9  223.38   18.60
  -6  -4  -9  268.07   17.70
  -6   4  -9  227.98   15.30
   6   4   9  236.68   16.10
  21  -5  -9  512.85   27.40
  21  -5  -9  436.16   25.20
  21   5  -9  429.66   26.60
  19  -5  -9  628.14   29.30
  19  -5  -9  648.14   31.10
  19   5  -9  615.84   30.30
  17  -5  -9  831.82   34.00
  17  -5  -9  780.12   35.30
 -17   5   9  782.42   32.00
  17   5  -9  869.71   29.90
  17   5  -9  851.41   34.50
  15  -5  -9  828.42   35.10
  15  -5  -9  858.61   33.20
 -15   5   9  800.32   31.50
  15   5  -9  822.92   28.40
  15   5  -9  807.02   32.20
  13  -5  -9  966.40   36.30
  13  -5  -9  988.80   39.30
 -13   5   9  953.90   35.40
 -13   5   9  957.40   36.60
  13   5  -9  985.50   35.00
  13   5  -9 1029.40   32.20
  11  -5  -9  912.01   37.20
  11  -5  -9  971.80   34.60
  11   5  -9  977.40   30.20
 -11   5   9  920.91   34.30
  11   5  -9  921.91   31.80
 -11   5   9  916.31   33.90
   9  -5  -9 1435.86   48.30
   9  -5  -9 1400.46   51.59
   9   5  -9 1444.06   44.50
   9   5  -9 1512.95   44.00
  -9   5   9 1450.35   47.90
  -9   5   9 1445.66   48.00
   9   5  -9 1422.86   44.20
   7  -5  -9 1733.53   58.49
   7  -5  -9 1641.84   57.89
   7   5  -9 1666.73   48.90
  -7   5   9 1686.93   53.99
  -7   5   9 1602.84   53.49
   7   5  -9 1688.03   50.39
   7   5  -9 1668.13   55.09
   5  -5  -9  824.02   34.40
   5  -5  -9  831.92   38.20
   5  -5  -9  860.11   34.90
   5   5  -9  859.61   27.90
  -5   5   9  872.81   31.40
   5   5  -9  873.21   26.40
   5   5  -9  849.12   30.60
  -5   5   9  821.52   30.80
   3  -5  -9  798.22   34.20
   3  -5  -9  867.01   35.30
  -3   5   9  817.62   30.80
   3   5  -9  857.11   27.10
   3   5  -9  832.02   28.00
   3   5  -9  844.32   28.30
   3   5  -9  836.62   26.90
  -3   5   9  848.92   31.40
   1  -5  -9  842.52   35.90
   1  -5  -9  844.62   35.50
   1   5  -9  876.71   29.30
   1   5  -9  841.72   28.90
  -1   5   9  850.41   32.20
  -1   5   9  847.62   32.10
   1  -5   9  490.55   24.30
  -1  -5  -9  537.25   26.10
  -1  -5  -9  488.35   25.90
   1   5   9  510.25   23.00
  -1   5  -9  495.75   21.40
   1   5   9  518.75   23.70
  -1   5  -9  530.05   20.70
  -3  -5  -9  475.75   24.70
  -3  -5  -9  447.46   24.80
   3   5   9  480.35   22.60
  -3   5  -9  431.36   22.30
   3   5   9  404.56   23.10
  -3   5  -9  466.85   20.00
  -5  -5  -9  267.37   19.60
  -5  -5  -9  275.97   19.40
  -5   5  -9  301.97   16.40
   5   5   9  276.47   18.40
  20  -6  -9   31.80    8.80
  20  -6  -9   19.00    7.60
  20   6  -9   39.70   10.50
  18  -6  -9   64.39   11.00
  18  -6  -9   54.59    8.60
  18   6  -9   58.89    7.70
 -18   6   9   42.10    7.80
  18   6  -9   68.69   10.70
  16  -6  -9   85.69   10.30
  16  -6  -9  102.79   11.80
  16   6  -9  110.59    8.30
  16   6  -9  110.09   11.30
 -16   6   9   99.39   10.20
  14  -6  -9   83.99   10.10
  14  -6  -9   79.39    8.90
 -14   6   9   97.89    9.60
  14   6  -9  107.79   10.20
  14   6  -9  105.79    6.90
  12  -6  -9  152.88   13.30
  12  -6  -9  159.08   11.60
  12   6  -9  151.48    7.40
  12   6  -9  149.79   10.60
 -12   6   9  138.59   13.90
 -12   6   9  166.48   11.60
  10  -6  -9   33.90    6.10
  10  -6  -9   26.30    6.30
 -10   6   9   13.60    6.10
  10   6  -9   23.80    6.90
  10   6  -9   43.30    5.50
  10   6  -9   36.60    3.70
 -10   6   9   44.10    6.80
  10   6  -9   36.80    3.40
   8  -6  -9   27.90    6.40
   8  -6  -9   30.60    7.10
   8   6  -9   29.60    3.10
   8   6  -9   23.80    5.30
   8   6  -9   34.60    3.20
  -8   6   9   31.40    6.60
   8   6  -9   33.80    4.30
  -8   6   9   39.70    6.60
   6  -6  -9  183.68   13.90
   6  -6  -9  174.28   13.70
   6   6  -9  177.68    8.40
   6   6  -9  163.28   11.40
  -6   6   9  172.18   13.00
   6   6  -9  169.98   10.10
   6   6  -9  182.08    7.50
  -6   6   9  165.98   12.00
   4  -6  -9    6.50    4.70
   4  -6  -9    2.20    4.20
  -4   6   9    4.60    5.60
   4   6  -9   -1.50    2.70
   4   6  -9    8.20    3.00
   4   6  -9    5.40    2.00
  -4   6   9    4.30    4.20
   4   6  -9    6.30    3.40
   2  -6  -9    6.00    4.60
   2  -6  -9    6.70    4.40
   2   6  -9    3.60    2.40
  -2   6   9    3.50    4.50
   2   6  -9    1.80    2.40
   2   6  -9    2.50    2.40
   2   6  -9    3.20    3.50
  -2   6   9    1.80    6.10
   0  -6  -9    7.70    5.50
   0  -6  -9   13.90    5.90
   0   6  -9    8.50    3.20
   0   6  -9    7.30    5.20
   0   6   9    5.40    7.70
   0   6   9    6.90    5.30
  -2  -6  -9   10.60    6.00
   2  -6   9   19.70    8.30
  -2  -6  -9    6.10    5.70
  -2   6  -9    4.70    7.10
   2   6   9    9.00    6.00
  -2   6  -9    1.10    3.40
  -4  -6  -9   14.60    6.90
  -4  -6  -9   17.60    7.50
  -4   6  -9   15.40    5.30
   4   6   9   20.10    8.20
  17  -7  -9  353.66   20.20
  17  -7  -9  340.97   20.90
  17   7  -9  292.57   20.70
 -17   7   9  316.37   18.90
  15  -7  -9  336.97   19.00
  15  -7  -9  284.97   19.70
  15   7  -9  311.67   19.10
  15   7  -9  333.27   13.10
 -15   7   9  309.87   18.00
  13  -7  -9  338.87   21.10
  13  -7  -9  366.16   19.40
  13   7  -9  366.46   19.10
  13   7  -9  382.16   13.00
  13   7  -9  386.76   13.80
 -13   7   9  367.16   19.50
  11  -7  -9  481.45   25.10
  11  -7  -9  506.35   23.10
  11   7  -9  468.25   20.90
 -11   7   9  500.25   23.20
   9  -7  -9  469.75   24.10
   9  -7  -9  475.45   24.60
   9   7  -9  449.06   18.90
  -9   7   9  478.75   22.50
   7  -7  -9  889.71   38.10
   7  -7  -9  907.81   37.40
  -7   7   9  911.91   35.40
   7   7  -9  870.91   31.90
   7   7  -9  919.71   30.40
   5  -7  -9  430.56   22.70
   5  -7  -9  381.16   22.60
   5   7  -9  409.76   17.60
   5   7  -9  431.86   16.60
   5   7  -9  409.16   18.90
   5   7  -9  417.76   17.00
  -5   7   9  402.16   21.10
   3  -7  -9  115.79   11.80
   3  -7  -9  114.49   12.30
  -3   7   9  121.09   11.90
   3   7  -9  104.49    9.20
   3   7  -9  118.99    8.30
   3   7  -9  118.99    6.00
   3   7  -9  105.09    7.70
   1  -7  -9  379.76   23.40
   1  -7  -9  429.86   23.40
   1   7  -9  417.96   15.40
  -1   7   9  378.16   21.80
   1   7  -9  359.26   18.20
  -1  -7  -9  298.37   21.40
  -1  -7  -9  378.26   22.00
  -1   7  -9  339.07   19.50
  -1   7  -9  339.47   14.80
   1   7   9  297.47   20.20
  -3  -7  -9  262.37   20.00
  -3  -7  -9  203.78   17.20
  -3   7  -9  227.58   13.20
   3   7   9  204.58   18.10
  16  -8  -9  852.31   37.50
  16  -8  -9  815.12   35.30
  16   8  -9  749.73   35.60
 -16   8   9  856.11   35.10
  14  -8  -9  901.11   39.40
  14  -8  -9  993.40   38.20
  14   8  -9  850.01   37.00
 -14   8   9  954.00   37.50
  12  -8  -9  866.71   37.70
  12  -8  -9  892.31   35.40
 -12   8   9  859.41   35.00
  12   8  -9  827.92   33.40
  10  -8  -9  667.83   32.10
  10  -8  -9  752.22   32.80
  10   8  -9  666.03   27.10
 -10   8   9  686.53   30.00
   8  -8  -9  835.32   36.80
   8  -8  -9  802.52   35.10
   8   8  -9  787.02   29.40
  -8   8   9  834.82   33.90
   6  -8  -9  843.62   35.70
   6  -8  -9  810.82   36.60
   6   8  -9  811.22   30.60
  -6   8   9  815.22   34.10
   6   8  -9  835.72   29.30
   6   8  -9  803.62   29.60
   4  -8  -9  764.22   35.60
   4  -8  -9  752.52   34.00
   4   8  -9  748.23   28.70
   4   8  -9  802.42   27.80
   4   8  -9  741.03   28.20
   4   8  -9  767.92   27.50
  -4   8   9  721.63   32.80
   2  -8  -9  766.12   34.70
   2  -8  -9  786.72   36.80
  -2   8   9  770.42   34.40
   2   8  -9  758.52   30.10
   0  -8  -9  373.26   24.70
   0  -8  -9  439.76   24.10
   0   8  -9  376.86   14.60
   0   8   9  356.86   22.80
  13  -9  -9   91.09   12.90
  13  -9  -9  117.19   12.00
  13   9  -9   91.79   11.90
 -13   9   9  117.99   12.50
  11  -9  -9   34.90    8.60
  11  -9  -9   34.60    8.30
 -11   9   9   47.10    8.80
  11   9  -9   41.30    7.50
   9  -9  -9   52.19   10.30
   9  -9  -9   64.29   10.30
   9   9  -9   57.69    7.90
  -9   9   9   54.29    9.10
   7  -9  -9   97.49   13.50
   7  -9  -9  128.89   13.30
  -7   9   9  103.79   12.40
   7   9  -9  118.59    9.70
   5  -9  -9  109.39   12.70
   5  -9  -9   99.29   13.90
  -5   9   9   97.39   13.20
   5   9  -9   86.59    8.90
   3  -9  -9   55.59   10.70
   3  -9  -9   74.19   11.40
   3   9  -9   54.59    7.40
  -3   9   9   64.09   11.20
   3   9  -9   51.19    6.80
  22   0 -10  662.43   31.60
  22   0 -10  672.53   34.50
  20   0 -10  515.35   25.30
 -20   0  10  515.05   21.90
  20   0 -10  538.85   28.80
  18   0 -10 1102.59   44.70
 -18   0  10 1108.09   35.50
  18   0 -10 1059.09   40.20
  16   0 -10 1785.32   56.99
  16   0 -10 1741.03   61.79
 -16   0  10 1656.53   50.89
 -16   0  10 1762.12   50.69
  14   0 -10 3514.35  111.59
  14   0 -10 3630.14  105.99
  12   0 -10 3319.07  109.09
  12   0 -10 3759.92  103.79
  10   0 -10 2179.48   63.69
  10   0 -10 2109.49   69.99
   8   0 -10 1686.93   56.89
   8   0 -10 1673.83   49.99
   8   0 -10 1691.93   56.29
   6   0 -10 1360.96   46.60
   6   0 -10 1358.96   47.80
   6   0 -10 1354.66   41.50
   4   0 -10 2014.80   60.89
   4   0 -10 2038.70   65.19
   4   0 -10 2093.99   67.99
  -4   0  10 2063.39   65.79
  -2   0  10 1283.67   42.70
   2   0 -10 1190.08   44.60
   2   0 -10 1188.48   41.50
   2   0 -10 1215.68   39.20
   0   0 -10  412.76   18.30
   0   0  10  440.16   19.80
   0   0 -10  432.16   21.80
   0   0 -10  421.66   19.10
  -2   0 -10  523.65   23.70
   2   0  10  558.44   23.40
  -2   0 -10  586.24   23.20
  -2   0 -10  550.24   26.30
  -4   0 -10  267.27   13.50
  -4   0 -10  248.48   17.70
  23  -1 -10  178.98   18.00
  23  -1 -10  169.38   16.20
  23   1 -10  160.98   17.90
  23   1 -10  184.58   16.80
  21  -1 -10  349.67   22.80
 -21  -1  10  326.37   17.00
  21  -1 -10  317.07   20.20
  21   1 -10  341.87   20.60
  21   1 -10  328.77   22.70
 -19  -1  10  176.98   10.30
  19  -1 -10  190.88   15.90
  19  -1 -10  178.48   13.80
  19   1 -10  166.18   13.20
  19   1 -10  172.88   15.60
 -19   1  10  192.48   12.50
 -17  -1  10  380.46   13.20
  17  -1 -10  383.46   22.00
 -17  -1  10  368.16   13.40
  17  -1 -10  391.36   19.30
  17   1 -10  429.16   19.50
 -17   1  10  403.86   16.40
 -17   1  10  376.46   16.20
  17   1 -10  361.26   21.90
  15  -1 -10  650.43   24.70
  15  -1 -10  625.34   28.50
  15   1 -10  580.94   30.40
  15   1 -10  594.24   23.70
  15   1 -10  586.24   28.10
 -15   1  10  569.64   20.30
 -15   1  10  590.44   20.00
  13  -1 -10   66.09    6.60
  13  -1 -10   84.69    9.40
  13   1 -10   69.89    7.70
  13   1 -10   71.59    8.80
  13   1 -10   73.09    6.40
  11  -1 -10  293.87   13.10
  11  -1 -10  303.17   17.00
  11   1 -10  282.87   12.00
  11   1 -10  291.57   16.80
   9  -1 -10  703.13   24.60
   9  -1 -10  706.73   29.40
   9  -1 -10  716.33   30.00
   9   1 -10  758.12   23.10
   9   1 -10  705.53   28.70
   9   1 -10  732.33   29.30
   7  -1 -10  439.76   21.20
   7  -1 -10  407.96   15.70
   7  -1 -10  407.66   19.90
   7  -1 -10  437.86   16.50
   7   1 -10  422.96   19.40
   7   1 -10  428.26   20.00
  -7   1  10  410.36   20.40
   7   1 -10  401.66   13.90
   7   1 -10  413.26   13.80
   5  -1 -10  535.55   23.20
   5  -1 -10  565.24   24.90
   5  -1 -10  513.15   19.80
   5   1 -10  530.45   17.50
   5   1 -10  509.05   21.90
  -5   1  10  530.35   23.90
   5   1 -10  528.65   23.30
   3  -1 -10  442.76   20.40
   3  -1 -10  469.25   22.90
   3  -1 -10  457.55   18.20
   3   1 -10  445.46   19.30
   3   1 -10  444.66   16.40
   3   1 -10  467.95   21.60
  -3   1  10  455.65   21.80
   1  -1 -10  244.18   14.00
   1  -1 -10  247.58   13.20
   1  -1 -10  237.48   15.80
   1   1 -10  255.77   12.20
   1   1 -10  229.28   12.50
  -1   1  10  240.68   15.50
   1   1 -10  252.37   15.20
  -1  -1 -10  229.48   14.10
  -1  -1 -10  222.28   14.00
  -1  -1 -10  226.48   15.80
  -1   1 -10  233.68   12.40
   1   1  10  255.57   15.70
  -1   1 -10  226.38   14.80
  -1   1 -10  235.08   13.60
  -3  -1 -10  178.48   12.20
  -3  -1 -10  154.28   13.80
   3   1  10  156.18   14.70
  -3   1 -10  175.28    9.40
  -3   1 -10  159.88   13.20
  -5  -1 -10   56.99   10.40
  -5  -1 -10   65.69    8.20
  -5   1 -10   41.30    8.50
  22  -2 -10   96.29   12.60
  22  -2 -10   97.39   14.30
  22   2 -10  112.09   13.50
  22   2 -10   95.29   14.60
 -20  -2  10   80.49    7.80
  20  -2 -10   53.59    8.90
  20  -2 -10   62.09   10.80
  20   2 -10   58.29   11.60
  20   2 -10   71.59   10.10
 -20   2  10   75.19   12.90
  18  -2 -10   34.90    7.90
 -18  -2  10   40.60    4.20
  18  -2 -10   44.10    7.50
  18   2 -10   46.50    7.50
 -18   2  10   40.00    7.10
  18   2 -10   33.40    8.00
  16  -2 -10  125.79   12.20
  16  -2 -10  131.69   10.40
  16   2 -10  136.29   12.80
 -16   2  10  135.59    9.40
 -16   2  10  153.88    9.30
  16   2 -10  133.49   10.10
  14  -2 -10  443.66   22.70
  14  -2 -10  432.46   19.20
 -14   2  10  440.76   16.40
  14   2 -10  460.25   23.30
  14   2 -10  429.26   18.10
 -14   2  10  417.46   16.40
  14   2 -10  411.76   19.10
  12  -2 -10   75.59    6.80
  12  -2 -10   64.49    9.20
 -12   2  10   72.19    4.10
 -12   2  10   70.19    4.10
  12   2 -10   57.19    8.50
  12   2 -10   60.99    7.30
  12   2 -10   67.29    5.60
  10  -2 -10   33.80    4.70
  10  -2 -10   25.40    5.80
  10   2 -10   27.20    5.60
 -10   2  10   33.20    7.70
  10   2 -10   29.80    3.30
   8  -2 -10  245.98   15.30
   8  -2 -10  236.48   14.70
   8  -2 -10  235.68   11.30
   8   2 -10  262.27   14.40
   8   2 -10  232.78   13.40
  -8   2  10  218.58   15.40
   6  -2 -10  149.39   12.00
   6  -2 -10  142.79   11.00
   6  -2 -10  136.89    9.10
   6   2 -10  137.39    9.70
  -6   2  10  130.09   11.90
   6   2 -10  133.59   10.00
   4  -2 -10  322.27   14.90
   4  -2 -10  306.37   16.50
   4  -2 -10  291.77   17.50
   4   2 -10  285.67   15.60
   4   2 -10  311.87   11.20
  -4   2  10  309.77   18.10
   4   2 -10  304.67   14.90
   2  -2 -10  388.06   17.90
   2  -2 -10  391.56   21.60
   2  -2 -10  411.56   20.00
   2   2 -10  387.06   16.70
   2   2 -10  438.66   19.70
   2   2 -10  419.86   15.60
  -2   2  10  368.06   20.80
   0  -2 -10   90.59   10.50
   0  -2 -10   90.39    9.30
   0  -2 -10   87.49    9.60
   0   2  10   95.19   12.20
   0   2 -10   86.09    6.90
   0   2 -10   78.79    8.10
   0   2 -10   95.19    8.90
  -2  -2 -10   62.99    8.80
  -2  -2 -10   49.50    8.90
  -2   2 -10   51.49    4.50
  -2   2 -10   53.69    7.80
   2   2  10   56.49   10.50
  -2   2 -10   45.40    7.70
  -4  -2 -10   59.19   10.10
  -4  -2 -10   57.19    8.30
  -4   2 -10   61.49    9.20
  21  -3 -10  654.83   30.60
  21  -3 -10  628.84   32.40
  21   3 -10  630.44   30.40
  21   3 -10  613.64   34.00
  19  -3 -10  709.63   30.80
  19  -3 -10  677.93   33.20
  19   3 -10  722.93   35.20
  19   3 -10  708.53   30.70
  17  -3 -10  719.33   30.20
  17  -3 -10  752.72   33.50
 -17   3  10  701.13   28.60
 -17   3  10  733.33   28.10
  17   3 -10  762.22   30.10
  17   3 -10  752.82   34.60
  15  -3 -10 1340.97   46.30
  15  -3 -10 1282.47   49.60
  15   3 -10 1370.56   44.70
 -15   3  10 1366.26   44.30
 -15   3  10 1297.07   43.80
  15   3 -10 1348.67   50.89
  15   3 -10 1368.16   45.10
  13  -3 -10 1121.59   43.00
  13  -3 -10 1114.09   39.00
 -13   3  10 1141.69   36.70
 -13   3  10 1112.69   36.80
  13   3 -10 1145.19   38.20
  13   3 -10 1085.79   36.80
  13   3 -10 1141.39   43.40
  11  -3 -10 1067.99   42.10
  11  -3 -10 1138.29   38.20
  11   3 -10 1138.89   34.90
 -11   3  10 1132.49   35.10
  11   3 -10 1142.69   37.70
 -11   3  10 1073.39   35.00
  11   3 -10 1117.19   41.90
   9  -3 -10 1263.17   42.00
   9  -3 -10 1287.27   46.70
   9  -3 -10 1279.47   47.30
  -9   3  10 1301.47   38.30
  -9   3  10 1322.07   38.30
   9   3 -10 1270.17   43.30
   9   3 -10 1260.27   45.20
   7  -3 -10 1118.09   41.80
   7  -3 -10 1121.09   38.50
   7  -3 -10 1103.79   42.50
   7   3 -10 1106.29   38.50
   7   3 -10 1149.39   39.70
   5  -3 -10 1120.99   39.70
   5  -3 -10 1159.98   44.00
   5  -3 -10 1122.59   42.20
   5   3 -10 1197.18   39.90
   5   3 -10 1167.58   39.30
   3  -3 -10  741.83   31.00
   3  -3 -10  715.93   32.30
   3  -3 -10  746.53   28.80
   3   3 -10  752.72   26.60
   3   3 -10  733.23   28.20
   3   3 -10  772.92   24.20
   1  -3 -10  509.85   26.10
   1  -3 -10  508.45   24.30
   1   3 -10  551.24   19.20
   1   3 -10  509.75   19.70
   1   3 -10  536.65   22.40
  -1  -3 -10  625.74   27.80
  -1  -3 -10  571.04   29.00
  -1   3 -10  595.24   24.20
   1   3  10  605.14   20.30
  -1   3 -10  616.84   25.60
   1   3  10  604.34   20.10
  -3  -3 -10  439.76   22.60
  -3  -3 -10  405.86   23.90
   3   3  10  400.56   16.00
  -3   3 -10  431.36   21.00
  -5  -3 -10  236.98   16.50
  -5  -3 -10  268.57   27.20
  -5   3 -10  248.28   16.40
   5   3  10  206.78   12.30
  20  -4 -10  195.98   17.40
  20  -4 -10  209.48   15.90
  20   4 -10  215.38   16.70
  18  -4 -10  283.97   17.70
  18  -4 -10  298.27   19.40
 -18   4  10  288.47   16.20
  18   4 -10  298.57   17.80
  16  -4 -10  496.95   25.40
  16  -4 -10  488.75   22.70
 -16   4  10  466.15   20.90
 -16   4  10  466.15   22.20
  16   4 -10  477.95   20.20
  16   4 -10  475.55   21.80
  14  -4 -10  304.87   16.10
  14  -4 -10  276.47   17.90
  14   4 -10  289.57   13.60
 -14   4  10  284.37   15.20
  14   4 -10  252.37   13.80
 -14   4  10  275.87   14.40
  12  -4 -10  418.26   22.20
  12  -4 -10  395.46   18.70
  12   4 -10  449.26   22.50
 -12   4  10  409.46   18.00
  12   4 -10  420.66   16.80
  12   4 -10  437.36   17.50
 -12   4  10  407.46   17.90
  10  -4 -10  811.22   30.00
  10  -4 -10  806.02   33.70
  10   4 -10  809.52   29.20
  10   4 -10  852.81   28.50
 -10   4  10  821.42   28.50
 -10   4  10  800.42   28.20
  10   4 -10  793.92   26.00
  10   4 -10  797.82   32.60
   8  -4 -10  819.22   29.30
   8  -4 -10  792.72   33.40
   8  -4 -10  768.92   32.80
  -8   4  10  804.82   27.20
  -8   4  10  805.22   27.00
   8   4 -10  731.03   30.40
   8   4 -10  791.32   28.20
   6  -4 -10  381.76   19.10
   6  -4 -10  416.56   21.20
   6  -4 -10  374.56   21.00
  -6   4  10  399.66   15.80
  -6   4  10  386.66   15.50
   6   4 -10  392.96   16.80
   6   4 -10  403.36   18.20
   4  -4 -10  327.37   19.50
   4  -4 -10  336.47   17.60
   4  -4 -10  320.37   18.60
   4   4 -10  328.67   14.90
   4   4 -10  318.27   14.80
  -4   4  10  301.17   13.50
  -4   4  10  335.97   13.90
   4   4 -10  340.67   11.90
   2  -4 -10  350.26   19.80
   2  -4 -10  383.76   21.50
   2   4 -10  346.77   16.30
   2   4 -10  375.16   14.80
   2   4 -10  384.76   14.50
  -2   4  10  369.26   15.40
  -2   4  10  344.97   15.20
   0  -4 -10  265.07   18.10
   0  -4 -10  264.87   17.30
   0   4  10  262.87   13.00
   0   4 -10  265.87   13.80
   0   4 -10  262.97   14.10
   0   4  10  236.08   13.00
  -2  -4 -10  252.67   17.40
  -2  -4 -10  220.78   17.00
   2   4  10  234.98   13.10
  -2   4 -10  231.18   13.90
  -2   4 -10  240.08   15.60
   2   4  10  200.68   14.10
  -4  -4 -10  109.39   13.50
  -4  -4 -10  119.59   13.30
  -4   4 -10  115.49   11.10
   4   4  10  113.89   10.90
  19  -5 -10   41.10    9.50
  19  -5 -10   25.40    7.20
 -19   5  10   32.70    7.00
  19   5 -10   28.80    7.90
  17  -5 -10    9.50    6.10
  17  -5 -10   10.00    5.00
  17   5 -10   14.80    5.40
  17   5 -10   10.40    5.00
 -17   5  10   10.60    4.70
  15  -5 -10   39.40    7.20
  15  -5 -10   45.00    8.60
  15   5 -10   50.39    7.30
 -15   5  10   40.80    8.30
  15   5 -10   49.60    6.10
 -15   5  10   39.80    6.70
  13  -5 -10  137.29   12.50
  13  -5 -10  159.48   11.50
 -13   5  10  142.09   11.80
  13   5 -10  140.39   10.00
  13   5 -10  163.68    9.00
 -13   5  10  156.68   11.10
  11  -5 -10   19.60    5.90
  11  -5 -10   15.20    4.40
 -11   5  10   15.50    4.80
 -11   5  10   17.40    5.10
  11   5 -10   21.20    4.10
  11   5 -10   22.60    4.20
  11   5 -10   19.60    3.70
   9  -5 -10   58.29    8.80
   9  -5 -10   62.69    7.20
   9  -5 -10   70.29   10.20
  -9   5  10   65.79    7.10
   9   5 -10   76.29    8.50
  -9   5  10   68.79    8.10
   9   5 -10   59.99    5.70
   9   5 -10   57.49    4.90
   9   5 -10   72.79    6.10
   7  -5 -10  127.69   11.70
   7  -5 -10  121.79   11.70
  -7   5  10  118.99    9.60
   7   5 -10  131.29    7.80
  -7   5  10  117.29    9.20
   7   5 -10  117.89    5.70
   7   5 -10  107.79    9.50
   5  -5 -10   35.50    7.30
   5  -5 -10   34.30    7.10
   5   5 -10   34.50    3.60
   5   5 -10   35.00    4.70
  -5   5  10   47.50    6.70
   5   5 -10   38.40    6.00
  -5   5  10   35.10    6.00
   3  -5 -10  132.79   12.40
   3  -5 -10  127.29   12.50
   3   5 -10  130.29    8.10
   3   5 -10  143.59    8.70
  -3   5  10  140.89   11.30
   3   5 -10  147.99    8.60
  -3   5  10  163.38   10.90
   3   5 -10  148.29    7.50
   1  -5 -10  126.09   13.00
   1  -5 -10  102.79   11.40
   1   5 -10  128.99    8.80
  -1   5  10  108.69    9.90
   1   5 -10  133.89    9.60
  -1   5  10  126.79   11.70
  -1  -5 -10   10.30    5.90
  -1  -5 -10   20.10    7.40
  -1   5 -10   25.70    7.10
   1   5  10   23.30    6.50
  -1   5 -10   30.00    5.60
   1   5  10   25.60    8.50
  -3  -5 -10    8.40    6.30
  -3  -5 -10   18.20    7.50
  -3   5 -10   17.80    5.50
   3   5  10   10.10    6.60
  18  -6 -10  484.55   24.60
  18  -6 -10  440.16   25.80
 -18   6  10  457.95   23.00
  18   6 -10  483.25   24.20
  18   6 -10  456.25   24.80
  16  -6 -10  745.83   32.00
  16  -6 -10  743.53   34.10
  16   6 -10  781.92   26.80
  16   6 -10  766.72   32.10
 -16   6  10  770.12   31.40
  14  -6 -10  668.53   32.00
  14  -6 -10  714.03   29.70
 -14   6  10  687.73   28.80
  14   6 -10  689.13   28.40
  14   6 -10  755.72   24.30
  12  -6 -10  628.84   26.70
  12  -6 -10  610.84   29.60
  12   6 -10  624.54   24.50
 -12   6  10  572.14   27.00
 -12   6  10  630.44   26.50
  12   6 -10  629.84   21.10
  12   6 -10  674.53   22.30
  10  -6 -10  883.51   38.30
  10  -6 -10  922.21   38.70
  10  -6 -10  957.60   35.50
 -10   6  10  893.91   34.60
  10   6 -10  985.30   29.20
  10   6 -10  981.80   29.80
  10   6 -10  888.51   31.20
 -10   6  10  921.91   35.40
   8  -6 -10 1085.99   43.70
   8  -6 -10 1135.69   44.10
   8   6 -10 1131.79   34.10
   8   6 -10 1167.58   34.40
  -8   6  10 1039.30   39.60
  -8   6  10 1082.49   39.80
   8   6 -10 1095.69   40.80
   8   6 -10 1135.39   38.20
   8   6 -10 1103.59   34.90
   6  -6 -10  813.22   35.60
   6  -6 -10  840.72   36.40
   6   6 -10  881.01   27.00
   6   6 -10  851.01   27.10
   6   6 -10  803.72   31.30
  -6   6  10  826.72   32.30
  -6   6  10  801.22   32.30
   6   6 -10  834.22   29.20
   6   6 -10  869.11   27.00
   4  -6 -10  301.67   19.10
   4  -6 -10  274.77   18.30
   4   6 -10  283.27   12.40
   4   6 -10  289.67   12.00
  -4   6  10  263.37   16.00
   4   6 -10  292.57   12.60
   4   6 -10  275.57   13.40
  -4   6  10  258.07   16.80
   2  -6 -10  214.58   16.30
   2  -6 -10  191.08   15.70
  -2   6  10  219.58   14.40
   2   6 -10  172.08   11.30
  -2   6  10  201.88   15.60
   2   6 -10  200.78   10.30
   0  -6 -10  296.47   20.40
   0  -6 -10  300.67   20.60
   0   6 -10  352.36   17.70
   0   6  10  288.87   18.00
   0   6  10  258.57   20.60
   0   6 -10  342.57   15.00
  -2  -6 -10  366.66   23.40
  -2  -6 -10  370.66   23.30
  -2   6 -10  342.67   17.00
   2   6  10  339.47   20.60
  17  -7 -10  283.77   20.50
  17  -7 -10  279.57   18.10
 -17   7  10  274.27   17.80
  17   7 -10  285.57   19.60
  15  -7 -10  394.86   21.50
  15  -7 -10  405.26   24.10
  15   7 -10  391.46   21.40
  15   7 -10  431.86   15.40
 -15   7  10  395.16   21.10
  13  -7 -10  286.57   17.40
  13  -7 -10  289.57   19.40
  13   7 -10  290.77   10.90
 -13   7  10  271.07   16.90
  13   7 -10  252.07   15.60
  13   7 -10  293.57   10.30
  11  -7 -10  418.86   20.60
  11  -7 -10  365.56   21.90
 -11   7  10  389.76   20.00
  11   7 -10  334.57   17.00
   9  -7 -10  431.46   23.60
   9  -7 -10  406.86   23.20
   9   7 -10  417.36   17.20
  -9   7  10  406.56   20.90
   7  -7 -10  414.26   22.60
   7  -7 -10  375.96   22.50
   7   7 -10  373.46   15.70
  -7   7  10  365.36   20.00
   7   7 -10  372.66   17.50
   7   7 -10  388.36   15.50
   7   7 -10  368.16   19.10
   5  -7 -10  509.45   27.70
   5  -7 -10  564.34   28.10
   5   7 -10  542.75   22.50
   5   7 -10  547.45   21.30
  -5   7  10  526.65   25.50
   5   7 -10  565.24   20.30
   5   7 -10  574.64   17.60
   5   7 -10  531.65   20.90
   3  -7 -10  631.04   30.20
   3  -7 -10  562.34   29.60
   3   7 -10  607.64   20.20
  -3   7  10  586.74   27.70
   3   7 -10  594.64   20.40
   3   7 -10  602.94   20.10
   3   7 -10  530.55   22.70
   1  -7 -10  522.45   29.40
   1  -7 -10  623.24   30.20
  -1   7  10  559.74   27.60
   1   7 -10  596.64   21.40
  16  -8 -10   51.79   10.30
  16  -8 -10   38.50    7.70
 -16   8  10   59.89    9.70
  16   8 -10   48.90   10.00
  14  -8 -10    2.00    5.20
  14  -8 -10    3.00    6.00
 -14   8  10    4.90    5.80
  14   8 -10   11.40    6.50
  12  -8 -10    8.70    6.20
  12   8 -10    8.30    5.10
 -12   8  10    2.60    5.50
  10  -8 -10   68.39   11.00
  10  -8 -10   71.59   11.60
  10   8 -10   65.59    8.00
 -10   8  10   59.19    9.60
   8  -8 -10   58.59   10.40
   8  -8 -10   33.00    8.20
  -8   8  10   29.70    7.60
   8   8 -10   40.40    6.00
   8   8 -10   33.80    6.30
   6  -8 -10  109.19   12.80
   6  -8 -10   77.09   11.90
  -6   8  10   84.79   11.50
   6   8 -10  110.39   10.70
   6   8 -10   77.59   10.00
   6   8 -10  121.59   10.60
   6   8 -10  116.79    8.50
   4  -8 -10   38.40    9.00
   4  -8 -10   51.89   10.10
   4   8 -10   56.79    6.80
  -4   8  10   48.40   10.20
   4   8 -10   47.20    6.60
   2  -8 -10   11.50    7.40
   2  -8 -10   23.50    8.20
  -2   8  10   16.30    7.70
  11  -9 -10  712.23   33.80
  11  -9 -10  661.63   34.30
  11   9 -10  678.03   29.00
 -11   9  10  740.93   32.20
   9  -9 -10  669.13   31.70
   9  -9 -10  584.14   31.50
  -9   9  10  611.64   29.60
   9   9 -10  616.94   25.50
   7  -9 -10  585.44   29.90
   7  -9 -10  521.75   30.40
  -7   9  10  582.54   29.00
   7   9 -10  586.74   23.60
   5  -9 -10  430.76   25.30
   5   9 -10  428.26   20.00
  -5   9  10  397.46   24.00
   5   9 -10  400.06   18.90
  22   0 -11    9.60    7.20
  22   0 -11    2.00    6.30
  20   0 -11   -4.80    5.30
 -20   0  11   -0.80    3.70
 -20   0  11   10.20    4.60
  20   0 -11    0.20    4.70
  18   0 -11    4.90    5.50
  18   0 -11    0.30    4.00
  16   0 -11    5.80    4.80
  16   0 -11   -2.00    3.30
  14   0 -11   -3.00    3.90
  14   0 -11   -1.00    2.80
  12   0 -11   -4.00    3.30
  12   0 -11    1.60    2.50
  10   0 -11    6.00    4.00
  10   0 -11    5.60    3.40
  10   0 -11    2.70    2.20
   8   0 -11    1.90    2.30
   8   0 -11    1.70    2.00
   8   0 -11   -1.10    2.90
   8   0 -11    7.40    3.70
   6   0 -11    0.20    3.70
   6   0 -11    4.70    2.70
   6   0 -11    2.40    3.40
   4   0 -11    6.40    3.20
   4   0 -11   -4.50    3.00
  -4   0  11    3.40    5.40
   4   0 -11   -0.60    3.80
   2   0 -11    0.10    3.90
   2   0 -11   -0.30    3.50
   2   0 -11   -2.60    3.70
  -2   0  11    3.00    5.50
   0   0  11    2.70    6.30
   0   0 -11    2.20    4.30
   0   0 -11    4.70    5.10
   0   0 -11    1.40    4.60
  -2   0 -11    3.10    4.70
   2   0  11    7.60    7.30
  -2   0 -11    2.50    5.10
  21  -1 -11  339.77   23.10
  21  -1 -11  352.16   20.40
  21   1 -11  346.67   23.40
  21   1 -11  314.87   19.80
 -21   1  11  342.37   17.70
  19  -1 -11  329.67   18.30
  19  -1 -11  318.77   21.40
  19   1 -11  314.47   18.00
 -19   1  11  309.87   14.50
  19   1 -11  315.27   21.30
 -19   1  11  311.47   14.70
  17  -1 -11  613.54   26.10
  17  -1 -11  630.54   30.40
 -17   1  11  559.14   20.30
  17   1 -11  625.34   25.80
  17   1 -11  665.53   31.40
 -17   1  11  647.84   20.40
  15  -1 -11  474.15   25.20
  15  -1 -11  473.55   20.90
  15   1 -11  506.35   25.60
  15   1 -11  509.45   20.60
  13  -1 -11 1073.89   36.00
  13  -1 -11 1027.10   41.20
  13   1 -11 1034.90   41.10
  13   1 -11 1068.49   34.90
  11  -1 -11  700.93   30.00
  11  -1 -11  703.73   24.60
  11   1 -11  701.13   29.70
  11   1 -11  641.34   22.90
   9  -1 -11  220.08   14.40
   9  -1 -11  220.28   14.80
   9  -1 -11  226.28   10.70
   9   1 -11  221.48   14.00
   9   1 -11  215.88   14.10
   9   1 -11  226.58    9.20
   7  -1 -11  551.64   21.70
   7  -1 -11  590.34   27.20
   7  -1 -11  613.04   26.20
   7   1 -11  586.04   25.30
   7   1 -11  585.74   19.50
   7   1 -11  617.64   26.30
  -7   1  11  624.34   27.50
   5  -1 -11  661.43   24.50
   5  -1 -11  646.64   27.70
   5  -1 -11  697.73   30.10
   5   1 -11  671.63   22.10
   5   1 -11  645.34   28.30
   5   1 -11  643.14   26.40
  -5   1  11  662.53   28.90
   3  -1 -11  473.45   21.90
   3  -1 -11  479.05   19.70
   3  -1 -11  483.65   24.40
   3   1 -11  464.15   18.00
  -3   1  11  490.95   23.50
   3   1 -11  478.85   20.60
   3   1 -11  457.35   22.60
   1  -1 -11  362.16   17.70
   1  -1 -11  403.26   19.40
   1  -1 -11  346.37   20.80
  -1   1  11  339.37   20.40
   1   1 -11  391.36   17.40
   1   1 -11  337.07   19.30
   1   1 -11  368.46   16.70
  -1  -1 -11  321.97   17.50
  -1  -1 -11  258.67   18.50
   1   1  11  287.47   19.40
  -1   1 -11  302.87   18.20
  -1   1 -11  282.17   16.60
  -1   1 -11  309.87   14.90
  -3  -1 -11  187.88   13.30
  -3  -1 -11  159.48   15.10
  -3   1 -11  184.48    9.80
  -3   1 -11  190.78   15.40
  22  -2 -11  187.08   17.90
  22  -2 -11  239.88   17.70
  22   2 -11  224.08   17.50
  22   2 -11  198.48   19.60
  20  -2 -11  391.86   24.20
  20  -2 -11  358.66   20.60
 -20   2  11  379.76   19.10
 -20   2  11  344.77   17.60
  20   2 -11  354.36   20.30
  20   2 -11  373.46   24.30
  18  -2 -11  565.94   29.10
  18  -2 -11  579.04   25.70
  18   2 -11  576.14   25.00
 -18   2  11  529.65   21.70
  18   2 -11  558.44   29.40
 -18   2  11  561.44   21.90
  16  -2 -11  687.43   27.90
  16  -2 -11  705.43   32.10
 -16   2  11  713.63   23.50
  16   2 -11  675.63   26.80
  16   2 -11  707.23   32.60
 -16   2  11  656.73   23.60
  14  -2 -11  725.83   33.10
  14  -2 -11  768.02   29.00
  14   2 -11  789.02   27.60
  14   2 -11  769.12   29.80
  14   2 -11  788.12   34.00
  12  -2 -11  602.34   27.60
  12  -2 -11  593.24   23.10
  12   2 -11  594.14   20.80
  12   2 -11  570.64   26.80
  10  -2 -11  719.13   26.10
  10  -2 -11  752.82   31.60
  10  -2 -11  690.13   31.20
  10   2 -11  742.23   30.60
  10   2 -11  727.33   23.00
  10   2 -11  744.73   29.60
   8  -2 -11  670.93   30.20
   8  -2 -11  688.93   25.50
   8  -2 -11  661.73   29.10
   8  -2 -11  683.43   24.60
   8   2 -11  685.13   27.90
   8   2 -11  691.33   28.20
   6  -2 -11  868.41   34.20
   6  -2 -11  807.82   30.30
   6  -2 -11  835.32   35.40
   6   2 -11  836.22   32.80
   6   2 -11  867.61   25.60
   6   2 -11  867.61   32.20
   4  -2 -11  549.85   27.00
   4  -2 -11  539.75   22.50
   4  -2 -11  527.15   24.60
   4   2 -11  554.94   24.30
   4   2 -11  542.65   22.30
   4   2 -11  548.45   18.70
   2  -2 -11  127.59   10.90
   2  -2 -11  138.89   11.30
   2  -2 -11  126.09   12.50
   2   2 -11  117.59    8.60
   2   2 -11  113.99    8.90
   2   2 -11  125.89   10.70
   0  -2 -11  276.07   17.10
   0  -2 -11  250.17   17.80
   0   2 -11  263.17   12.50
   0   2 -11  231.98   14.00
   0   2 -11  229.48   15.00
  -2  -2 -11  232.38   17.80
  -2  -2 -11  298.77   17.70
  -2   2 -11  226.78   16.30
  21  -3 -11   47.70    9.90
  21  -3 -11   31.30    8.10
  21   3 -11   44.60    8.50
 -21   3  11   46.10    8.10
  21   3 -11   42.70   10.40
  19  -3 -11   23.80    6.80
  19  -3 -11   14.60    7.00
  19   3 -11   28.80    8.30
  19   3 -11   30.30    6.90
 -19   3  11   22.50    7.50
 -19   3  11   19.10    5.30
  17  -3 -11   34.60    8.10
  17  -3 -11   37.40    6.80
  17   3 -11   36.10    6.70
 -17   3  11   29.80    6.40
  17   3 -11   31.90    7.80
 -17   3  11   27.90    5.60
  15  -3 -11   17.60    5.80
  15  -3 -11   19.10    4.80
 -15   3  11   14.80    4.20
  15   3 -11   16.70    5.90
 -15   3  11   14.70    4.00
  15   3 -11   14.80    4.50
  15   3 -11   11.90    5.20
  13  -3 -11   10.60    5.00
  13  -3 -11    5.40    3.20
 -13   3  11    5.00    2.70
  13   3 -11    3.90    4.30
  13   3 -11    5.50    3.20
  13   3 -11    2.70    4.40
 -13   3  11    3.60    2.60
  11  -3 -11  119.59   11.50
  11  -3 -11  127.59    9.20
  11   3 -11  116.39    9.80
  11   3 -11  120.89    6.60
  11   3 -11  121.99   10.90
   9  -3 -11    8.40    4.60
   9  -3 -11    9.20    4.80
   9  -3 -11   12.60    3.80
   9   3 -11    2.70    3.20
   9   3 -11    9.00    4.30
   7  -3 -11    0.30    3.80
   7  -3 -11    5.70    4.60
   7  -3 -11    4.20    3.90
   7   3 -11    3.60    3.20
   7   3 -11    5.30    3.70
   5  -3 -11   18.20    5.90
   5  -3 -11   12.60    5.30
   5  -3 -11   11.30    4.90
   5   3 -11   16.40    4.50
   5   3 -11   10.90    4.00
   3  -3 -11    2.40    4.40
   3  -3 -11    5.50    4.80
   3   3 -11    4.60    3.50
   3   3 -11    3.80    3.30
   3   3 -11    3.80    3.10
   1  -3 -11   20.00    6.00
   1  -3 -11   12.40    6.70
   1   3 -11   15.90    4.90
   1   3 -11   26.60    4.30
   1   3 -11   15.20    5.10
  -1  -3 -11   37.20    8.20
  -1  -3 -11   41.40    9.10
  -1   3 -11   41.10    7.60
  -1   3 -11   39.90    8.20
  20  -4 -11  419.66   25.50
  20  -4 -11  461.25   24.10
  20   4 -11  438.06   27.70
 -20   4  11  410.26   21.10
  20   4 -11  443.36   23.80
  18  -4 -11  561.44   28.70
  18  -4 -11  550.84   25.70
  18   4 -11  536.55   24.80
 -18   4  11  523.95   24.90
 -18   4  11  524.75   23.30
  18   4 -11  505.85   29.20
  16  -4 -11  600.94   29.70
  16  -4 -11  630.54   26.90
  16   4 -11  586.04   25.00
 -16   4  11  599.44   24.50
  16   4 -11  584.84   30.20
 -16   4  11  614.94   25.40
  16   4 -11  620.74   24.30
  14  -4 -11  842.62   37.30
  14  -4 -11  904.21   34.20
  14   4 -11  926.61   32.00
 -14   4  11  867.71   31.70
  14   4 -11  924.21   31.80
 -14   4  11  922.61   31.90
  14   4 -11  889.01   38.10
  12  -4 -11 1074.39   37.30
  12  -4 -11  993.60   41.10
  12   4 -11 1078.29   35.70
  12   4 -11 1055.59   33.60
  12   4 -11 1021.60   40.80
  12   4 -11 1035.10   36.80
 -12   4  11 1004.90   34.30
 -12   4  11 1009.90   34.00
  10  -4 -11  819.22   35.90
  10  -4 -11  830.02   36.40
  10  -4 -11  876.11   32.10
  10   4 -11  904.11   31.80
 -10   4  11  877.21   28.50
  10   4 -11  872.21   27.10
  10   4 -11  883.31   35.20
 -10   4  11  900.61   28.70
   8  -4 -11  837.22   36.40
   8  -4 -11  862.91   36.10
   8   4 -11  849.61   33.30
  -8   4  11  861.51   27.20
  -8   4  11  860.71   27.20
   8   4 -11  883.61   31.30
   6  -4 -11  788.42   33.80
   6  -4 -11  763.22   34.30
   6   4 -11  805.22   30.10
   6   4 -11  819.82   29.40
   4  -4 -11  571.54   28.30
   4  -4 -11  547.95   26.70
   4   4 -11  549.15   21.70
   4   4 -11  555.54   18.80
   4   4 -11  540.65   22.30
   2  -4 -11  388.86   22.50
   2  -4 -11  368.76   21.10
   2   4 -11  339.87   15.40
   2   4 -11  379.86   14.50
   2   4 -11  347.37   17.20
   0  -4 -11  297.47   20.50
   0  -4 -11  273.77   19.10
   0   4 -11  306.77   16.20
   0   4 -11  273.37   15.60
  -2  -4 -11  225.28   18.70
  -2  -4 -11  237.08   18.20
  -2   4 -11  233.18   15.00
  19  -5 -11  500.05   28.60
  19  -5 -11  571.44   27.60
 -19   5  11  577.84   25.40
  19   5 -11  529.85   26.70
  17  -5 -11  654.33   32.30
  17  -5 -11  672.53   29.60
  17   5 -11  697.33   26.00
 -17   5  11  679.33   28.00
  17   5 -11  660.23   28.70
  15  -5 -11  851.11   32.80
  15  -5 -11  770.22   35.50
  15   5 -11  804.32   30.60
 -15   5  11  771.52   31.70
  15   5 -11  828.92   37.00
 -15   5  11  775.72   30.90
  15   5 -11  816.12   28.70
  13  -5 -11  544.55   27.70
  13  -5 -11  590.24   25.00
 -13   5  11  550.14   23.20
  13   5 -11  545.65   22.00
  13   5 -11  517.05   27.20
  13   5 -11  592.74   22.90
  13   5 -11  586.04   21.70
 -13   5  11  587.54   24.10
  11  -5 -11  754.22   30.30
  11  -5 -11  797.62   35.10
  11  -5 -11  748.93   34.20
 -11   5  11  760.72   29.00
  11   5 -11  788.02   26.50
  11   5 -11  769.92   33.00
  11   5 -11  817.82   28.20
 -11   5  11  755.12   28.80
  11   5 -11  842.22   27.70
   9  -5 -11  911.61   38.50
   9  -5 -11  894.51   38.00
  -9   5  11  914.51   32.00
   9   5 -11  934.91   31.30
   9   5 -11  888.91   35.50
   9   5 -11  888.51   28.10
  -9   5  11  906.71   31.80
   7  -5 -11  880.31   37.30
   7  -5 -11  899.61   38.10
   7   5 -11  889.01   30.40
  -7   5  11  863.71   30.60
  -7   5  11  869.51   30.80
   7   5 -11  910.91   33.70
   5  -5 -11  664.53   31.10
   5  -5 -11  692.83   32.10
   5   5 -11  695.13   24.60
   5   5 -11  662.33   25.30
  -5   5  11  644.04   24.50
   5   5 -11  639.94   21.50
  -5   5  11  648.84   24.50
   3  -5 -11  476.45   25.80
   3  -5 -11  429.76   24.40
   3   5 -11  452.85   17.10
  -3   5  11  434.86   19.10
   3   5 -11  465.55   17.60
  -3   5  11  447.56   19.00
   3   5 -11  446.66   15.90
   3   5 -11  464.95   19.10
   1  -5 -11  461.95   26.20
   1  -5 -11  472.25   26.20
   1   5 -11  489.85   20.20
  -1   5  11  454.75   19.70
   1   5 -11  459.45   24.00
  -1  -5 -11  411.36   24.20
  -1  -5 -11  354.86   23.40
  -1   5 -11  374.76   18.60
   1   5  11  386.46   18.30
  18  -6 -11   21.90    8.20
  18  -6 -11   30.80    7.80
  18   6 -11   19.80    7.30
 -18   6  11   19.90    6.70
  16  -6 -11   54.59    8.60
  16  -6 -11   46.50    9.70
  16   6 -11   59.49    8.70
 -16   6  11   60.09    9.00
  16   6 -11   59.39    7.40
  14  -6 -11   61.79   10.40
  14  -6 -11   62.09    9.10
  14   6 -11   79.69    7.30
 -14   6  11   57.29   16.70
 -14   6  11   56.79    8.30
  14   6 -11   73.49    8.70
  14   6 -11   64.39    6.50
  12  -6 -11   83.99   11.90
  12  -6 -11   78.19    9.30
 -12   6  11   67.19    9.70
  12   6 -11   68.69   10.60
 -12   6  11   74.79    9.10
  12   6 -11   79.49    8.00
  12   6 -11   75.19    6.50
  12   6 -11   84.69    6.50
  10  -6 -11  203.28   16.00
  10  -6 -11  182.38   15.50
  10   6 -11  190.18    9.40
  10   6 -11  191.08    9.50
 -10   6  11  186.08   14.30
  10   6 -11  176.98    9.90
  10   6 -11  195.28   14.50
 -10   6  11  191.88   12.90
   8  -6 -11   17.30    6.30
   8  -6 -11   17.90    6.50
   8   6 -11   13.60    5.80
   8   6 -11   16.00    3.40
  -8   6  11   14.90    6.80
  -8   6  11   17.20    5.50
   8   6 -11   20.50    3.40
   8   6 -11   13.90    5.60
   6  -6 -11   22.10    7.50
   6  -6 -11   27.30    7.40
   6   6 -11   22.20    3.80
   6   6 -11   23.60    5.30
   6   6 -11   11.70    4.70
  -6   6  11   14.40    5.50
   6   6 -11   17.00    3.80
   6   6 -11   23.70    3.50
  -6   6  11   13.10    7.00
   4  -6 -11   72.99   11.50
   4  -6 -11   72.49   11.50
   4   6 -11   69.09    6.50
  -4   6  11   47.20    9.50
   4   6 -11   72.69    7.50
   4   6 -11   64.99    6.30
   4   6 -11   76.29    7.50
  -4   6  11   78.19    9.30
   2  -6 -11    8.60    6.30
   2  -6 -11    3.70    6.30
  -2   6  11   -0.20   13.40
  -2   6  11    6.00    6.00
   2   6 -11   11.00    4.00
   0  -6 -11    7.20    6.80
   0   6 -11   13.10    4.80
  17  -7 -11  224.98   16.60
  17  -7 -11  249.18   19.40
  17   7 -11  255.47   18.00
 -17   7  11  243.58   17.00
  15  -7 -11  309.17   20.90
  15  -7 -11  326.17   19.00
  15   7 -11  287.07   13.00
  15   7 -11  290.47   17.70
 -15   7  11  296.07   18.30
  13  -7 -11  231.48   15.50
  13  -7 -11  245.78   18.10
  13   7 -11  219.28   14.10
 -13   7  11  195.18   15.00
  13   7 -11  239.28    9.10
  13   7 -11  223.08    9.40
  11  -7 -11  274.57   19.70
  11  -7 -11  297.87   20.20
  11   7 -11  297.37   15.00
 -11   7  11  290.17   17.30
  11   7 -11  317.07   20.00
   9  -7 -11  382.86   23.00
   9  -7 -11  364.86   22.50
   9   7 -11  351.96   15.50
  -9   7  11  381.56   20.10
   9   7 -11  361.16   20.30
   7  -7 -11  293.97   20.50
   7  -7 -11  288.47   20.40
   7   7 -11  317.47   13.90
   7   7 -11  334.27   11.50
   7   7 -11  303.47   13.30
   7   7 -11  316.07   11.00
   7   7 -11  298.77   15.80
  -7   7  11  331.27   26.50
   7   7 -11  317.07   17.30
  -7   7  11  283.07   17.80
   5  -7 -11  390.76   23.70
   5  -7 -11  364.26   23.50
   5   7 -11  390.96   17.80
  -5   7  11  356.26   20.80
   5   7 -11  384.06   15.60
   5   7 -11  392.46   14.20
   3  -7 -11  101.69   14.10
   3  -7 -11   83.99   12.80
  -3   7  11  146.09   14.10
   3   7 -11  120.89    8.20
  14  -8 -11  637.54   33.40
  14  -8 -11  683.03   31.20
 -14   8  11  711.23   31.10
  14   8 -11  705.93   30.10
  12  -8 -11  725.53   34.50
  12  -8 -11  678.53   33.90
  12   8 -11  665.33   28.00
 -12   8  11  713.33   31.00
  10  -8 -11  773.22   35.30
  10  -8 -11  679.93   34.50
  10   8 -11  682.93   32.20
  10   8 -11  684.73   26.90
 -10   8  11  696.63   31.30
   8  -8 -11  480.75   26.30
   8  -8 -11  427.86   26.10
  -8   8  11  445.96   24.00
   8   8 -11  436.66   22.70
   8   8 -11  428.26   18.50
   6  -8 -11  394.76   24.00
   6  -8 -11  312.67   23.30
  -6   8  11  351.56   21.60
   6   8 -11  364.76   16.30
   6   8 -11  402.76   19.30
  22   0 -12  496.25   26.00
  22   0 -12  476.45   29.30
 -22   0  12  494.55   19.00
  20   0 -12  518.65   29.00
  20   0 -12  479.25   24.40
  18   0 -12  886.71   34.50
  18   0 -12  907.81   40.30
  16   0 -12  890.91   32.60
  16   0 -12  878.21   38.40
  14   0 -12 1119.79   44.60
  14   0 -12 1127.19   37.90
  12   0 -12 2796.82   90.19
  12   0 -12 2755.62   90.09
  12   0 -12 2784.82   82.19
  10   0 -12 1752.82   60.39
  10   0 -12 1683.33   51.69
  10   0 -12 1710.53   59.49
   8   0 -12 1043.30   41.20
   8   0 -12 1089.69   40.60
   8   0 -12 1039.40   33.90
   6   0 -12 1232.78   40.20
   6   0 -12 1304.17   47.80
   6   0 -12 1240.98   45.10
   4   0 -12  505.35   23.00
   4   0 -12  523.85   25.60
   4   0 -12  490.45   20.10
   2   0 -12  496.75   25.90
   2   0 -12  549.25   23.50
   2   0 -12  490.75   21.70
   0   0 -12  580.24   24.60
   0   0 -12  518.95   27.20
   0   0  12  526.55   27.80
  21  -1 -12  163.78   14.20
  21  -1 -12  150.98   16.50
  21   1 -12  159.48   16.90
 -21   1  12  143.99   10.10
  21   1 -12  141.79   13.50
  19  -1 -12  372.76   20.20
  19  -1 -12  388.56   24.00
  19   1 -12  373.66   19.90
  19   1 -12  377.66   24.00
  17  -1 -12  202.18   13.30
  17  -1 -12  176.38   15.80
  17   1 -12  210.18   16.40
  17   1 -12  197.58   12.70
  15  -1 -12  246.98   17.40
  15  -1 -12  235.08   13.10
  15   1 -12  212.88   12.30
  15   1 -12  235.28   17.10
  13  -1 -12  371.06   21.40
  13  -1 -12  397.16   17.10
  13   1 -12  375.36   21.40
  13   1 -12  389.36   15.90
  11  -1 -12   76.59    9.80
  11  -1 -12   81.99    6.70
  11  -1 -12   84.29   10.10
  11   1 -12   68.29    5.60
  11   1 -12   86.29    9.80
  11   1 -12   67.39    8.70
   9  -1 -12  123.99   11.70
   9  -1 -12  112.49    7.60
   9  -1 -12  111.19   10.90
   9   1 -12  105.99   10.40
   9   1 -12  110.29    6.10
   9   1 -12  105.39   10.40
   7  -1 -12  410.16   17.40
   7  -1 -12  398.36   20.80
   7  -1 -12  403.36   22.20
   7   1 -12  419.66   21.30
   7   1 -12  425.26   20.60
   7   1 -12  378.66   14.90
   5  -1 -12  297.47   16.90
   5  -1 -12  283.77   18.50
   5  -1 -12  277.97   14.50
   5   1 -12  258.67   12.10
   5   1 -12  285.27   15.80
   5   1 -12  291.97   17.70
   3  -1 -12  136.99   11.60
   3  -1 -12  136.29   13.40
   3  -1 -12  143.69   12.20
   3   1 -12  142.19   10.70
   3   1 -12  126.59    9.60
   3   1 -12  143.49   12.50
   1  -1 -12  169.38   15.20
   1  -1 -12  179.58   13.50
   1   1 -12  173.48   12.10
   1   1 -12  167.48   13.80
   1   1 -12  176.58   13.00
  -1  -1 -12  131.19   14.00
  -1  -1 -12  139.59   13.10
  -1   1 -12  159.58   11.00
  -1   1 -12  140.99   13.60
  20  -2 -12  115.69   12.10
  20  -2 -12  115.89   14.50
  20   2 -12  133.89   12.50
 -20   2  12  101.59    9.40
  20   2 -12  149.99   15.90
  18  -2 -12   90.59    9.80
  18  -2 -12  102.29   12.30
  18   2 -12   91.89    9.70
  18   2 -12   88.29   12.80
 -18   2  12   90.19    6.50
 -18   2  12   95.99    6.60
  16  -2 -12   98.49   13.20
  16  -2 -12   84.79    9.00
  16   2 -12  100.69   12.20
  16   2 -12  103.29    8.70
  14  -2 -12  153.78   10.70
  14  -2 -12  158.38   13.90
  14   2 -12  137.89   13.30
  14   2 -12  148.59    9.30
  12  -2 -12  159.98   10.00
  12  -2 -12  141.39   13.00
  12   2 -12  161.08   13.50
  12   2 -12  135.49    7.80
  12   2 -12  145.99   11.90
  10  -2 -12   25.40    6.40
  10  -2 -12   28.40    4.80
  10  -2 -12   36.60    7.70
  10   2 -12   41.10    7.30
  10   2 -12   30.90    6.50
  10   2 -12   37.60    3.80
   8  -2 -12   86.19   12.00
   8  -2 -12  102.99    9.30
   8  -2 -12   90.59   10.30
   8   2 -12   76.79    9.10
   8   2 -12   92.19    9.30
   6  -2 -12  131.69   11.40
   6  -2 -12  108.09   12.10
   6  -2 -12  143.39   11.80
   6   2 -12  146.99   11.90
   6   2 -12  135.09    6.80
   6   2 -12  114.29   10.10
   4  -2 -12   50.89    7.70
   4  -2 -12   41.00    7.60
   4  -2 -12   36.10    8.10
   4   2 -12   47.30    7.80
   4   2 -12   48.60    6.80
   4   2 -12   43.40    5.10
   2  -2 -12   87.99   11.00
   2  -2 -12   87.69   11.20
   2   2 -12   93.39    9.00
   2   2 -12  106.99    9.10
   2   2 -12   78.59    9.60
   0  -2 -12   99.89   12.60
   0  -2 -12  102.09   12.30
   0   2 -12  109.09    8.70
   0   2 -12  116.29   11.60
  21  -3 -12  348.47   23.90
  21  -3 -12  349.47   21.40
  21   3 -12  319.57   24.40
 -21   3  12  358.36   18.60
  21   3 -12  382.16   21.80
  19  -3 -12  825.62   37.70
  19  -3 -12  815.02   33.60
 -19   3  12  774.22   29.30
  19   3 -12  789.42   38.40
  19   3 -12  781.62   32.30
  17  -3 -12  827.52   36.70
  17  -3 -12  786.12   31.70
 -17   3  12  735.43   26.70
  17   3 -12  789.22   30.20
  17   3 -12  751.42   36.00
 -17   3  12  786.02   26.60
  15  -3 -12  651.83   26.70
  15  -3 -12  636.04   30.90
  15   3 -12  642.94   24.30
  15   3 -12  613.24   30.70
  13  -3 -12  915.51   39.30
  13  -3 -12  960.90   34.60
  13   3 -12  953.40   31.30
  13   3 -12  965.50   35.10
  13   3 -12  952.30   39.20
  13   3 -12  957.70   36.40
  11  -3 -12  746.83   34.40
  11  -3 -12  785.62   29.10
  11  -3 -12  769.02   34.00
  11   3 -12  801.22   24.80
  11   3 -12  801.82   33.50
  11   3 -12  794.52   31.20
   9  -3 -12  633.64   29.80
   9  -3 -12  664.13   31.10
   9   3 -12  659.83   27.30
   9   3 -12  672.43   28.60
   7  -3 -12  709.73   32.50
   7  -3 -12  707.93   31.20
   7  -3 -12  672.23   28.00
   7   3 -12  660.63   28.00
   7   3 -12  709.33   28.40
   5  -3 -12  581.54   28.90
   5  -3 -12  548.45   26.70
   5   3 -12  553.84   23.30
   5   3 -12  584.64   24.80
   5   3 -12  559.54   18.80
   3  -3 -12  359.86   20.90
   3  -3 -12  337.67   22.00
   3   3 -12  365.36   15.50
   3   3 -12  399.06   19.50
   3   3 -12  380.86   16.80
   1  -3 -12  276.77   18.60
   1  -3 -12  236.88   19.00
   1   3 -12  264.77   16.30
   1   3 -12  276.97   12.00
  20  -4 -12  373.36   21.70
  20  -4 -12  351.96   23.80
 -20   4  12  376.26   19.40
  20   4 -12  334.77   24.70
  20   4 -12  370.16   21.20
  18  -4 -12  222.48   18.10
  18  -4 -12  227.68   15.80
 -18   4  12  205.58   13.50
  18   4 -12  212.08   14.50
  18   4 -12  196.88   18.50
 -18   4  12  223.88   15.50
  16  -4 -12  264.67   18.60
  16  -4 -12  245.68   15.40
 -16   4  12  222.48   12.70
 -16   4  12  235.78   13.60
  16   4 -12  242.38   13.80
  16   4 -12  223.88   18.40
  14  -4 -12  337.57   17.30
  14  -4 -12  298.87   20.00
  14   4 -12  313.27   14.40
 -14   4  12  301.87   13.40
  14   4 -12  308.07   16.90
  14   4 -12  294.67   19.70
 -14   4  12  302.37   13.40
  14   4 -12  323.57   16.40
  12  -4 -12  398.96   22.90
  12  -4 -12  331.07   20.90
  12  -4 -12  359.06   17.70
  12   4 -12  357.96   14.20
  12   4 -12  371.56   17.50
  12   4 -12  360.06   17.80
  12   4 -12  369.26   21.10
  10  -4 -12  309.67   16.20
  10  -4 -12  313.77   19.70
  10  -4 -12  347.87   21.20
  10   4 -12  288.57   18.00
  10   4 -12  322.17   16.20
   8  -4 -12  297.77   19.50
   8  -4 -12  279.87   18.20
   8   4 -12  291.57   15.10
   8   4 -12  272.17   16.30
   6  -4 -12  331.37   20.60
   6  -4 -12  373.66   22.80
   6   4 -12  372.26   17.90
   6   4 -12  384.86   17.80
   4  -4 -12  187.88   15.60
   4  -4 -12  193.68   16.20
   4   4 -12  178.48   11.20
   4   4 -12  167.98    9.40
   4   4 -12  191.08   12.20
   2  -4 -12  165.28   16.00
   2  -4 -12  153.98   15.00
   2   4 -12  175.28   12.30
  19  -5 -12   72.49   12.40
  19  -5 -12   57.89    9.40
 -19   5  12   53.29    8.70
  19   5 -12   72.29   10.40
  19   5 -12   54.09   12.10
  17  -5 -12   32.90    7.30
  17  -5 -12   37.60    9.10
 -17   5  12   47.80    9.90
  17   5 -12   35.20    7.50
  17   5 -12   26.90    8.70
  17   5 -12   30.50    7.40
 -17   5  12   23.80    6.30
  15  -5 -12   20.30    6.10
  15  -5 -12   16.80    6.60
  15   5 -12   32.40    6.10
  15   5 -12   19.40    5.70
 -15   5  12    9.40    5.20
  15   5 -12   22.50    5.40
 -15   5  12   14.50    6.90
  15   5 -12   18.50    7.30
  13  -5 -12   26.00    5.90
  13  -5 -12   24.50    7.10
 -13   5  12   27.40    5.40
  13   5 -12   32.00    6.20
  13   5 -12   25.90    7.50
  13   5 -12   20.40    5.10
 -13   5  12   23.30    6.10
  13   5 -12   27.30    5.20
  11  -5 -12   58.19   10.50
  11  -5 -12   65.19    8.60
  11  -5 -12   59.29    9.70
  11   5 -12   61.49    7.30
 -11   5  12   48.20    6.50
  11   5 -12   54.69    6.70
 -11   5  12   62.19    7.20
  11   5 -12   60.69    9.70
  11   5 -12   52.69    5.60
   9  -5 -12   32.70    8.10
   9  -5 -12   37.60    8.10
   9   5 -12   38.50    5.60
   9   5 -12   37.30    7.50
  -9   5  12   28.70    5.00
  -9   5  12   38.40    5.20
   7  -5 -12   58.09   10.50
   7  -5 -12   66.59   10.80
   7   5 -12   59.89    6.50
  -7   5  12   65.99    6.30
  -7   5  12   53.19    5.90
   7   5 -12   62.49    8.20
   5  -5 -12   21.40    7.50
   5  -5 -12   26.50    7.90
   5   5 -12   15.50    5.30
   5   5 -12   31.10    5.30
   5   5 -12   26.90    4.10
   3  -5 -12   11.30    7.10
   3  -5 -12   16.40    7.40
   3   5 -12   20.20    5.20
  16  -6 -12  455.85   27.40
  16  -6 -12  466.45   24.20
  16   6 -12  491.05   23.10
  16   6 -12  489.55   28.80
  16   6 -12  529.45   21.60
 -16   6  12  503.85   23.60
  14  -6 -12  655.13   33.00
  14  -6 -12  713.93   30.00
 -14   6  12  635.24   27.40
  14   6 -12  645.04   26.40
  14   6 -12  631.24   32.70
 -14   6  12  676.83   29.40
  14   6 -12  735.73   25.50
  12  -6 -12  561.84   28.90
  12  -6 -12  523.15   28.30
  12  -6 -12  520.55   24.60
  12   6 -12  559.74   19.90
 -12   6  12  486.55   22.80
  12   6 -12  486.45   26.50
  12   6 -12  551.94   20.40
  12   6 -12  515.85   20.60
 -12   6  12  496.35   23.70
  10  -6 -12  530.25   28.40
  10  -6 -12  521.15   27.90
  10   6 -12  494.65   18.90
  10   6 -12  589.94   20.30
 -10   6  12  500.25   22.30
  10   6 -12  544.25   19.80
 -10   6  12  506.95   22.90
  10   6 -12  495.45   25.40
   8  -6 -12  520.25   28.20
   8  -6 -12  490.95   27.20
   8   6 -12  484.95   17.60
   8   6 -12  516.25   24.10
  -8   6  12  529.65   22.30
   8   6 -12  564.14   22.80
   8   6 -12  536.25   19.60
   8   6 -12  521.75   17.80
   6  -6 -12  498.15   27.30
   6  -6 -12  478.55   27.10
  -6   6  12  466.55   20.70
   6   6 -12  485.95   19.00
   6   6 -12  481.65   21.10
   4  -6 -12  350.76   23.40
   4  -6 -12  352.76   23.00
  -4   6  12  348.47   17.60
   4   6 -12  375.56   16.30
   4   6 -12  375.36   14.80
  15  -7 -12  355.46   20.60
  15  -7 -12  317.57   22.90
  15   7 -12  311.07   23.80
  15   7 -12  355.66   19.50
  15   7 -12  391.36   14.90
 -15   7  12  355.86   20.20
  13  -7 -12  346.77   23.00
  13  -7 -12  304.77   22.00
 -13   7  12  360.46   19.70
  13   7 -12  335.67   22.70
  13   7 -12  355.56   12.90
  13   7 -12  323.27   17.30
  11  -7 -12  251.17   19.30
  11  -7 -12  214.88   18.50
 -11   7  12  193.08   15.10
  11   7 -12  224.58   12.50
  11   7 -12  222.38   17.10
   9  -7 -12  228.58   18.70
   9  -7 -12  234.38   18.70
   9   7 -12  238.78   16.60
   9   7 -12  231.28   11.60
  -9   7  12  232.48   16.00
   9   7 -12  234.08    9.30
   7  -7 -12  141.39   15.60
   7  -7 -12  152.98   15.90
   7   7 -12  153.38    7.90
  -7   7  12  134.39   13.50
   7   7 -12  147.39    8.90
   7   7 -12  152.18   12.90
  20   0 -13    6.40    7.00
  20   0 -13    0.00    5.40
  18   0 -13   -1.70    5.70
  18   0 -13   -0.80    4.50
  16   0 -13   -1.30    5.30
  16   0 -13    3.10    3.80
  14   0 -13    9.70    5.70
  14   0 -13    1.10    3.20
  12   0 -13   -2.60    2.90
  12   0 -13    2.40    4.50
  12   0 -13   -1.80    4.30
  10   0 -13    6.70    3.00
  10   0 -13   -1.00    4.40
  10   0 -13    2.10    4.40
   8   0 -13    7.10    5.30
   8   0 -13   -2.30    3.70
   8   0 -13   -3.80    4.20
   6   0 -13    2.70    4.50
   6   0 -13    0.20    4.90
   6   0 -13   -3.90    4.30
   4   0 -13   -4.70    4.60
   4   0 -13   -2.50    5.00
   4   0 -13   10.50    5.70
   2   0 -13   -0.70    5.80
   2   0 -13    7.20    5.90
  21  -1 -13  607.04   28.50
  21  -1 -13  568.24   32.60
  21   1 -13  571.74   32.70
  21   1 -13  627.24   28.30
  19  -1 -13  438.76   22.10
  19  -1 -13  444.46   26.80
  19   1 -13  420.56   26.30
  19   1 -13  413.36   20.90
  17  -1 -13  302.77   16.40
  17  -1 -13  269.67   20.10
  17   1 -13  309.97   16.10
  17   1 -13  307.07   21.30
  15  -1 -13  354.66   17.30
  15  -1 -13  374.46   22.40
  15   1 -13  368.96   16.60
  15   1 -13  378.76   22.70
  13  -1 -13  455.95   19.30
  13  -1 -13  483.55   25.60
  13  -1 -13  473.45   25.30
  13   1 -13  464.05   25.00
  13   1 -13  482.65   18.40
  13   1 -13  459.35   24.20
  11  -1 -13  660.43   30.50
  11  -1 -13  621.44   30.80
  11  -1 -13  673.63   24.30
  11   1 -13  667.03   30.20
  11   1 -13  657.23   29.90
  11   1 -13  672.23   22.50
   9  -1 -13  381.86   20.90
   9  -1 -13  349.27   21.40
   9   1 -13  354.06   20.40
   9   1 -13  353.66   20.00
   7  -1 -13  218.68   16.70
   7  -1 -13  197.08   12.90
   7  -1 -13  228.28   15.60
   7   1 -13  192.38   10.40
   7   1 -13  206.68   14.60
   7   1 -13  216.48   15.50
   5  -1 -13  152.08   12.70
   5  -1 -13  169.48   13.40
   5  -1 -13  177.48   15.50
   5   1 -13  179.58   12.70
   5   1 -13  145.39   10.20
   5   1 -13  158.18   13.60
   3  -1 -13  194.58   14.70
   3  -1 -13  161.88   15.60
   3   1 -13  172.28   13.10
   3   1 -13  159.28   14.10
  20  -2 -13  328.87   23.80
  20  -2 -13  370.46   20.70
  20   2 -13  325.07   23.90
  20   2 -13  324.17   19.10
  18  -2 -13  454.95   22.10
  18  -2 -13  492.95   27.40
  18   2 -13  458.95   21.10
  18   2 -13  400.56   25.60
  16  -2 -13  336.97   17.20
  16  -2 -13  303.37   20.90
  16   2 -13  309.87   21.30
  16   2 -13  315.57   15.50
  14  -2 -13  683.53   27.00
  14  -2 -13  700.73   33.00
  14   2 -13  681.03   32.40
  14   2 -13  703.63   24.90
  14   2 -13  698.63   30.90
  12  -2 -13  603.54   30.10
  12  -2 -13  613.64   29.90
  12  -2 -13  609.94   24.00
  12   2 -13  628.14   21.10
  12   2 -13  619.54   28.10
  12   2 -13  590.24   28.60
  10  -2 -13  262.97   17.70
  10  -2 -13  259.17   18.40
  10   2 -13  253.77    9.80
  10   2 -13  246.08   16.30
  10   2 -13  258.47   16.80
   8  -2 -13  489.45   25.10
   8  -2 -13  520.15   27.10
   8  -2 -13  468.65   21.90
   8   2 -13  506.15   23.90
   8   2 -13  501.35   24.30
   6  -2 -13  380.46   21.40
   6  -2 -13  362.96   19.70
   6  -2 -13  416.56   24.40
   6   2 -13  422.56   21.60
   6   2 -13  381.16   14.90
   6   2 -13  393.96   19.70
   4  -2 -13  247.58   18.90
   4  -2 -13  251.57   17.30
   4   2 -13  253.87   14.80
   4   2 -13  250.27   16.60
   2  -2 -13  255.77   17.40
   2  -2 -13  206.28   18.30
   2   2 -13  241.08   14.00
   2   2 -13  213.68   16.20
  19  -3 -13   50.79    8.60
  19  -3 -13   51.39   10.30
  19   3 -13   59.99   11.80
  19   3 -13   74.79    9.20
  17  -3 -13   22.70    6.40
  17  -3 -13   29.40    8.10
  17   3 -13   16.10    7.80
  17   3 -13   19.70    5.40
  15  -3 -13   45.20    7.30
  15  -3 -13   24.60    7.70
  15   3 -13   39.10    7.80
  15   3 -13   44.00    6.00
  15   3 -13   51.19    9.90
  13  -3 -13   12.70    6.20
  13  -3 -13    6.60    5.30
  13  -3 -13    4.90    4.00
  13   3 -13    5.20    3.30
  13   3 -13    1.90    5.80
  13   3 -13    6.70    4.60
  11  -3 -13    5.70    5.20
  11  -3 -13    2.60    3.80
  11  -3 -13   -2.30    4.80
  11   3 -13   -5.40    4.20
  11   3 -13    5.40    5.40
   9  -3 -13   23.40    7.40
   9  -3 -13   21.20    7.00
   9   3 -13   29.60    6.50
   9   3 -13   29.60    6.90
   7  -3 -13   20.40    6.30
   7  -3 -13   15.70    6.60
   7   3 -13    9.60    5.20
   7   3 -13    9.70    5.00
   5  -3 -13    6.50    5.80
   5  -3 -13    3.50    6.20
   5   3 -13   -2.90    4.30
   5   3 -13    0.90    4.80
   3  -3 -13    7.90    7.00
   3  -3 -13    1.30    6.20
   3   3 -13    1.70    5.00
   3   3 -13    3.30    4.80
  18  -4 -13  347.37   20.00
  18  -4 -13  332.87   23.00
  18   4 -13  354.46   24.40
 -18   4  13  327.67   15.40
  18   4 -13  380.66   19.20
  16  -4 -13  386.46   24.60
  16  -4 -13  389.66   20.40
  16   4 -13  397.76   24.60
  16   4 -13  394.96   18.10
  14  -4 -13  343.67   18.10
  14  -4 -13  341.07   21.60
  14   4 -13  311.87   20.70
  14   4 -13  340.27   14.90
  14   4 -13  340.17   18.20
  12  -4 -13  553.84   29.10
  12  -4 -13  484.25   27.20
  12  -4 -13  550.64   23.60
  12   4 -13  563.74   18.60
  12   4 -13  534.55   23.60
  12   4 -13  526.55   26.70
  10  -4 -13  670.53   32.30
  10  -4 -13  756.42   34.20
  10   4 -13  620.24   26.90
  10   4 -13  654.83   29.70
   8  -4 -13  446.26   24.80
   8  -4 -13  445.76   25.40
   8   4 -13  403.26   20.80
   8   4 -13  425.96   20.10
   6  -4 -13  309.97   21.60
   6  -4 -13  294.47   20.10
   6   4 -13  328.77   16.90
   6   4 -13  302.17   16.40
   4  -4 -13  277.47   19.90
   4  -4 -13  273.37   20.80
   4   4 -13  315.87   14.90
   4   4 -13  279.67   16.10
  17  -5 -13  390.16   24.90
  17  -5 -13  435.86   22.30
 -17   5  13  384.06   18.50
  17   5 -13  372.66   25.70
  17   5 -13  383.96   19.60
  15  -5 -13  525.45   29.70
  15  -5 -13  577.14   26.10
  15   5 -13  586.14   24.50
  15   5 -13  534.65   29.50
  15   5 -13  556.04   22.70
 -15   5  13  551.84   21.50
  13  -5 -13  533.05   29.00
  13  -5 -13  483.25   27.60
  13  -5 -13  555.94   24.60
  13   5 -13  531.25   22.70
  13   5 -13  517.85   27.50
  13   5 -13  540.55   22.60
  13   5 -13  517.65   19.60
 -13   5  13  500.45   18.20
  11  -5 -13  292.97   20.50
  11  -5 -13  288.67   21.00
  11   5 -13  324.57   16.90
  11   5 -13  309.17   19.30
  11   5 -13  303.27   15.60
   9  -5 -13  367.06   23.20
   9  -5 -13  347.97   22.10
   9   5 -13  334.57   16.50
   9   5 -13  320.07   18.90
   7  -5 -13  388.76   25.10
   7  -5 -13  411.46   24.90
   7   5 -13  400.96   18.40
   7   5 -13  425.26   20.30
   5  -5 -13  361.66   25.10
   5  -5 -13  414.36   25.10
   5   5 -13  445.46   19.60
   5   5 -13  435.96   18.70
  14  -6 -13   42.10    8.20
  14  -6 -13   32.60    9.40
  14  -6 -13   39.60    9.50
  14   6 -13   39.30    6.70
  14   6 -13   36.60    6.30
  14   6 -13   28.80    9.40
 -14   6  13   36.50    7.30
  12  -6 -13    8.40    7.00
  12  -6 -13   18.40    7.50
  12   6 -13   18.20    4.90
 -12   6  13   14.70    5.90
  12   6 -13   24.30    5.30
  12   6 -13   12.20    7.40
  10  -6 -13   23.50    7.90
  10  -6 -13   20.70    8.20
  10   6 -13   26.30    5.10
  10   6 -13   29.10    7.80
 -10   6  13   20.70    5.80
   8  -6 -13   49.60   10.70
   8  -6 -13   65.89   11.40
   8   6 -13   60.09    8.90
   8   6 -13   59.99    7.10
  20   0 -14  545.45   32.80
  20   0 -14  626.74   27.50
  18   0 -14  252.07   20.50
  18   0 -14  257.97   15.40
  16   0 -14  553.74   22.70
  16   0 -14  517.75   29.10
  14   0 -14  650.23   31.70
  14   0 -14  659.23   31.90
  14   0 -14  653.33   24.60
  12   0 -14  628.84   31.20
  12   0 -14  659.53   31.30
  12   0 -14  672.63   23.90
  10   0 -14 1321.97   50.59
  10   0 -14 1249.28   48.50
   8   0 -14  689.03   31.10
   8   0 -14  650.43   26.10
   8   0 -14  748.73   33.70
   6   0 -14  330.17   21.40
   6   0 -14  323.57   19.30
  19  -1 -14   99.29   14.70
  19  -1 -14  129.99   12.30
  19   1 -14  136.89   16.40
  19   1 -14  146.59   12.30
  17  -1 -14  179.48   12.40
  17  -1 -14  177.28   16.40
  17   1 -14  146.19   11.40
  17   1 -14  150.28   16.30
  15  -1 -14  133.89   14.60
  15  -1 -14  144.29   10.70
  15  -1 -14  136.69   14.80
  15   1 -14  149.69   14.70
  15   1 -14  151.88   10.20
  15   1 -14  156.48   14.70
  13  -1 -14  135.99   14.40
  13  -1 -14  172.98   15.70
  13  -1 -14  154.58   10.40
  13   1 -14  171.68   14.80
  13   1 -14  173.98    9.80
  13   1 -14  163.98   15.00
  11  -1 -14   76.49   11.60
  11  -1 -14   84.39    7.90
  11  -1 -14   82.39   11.70
  11   1 -14   90.49   11.40
  11   1 -14   80.69   11.30
  11   1 -14   99.59    7.00
   9  -1 -14   40.80    8.90
   9  -1 -14   25.80    7.60
   9   1 -14   20.80    6.70
   7  -1 -14   54.89   10.40
   7  -1 -14   46.70    9.00
   7   1 -14   77.59   11.30
   7   1 -14   53.49    8.60
   5  -1 -14   71.79   10.90
   5  -1 -14   87.79   13.20
   5   1 -14   89.49   12.60
   5   1 -14  110.59   11.70
  18  -2 -14   96.69   13.70
  18  -2 -14  123.79   11.70
  18   2 -14  115.19   15.80
  18   2 -14  104.09   10.30
  16  -2 -14   80.49   12.20
  16  -2 -14   85.89    9.40
  16   2 -14   71.19    8.40
  16   2 -14   82.69   12.50
  16   2 -14   84.89   11.90
  14  -2 -14  105.59   13.00
  14  -2 -14   83.69   12.20
  14  -2 -14   84.09    8.90
  14   2 -14   91.49   12.60
  14   2 -14   73.39   10.90
  14   2 -14   96.79    7.80
  12  -2 -14  172.48   11.40
  12  -2 -14  211.98   16.60
  12  -2 -14  202.28   17.10
  12   2 -14  162.58   14.70
  12   2 -14  190.48    9.10
  12   2 -14  179.78   14.80
  10  -2 -14   85.49   12.70
  10  -2 -14  127.19   13.60
  10   2 -14  104.49   11.60
  10   2 -14  112.19   12.10
   8  -2 -14    5.30    5.70
   8  -2 -14    7.70    6.40
   8   2 -14    9.70    6.10
   8   2 -14   10.10    5.60
   6  -2 -14   39.00    9.00
   6  -2 -14   35.80    9.40
   6   2 -14   40.10    8.70
   6   2 -14   33.20    7.20
  17  -3 -14  617.64   27.30
  17  -3 -14  576.44   32.10
  17   3 -14  637.34   33.40
  17   3 -14  657.63   25.50
  15  -3 -14  597.64   31.40
  15  -3 -14  581.74   31.50
  15  -3 -14  599.64   25.60
  15   3 -14  611.54   22.70
  15   3 -14  589.94   30.90
  15   3 -14  600.74   28.30
  13  -3 -14  478.05   27.80
  13  -3 -14  499.85   22.20
  13  -3 -14  511.25   27.80
  13   3 -14  485.75   26.70
  13   3 -14  486.15   24.40
  13   3 -14  515.75   18.00
  11  -3 -14  501.95   27.90
  11  -3 -14  547.05   29.50
  11   3 -14  575.94   26.10
  11   3 -14  506.55   26.50
   9  -3 -14  433.36   24.60
   9  -3 -14  407.36   25.60
   9   3 -14  449.36   22.90
   9   3 -14  426.56   22.20
   7  -3 -14  311.57   20.50
   7  -3 -14  243.78   20.70
   7   3 -14  286.87   17.70
   7   3 -14  295.97   17.50
  16  -4 -14  174.08   17.00
  16  -4 -14  180.18   13.90
  16   4 -14  181.78   14.20
  16   4 -14  170.78   11.60
  16   4 -14  170.78   17.30
  14  -4 -14  174.18   17.10
  14  -4 -14  219.48   18.50
  14  -4 -14  227.08   14.80
  14   4 -14  212.08   14.70
  14   4 -14  183.58   17.50
  14   4 -14  214.38   10.90
  12  -4 -14  121.79   14.70
  12  -4 -14  121.69   14.30
  12   4 -14  104.29   13.30
  12   4 -14  134.59   11.60
  10  -4 -14  180.18   16.60
  10  -4 -14  174.58   17.10
  10   4 -14  162.58   14.30
  10   4 -14  163.78   12.80
   8  -4 -14  215.18   17.80
   8   4 -14  227.28   14.50
   8   4 -14  204.88   15.30
  13  -5 -14    7.80    7.30
  13  -5 -14   12.80    7.70
  13   5 -14   20.50    8.60
  13   5 -14    7.90    5.40
  11  -5 -14   36.70   10.40
  11  -5 -14   27.60    9.00
  11   5 -14   44.60    9.70
  11   5 -14   47.00    7.50
  16   0 -15    0.20    4.70
  16   0 -15   -2.20    6.60
  16   0 -15   -9.50    6.50
  14   0 -15   -0.40    4.20
  14   0 -15    5.20    6.70
  14   0 -15   14.00    7.10
  12   0 -15   11.80    6.90
  12   0 -15    4.40    6.90
  10   0 -15   -7.00    6.20
  10   0 -15   -2.30    6.70
  17  -1 -15  286.17   21.70
  17  -1 -15  310.37   22.20
  17  -1 -15  283.67   16.50
  17   1 -15  307.67   21.70
  17   1 -15  262.67   21.30
  17   1 -15  292.97   15.90
  15  -1 -15  266.97   15.50
  15  -1 -15  303.67   22.10
  15  -1 -15  313.67   22.40
  15   1 -15  293.97   14.80
  15   1 -15  315.77   21.50
  15   1 -15  318.27   21.70
  13  -1 -15  221.58   18.80
  13  -1 -15  229.88   18.90
  13  -1 -15  205.48   12.80
  13   1 -15  209.38   17.50
  13   1 -15  211.68   18.10
  13   1 -15  234.08   11.60
  11  -1 -15  275.57   19.90
  11  -1 -15  250.17   19.80
  11   1 -15  254.97   19.20
  11   1 -15  253.07   18.90
   9  -1 -15  284.17   20.00
   9  -1 -15  267.87   21.20
   9   1 -15  291.07   19.20
   9   1 -15  294.87   20.20
  16  -2 -15  393.16   25.70
  16  -2 -15  384.26   19.70
  16  -2 -15  373.56   25.10
  16   2 -15  379.56   23.50
  16   2 -15  412.56   17.80
  16   2 -15  436.86   26.30
  14  -2 -15  246.78   19.50
  14  -2 -15  238.58   14.60
  14  -2 -15  228.68   19.80
  14   2 -15  261.37   12.30
  14   2 -15  266.27   20.10
  14   2 -15  239.48   18.20
  12  -2 -15  345.57   23.70
  12  -2 -15  326.87   22.50
  12   2 -15  354.16   22.50
  12   2 -15  359.56   21.80
  10  -2 -15  318.27   22.80
  10  -2 -15  297.07   21.30
  10   2 -15  319.67   20.50
  10   2 -15  294.87   19.90
   0   0   0    0.00    0.00

_computing_structure_solution     'SHELXT 2014/5 (Sheldrick, 2014)'
;
_shelx_hkl_checksum              35831
loop_
_space_group_symop_operation_xyz
'x, y, z'
'-x, y, -z+1/2'
'x+1/2, y+1/2, z'
'-x+1/2, y+1/2, -z+1/2'
'-x, -y, -z'
'x, -y, z-1/2'
'-x+1/2, -y+1/2, -z'
'x+1/2, -y+1/2, z-1/2'
loop_
_atom_site_label
_atom_site_type_symbol
_atom_site_fract_x
_atom_site_fract_y
_atom_site_fract_z
_atom_site_U_iso_or_equiv
_atom_site_adp_type
_atom_site_occupancy
_atom_site_site_symmetry_order
_atom_site_calc_flag
_atom_site_refinement_flags_posn
_atom_site_refinement_flags_adp
_atom_site_refinement_flags_occupancy
_atom_site_disorder_assembly
_atom_site_disorder_group
Tm1 Tm 0.5000 -0.16000(2) 0.7500 0.01908(8) Uani 1 2 d S T P . .
N1 N 0.5000 0.5773(4) 0.7500 0.0175(6) Uani 1 2 d S T P . .
N2 N 0.58985(17) 0.7344(3) 0.6778(3) 0.0232(5) Uani 1 1 d . . . . .
O1 O 0.48383(18) 0.0608(2) 0.8268(3) 0.0324(5) Uani 1 1 d . . . . .
O2 O 0.39708(19) -0.2272(3) 0.5143(3) 0.0462(7) Uani 1 1 d . . . . .
O3 O 0.3381(2) -0.0794(3) 0.5827(3) 0.0492(7) Uani 1 1 d . . . . .
C1 C 0.54529(18) 0.5051(3) 0.7091(3) 0.0196(5) Uani 1 1 d . . . . .
C2 C 0.5000 0.1249(5) 0.7500 0.0275(9) Uani 1 2 d S T P . .
C3 C 0.5000 0.2847(4) 0.7500 0.0215(8) Uani 1 2 d S T P . .
C4 C 0.59579(19) 0.5929(3) 0.6692(3) 0.0201(5) Uani 1 1 d . . . . .
C5 C 0.5447(2) 0.3579(3) 0.7036(3) 0.0225(6) Uani 1 1 d . . . . .
C6 C 0.3350(3) -0.1561(3) 0.4948(4) 0.0334(8) Uani 1 1 d . . . . .
C7 C 0.6341(3) 0.8196(3) 0.6430(4) 0.0309(7) Uani 1 1 d . . . . .
C8 C 0.6474(2) 0.5334(3) 0.6285(3) 0.0278(6) Uani 1 1 d . . . . .
C9 C 0.6950(3) 0.6213(4) 0.5962(4) 0.0338(7) Uani 1 1 d . . . . .
C10 C 0.6873(2) 0.7673(4) 0.6021(4) 0.0340(7) Uani 1 1 d . . . . .
loop_
_atom_site_aniso_label
_atom_site_aniso_U_11
_atom_site_aniso_U_22
_atom_site_aniso_U_33
_atom_site_aniso_U_23
_atom_site_aniso_U_13
_atom_site_aniso_U_12
Tm1 0.02763(11) 0.00768(10) 0.02819(11) 0.000 0.01971(9) 0.000
N1 0.0224(15) 0.0107(15) 0.0230(15) 0.000 0.0151(13) 0.000
N2 0.0287(12) 0.0142(12) 0.0348(13) 0.0001(10) 0.0231(11) -0.0001(9)
O1 0.0568(15) 0.0116(10) 0.0463(13) -0.0012(9) 0.0398(12) -0.0004(9)
O2 0.0440(15) 0.0401(16) 0.0412(14) -0.0078(12) 0.0169(12) 0.0047(12)
O3 0.0467(15) 0.0506(17) 0.0525(16) 0.0010(13) 0.0299(13) 0.0126(13)
C1 0.0230(12) 0.0126(13) 0.0233(12) -0.0005(10) 0.0133(10) -0.0004(10)
C2 0.035(2) 0.0160(19) 0.034(2) 0.000 0.0213(19) 0.000
C3 0.0286(19) 0.0108(19) 0.0253(18) 0.000 0.0157(16) 0.000
C4 0.0229(13) 0.0146(13) 0.0231(12) 0.0010(10) 0.0134(11) -0.0002(10)
C5 0.0281(14) 0.0130(13) 0.0292(14) -0.0005(10) 0.0183(13) 0.0005(10)
C6 0.0370(19) 0.0284(19) 0.0320(17) 0.0014(12) 0.0183(15) 0.0014(12)
C7 0.0410(18) 0.0156(14) 0.050(2) 0.0030(13) 0.0343(17) -0.0032(13)
C8 0.0355(16) 0.0199(14) 0.0363(15) -0.0002(12) 0.0254(14) 0.0049(12)
C9 0.0397(18) 0.0315(17) 0.0442(18) 0.0025(15) 0.0323(16) 0.0044(15)
C10 0.0422(18) 0.0265(17) 0.0479(19) 0.0034(14) 0.0345(16) -0.0004(14)
loop_
_atom_type_symbol
_atom_type_description
_atom_type_scat_dispersion_real
_atom_type_scat_dispersion_imag
_atom_type_scat_source
C C 0.0033 0.0016 'International Tables Vol C Tables 4.2.6.8 and 6.1.1.4'
N N 0.0061 0.0033 'International Tables Vol C Tables 4.2.6.8 and 6.1.1.4'
O O 0.0106 0.0060 'International Tables Vol C Tables 4.2.6.8 and 6.1.1.4'
Tm Tm -0.3139 5.2483 'International Tables Vol C Tables 4.2.6.8 and 6.1.1.4'
loop_
_geom_angle_atom_site_label_1
_geom_angle_atom_site_label_2
_geom_angle_atom_site_label_3
_geom_angle
_geom_angle_site_symmetry_1
_geom_angle_site_symmetry_3
_geom_angle_publ_flag
O1 Tm1 O1 55.89(11) 2_656 . ?
O1 Tm1 O2 87.99(10) 2_656 . ?
O1 Tm1 O2 120.31(9) . . ?
O1 Tm1 O2 120.30(9) 2_656 2_656 ?
O1 Tm1 O2 87.98(10) . 2_656 ?
O2 Tm1 O2 149.18(14) . 2_656 ?
O1 Tm1 N2 138.81(8) 2_656 2_646 ?
O1 Tm1 N2 88.38(8) . 2_646 ?
O2 Tm1 N2 94.81(10) . 2_646 ?
O2 Tm1 N2 72.44(9) 2_656 2_646 ?
O1 Tm1 N2 88.38(8) 2_656 1_545 ?
O1 Tm1 N2 138.81(8) . 1_545 ?
O2 Tm1 N2 72.44(9) . 1_545 ?
O2 Tm1 N2 94.81(10) 2_656 1_545 ?
N2 Tm1 N2 131.60(12) 2_646 1_545 ?
O1 Tm1 N1 152.06(5) 2_656 1_545 ?
O1 Tm1 N1 152.05(5) . 1_545 ?
O2 Tm1 N1 74.59(7) . 1_545 ?
O2 Tm1 N1 74.59(7) 2_656 1_545 ?
N2 Tm1 N1 65.80(6) 2_646 1_545 ?
N2 Tm1 N1 65.80(6) 1_545 1_545 ?
O1 Tm1 O3 76.67(10) 2_656 . ?
O1 Tm1 O3 72.26(10) . . ?
O2 Tm1 O3 52.54(10) . . ?
O2 Tm1 O3 140.28(10) 2_656 . ?
N2 Tm1 O3 72.88(10) 2_646 . ?
N2 Tm1 O3 122.87(9) 1_545 . ?
N1 Tm1 O3 107.63(8) 1_545 . ?
O1 Tm1 O3 72.26(10) 2_656 2_656 ?
O1 Tm1 O3 76.68(10) . 2_656 ?
O2 Tm1 O3 140.28(10) . 2_656 ?
O2 Tm1 O3 52.54(10) 2_656 2_656 ?
N2 Tm1 O3 122.87(9) 2_646 2_656 ?
N2 Tm1 O3 72.88(10) 1_545 2_656 ?
N1 Tm1 O3 107.63(8) 1_545 2_656 ?
O3 Tm1 O3 144.74(15) . 2_656 ?
O1 Tm1 C2 27.94(5) 2_656 . ?
O1 Tm1 C2 27.95(5) . . ?
O2 Tm1 C2 105.41(7) . . ?
O2 Tm1 C2 105.41(7) 2_656 . ?
N2 Tm1 C2 114.20(6) 2_646 . ?
N2 Tm1 C2 114.20(6) 1_545 . ?
N1 Tm1 C2 180.0 1_545 . ?
O3 Tm1 C2 72.37(8) . . ?
O3 Tm1 C2 72.37(8) 2_656 . ?
O1 Tm1 C6 81.72(9) 2_656 . ?
O1 Tm1 C6 96.93(9) . . ?
O2 Tm1 C6 25.74(10) . . ?
O2 Tm1 C6 155.20(11) 2_656 . ?
N2 Tm1 C6 83.38(10) 2_646 . ?
N2 Tm1 C6 97.25(10) 1_545 . ?
N1 Tm1 C6 90.76(6) 1_545 . ?
O3 Tm1 C6 26.80(10) . . ?
O3 Tm1 C6 152.20(10) 2_656 . ?
C2 Tm1 C6 89.24(6) . . ?
O1 Tm1 C6 96.93(10) 2_656 2_656 ?
O1 Tm1 C6 81.72(10) . 2_656 ?
O2 Tm1 C6 155.20(11) . 2_656 ?
O2 Tm1 C6 25.74(10) 2_656 2_656 ?
N2 Tm1 C6 97.25(10) 2_646 2_656 ?
N2 Tm1 C6 83.38(10) 1_545 2_656 ?
N1 Tm1 C6 90.76(6) 1_545 2_656 ?
O3 Tm1 C6 152.20(10) . 2_656 ?
O3 Tm1 C6 26.80(10) 2_656 2_656 ?
C2 Tm1 C6 89.24(6) . 2_656 ?
C6 Tm1 C6 178.49(13) . 2_656 ?
C1 N1 C1 119.2(3) . 2_656 ?
C1 N1 Tm1 120.41(17) . 1_565 ?
C1 N1 Tm1 120.41(17) 2_656 1_565 ?
C4 N2 C7 118.7(3) . . ?
C4 N2 Tm1 122.01(18) . 1_565 ?
C7 N2 Tm1 119.3(2) . 1_565 ?
C2 O1 Tm1 90.7(2) . . ?
C6 O2 Tm1 94.7(2) . . ?
C6 O3 Tm1 87.8(2) . . ?
N1 C1 C5 122.2(3) . . ?
N1 C1 C4 115.8(2) . . ?
C5 C1 C4 122.0(3) . . ?
O1 C2 O1 122.6(4) 2_656 . ?
O1 C2 C3 118.7(2) 2_656 . ?
O1 C2 C3 118.7(2) . . ?
O1 C2 Tm1 61.3(2) 2_656 . ?
O1 C2 Tm1 61.3(2) . . ?
C3 C2 Tm1 180.0 . . ?
C5 C3 C5 120.4(4) . 2_656 ?
C5 C3 C2 119.79(19) . . ?
C5 C3 C2 119.79(19) 2_656 . ?
N2 C4 C8 121.7(3) . . ?
N2 C4 C1 115.9(2) . . ?
C8 C4 C1 122.3(3) . . ?
C3 C5 C1 117.9(3) . . ?
O2 C6 O3 125.0(4) . . ?
O2 C6 Tm1 59.6(2) . . ?
O3 C6 Tm1 65.4(2) . . ?
N2 C7 C10 122.6(3) . . ?
C4 C8 C9 119.5(3) . . ?
C10 C9 C8 118.9(3) . . ?
C7 C10 C9 118.6(3) . . ?
loop_
_geom_bond_atom_site_label_1
_geom_bond_atom_site_label_2
_geom_bond_distance
_geom_bond_site_symmetry_2
_geom_bond_publ_flag
Tm1 O1 2.358(2) 2_656 ?
Tm1 O1 2.358(2) . ?
Tm1 O2 2.385(3) . ?
Tm1 O2 2.385(3) 2_656 ?
Tm1 N2 2.431(2) 2_646 ?
Tm1 N2 2.431(2) 1_545 ?
Tm1 N1 2.478(3) 1_545 ?
Tm1 O3 2.509(3) . ?
Tm1 O3 2.509(3) 2_656 ?
Tm1 C2 2.687(5) . ?
Tm1 C6 2.757(4) . ?
Tm1 C6 2.757(4) 2_656 ?
N1 C1 1.346(3) . ?
N1 C1 1.346(3) 2_656 ?
N1 Tm1 2.478(3) 1_565 ?
N2 C4 1.347(4) . ?
N2 C7 1.351(4) . ?
N2 Tm1 2.431(2) 1_565 ?
O1 C2 1.260(3) . ?
O2 C6 1.201(5) . ?
O3 C6 1.244(5) . ?
C1 C5 1.390(4) . ?
C1 C4 1.491(4) . ?
C2 O1 1.259(3) 2_656 ?
C2 C3 1.508(6) . ?
C3 C5 1.390(4) . ?
C3 C5 1.390(4) 2_656 ?
C4 C8 1.385(4) . ?
C7 C10 1.385(5) . ?
C8 C9 1.392(5) . ?
C9 C10 1.390(5) . ?
