#------------------------------------------------------------------------------
#$Date: 2021-06-04 03:58:12 +0300 (Fri, 04 Jun 2021) $
#$Revision: 265749 $
#$URL: file:///home/coder/svn-repositories/cod/cif/4/51/87/4518700.cif $
#------------------------------------------------------------------------------
#
# This file is available in the Crystallography Open Database (COD),
# http://www.crystallography.net/
#
# All data on this site have been placed in the public domain by the
# contributors.
#
data_4518700
loop_
_publ_author_name
'Pandey, Rampal'
'Singh, Durgesh'
'Thakur, Neha'
'Raj, Krishna K.'
_publ_section_title
;
 Catalytic C-H Bond Activation and Knoevenagel Condensation Using
 Pyridine-2,3-Dicarboxylate-Based Metal-Organic Frameworks.
;
_journal_issue                   20
_journal_name_full               'ACS omega'
_journal_page_first              13240
_journal_page_last               13259
_journal_paper_doi               10.1021/acsomega.1c01155
_journal_volume                  6
_journal_year                    2021
_chemical_formula_sum            'C7 H7 Cd N O6'
_chemical_formula_weight         313.54
_space_group_crystal_system      monoclinic
_space_group_IT_number           14
_space_group_name_Hall           '-P 2ybc'
_space_group_name_H-M_alt        'P 1 21/c 1'
_atom_sites_solution_hydrogens   mixed
_audit_creation_method           SHELXL-2016/6
_cell_angle_alpha                90
_cell_angle_beta                 114.849(2)
_cell_angle_gamma                90
_cell_formula_units_Z            4
_cell_length_a                   7.8597(5)
_cell_length_b                   15.9234(10)
_cell_length_c                   8.0981(5)
_cell_measurement_reflns_used    2674
_cell_measurement_temperature    130(2)
_cell_measurement_theta_max      0.28
_cell_measurement_theta_min      0.24
_cell_volume                     919.67(10)
_computing_structure_refinement  'SHELXL-2016/6 (Sheldrick, 2016)'
_computing_structure_solution    'SHELXT 2014/5 (Sheldrick, 2014)'
_diffrn_ambient_temperature      130(2)
_diffrn_measured_fraction_theta_full 0.999
_diffrn_measured_fraction_theta_max 0.998
_diffrn_measurement_device_type  'Bruker APEX-II CCD'
_diffrn_measurement_method       '\f and \w scans'
_diffrn_radiation_type           MoK\a
_diffrn_radiation_wavelength     0.71073
_diffrn_reflns_av_R_equivalents  0.0388
_diffrn_reflns_av_unetI/netI     0.0263
_diffrn_reflns_Laue_measured_fraction_full 0.999
_diffrn_reflns_Laue_measured_fraction_max 0.998
_diffrn_reflns_limit_h_max       11
_diffrn_reflns_limit_h_min       -11
_diffrn_reflns_limit_k_max       22
_diffrn_reflns_limit_k_min       -22
_diffrn_reflns_limit_l_max       11
_diffrn_reflns_limit_l_min       -11
_diffrn_reflns_number            15425
_diffrn_reflns_point_group_measured_fraction_full 0.999
_diffrn_reflns_point_group_measured_fraction_max 0.998
_diffrn_reflns_theta_full        25.242
_diffrn_reflns_theta_max         30.565
_diffrn_reflns_theta_min         3.053
_exptl_absorpt_coefficient_mu    2.383
_exptl_crystal_colour            'Dirty White'
_exptl_crystal_density_diffrn    2.264
_exptl_crystal_description       Block
_exptl_crystal_F_000             608
_refine_diff_density_max         0.475
_refine_diff_density_min         -0.960
_refine_diff_density_rms         0.140
_refine_ls_extinction_method     none
_refine_ls_goodness_of_fit_ref   1.078
_refine_ls_hydrogen_treatment    mixed
_refine_ls_matrix_type           full
_refine_ls_number_parameters     152
_refine_ls_number_reflns         2824
_refine_ls_number_restraints     0
_refine_ls_restrained_S_all      1.078
_refine_ls_R_factor_all          0.0249
_refine_ls_R_factor_gt           0.0208
_refine_ls_shift/su_max          0.002
_refine_ls_shift/su_mean         0.000
_refine_ls_structure_factor_coef Fsqd
_refine_ls_weighting_details
'w=1/[\s^2^(Fo^2^)+(0.0191P)^2^+0.7511P] where P=(Fo^2^+2Fc^2^)/3'
_refine_ls_weighting_scheme      calc
_refine_ls_wR_factor_gt          0.0462
_refine_ls_wR_factor_ref         0.0477
_reflns_Friedel_coverage         0.000
_reflns_number_gt                2585
_reflns_number_total             2824
_reflns_threshold_expression     'I > 2\s(I)'
_cod_data_source_file            ao1c01155_si_002.cif
_cod_data_source_block           2
_cod_depositor_comments
'Adding full bibliography for 4518699--4518701.cif.'
_cod_original_sg_symbol_H-M      'P 21/c'
_cod_database_code               4518700
_shelx_shelxl_version_number     2016/6
_shelx_space_group_comment
;
The symmetry employed for this shelxl refinement is uniquely defined
by the following loop, which should always be used as a source of
symmetry information in preference to the above space-group names.
They are only intended as comments.
;
_shelx_res_file
;
TITL M1_a.res in P2(1)/c
    M1_a.res
    created by SHELXL-2016/6 at 17:30:38 on 28-Mar-2021
REM Old TITL M1 in P2(1)/c
REM SHELXT solution in P2(1)/c
REM R1 0.060,  Rweak 0.003,  Alpha 0.064,  Orientation as input
REM Formula found by SHELXT:  C10 N O3 Br
CELL  0.71073   7.8597  15.9234   8.0981   90.000  114.849   90.000
ZERR   4.000   0.0005   0.0010   0.0005    0.000    0.002    0.000
LATT  1
SYMM -X, 1/2+Y, 1/2-Z
SFAC C H N O Cd
UNIT 28 28 4 24 4
TEMP -142.930
ACTA
L.S. 20
BOND $H
LIST 6
FMAP 2
PLAN 20
WGHT    0.019100    0.751100
FVAR       0.49713
CD1   5    0.649041    0.557914    0.919335    11.00000    0.00878    0.00970 =
         0.00648    0.00128    0.00381    0.00035
O3    4    0.798830    0.544334    0.737183    11.00000    0.01046    0.01725 =
         0.00986    0.00408    0.00506    0.00503
O4    4    0.795906    0.580546    0.469825    11.00000    0.01164    0.02056 =
         0.01013    0.00081    0.00709    0.00135
C6    1    0.520459    0.606164    0.512053    11.00000    0.00789    0.00685 =
         0.00805   -0.00153    0.00364   -0.00030
C5    1    0.721367    0.574785    0.576733    11.00000    0.00866    0.00746 =
         0.00893   -0.00122    0.00330    0.00003
C8    1    0.420631    0.635841    0.335139    11.00000    0.00947    0.00712 =
         0.00885   -0.00004    0.00396   -0.00022
C7    1    0.503491    0.640057    0.197612    11.00000    0.00912    0.01021 =
         0.00674    0.00147    0.00245    0.00212
C9    1    0.236674    0.664004    0.284407    11.00000    0.01069    0.01259 =
         0.00984   -0.00019    0.00305    0.00080
AFIX  43
H9    2    0.164793    0.684182    0.164645    11.00000   -1.20000
AFIX   0
C10   1    0.160641    0.662113    0.410869    11.00000    0.00826    0.01320 =
         0.01481    0.00011    0.00531    0.00144
AFIX  43
H10   2    0.036713    0.681663    0.379610    11.00000   -1.20000
AFIX   0
C11   1    0.268697    0.631138    0.584225    11.00000    0.01110    0.01183 =
         0.01324   -0.00058    0.00760   -0.00077
AFIX  43
H11   2    0.216584    0.629769    0.670898    11.00000   -1.20000
AFIX   0
N12   3    0.444316    0.603103    0.633033    11.00000    0.00907    0.00808 =
         0.00922   -0.00020    0.00468   -0.00069
O13   4    0.581181    0.706691    0.187721    11.00000    0.02421    0.00950 =
         0.01364   -0.00161    0.01192   -0.00438
O14   4    0.476911    0.577361    0.091625    11.00000    0.00959    0.00954 =
         0.00868   -0.00178    0.00429   -0.00023
O1    4    0.857871    0.511896    1.187379    11.00000    0.01015    0.02129 =
         0.00832    0.00110    0.00315    0.00501
H1A   2    0.847252    0.528885    1.273973    11.00000    0.02460
H1B   2    0.959789    0.494297    1.209097    11.00000    0.03762
O2    4    0.773908    0.693383    0.985100    11.00000    0.01698    0.01288 =
         0.01448    0.00168    0.00693   -0.00040
H2A   2    0.726199    0.700758    1.052140    11.00000    0.03973
H2B   2    0.722307    0.721984    0.890810    11.00000    0.04131
HKLF 4




REM  M1_a.res in P2(1)/c
REM R1 =  0.0208 for    2585 Fo > 4sig(Fo)  and  0.0249 for all    2824 data
REM    152 parameters refined using      0 restraints

END

WGHT      0.0140      0.6788

REM Highest difference peak  0.475,  deepest hole -0.960,  1-sigma level  0.140
Q1    1   0.4821  0.6179  0.1140  11.00000  0.05    0.48
Q2    1   0.4620  0.6335  0.2609  11.00000  0.05    0.48
Q3    1   0.4581  0.6024  0.4047  11.00000  0.05    0.47
Q4    1   0.8207  0.6483  0.8450  11.00000  0.05    0.44
Q5    1   0.5894  0.5804  0.5240  11.00000  0.05    0.44
Q6    1   0.1990  0.5494  0.6890  11.00000  0.05    0.43
Q7    1   0.5027  0.5911  0.7202  11.00000  0.05    0.42
Q8    1   0.3859  0.5498  0.1784  11.00000  0.05    0.41
Q9    1   0.3179  0.5643 -0.0776  11.00000  0.05    0.39
Q10   1   0.4863  0.5990  0.5576  11.00000  0.05    0.38
Q11   1   0.3673  0.5491  0.3070  11.00000  0.05    0.38
Q12   1   0.8176  0.4645  0.8151  11.00000  0.05    0.38
Q13   1   0.7651  0.4417  0.6996  11.00000  0.05    0.37
Q14   1   0.5171  0.5193 -0.0202  11.00000  0.05    0.37
Q15   1   0.1597  0.5670  0.1969  11.00000  0.05    0.36
Q16   1   0.1903  0.6333  0.4950  11.00000  0.05    0.36
Q17   1   0.2269  0.7555  0.3404  11.00000  0.05    0.36
Q18   1   0.7408  0.4613  0.8190  11.00000  0.05    0.36
Q19   1   0.3839  0.5405 -0.0750  11.00000  0.05    0.35
Q20   1   0.5158  0.6729  0.0346  11.00000  0.05    0.35
;
_shelx_res_checksum              26700
_shelx_hkl_file
;
   2   0   0 1766.42   67.99
   2   0   0 1752.72   68.49
  -2   0   0 1575.64   67.89
  -2   0   0 1829.92   68.49
   3   0   0   47.00    3.60
   3   0   0   45.20    4.00
  -3   0   0   40.60    3.60
  -3   0   0   45.70    4.20
  -4   0   0  539.05   24.30
   4   0   0  602.24   23.40
   4   0   0  507.75   24.00
  -4   0   0  477.85   23.00
  -5   0   0  133.99   10.00
   5   0   0  123.69    9.20
   5   0   0  137.39    8.40
  -6   0   0 1402.56   58.39
   6   0   0 1286.87   57.49
   7   0   0 1564.74   67.39
  -7   0   0 1552.54   67.89
  -8   0   0  253.97   20.30
   8   0   0  185.78   17.00
   9   0   0  243.68   21.50
 -10   0   0  688.13   40.90
  10   0   0  701.13   41.90
  -1  -1   0 1049.20   38.40
   1  -1   0  903.01   37.60
  -1  -1   0  890.81   38.40
  -1   1   0  987.30   38.20
   1   1   0 1018.80   38.40
   1   1   0  966.20   38.40
  -2  -1   0  855.11   33.40
   2  -1   0  822.62   32.40
  -2  -1   0  788.22   33.10
   2  -1   0  799.62   33.20
  -2   1   0  834.02   33.20
   2   1   0  762.32   33.10
   2   1   0  828.92   33.10
  -3  -1   0   -0.20    1.40
   3  -1   0   -1.50    1.20
  -3  -1   0    0.90    1.50
   3  -1   0   -0.50    1.20
  -3   1   0   -2.30    1.20
   3   1   0    0.30    1.40
   3   1   0   -0.10    1.30
  -4  -1   0   98.29    7.60
   4  -1   0   94.49    7.10
  -4  -1   0  102.09    6.80
   4  -1   0  116.49    6.20
   4   1   0   91.19    6.90
  -4   1   0   94.99    7.20
   4   1   0  110.49    6.80
   5  -1   0  394.36   17.20
   5  -1   0  332.17   18.50
  -5  -1   0  349.67   19.00
   5   1   0  396.16   18.10
   5   1   0  356.16   18.50
  -5   1   0  363.76   18.90
  -6  -1   0  333.47   19.00
   6  -1   0  302.57   18.00
  -6   1   0  340.27   19.10
   6   1   0  333.27   18.20
  -7  -1   0   13.90    5.90
   7  -1   0    1.10    4.60
   7  -1   0    6.70    4.10
  -7   1   0    6.60    5.60
   7   1   0    3.80    4.50
   7   1   0   15.10    4.90
   8  -1   0  262.07   19.10
  -8  -1   0  230.18   21.50
   8   1   0  250.27   18.30
  -8   1   0  277.27   21.60
   9  -1   0   33.70    9.60
   9   1   0   20.70    8.20
 -10  -1   0  -11.70   11.00
  10  -1   0   22.60   12.00
 -10   1   0  -19.20   11.20
  10   1   0    6.10   12.00
  -1  -2   0  749.82   28.90
   1  -2   0  679.13   28.50
   1  -2   0  709.53   28.90
  -1  -2   0  729.53   29.20
  -1   2   0  735.53   28.90
   1   2   0  723.43   28.90
   2  -2   0  333.67   15.20
  -2  -2   0  373.86   15.50
   2  -2   0  291.37   13.90
  -2  -2   0  347.77   15.40
   2   2   0  374.36   15.50
   2   2   0  351.16   15.30
  -2   2   0  353.86   15.10
  -3  -2   0 1056.29   42.30
   3  -2   0 1027.00   40.40
  -3  -2   0  963.40   41.90
   3  -2   0  947.21   41.90
   3   2   0 1072.69   42.00
  -3   2   0 1046.20   41.90
   3   2   0 1009.00   41.90
  -4  -2   0 1441.16   61.59
   4  -2   0 1412.76   61.89
  -4  -2   0 1515.95   62.29
   4  -2   0 1534.05   59.99
  -4   2   0 1537.85   61.89
   4   2   0 1581.64   61.79
   4   2   0 1561.84   61.99
  -5  -2   0   21.80    4.70
   5  -2   0   20.60    4.00
  -5  -2   0   21.20    4.20
   5  -2   0   23.70    3.60
   5   2   0   22.70    4.20
   5   2   0   13.00    3.10
  -6  -2   0 1418.46   63.59
   6  -2   0 1425.26   63.29
   6   2   0 1576.84   63.49
  -6   2   0 1543.05   63.69
   7  -2   0  878.71   42.10
  -7  -2   0  894.71   42.70
  -7   2   0  938.81   42.80
   7   2   0  888.11   41.60
   8  -2   0   72.79   11.30
  -8  -2   0   75.39   12.10
  -8   2   0   78.99   12.70
   8   2   0   76.79   11.80
   9  -2   0  143.59   17.90
   9   2   0  142.59   17.00
  10  -2   0  332.77   29.20
 -10  -2   0  265.67   26.10
  10   2   0  306.17   27.30
 -10   2   0  294.47   28.40
   0  -3   0   -1.50    0.60
   0   3   0   -0.20    0.80
   0   3   0    1.60    0.70
  -1  -3   0 4129.19  148.99
   1  -3   0 4026.90  149.59
   1  -3   0 3903.51  149.88
   1   3   0 3374.36  150.08
   2  -3   0 1232.08   49.70
  -2  -3   0 1200.08   49.99
  -2  -3   0 1188.08   49.60
  -2   3   0 1243.38   49.50
   2   3   0 1306.97   50.19
   2   3   0 1246.78   49.60
  -3  -3   0   14.60    2.90
   3  -3   0   11.20    2.30
  -3  -3   0   13.40    2.80
   3  -3   0   12.30    1.50
   3   3   0   18.30    3.20
  -3   3   0   10.70    2.20
   3   3   0   11.40    2.40
  -4  -3   0 1424.26   57.59
  -4  -3   0 1330.17   57.09
   4  -3   0 1387.36   54.69
   4  -3   0 1315.47   57.19
   4   3   0 1545.55   57.59
   4   3   0 1366.76   56.99
  -4   3   0 1328.77   56.89
   5  -3   0 3424.26  137.69
  -5  -3   0 3211.18  136.99
  -5  -3   0 3574.74  138.09
   5  -3   0 3307.47  134.59
   5   3   0 3783.12  137.89
   5   3   0 3361.66  137.19
  -6  -3   0 1193.48   51.99
   6  -3   0 1207.78   52.99
  -6  -3   0 1246.48   53.29
  -6   3   0 1200.68   52.59
   6   3   0 1202.98   52.29
   7  -3   0  146.69   13.20
  -7  -3   0  147.99   14.80
   7   3   0  141.19   12.20
  -7   3   0  134.69   13.70
   8  -3   0  889.41   45.10
  -8  -3   0  966.40   46.90
  -8   3   0  905.81   46.30
   8   3   0  990.40   45.10
   9  -3   0  422.66   28.40
  -9  -3   0  395.26   26.70
   9   3   0  405.26   27.30
  -9   3   0  423.26   29.20
 -10  -3   0    1.40   10.70
  10  -3   0   10.60   14.30
 -10   3   0   10.60   13.10
  10   3   0   21.10   12.80
   0  -4   0  879.21   36.70
   0  -4   0  948.21   36.30
   0   4   0  922.01   36.10
   0   4   0  879.71   36.10
  -1  -4   0 1067.19   43.80
   1  -4   0 1052.79   43.10
   1  -4   0  970.80   42.70
  -1  -4   0 1136.89   42.40
  -1  -4   0 1049.89   42.60
   1  -4   0 1108.09   43.00
   1   4   0 1141.69   44.10
  -1   4   0 1118.09   43.30
  -2  -4   0  257.47   12.30
  -2  -4   0  250.57   11.60
  -2  -4   0  258.17   10.00
   2  -4   0  241.78   11.70
   2   4   0  238.28   12.20
  -2   4   0  243.08   11.60
   2   4   0  227.38   11.50
   3  -4   0  336.97   13.60
  -3  -4   0  342.27   16.50
   3  -4   0  319.77   16.00
  -3  -4   0  340.67   16.20
   3   4   0  330.87   15.90
   3   4   0  365.06   16.80
  -3   4   0  335.47   15.80
   4  -4   0  754.22   34.80
   4  -4   0  779.42   31.80
  -4  -4   0  784.02   35.00
  -4  -4   0  773.72   35.00
   4   4   0  787.12   34.60
  -4   4   0  828.62   34.60
   4   4   0  908.91   35.70
  -5  -4   0   46.70    6.30
   5  -4   0   44.10    6.40
  -5  -4   0   51.19    7.10
   5   4   0   55.09    6.30
   5   4   0   59.39    7.10
  -5   4   0   48.90    6.60
   6  -4   0   29.40    5.90
  -6  -4   0   31.10    5.70
  -6  -4   0   24.60    6.70
  -6   4   0   36.30    6.20
   6   4   0   31.40    5.80
   6   4   0   19.80    9.80
  -7  -4   0   -3.20    5.90
   7  -4   0    4.20    5.80
   7   4   0   11.20    6.00
   7   4   0    9.60    4.80
  -7   4   0    5.80    6.00
  -8  -4   0   17.00    9.40
   8  -4   0   -4.10    6.40
   8   4   0  -10.20    7.80
  -8   4   0   10.90    9.50
   8   4   0    3.20    6.30
  -9  -4   0   32.30   13.30
   9  -4   0   32.60   11.50
  -9  -4   0   44.80    9.40
   9   4   0   30.00    9.80
  -9   4   0   32.70   10.60
 -10  -4   0   10.50   11.10
  10  -4   0   43.50   16.80
  10   4   0    6.00   17.50
 -10   4   0    0.70   13.90
   0  -5   0   -0.80    1.00
   0   5   0    1.40    0.90
   0   5   0   -0.80    1.10
  -1  -5   0 8501.45  329.67
  -2  -5   0 3012.70  112.89
  -2  -5   0 2997.80  111.39
   2  -5   0 2845.42  113.29
  -2  -5   0 2786.42  113.99
   2   5   0 2996.20  114.39
  -2   5   0 2815.32  113.09
   2   5   0 2684.53  112.99
   3  -5   0   55.99    5.20
  -3  -5   0   58.49    5.20
  -3  -5   0   50.99    5.20
  -3   5   0   51.59    4.80
   3   5   0   58.69    5.00
   3   5   0   70.69    6.20
   4  -5   0  308.87   17.00
  -4  -5   0  342.17   17.50
  -4  -5   0  336.37   17.20
  -4   5   0  327.37   16.80
   4   5   0  344.37   17.00
   4   5   0  390.76   18.50
   5  -5   0 2157.18   93.39
  -5  -5   0 2363.76   93.69
  -5  -5   0 2295.37   93.59
   5   5   0 2221.68   94.19
  -5   5   0 2340.17   93.09
   5   5   0 2351.36   93.09
   6  -5   0  899.61   42.40
  -6  -5   0  899.11   44.80
  -6  -5   0  944.21   42.00
  -6   5   0  923.31   41.80
   6   5   0  968.60   41.70
  -7  -5   0   53.19    8.90
   7   5   0   52.49    8.90
  -7   5   0   50.89    9.00
   8  -5   0  596.34   33.30
  -8  -5   0  574.44   33.40
   8   5   0  581.94   31.10
  -9  -5   0  400.86   25.70
  -9  -5   0  336.37   30.10
   9  -5   0  413.46   29.10
  -9   5   0  413.86   29.30
   9   5   0  406.26   27.20
   0  -6   0 1866.81   70.19
   0  -6   0 1694.43   70.79
   0   6   0 1832.32   70.09
   0   6   0 1740.13   70.09
  -1  -6   0 2619.14   96.49
  -1  -6   0 2400.96   98.09
   1  -6   0 2626.74   96.89
   1  -6   0 2625.34   97.19
   1  -6   0 2329.67   96.79
   1   6   0 2123.39   98.29
  -1   6   0 2574.84   97.39
   1   6   0 2489.65   96.99
   2  -6   0   11.30    1.60
  -2  -6   0   14.70    1.70
  -2  -6   0   10.40    1.90
   2  -6   0    9.60    2.10
  -2  -6   0   10.20    2.50
  -2   6   0    7.50    1.90
   2   6   0    8.60    2.00
   2   6   0   12.00    3.00
   3  -6   0 1225.18   45.60
  -3  -6   0 1178.28   48.10
   3  -6   0 1142.79   48.60
  -3  -6   0 1135.29   49.20
   3   6   0 1132.89   48.30
  -3   6   0 1123.39   48.20
   3   6   0 1253.07   50.09
  -4  -6   0  186.38   11.20
  -4  -6   0  196.78   11.90
   4  -6   0  176.88   11.20
   4   6   0  182.48   10.90
   4   6   0  196.38   12.60
  -4   6   0  172.48   10.70
   5  -6   0   22.90    5.00
  -5  -6   0   32.70    5.80
  -5  -6   0   21.80    4.90
   5   6   0   18.70    7.40
   5   6   0   26.40    4.90
  -5   6   0   24.70    4.80
  -6  -6   0  463.25   24.00
   6  -6   0  433.96   24.10
  -6  -6   0  438.26   23.50
   6   6   0  427.66   22.80
  -6   6   0  455.45   23.60
   7  -6   0  606.34   38.80
  -7  -6   0  637.34   32.20
  -7  -6   0  713.13   33.70
   7   6   0  569.84   34.10
  -7   6   0  689.13   33.20
  -8  -6   0   33.70   10.00
   8  -6   0   15.70    8.60
   8   6   0    1.20    6.20
   8   6   0   -1.10    9.80
  -9  -6   0  147.79   24.00
  -9  -6   0   84.99   12.80
   9  -6   0  117.59   20.40
   9   6   0  107.69   17.40
  -9   6   0  134.79   20.20
   0  -7   0    1.00    1.20
   0  -7   0    0.40    1.50
   0   7   0   -1.90    1.50
   0   7   0   -1.10    1.00
   1  -7   0 1987.30   79.19
  -1  -7   0 1959.80   80.29
   1  -7   0 2048.99   78.59
  -1  -7   0 2147.59   78.69
   1   7   0 1868.21   78.99
  -1   7   0 2084.19   79.59
  -1   7   0 1925.21   79.29
   2  -7   0 1434.46   59.29
  -2  -7   0 1558.24   58.09
  -2  -7   0 1499.15   60.69
   2  -7   0 1396.26   57.99
  -2   7   0 1527.85   59.59
   2   7   0 1498.25   59.39
   2   7   0 1378.56   61.19
  -3  -7   0  215.78   12.60
   3  -7   0  204.58   11.80
   3  -7   0  226.08    9.20
  -3  -7   0  221.18   11.20
   3   7   0  220.88   11.80
  -3   7   0  215.88   11.70
   3   7   0  207.38   13.30
  -4  -7   0   54.39    6.40
  -4  -7   0   52.29    5.90
   4  -7   0   42.80    6.30
   4   7   0   46.70    7.20
   4   7   0   53.39    5.80
  -4   7   0   50.29    5.70
   5  -7   0  433.26   23.10
  -5  -7   0  458.15   23.50
  -5  -7   0  442.86   22.60
   5   7   0  439.36   22.20
  -5   7   0  472.65   22.60
  -6  -7   0  183.08   14.40
   6  -7   0  194.48   14.60
  -6  -7   0  201.68   14.20
  -6   7   0  185.18   14.40
   6   7   0  216.48   13.70
   7  -7   0   22.40    7.30
  -7  -7   0   26.80    6.80
  -7  -7   0   26.60    8.00
   8  -7   0  300.27   22.80
  -8  -7   0  289.07   19.80
  -8  -7   0  326.67   23.90
  -8   7   0  293.27   24.00
   8   7   0  297.57   20.60
  -9  -7   0  144.49   24.90
  -9  -7   0   92.39   13.10
   9  -7   0  148.59   21.60
   9   7   0  124.89   17.20
  -9   7   0  103.49   16.10
   0  -8   0 5320.37  205.78
   0  -8   0 5093.09  206.68
   0   8   0 5319.77  205.78
   0   8   0 5426.96  205.78
  -1  -8   0 1188.68   43.70
   1  -8   0 1024.00   44.10
  -1  -8   0 1066.49   45.40
   1  -8   0 1033.80   43.10
  -1   8   0 1073.99   44.30
  -1   8   0 1138.29   44.60
   1   8   0 1069.99   44.10
  -2  -8   0 1309.97   54.89
   2  -8   0 1287.87   52.29
   2  -8   0 1291.67   53.19
   2   8   0 1278.47   53.39
  -2   8   0 1385.06   53.79
   3  -8   0 2361.26   97.69
  -3  -8   0 2532.55   96.29
  -3  -8   0 2395.26   98.99
  -3   8   0 2519.05   97.79
   3   8   0 2391.66   97.59
   4  -8   0 1105.19   47.50
  -4  -8   0 1106.49   48.30
  -4  -8   0 1101.69   46.20
  -4   8   0 1069.09   50.09
   4   8   0 1131.89   47.10
   5  -8   0  133.39   11.20
  -5  -8   0  139.99   11.50
  -5  -8   0  141.09   10.50
   5   8   0  127.29   10.00
  -5   8   0  134.19   10.40
  -6  -8   0  852.11   40.10
   6  -8   0  836.22   40.00
  -6  -8   0  841.72   39.00
   6   8   0  863.41   38.80
  -6   8   0  836.52   39.20
   7  -8   0 1764.62   75.19
  -7  -8   0 1672.73   74.79
  -7  -8   0 1727.93   74.19
   7   8   0 1682.13   73.69
  -7   8   0 1673.63   73.59
   8  -8   0   83.29   12.80
  -8  -8   0   69.39   13.00
  -8  -8   0   74.19   11.80
  -8   8   0   77.09   13.10
   8   8   0   47.70    9.50
  -9  -8   0  289.27   22.20
   9  -8   0  366.76   30.00
   9   8   0  311.17   24.90
  -9   8   0  327.27   29.40
   0  -9   0   -0.80    1.70
   0   9   0   -0.60    2.20
   0   9   0    2.30    1.60
   0   9   0   -0.10    1.70
  -1  -9   0  786.72   33.10
   1  -9   0  711.43   31.60
  -1   9   0  749.13   31.80
  -1   9   0  771.82   31.80
   1   9   0  729.53   31.40
   2  -9   0  229.48   11.70
   2  -9   0  233.48   11.40
  -2  -9   0  244.38   13.70
   2   9   0  225.28   12.10
  -2   9   0  242.18   12.60
  -2   9   0  245.78   12.80
   3  -9   0   97.19    5.20
  -3  -9   0   91.89    5.50
   3  -9   0   89.49    7.20
  -3  -9   0   93.29    8.30
   3   9   0   83.49    7.10
  -3   9   0   89.59    7.30
   4  -9   0    1.40    3.30
  -4  -9   0    1.60    2.70
  -4  -9   0    4.50    3.60
  -4   9   0   -2.60    2.40
   4   9   0   -1.30    2.50
   4   9   0    0.80    4.60
  -5  -9   0   10.80    4.90
   5  -9   0   14.30    4.90
  -5  -9   0   11.20    4.20
   5   9   0   12.10    4.20
   5   9   0   -1.20    6.30
  -5   9   0   11.90    4.20
  -6  -9   0   75.69   10.10
  -6  -9   0   66.89    9.50
   6  -9   0   62.49   10.50
   6   9   0   76.29    9.40
  -6   9   0   81.49   11.20
   7  -9   0   45.80    9.00
  -7  -9   0   29.40    9.20
  -7  -9   0   49.10    9.30
  -7  -9   0   57.59    9.30
   7   9   0   35.20    6.80
  -7   9   0   38.20    9.00
   8  -9   0   11.80    9.40
  -8  -9   0   -8.00   10.40
  -8   9   0    6.30    8.50
   8   9   0  -11.70    6.20
  -9  -9   0    3.10    9.40
   9  -9   0   34.10   13.50
   9   9   0   11.20   10.10
  -9   9   0   15.20   13.10
   0 -10   0 1472.25   62.69
   0  10   0 1604.44   61.89
   0  10   0 1512.15   61.69
  -1 -10   0  444.86   21.40
   1 -10   0  449.56   20.30
  -1  10   0  456.45   20.20
  -1  10   0  432.56   20.20
   1  10   0  434.76   20.00
   1  10   0  432.66   19.60
   2 -10   0  519.35   22.90
   2 -10   0  538.35   23.20
  -2 -10   0  535.05   25.60
  -2  10   0  556.54   24.50
   2  10   0  514.95   24.00
  -2  10   0  535.75   24.50
   3 -10   0 2056.89   80.69
  -3 -10   0 2095.89   84.99
   3 -10   0 1988.30   82.59
   3  10   0 2026.70   83.09
  -3  10   0 2172.48   83.39
  -3  10   0 1955.00   83.79
  -4 -10   0 1084.29   43.50
  -4 -10   0 1113.69   47.90
   4 -10   0 1014.60   45.90
   4  10   0 1057.29   46.00
  -4  10   0 1060.29   46.10
  -5 -10   0    2.30    3.80
  -5 -10   0    6.10    4.80
   5 -10   0    8.90    4.60
  -5  10   0    6.70    4.00
   5  10   0  -12.40    6.70
   5  10   0   -2.10    3.40
   6 -10   0  821.22   39.70
  -6 -10   0  883.81   36.30
  -6 -10   0  841.52   37.40
  -6 -10   0  809.42   42.80
   6  10   0  856.81   38.60
  -6  10   0  690.73   50.39
  -6  10   0  840.42   39.30
  -7 -10   0 1022.80   46.10
  -7 -10   0  992.50   48.20
  -7 -10   0  994.00   44.10
   7 -10   0 1028.40   49.00
  -7  10   0  976.30   49.99
   7  10   0 1052.39   46.60
  -8 -10   0  122.79   16.70
   8 -10   0  103.09   14.70
  -8 -10   0   91.19   12.80
  -8  10   0   61.79   14.30
   8  10   0   95.59   14.30
   9 -10   0   46.70   16.30
  -9  10   0   63.09   16.00
   9  10   0   56.89   13.30
   0 -11   0   -0.70    2.40
   0  11   0    1.60    2.20
   0  11   0    3.20    2.00
  -1 -11   0  562.44   26.50
   1 -11   0  569.44   25.40
  -1  11   0  555.74   25.10
   1  11   0  563.34   24.70
   1  11   0  551.54   25.00
  -1  11   0  567.84   25.30
   2 -11   0 1592.64   67.89
   2 -11   0 1732.33   68.99
  -2 -11   0 1744.53   71.79
  -2  11   0 1723.43   70.39
  -2  11   0 1827.42   70.39
   2  11   0 1661.13   69.69
   3 -11   0   44.30    4.00
  -3 -11   0   40.20    6.30
   3 -11   0   31.50    4.70
   3  11   0   41.80    5.70
  -3  11   0   27.90    5.20
  -3  11   0   40.80    6.00
   4 -11   0  844.32   38.00
  -4 -11   0  899.21   40.30
  -4  11   0  913.21   38.60
  -4  11   0  798.72   39.30
   4  11   0  828.02   38.00
  -5 -11   0  890.81   36.40
   5 -11   0  866.31   40.40
  -5 -11   0  943.01   42.30
  -5 -11   0  896.61   36.90
  -5  11   0  877.51   40.10
   5  11   0  858.91   39.80
  -5  11   0  842.32   41.80
   6 -11   0  296.37   20.50
  -6 -11   0  311.27   20.70
  -6 -11   0  307.57   15.80
  -6 -11   0  310.37   17.20
   6  11   0  324.87   18.80
  -6  11   0  273.77   21.30
  -6  11   0  338.07   20.30
  -7 -11   0   41.90    6.70
  -7 -11   0   50.79   10.30
   7 -11   0   39.60    9.60
  -7 -11   0   37.50    8.20
   7  11   0   44.10    8.10
  -7  11   0   38.70   10.70
  -8 -11   0  313.67   19.40
   8 -11   0  326.77   27.10
   8  11   0  318.67   22.70
  -8  11   0  320.57   27.90
   0 -12   0  230.38   13.40
   0  12   0  239.28   12.60
   0  12   0  223.18   12.50
  -1 -12   0  312.37   17.40
   1 -12   0  302.77   16.10
   1  12   0  309.17   15.60
  -1  12   0  319.27   16.30
  -1  12   0  315.97   16.00
   1  12   0  326.07   16.00
  -2 -12   0   -3.10    3.20
   2 -12   0    5.80    2.70
  -2  12   0    4.10    3.00
  -2  12   0    5.70    3.20
   2  12   0    2.70    5.10
   2  12   0    4.70    2.90
  -3 -12   0  439.66   22.70
   3 -12   0  423.26   18.60
   3 -12   0  410.96   19.30
  -3  12   0  423.36   21.60
   3  12   0  410.26   20.50
  -3  12   0  368.86   22.00
  -4 -12   0  180.38   13.50
   4 -12   0  159.08   11.50
  -4  12   0  135.49   12.50
   4  12   0  174.88   11.90
  -4  12   0  179.58   12.20
   5 -12   0   21.70    6.40
  -5 -12   0   35.10    7.70
  -5  12   0   27.30    6.30
   5  12   0   28.70    5.70
  -5  12   0   24.00    6.60
  -6 -12   0    6.30    6.40
   6 -12   0    1.80    5.90
  -6  12   0   -1.10    6.40
  -6  12   0    3.70    6.70
   6  12   0   -4.00   10.40
   6  12   0    6.50    5.10
  -7 -12   0  104.19   15.00
   7 -12   0  103.29   16.80
  -7 -12   0  126.09    9.80
   7  12   0   92.09   12.60
  -7  12   0   90.69   14.50
   8 -12   0    6.80   12.20
   8  12   0    4.00    7.20
  -8  12   0   17.60   11.60
   0 -13   0    0.00    2.70
   0  13   0    2.70    2.70
   0  13   0   -0.40    2.70
  -1 -13   0 1581.94   67.19
   1 -13   0 1517.55   65.69
  -1  13   0 1638.74   65.79
   1  13   0 1636.44   65.19
  -1  13   0 1634.54   65.79
   1  13   0 1532.75   65.39
   2 -13   0 2193.28   86.39
  -2 -13   0 2175.18   89.19
  -2  13   0 2128.69   87.29
  -2  13   0 2145.79   87.49
   2  13   0 2059.79   86.89
   3 -13   0  216.88   11.60
   3 -13   0  229.58   11.60
  -3 -13   0  225.98   15.20
  -3  13   0  223.88   14.60
   3  13   0  214.08   13.60
  -3  13   0  229.18   14.00
  -4 -13   0  327.97   19.90
   4 -13   0  315.27   16.80
   4  13   0  306.37   17.80
  -4  13   0  299.87   18.10
  -4  13   0  320.57   19.30
   5 -13   0 1110.69   49.50
  -5 -13   0 1162.58   52.59
   5  13   0 1145.89   50.09
  -5  13   0 1156.48   50.39
  -5  13   0 1059.19   51.99
   6 -13   0  544.25   29.60
  -6 -13   0  570.34   31.50
   6  13   0  562.04   28.80
  -6  13   0  519.75   31.50
  -6  13   0  560.14   30.40
   7 -13   0  108.69   16.80
  -7 -13   0  104.79   15.90
   7  13   0   94.29   13.40
  -7  13   0  109.79   16.50
   8 -13   0  743.43   41.80
   8  13   0  732.23   38.20
  -8  13   0  712.83   44.80
   0 -14   0  721.33   34.00
   0  14   0  734.03   33.10
   0  14   0  759.62   33.20
   1 -14   0  245.58   14.50
  -1 -14   0  243.38   15.50
   1  14   0  253.87   14.50
  -1  14   0  258.07   14.70
  -1  14   0  262.67   15.10
   1  14   0  239.78   14.20
  -2 -14   0   13.60    5.40
   2 -14   0   18.80    4.10
  -2  14   0   15.50    4.80
   2  14   0   15.40    4.40
   2  14   0   17.60    4.40
   3 -14   0  196.38   10.20
   3 -14   0  208.18   11.30
  -3 -14   0  200.58   14.90
  -3  14   0  191.88   13.90
  -3  14   0  213.98   13.70
   3  14   0  199.58   13.40
   4 -14   0  116.29    9.10
  -4 -14   0  111.99   12.10
  -4  14   0  113.79   12.20
  -4  14   0  103.79   11.40
   4  14   0  109.19   10.70
  -5 -14   0   15.80    7.30
   5 -14   0    9.80    5.60
  -5  14   0   18.40    7.00
   5  14   0    2.00    4.90
  -5  14   0    7.30    8.40
  -6 -14   0   80.89   13.50
   6 -14   0   63.89   10.50
  -6  14   0   64.89   12.30
  -7 -14   0   35.60   11.20
   7 -14   0    9.70   10.30
   7  14   0   29.90    8.60
  -7  14   0   33.80   12.30
   8 -14   0  -22.60   13.70
  -8  14   0   19.50   14.80
   8  14   0    1.70   10.10
   0 -15   0    2.80    4.00
   0  15   0    5.50    4.20
  -1 -15   0  500.15   26.10
   1 -15   0  521.65   25.10
   1  15   0  468.85   24.20
  -1  15   0  496.75   24.70
   1  15   0  500.95   24.60
  -1  15   0  520.65   25.00
  -2 -15   0  767.32   37.60
   2 -15   0  833.62   35.00
  -2  15   0  793.82   35.90
   2  15   0  749.82   35.40
  -2  15   0  774.72   35.80
   2  15   0  751.62   35.10
  -3 -15   0   62.39   13.40
   3 -15   0   63.59    6.80
  -3  15   0   69.49    9.60
   3  15   0   60.99    8.50
  -3  15   0   61.79    9.20
   4 -15   0  157.98   10.10
  -4 -15   0  165.18   15.10
   4  15   0  151.58   12.50
  -4  15   0  134.19   13.70
  -4  15   0  142.79   14.10
   5 -15   0  476.55   24.40
  -5 -15   0  510.65   29.10
  -5  15   0  489.55   29.40
   5  15   0  486.15   26.10
  -5  15   0  495.15   27.90
   6 -15   0  256.67   19.60
  -6 -15   0  289.87   21.60
  -6  15   0  250.67   23.00
   6  15   0  231.58   19.00
  -7 -15   0   78.99   14.90
   7 -15   0   63.99   13.20
   7  15   0  107.29   16.50
  -7  15   0   69.39   16.00
   0 -16   0 1225.98   53.69
   0  16   0 1159.88   52.49
   0  16   0 1265.07   52.69
  -1 -16   0  386.36   22.20
   1 -16   0  370.06   20.60
  -1  16   0  387.56   21.00
   1  16   0  361.66   20.20
   1  16   0  393.16   20.50
  -1  16   0  381.86   20.80
   2 -16   0  213.98   13.20
  -2 -16   0  195.78   15.80
  -2  16   0  189.68   14.40
  -2  16   0  191.48   14.10
   2  16   0  180.98   13.50
  -3 -16   0 1158.18   54.19
   3 -16   0 1171.38   49.20
   3  16   0 1203.88   51.79
  -3  16   0 1212.48   52.09
   3  16   0 1137.49   51.49
  -3  16   0 1157.78   52.59
  -4 -16   0  577.24   30.70
  -4  16   0  513.95   28.30
  -4  16   0  511.75   29.50
   4  16   0  537.25   27.70
   5 -16   0    7.30    5.50
  -5 -16   0    5.00    6.70
   5  16   0    5.50    6.00
  -5  16   0    0.70    8.00
  -5  16   0    7.70    9.40
   6 -16   0  354.46   22.00
  -6 -16   0  350.96   25.60
   6  16   0  315.47   22.30
  -6  16   0  306.27   26.20
  -7 -16   0  463.55   32.80
   7  16   0  454.35   29.20
  -7  16   0  457.05   35.20
   0 -17   0    3.90    5.40
   0  17   0    8.00    4.90
   0  17   0    3.00    5.50
   1 -17   0   27.80    6.60
  -1 -17   0   29.20    7.90
   1  17   0   29.80    6.90
  -1  17   0   20.20    6.20
  -1  17   0   26.60    6.50
   1  17   0   17.20    5.40
  -2 -17   0   98.39   12.50
   2 -17   0  102.19   10.10
  -2  17   0   94.79   11.90
  -2  17   0   92.89   11.10
   2  17   0   95.29   11.80
   2  17   0  104.09   10.80
  -3 -17   0   41.30    9.40
   3 -17   0   38.70    7.10
   3  17   0   28.50    8.10
  -3  17   0   36.80    7.30
   3  17   0   41.70    8.00
  -3  17   0   53.09    8.70
  -4 -17   0   14.10    8.10
  -4  17   0   14.20    7.60
   4  17   0    2.60    6.30
  -4  17   0    1.60    7.60
  -5 -17   0    8.80    9.00
  -5  17   0   15.80    9.10
   5  17   0    0.60    7.70
  -6 -17   0    0.20    9.90
   6  17   0    5.30    9.20
  -6  17   0   19.20   11.10
   0 -18   0  795.72   37.40
   0  18   0  731.23   35.90
   0  18   0  721.93   36.00
  -1 -18   0  221.38   17.60
   1 -18   0  250.77   16.50
  -1  18   0  215.18   16.70
  -1  18   0  193.98   15.60
   1  18   0  238.88   17.00
   1  18   0  214.68   16.50
   2 -18   0   79.49   10.40
  -2 -18   0   62.79   11.00
   2  18   0   92.19   11.50
   2  18   0   82.89   12.90
  -2  18   0   89.49   12.90
  -2  18   0   81.69   11.60
   3 -18   0  813.22   37.40
  -3 -18   0  887.71   43.50
  -3  18   0  859.31   40.90
   3  18   0  838.62   41.10
  -3  18   0  843.72   41.60
   3  18   0  862.51   40.50
  -4 -18   0  881.01   44.10
   4  18   0  832.72   42.50
  -4  18   0  801.62   41.60
   4  18   0  866.31   41.10
  -4  18   0  798.02   42.30
  -5 -18   0    3.80   10.20
  -5  18   0    3.30    9.00
  -6 -18   0  504.65   34.00
  -6  18   0  489.05   35.90
   6  18   0  507.95   31.00
   0 -19   0    4.50    7.10
   0  19   0   18.00    7.00
   0  19   0    6.80    7.90
  -1 -19   0  130.59   15.50
   1 -19   0  123.59   13.40
   1  19   0  113.09   14.00
   1  19   0  121.19   15.50
  -1  19   0  126.09   15.30
  -2 -19   0  349.77   24.40
   2 -19   0  390.46   21.40
  -2  19   0  301.67   22.80
  -2  19   0  377.46   23.50
   2  19   0  380.96   24.40
   2  19   0  396.76   22.90
  -3 -19   0  120.89   16.70
   3 -19   0   98.69   11.10
  -3  19   0  117.99   15.40
   3  19   0   98.09   13.90
  -3  19   0  113.19   16.10
   3  19   0  114.69   14.40
  -4 -19   0  191.98   20.80
   4  19   0  151.88   22.40
  -4  19   0  178.08   20.40
   4  19   0  177.98   17.70
  -5 -19   0  341.87   28.10
   5  19   0  382.56   24.80
  -5  19   0  314.87   27.80
   0 -20   0  332.17   22.80
   0  20   0  331.17   22.60
   0  20   0  310.57   23.90
  -1 -20   0  144.59   17.00
   1  20   0  132.79   15.60
  -1  20   0  128.79   16.90
  -1  20   0  119.09   17.90
   1  20   0  128.89   18.40
  -2 -20   0    0.60    8.70
   2 -20   0  -10.40    6.40
  -2  20   0   -6.30    9.50
   2  20   0   -2.00   10.90
   2  20   0    6.30    7.50
  -2  20   0   12.40    8.90
  -3 -20   0  106.79   18.70
   3  20   0  152.18   20.60
   3  20   0  132.19   16.60
  -3  20   0  150.88   18.90
  -3  20   0  217.38   31.10
  -4 -20   0  231.88   24.30
   4  20   0  206.08   21.60
  -4  20   0  287.17   25.30
   0 -21   0    9.40    9.80
   0  21   0   -4.70    8.70
   0  21   0   -0.20   10.70
  -1 -21   0  588.34   34.10
   1 -21   0  580.74   32.20
   1  21   0  586.84   35.00
  -1  21   0  550.54   33.00
   1  21   0  607.04   32.70
  -1  21   0  521.15   33.40
  -2 -21   0  889.01   46.50
   2 -21   0  957.20   41.90
  -2  21   0  811.12   43.50
   2  21   0  862.61   42.90
  -2  21   0  826.82   43.60
   2  21   0  808.62   45.30
  -3 -21   0  210.08   23.60
  -3  21   0  153.38   22.40
   0 -22   0   26.60   11.60
   1 -22   0   12.40   10.30
  -1 -22   0   23.30   12.00
   1  22   0    6.20   11.50
  -1  22   0   46.10   11.50
  -2 -22   0    3.50   12.60
  -2  22   0    4.70   11.80
 -10   0   1    3.10   10.30
  10   0  -1   -1.90   10.50
   9   0  -1   -2.80    7.80
   9   0  -1    7.40    7.20
  -9   0   1   -4.60    7.00
  -9   0   1   -4.70    9.90
  -8   0   1    5.00    5.50
   8   0  -1    7.70    5.30
  -8   0   1   -0.20    6.50
   8   0  -1    6.90    5.90
  -7   0   1    0.10    4.70
   7   0  -1    5.30    3.50
   7   0  -1    1.30    3.60
   6   0  -1    3.70    2.90
  -6   0   1    3.70    3.00
   6   0  -1    9.20    3.70
   4   0  -1   -0.30    1.80
   4   0  -1    3.10    1.70
  -4   0   1   -1.50    1.80
  -3   0   1   -2.70    1.20
   3   0  -1   -2.00    1.00
   3   0  -1   -3.10    1.10
  -2   0   1    3.70    1.00
  -2   0   1    3.70    1.30
   1   0  -1  -12.80    0.40
  -1   0   1  -10.40    0.70
  -1   0   1  -11.70    0.50
   0   0  -1   -2.50    0.40
   0   0   1   -2.60    0.50
   0   0  -1   -0.30    0.60
   0   0   1   -1.50    0.70
   0   0   1   -2.70    0.50
   1   0   1   -1.30    0.80
  -1   0  -1   -0.20    1.00
   1   0   1   -2.10    0.70
  -3   0  -1    1.00    1.20
   3   0   1    1.40    1.10
  -3   0  -1    4.50    2.30
   3   0   1    2.90    1.70
  -4   0  -1   -2.70    2.60
   4   0   1   -2.40    1.90
  -4   0  -1   -0.90    1.50
  -5   0  -1    4.60    4.00
   5   0   1   -1.00    2.90
  -5   0  -1    1.30    2.30
   6   0   1    2.50    3.50
  -6   0  -1    4.30    5.30
  -7   0  -1    0.40    6.50
   7   0   1    3.70    5.20
  -8   0  -1  -11.00   17.40
   8   0   1   -1.90    6.60
   9   0   1   13.00    9.20
 -10  -1   1  636.54   38.80
  10  -1  -1  708.93   40.90
 -10   1   1  652.33   40.10
  10   1  -1  713.23   40.00
  -9  -1   1  620.14   35.50
   9  -1  -1  606.14   34.40
  -9  -1   1  567.44   33.10
  -9   1   1  571.84   33.70
   9   1  -1  637.54   34.00
   8  -1  -1   25.20    7.70
   8  -1  -1   29.10    6.00
  -8  -1   1   29.90    8.70
   8   1  -1   22.30    6.70
  -8   1   1   32.20    7.70
  -8   1   1   23.20    7.30
   7  -1  -1  882.41   42.70
  -7  -1   1  902.41   42.40
   7  -1  -1  965.80   39.80
  -7   1   1  942.61   42.50
   7   1  -1  968.60   40.70
   7   1  -1  890.11   42.30
   6  -1  -1 3243.38  136.99
   6  -1  -1 3493.45  134.79
  -6  -1   1 3220.28  138.59
  -6   1   1 3518.75  136.79
   6   1  -1 3395.56  136.89
   6   1  -1 3589.54  135.59
   5  -1  -1  577.74   25.40
  -5  -1   1  576.94   26.70
   5  -1  -1  545.95   26.80
   5   1  -1  597.84   26.10
   5   1  -1  562.34   26.70
  -5   1   1  653.83   27.00
   4  -1  -1 1445.36   58.19
  -4  -1   1 1519.75   59.19
   4  -1  -1 1404.06   59.29
   4   1  -1 1365.96   58.99
   4   1  -1 1532.35   58.89
  -4   1   1 1439.66   58.99
   3  -1  -1 2927.51  114.49
  -3  -1   1 2980.30  114.09
   3   1  -1 2817.22  114.09
  -3   1   1 3072.09  114.29
   3   1  -1 2732.43  113.99
   2  -1  -1 1640.64   64.99
  -2  -1   1 1625.94   64.39
  -2  -1   1 1705.63   64.79
  -2   1   1 1646.54   65.19
  -2   1   1 1699.03   64.89
   2   1  -1 1616.74   64.89
   2   1  -1 1561.14   64.49
  -1  -1   1   -3.30    0.60
  -1  -1   1   -2.70    0.40
   1  -1  -1   -2.50    0.80
   1  -1  -1   -3.20    0.60
  -1   1   1   -2.80    0.60
  -1   1   1   -4.20    0.60
   1   1  -1   -1.80    0.40
   0  -1   1 1974.30   74.09
   0  -1   1 1957.50   74.09
   0  -1  -1 1886.91   74.69
   0   1  -1 1751.92   73.99
   0   1  -1 1958.70   74.09
   1  -1   1 4688.43  202.48
   1  -1   1 5333.07  201.98
   1   1   1 5959.10  201.78
   1   1   1 4911.51  202.88
  -2  -1  -1 1096.99   44.70
   2  -1   1 1180.48   44.00
  -2  -1  -1 1106.99   45.80
   2  -1   1 1109.99   45.20
  -2   1  -1  955.10   44.10
   2   1   1 1213.38   43.50
  -2   1  -1 1146.09   45.50
   2   1   1 1109.59   45.50
   3  -1   1 2878.81  115.29
  -3  -1  -1 2988.30  116.09
  -3  -1  -1 2768.72  114.49
  -3   1  -1 2757.02  113.79
   3   1   1 2967.00  115.59
  -3   1  -1 3128.79  115.99
  -4  -1  -1 3273.07  125.69
  -4  -1  -1 2990.60  123.49
   4  -1   1 3049.79  124.59
   4   1   1 3129.79  124.79
  -4   1  -1 3392.06  125.59
  -4   1  -1 2956.60  122.79
  -5  -1  -1  214.68   13.90
   5  -1   1  206.38   12.70
  -5  -1  -1  187.18   11.40
  -5   1  -1  206.78   10.80
  -5   1  -1  209.28   13.80
   5   1   1  198.58   12.50
  -6  -1  -1  164.88   14.40
  -6  -1  -1  176.88   11.20
   6  -1   1  184.18   12.80
   6   1   1  170.38   12.60
  -6   1  -1  189.68   14.70
  -7  -1  -1 1537.05   68.69
   7  -1   1 1504.25   67.19
  -7   1  -1 1603.84   69.09
   7   1   1 1538.15   67.29
   8  -1   1  941.81   46.00
  -8  -1  -1  940.81   49.30
   8   1   1  973.60   46.50
   9  -1   1   33.30    9.90
   9   1   1   61.79   11.70
  10  -2  -1  231.78   24.70
 -10  -2   1  214.78   22.80
  10   2  -1  223.28   22.90
 -10   2   1  239.18   25.20
  -9  -2   1   65.79   12.80
  -9  -2   1   63.29   10.80
   9   2  -1   73.69   11.60
  -9   2   1   45.40   10.80
  -8  -2   1  184.08   16.70
   8  -2  -1  175.18   15.70
  -8  -2   1  154.58    9.40
   8  -2  -1  156.68   11.90
  -8  -2   1  157.28   15.00
  -8   2   1  187.58   17.20
   8   2  -1  187.28   15.10
   8   2  -1  179.28   14.40
  -8   2   1  177.08   16.40
   7  -2  -1  148.59    9.20
   7  -2  -1  128.29   11.90
  -7  -2   1  142.79   12.30
  -7  -2   1  133.99   12.50
  -7   2   1  120.49   12.40
  -7   2   1  132.99   12.30
   7   2  -1  152.28   12.10
   6  -2  -1   62.49    5.80
   6  -2  -1   55.39    7.70
  -6  -2   1   70.69    8.00
   6   2  -1   66.29    7.40
   6   2  -1   67.39    7.00
  -6   2   1   74.69    7.80
  -5  -2   1 1077.79   45.10
   5  -2  -1  983.40   45.20
   5  -2  -1 1065.29   43.20
   5   2  -1 1033.80   44.80
   5   2  -1 1089.49   44.60
  -5   2   1 1084.89   44.90
   4  -2  -1 1187.98   52.19
   4  -2  -1 1264.27   50.69
  -4  -2   1 1357.16   52.09
  -4   2   1 1271.37   51.89
   4   2  -1 1301.57   51.99
   4   2  -1 1202.98   51.69
  -3  -2   1  371.56   16.30
  -3  -2   1  365.16   16.10
   3  -2  -1  349.37   16.50
   3   2  -1  348.97   16.00
  -3   2   1  358.86   17.10
  -3   2   1  351.86   16.20
   3   2  -1  371.06   16.40
  -2  -2   1  500.95   20.40
   2  -2  -1  479.55   21.10
  -2  -2   1  528.15   20.50
  -2  -2   1  521.85   20.10
   2   2  -1  490.25   20.40
  -2   2   1  512.35   21.00
   2   2  -1  494.05   21.10
  -2   2   1  449.66   21.20
   1  -2  -1 2808.82  109.39
  -1  -2   1 2955.50  108.69
   1  -2  -1 2570.64  109.09
  -1   2   1 2872.91  109.39
  -1   2   1 2804.02  109.39
   0  -2   1   19.70    1.50
   0  -2   1   23.20    1.80
   0  -2   1   20.70    1.10
   0  -2  -1   18.60    2.10
   0   2  -1   21.10    1.20
   0   2   1   19.50    1.90
   0   2   1   19.60    2.10
   1  -2   1 2094.79   88.29
  -1  -2  -1 2221.18   89.29
   1  -2   1 2375.76   88.19
   1   2   1 2347.36   87.59
  -1   2  -1 2236.78   88.49
   1   2   1 2303.77   89.19
   2  -2   1 4168.98  156.08
  -2  -2  -1 4128.19  157.98
  -2  -2  -1 3670.73  156.78
   2  -2   1 4019.00  157.08
  -2   2  -1 3983.40  157.18
   2   2   1 4319.67  155.18
   2   2   1 3875.21  157.58
  -3  -2  -1 1998.40   81.39
  -3  -2  -1 2031.40   80.19
   3  -2   1 2074.09   80.59
  -3   2  -1 2188.18   81.09
  -3   2  -1 1711.83   78.49
   3   2   1 2065.79   80.99
   4  -2   1    4.20    2.30
  -4  -2  -1    7.20    2.40
  -4  -2  -1    8.10    3.50
  -4   2  -1    6.50    1.70
  -4   2  -1    7.00    2.60
   4   2   1    7.00    2.60
  -5  -2  -1  680.33   37.70
   5  -2   1  780.52   35.40
  -5  -2  -1  805.22   34.40
  -5   2  -1  832.52   36.20
   5   2   1  797.52   35.40
  -6  -2  -1  645.44   32.00
  -6  -2  -1  609.04   29.00
   6  -2   1  628.14   30.50
  -6   2  -1  614.04   31.40
   6   2   1  636.64   30.40
  -7  -2  -1   83.59   14.60
   7  -2   1   81.69   10.80
   7   2   1   96.79   11.10
  -7   2  -1  107.89   13.50
  -8  -2  -1  143.39   20.80
   8  -2   1  166.28   17.00
   8   2   1  191.48   16.90
   9  -2   1  409.06   29.50
   9   2   1  399.06   28.10
  10  -3  -1  427.76   31.20
 -10  -3   1  362.26   27.50
  10   3  -1  364.96   28.50
 -10   3   1  348.17   29.90
  -9  -3   1   11.40   10.80
  -9  -3   1   20.10    8.00
   9  -3  -1   35.50    8.90
   9   3  -1   22.70    8.00
  -9   3   1   12.40    9.80
   9   3  -1   19.00    9.60
  -8  -3   1   41.50    9.60
   8  -3  -1   31.20    7.60
   8  -3  -1   28.90    5.40
  -8  -3   1   27.10    7.60
  -8   3   1   16.60    7.30
   8   3  -1   24.10    7.30
   8   3  -1   36.70    8.10
  -8   3   1   44.40    9.40
  -7  -3   1   26.70    3.30
  -7  -3   1   22.00    6.00
  -7  -3   1   32.40    6.30
   7  -3  -1   19.90    5.80
   7  -3  -1   22.40    3.90
  -7   3   1   19.50    5.60
  -7   3   1   17.10    5.90
   7   3  -1   21.80    5.60
   7   3  -1   25.40    5.60
   6  -3  -1  797.62   39.00
   6  -3  -1  857.11   36.00
  -6  -3   1  865.51   34.70
  -6  -3   1  894.41   38.90
  -6   3   1  891.51   38.70
   6   3  -1  873.21   38.10
   6   3  -1  863.01   38.60
   5  -3  -1   66.29    4.80
   5  -3  -1   70.49    6.80
  -5  -3   1   76.99    6.90
  -5  -3   1   59.29    4.40
   5   3  -1   62.39    6.40
  -5   3   1   69.69    6.40
   5   3  -1   60.89    6.30
  -4  -3   1  361.76   17.70
  -4  -3   1  392.76   15.90
   4  -3  -1  358.86   18.40
   4  -3  -1  385.66   16.60
   4   3  -1  378.16   17.90
   4   3  -1  415.06   18.40
  -4   3   1  381.66   17.90
  -3  -3   1  590.94   27.50
  -3  -3   1  674.53   25.40
  -3  -3   1  658.03   26.70
  -3  -3   1  633.64   26.50
   3  -3  -1  588.24   27.20
  -3   3   1  621.14   27.00
   3   3  -1  628.34   26.50
   3   3  -1  656.83   27.40
  -3   3   1  637.74   27.80
   2  -3  -1 1389.86   56.89
  -2  -3   1 1551.14   55.59
  -2  -3   1 1366.76   57.19
  -2  -3   1 1433.86   55.69
  -2  -3   1 1289.77   55.99
   2   3  -1 1454.35   56.99
  -2   3   1 1487.05   56.89
   2   3  -1 1360.96   55.89
  -2   3   1 1446.76   57.19
   1  -3  -1  192.98    9.40
  -1  -3   1  218.08    8.80
  -1  -3   1  199.68    9.50
   1  -3  -1  189.68    9.20
  -1   3   1  196.28    9.50
   1   3  -1  199.28    9.40
   0  -3   1 2115.49   78.49
   0  -3  -1 2048.30   79.09
   0   3  -1 2114.79   77.79
   0   3  -1 1790.82   78.29
   0   3   1 1972.60   78.79
   0   3   1 1997.00   79.19
   1  -3   1  609.64   24.80
   1  -3   1  651.63   24.80
  -1  -3  -1  630.54   25.90
   1   3   1  569.04   25.60
  -1   3  -1  586.64   24.80
   2  -3   1 1005.10   37.80
   2  -3   1  895.71   38.40
  -2  -3  -1  962.30   39.50
  -2  -3  -1  905.11   38.60
  -2   3  -1  912.61   38.50
   2   3   1  967.00   39.20
  -3  -3  -1  277.57   14.60
   3  -3   1  266.87   13.60
  -3  -3  -1  297.17   13.80
   3  -3   1  268.87   12.30
   3   3   1  271.87   14.10
  -3   3  -1  276.47   13.80
  -4  -3  -1  975.10   41.50
  -4  -3  -1  979.40   42.90
   4  -3   1  902.51   41.60
  -4   3  -1 1011.40   42.20
   4   3   1 1022.60   42.30
   5  -3   1    6.10    2.80
  -5  -3  -1    5.20    2.80
   5   3   1    4.40    3.00
  -5   3  -1    9.50    4.10
  -6  -3  -1   87.09    8.20
   6  -3   1   77.99    8.90
  -6  -3  -1   88.59   11.30
  -6   3  -1   87.59   11.00
   6   3   1   75.89    8.60
  -7  -3  -1  133.69   16.60
  -7  -3  -1  163.88   12.30
   7  -3   1  159.28   14.10
  -7   3  -1  149.19   16.40
   7   3   1  147.69   13.10
   8  -3   1  201.08   19.50
  -8  -3  -1  205.58   23.50
   8   3   1  228.08   17.60
   9  -3   1   -0.20   10.90
   9   3   1   10.10   10.30
 -10  -4   1  167.68   21.20
  10   4  -1  142.39   21.50
 -10   4   1  132.79   23.60
   9  -4  -1  208.68   20.10
  -9  -4   1  171.98   17.00
  -9  -4   1  143.29   21.10
   9   4  -1  181.08   17.90
  -9   4   1  182.88   19.80
  -8  -4   1  786.42   38.90
  -8  -4   1  845.42   40.10
   8  -4  -1  838.42   40.90
  -8   4   1  833.82   40.30
   8   4  -1  844.52   39.50
  -8   4   1  833.02   41.80
   8   4  -1  689.53   38.60
  -7  -4   1  701.43   33.50
   7  -4  -1  672.03   34.00
   7  -4  -1  691.43   29.10
  -7  -4   1  669.63   32.70
   7   4  -1  675.83   32.60
   7   4  -1  735.63   33.00
  -7   4   1  663.73   34.80
  -7   4   1  653.63   32.90
   6  -4  -1  105.89    9.90
  -6  -4   1  126.89   10.40
  -6  -4   1  108.39    5.80
   6  -4  -1  121.09    7.00
  -6   4   1  121.09   10.10
   6   4  -1  109.29    9.30
   6   4  -1  114.69   11.30
  -5  -4   1 5190.18  194.68
   5  -4  -1 4837.92  195.38
  -5  -4   1 5227.88  191.18
   5  -4  -1 4175.88  191.88
  -5   4   1 5032.00  194.68
   5   4  -1 4890.91  194.38
   5   4  -1 5241.48  194.98
  -4  -4   1 4433.16  171.78
   4  -4  -1 4192.58  172.68
  -4  -4   1 4145.19  172.88
  -4  -4   1 4652.73  169.58
   4   4  -1 4520.25  172.58
   4   4  -1 4310.37  171.68
  -4   4   1 4396.86  172.08
   3  -4  -1   82.39    6.20
  -3  -4   1   77.49    6.30
  -3  -4   1   78.69    5.00
  -3  -4   1   85.59    4.30
  -3  -4   1   76.39    5.20
   3   4  -1   81.99    6.00
  -3   4   1   70.19    5.60
   3   4  -1   80.99    5.30
  -2  -4   1 2142.79   87.89
  -2  -4   1 2402.56   85.99
   2  -4  -1 2142.99   87.59
  -2   4   1 2351.36   87.79
   2   4  -1 1946.21   86.89
  -2   4   1 2263.07   87.49
   2   4  -1 2201.48   87.59
   1  -4  -1 1710.53   74.59
   1  -4  -1 1993.70   74.69
  -1  -4   1 2081.99   74.09
  -1  -4   1 1832.82   74.99
   1   4  -1 1850.11   74.89
  -1   4   1 1827.62   74.89
  -1   4   1 1922.51   74.99
   0  -4   1 4830.92  177.28
   0   4   1 4307.07  177.88
   1  -4   1  240.88   10.60
  -1  -4  -1  228.08   11.50
   1  -4   1  260.07   10.80
  -1   4  -1  248.88   10.00
  -1   4  -1  235.78   10.60
   1   4   1  213.78   11.40
  -2  -4  -1 5897.11  226.08
   2  -4   1 6259.87  224.68
  -2  -4  -1 5265.67  225.28
   2  -4   1 5807.72  225.08
   2   4   1 5703.93  225.88
  -3  -4  -1 2916.21  120.29
  -3  -4  -1 3174.98  121.49
   3  -4   1 3147.29  119.09
   3  -4   1 2871.61  120.19
  -3   4  -1 3127.69  120.39
   3   4   1 2999.70  120.89
  -4  -4  -1  435.66   21.80
  -4  -4  -1  415.16   20.60
   4  -4   1  414.86   20.70
  -4   4  -1  453.85   21.00
   4   4   1  421.16   21.00
   5  -4   1 1728.83   74.39
  -5  -4  -1 1800.52   73.99
  -5  -4  -1 1896.31   76.29
  -5   4  -1 1796.62   74.59
   5   4   1 1734.83   74.29
  -6  -4  -1 1085.19   48.70
  -6  -4  -1 1042.30   46.30
   6  -4   1 1026.80   47.30
   6   4   1 1055.29   47.00
  -6   4  -1 1055.29   47.70
  -7  -4  -1   90.69   14.70
   7  -4   1   95.39   12.30
  -7  -4  -1   88.19   10.30
   7   4   1   89.29   11.40
  -7   4  -1  114.49   15.20
   8  -4   1  454.45   28.50
  -8  -4  -1  471.95   31.90
   8   4   1  471.65   27.50
   9  -4   1  750.32   43.10
   9   4   1  781.52   41.70
  10  -5  -1   53.29   15.00
 -10  -5   1   45.10   12.00
  10   5  -1   49.20   12.70
 -10   5   1   28.10   14.00
   9  -5  -1   26.90   11.60
  -9  -5   1   27.30   12.00
  -9  -5   1   22.00    8.50
  -9   5   1   12.70    8.70
   9   5  -1   16.90   10.90
   9   5  -1   23.40    9.00
  -8  -5   1   32.20    7.20
  -8  -5   1   36.80    9.20
   8  -5  -1   28.60    8.20
   8   5  -1   10.10    8.30
   8   5  -1   27.30    6.60
  -8   5   1   31.20    8.10
  -8   5   1   29.40    8.60
  -7  -5   1   89.69    9.80
   7  -5  -1   98.89   11.50
  -7  -5   1   98.99   11.50
   7  -5  -1   93.49    6.20
   7   5  -1   96.59   10.20
   7   5  -1  117.59   11.30
  -7   5   1   76.69   11.30
  -7   5   1   87.49   11.80
   6  -5  -1  179.18    9.10
  -6  -5   1  189.78   12.30
  -6  -5   1  172.78   12.60
   6  -5  -1  162.98   13.10
  -6   5   1  182.28   12.80
   6   5  -1  187.98   12.20
  -6   5   1  189.58   14.40
   6   5  -1  196.58   12.70
   5  -5  -1  337.07   15.10
  -5  -5   1  367.66   17.50
  -5  -5   1  349.17   14.20
   5  -5  -1  342.77   18.50
  -5  -5   1  324.07   18.50
  -5  -5   1  340.27   17.50
   5   5  -1  353.16   17.50
   5   5  -1  381.36   18.40
  -5   5   1  321.17   19.20
  -4  -5   1  363.96   16.70
   4  -5  -1  344.47   18.00
  -4  -5   1  385.66   14.90
  -4  -5   1  358.36   18.50
  -4  -5   1  352.36   16.80
   4   5  -1  351.86   17.90
  -4   5   1  355.76   17.50
   4   5  -1  359.76   17.10
  -3  -5   1 1716.03   74.59
  -3  -5   1 2030.20   71.79
  -3  -5   1 1804.32   72.19
   3  -5  -1 1769.92   74.19
  -3  -5   1 1814.22   72.39
  -3   5   1 1852.61   73.89
  -3   5   1 1813.32   74.59
   3   5  -1 1793.92   72.99
   3   5  -1 1914.71   74.49
  -2  -5   1    8.70    2.30
   2  -5  -1    4.10    1.50
  -2  -5   1    8.20    1.50
  -2   5   1    9.10    2.20
   2   5  -1    7.10    2.00
  -2   5   1    7.00    2.00
  -1  -5   1   58.99    3.60
   1  -5  -1   53.79    4.00
   1  -5  -1   52.39    3.90
  -1  -5   1   57.19    4.40
  -1   5   1   51.59    4.30
   1   5  -1   54.99    4.30
  -1   5   1   59.99    4.40
   0  -5   1  867.91   32.50
   0  -5  -1  784.12   32.80
   0  -5   1  829.92   32.80
   0   5  -1  793.62   32.70
   0   5   1  755.22   32.90
   0   5  -1  816.72   31.60
   0   5   1  776.72   33.20
  -1  -5  -1  166.68    8.80
  -1  -5  -1  144.19    8.80
   1  -5   1  156.58    7.60
   1  -5   1  168.68    8.10
   1   5   1  145.39    8.70
  -1   5  -1  179.38    7.40
  -1   5  -1  166.18    7.90
   2  -5   1  506.05   22.00
   2  -5   1  524.05   21.60
  -2  -5  -1  498.15   22.80
  -2  -5  -1  478.35   22.50
  -2   5  -1  508.45   21.90
   2   5   1  499.85   22.80
   3  -5   1   25.60    3.50
  -3  -5  -1   29.60    4.10
  -3  -5  -1   23.90    4.40
   3  -5   1   21.80    3.60
   3   5   1   25.00    4.10
  -3   5  -1   28.00    3.70
   4  -5   1  348.77   18.00
  -4  -5  -1  381.46   19.40
  -4  -5  -1  346.17   18.00
  -4   5  -1  352.16   18.00
   4   5   1  351.56   18.30
  -5  -5  -1   21.90    4.50
  -5  -5  -1   18.00    4.90
   5  -5   1   15.10    4.80
   5   5   1   10.20    3.80
  -5   5  -1   17.90    4.70
   6  -5   1  229.68   15.80
  -6  -5  -1  228.78   17.10
  -6  -5  -1  228.28   14.90
  -6   5  -1  238.88   16.30
   6   5   1  239.38   15.60
   7  -5   1   75.59   12.10
  -7  -5  -1  101.19   14.70
  -7  -5  -1   96.09   10.20
   7   5   1   91.49   11.80
  -7   5  -1   72.59   11.90
  -8  -5  -1   26.20   11.60
   8  -5   1   -5.20    8.30
   8   5   1   16.90    7.90
   9  -5   1   19.50   12.80
   9   5   1   14.40   10.10
  10  -6  -1   26.60   14.40
 -10  -6   1   15.70   11.20
 -10   6   1   61.29   15.70
  10   6  -1   44.40   12.70
  -9  -6   1  190.48   18.20
   9  -6  -1  243.68   22.70
  -9  -6   1  213.18   22.40
  -9   6   1  202.58   21.30
   9   6  -1  221.18   19.70
  -8  -6   1 1039.40   47.30
  -8  -6   1 1025.20   46.10
   8  -6  -1 1006.70   49.30
  -8   6   1  949.21   49.30
   8   6  -1 1039.10   47.00
  -8   6   1  998.00   47.90
   7  -6  -1  956.40   40.10
  -7  -6   1  979.60   44.20
  -7  -6   1 1011.90   45.30
   7  -6  -1  932.31   46.40
   7   6  -1 1124.09   46.70
  -7   6   1 1006.40   45.60
   7   6  -1  975.90   44.70
  -6  -6   1   31.90    5.30
   6  -6  -1   30.70    3.30
  -6  -6   1   30.10    5.70
   6  -6  -1   43.90    7.60
  -6   6   1   33.90    7.40
   6   6  -1   35.00    5.70
  -6   6   1   29.00    5.50
   6   6  -1   32.30    6.20
  -5  -6   1 1717.93   69.69
  -5  -6   1 1750.02   71.79
   5  -6  -1 1689.93   71.29
  -5  -6   1 1661.83   69.09
   5  -6  -1 1608.24   66.99
  -5  -6   1 1865.71   66.09
   5   6  -1 1678.83   69.69
   5   6  -1 1794.52   74.19
  -5   6   1 1746.13   70.29
  -5   6   1 1501.05   71.49
   4  -6  -1 1011.30   46.90
  -4  -6   1 1096.89   45.00
  -4  -6   1 1206.08   43.60
  -4  -6   1 1115.19   45.40
   4   6  -1 1180.78   47.50
  -4   6   1  987.40   47.40
   4   6  -1 1124.09   46.00
  -4   6   1 1119.59   46.70
   3  -6  -1   23.10    4.10
  -3  -6   1   22.00    2.30
  -3  -6   1   25.60    2.60
  -3  -6   1   19.30    3.80
   3   6  -1   21.00    4.00
  -3   6   1   26.60    4.20
  -3   6   1   24.20    4.00
   3   6  -1   23.60    3.10
  -2  -6   1  837.62   31.20
  -2  -6   1  754.42   33.40
   2  -6  -1  725.63   32.60
  -2   6   1  771.92   32.80
   2   6  -1  800.12   33.20
  -2   6   1  743.73   32.80
   1  -6  -1 2774.72  109.79
  -1  -6   1 2970.40  109.19
  -1  -6   1 2624.34  110.49
   1  -6  -1 2888.21  109.69
  -1   6   1 2796.42  110.19
  -1   6   1 2797.12  110.29
   1   6  -1 2713.93  110.29
   0  -6  -1  757.82   30.80
   0  -6   1  810.32   30.70
   0  -6   1  724.73   31.00
   0   6   1  763.22   31.10
   0   6  -1  744.23   30.80
   0   6   1  676.13   31.10
   0   6  -1  752.82   29.60
  -1  -6  -1  840.32   33.90
   1  -6   1  770.52   32.50
  -1  -6  -1  826.02   34.60
   1  -6   1  860.31   33.50
   1   6   1  740.93   34.10
  -1   6  -1  803.22   33.10
  -1   6  -1  861.31   32.90
   2  -6   1 2919.61  117.09
  -2  -6  -1 2912.01  118.09
  -2  -6  -1 3161.78  118.29
   2   6   1 2995.70  118.29
  -2   6  -1 2906.11  117.09
   3  -6   1  952.20   40.60
  -3  -6  -1  973.10   41.30
  -3  -6  -1  946.51   41.40
   3  -6   1  978.90   39.70
   3   6   1 1011.20   41.50
  -3   6  -1  916.01   40.30
  -4  -6  -1   91.99    8.60
   4  -6   1   81.99    7.50
  -4  -6  -1  107.09    8.10
   4   6   1   82.59    7.80
  -4   6  -1   83.99    7.70
  -5  -6  -1  978.40   44.10
  -5  -6  -1  970.80   45.00
   5  -6   1  951.80   44.20
  -5   6  -1 1064.19   44.30
   5   6   1 1031.50   44.40
  -6  -6  -1 1514.55   64.09
   6  -6   1 1401.66   64.39
  -6  -6  -1 1482.85   65.29
  -6   6  -1 1502.95   64.59
   6   6   1 1548.65   64.19
  -7  -6  -1  203.88   18.60
   7  -6   1  202.88   16.80
  -7  -6  -1  193.08   15.00
   7   6   1  190.18   15.40
  -7   6  -1  199.78   18.10
  -8  -6  -1  474.95   31.30
   8  -6   1  473.15   29.80
   8   6   1  442.06   27.60
   9  -6   1  604.14   39.10
   9   6   1  577.44   34.60
  10  -7  -1  784.42   48.80
 -10  -7   1  750.52   41.20
  10   7  -1  776.52   44.00
 -10   7   1  905.31   57.79
  -9  -7   1  766.22   41.20
   9  -7  -1  778.22   43.60
  -9   7   1  804.42   44.50
   9   7  -1  769.82   40.10
  -8  -7   1   21.40    6.50
  -8  -7   1   22.70    8.50
   8  -7  -1   16.50    8.30
   8   7  -1   16.30    6.70
  -8   7   1   22.10    8.80
   8   7  -1    2.40    9.70
  -7  -7   1  324.77   19.50
  -7  -7   1  347.07   18.40
   7  -7  -1  308.77   23.40
  -7   7   1  307.77   21.90
   7   7  -1  309.07   18.80
  -7   7   1  353.56   21.20
   7   7  -1  331.87   21.10
  -6  -7   1  762.82   34.10
  -6  -7   1  740.93   34.80
  -6  -7   1  773.22   36.80
   6  -7  -1  778.22   30.90
   6  -7  -1  772.02   37.10
  -6   7   1  717.23   37.50
  -6   7   1  739.43   35.50
   6   7  -1  864.51   37.10
   6   7  -1  795.22   35.10
   5  -7  -1  516.35   22.70
  -5  -7   1  548.25   25.20
   5  -7  -1  532.25   27.10
  -5  -7   1  537.95   24.60
  -5   7   1  554.44   26.30
  -5   7   1  565.74   28.20
   5   7  -1  572.74   25.80
   5   7  -1  624.44   27.60
  -4  -7   1  104.69    6.80
  -4  -7   1  103.79    6.30
  -4  -7   1  104.99    8.90
  -4  -7   1  123.69    5.60
   4  -7  -1  109.29    8.60
  -4   7   1  112.39    9.30
   4   7  -1  123.09    9.20
   4   7  -1  112.19    7.50
  -4   7   1  118.19    8.60
  -3  -7   1 1616.44   58.69
  -3  -7   1 1453.75   62.19
   3  -7  -1 1456.15   61.29
   3   7  -1 1524.95   61.79
   3   7  -1 1389.16   59.69
  -3   7   1 1496.15   61.09
  -3   7   1 1484.05   61.79
   2  -7  -1  305.17   15.10
  -2  -7   1  346.47   13.90
   2   7  -1  320.97   15.90
   2   7  -1  288.37   13.80
  -2   7   1  311.37   15.40
  -2   7   1  334.17   15.70
  -1  -7   1  258.67   13.70
   1  -7  -1  263.27   12.80
  -1  -7   1  302.27   12.50
  -1   7   1  277.57   13.50
  -1   7   1  263.87   13.40
   1   7  -1  279.07   13.60
   0  -7  -1 3470.95  138.09
   0  -7   1 3551.74  138.89
   0  -7   1 3644.84  138.29
   0   7  -1 3537.55  137.29
   0   7  -1 3463.95  138.59
   0   7   1 3583.04  139.19
   0   7   1 3515.85  138.79
   1  -7   1 3857.61  154.08
   1  -7   1 4132.79  153.38
   1  -7   1 3410.96  152.58
  -1  -7  -1 3915.11  154.98
  -1  -7  -1 4131.79  154.08
   1   7   1 3933.61  154.88
  -1   7  -1 4182.08  153.68
   2  -7   1   12.70    2.50
  -2  -7  -1   10.30    2.90
  -2  -7  -1   11.30    2.90
   2  -7   1   15.50    2.80
  -2   7  -1   17.20    2.80
   2   7   1   12.80    3.00
   3  -7   1 1424.96   57.99
   3  -7   1 1432.96   57.19
  -3  -7  -1 1380.96   58.79
  -3  -7  -1 1426.56   58.69
  -3   7  -1 1374.96   57.69
   3   7   1 1419.56   58.79
  -4  -7  -1 2006.20   81.99
   4  -7   1 2036.00   81.49
  -4  -7  -1 1996.80   82.09
   4   7   1 2122.49   82.19
  -4   7  -1 1784.32   82.29
  -5  -7  -1  539.65   26.80
   5  -7   1  542.15   26.90
  -5  -7  -1  534.95   27.50
   5   7   1  551.14   26.70
  -5   7  -1  526.45   26.50
  -6  -7  -1  225.68   15.10
  -6  -7  -1  229.78   17.60
   6  -7   1  211.68   15.60
  -6   7  -1  201.08   15.80
   6   7   1  213.98   15.20
   7  -7   1  905.51   44.50
  -7  -7  -1  909.61   45.20
  -7   7  -1  915.81   44.90
   7   7   1  938.71   43.50
  -8  -7  -1  429.46   26.50
  -8  -7  -1  438.76   31.80
   8  -7   1  496.75   30.80
   8   7   1  476.35   27.80
   9  -7   1   25.80   13.50
   9   7   1   19.70   10.80
   9  -8  -1   42.10   12.60
  -9  -8   1   39.70    9.20
   9   8  -1   40.50    9.90
  -9   8   1   30.40   12.80
  -8  -8   1   11.10    6.00
   8  -8  -1   11.40    8.40
  -8  -8   1   -3.90   12.50
  -8   8   1   28.30    9.20
   8   8  -1   10.20    6.80
   8   8  -1  -12.50   10.30
  -7  -8   1  196.88   13.20
  -7  -8   1  199.68   14.60
   7   8  -1  226.98   18.00
  -7   8   1  179.08   17.20
   7   8  -1  177.78   14.00
  -7   8   1  212.58   16.40
   6  -8  -1    6.20    4.90
  -6  -8   1   -2.20    4.40
  -6  -8   1    1.30    2.90
  -6  -8   1    1.30    4.00
  -6   8   1   -3.50    3.90
  -6   8   1   -8.50    4.10
   6   8  -1   -1.50    5.30
   6   8  -1    3.00    3.50
  -5  -8   1  269.67   14.10
   5  -8  -1  285.47   17.00
  -5  -8   1  278.17   13.80
  -5  -8   1  300.67   11.60
  -5  -8   1  290.17   17.20
   5   8  -1  301.37   15.50
   5   8  -1  305.07   17.50
  -5   8   1  230.58   16.80
  -5   8   1  280.97   16.20
   4  -8  -1   37.50    6.00
  -4  -8   1   36.20    6.30
  -4  -8   1   40.30    3.20
  -4   8   1   31.30    5.30
   4   8  -1   37.20    4.80
  -4   8   1   38.40    6.20
  -3  -8   1  123.29    6.20
   3  -8  -1  100.19    8.00
  -3  -8   1  119.69    9.20
  -3   8   1  113.09    8.10
   3   8  -1  131.59    9.10
   3   8  -1  112.79    7.10
  -3   8   1  108.79    8.70
   2  -8  -1    0.90    1.60
   2  -8  -1    0.00    1.70
  -2  -8   1    4.80    2.40
  -2  -8   1    2.90    1.30
  -2   8   1    5.50    2.30
   2   8  -1    1.70    1.40
   2   8  -1    2.30    2.40
  -2   8   1    4.30    2.20
   1  -8  -1  715.23   31.70
  -1  -8   1  726.83   33.20
  -1  -8   1  821.92   31.70
   1   8  -1  778.42   30.50
  -1   8   1  731.43   32.70
   1   8  -1  802.22   33.20
  -1   8   1  783.02   32.80
   0  -8  -1    1.00    1.30
   0  -8   1    0.20    1.70
   0  -8   1    0.70    1.60
   0  -8  -1    2.10    2.10
   0   8  -1    0.20    1.30
   0   8   1   -0.40    1.70
   0   8  -1   -0.50    1.50
   0   8   1    2.60    1.90
  -1  -8  -1  253.67   13.70
   1  -8   1  280.97   13.00
   1  -8   1  278.27   12.60
  -1  -8  -1  275.37   12.70
  -1   8  -1  272.27   12.60
   1   8   1  245.08   13.50
  -2  -8  -1   56.19    5.10
  -2  -8  -1   61.29    5.80
   2  -8   1   59.19    4.90
   2  -8   1   52.49    4.50
   2   8   1   47.80    5.50
  -2   8  -1   51.49    4.70
   3  -8   1   90.79    6.80
  -3  -8  -1   79.59    7.30
   3  -8   1   92.19    6.20
  -3  -8  -1   78.39    7.10
   3   8   1   78.29    7.60
  -3   8  -1   75.49    6.50
  -4  -8  -1   11.80    4.00
  -4  -8  -1    8.90    4.20
   4  -8   1    7.60    3.60
   4   8   1    9.80    4.00
  -4   8  -1   11.30    3.50
  -5  -8  -1   16.70    4.60
  -5  -8  -1   13.60    5.80
   5  -8   1   12.80    4.90
  -5   8  -1   21.40    5.10
   5   8   1   10.40    4.40
   6  -8   1   34.10    7.60
  -6  -8  -1   35.20    7.40
  -6  -8  -1   40.80    8.60
   6   8   1   30.60    6.80
  -6   8  -1   36.00    7.50
  -7  -8  -1   13.80    9.00
   7  -8   1   16.40    7.70
  -7  -8  -1    6.80    6.50
   7   8   1    8.00    6.10
   8  -8   1   67.59   12.50
  -8  -8  -1   51.89   10.70
  -8  -8  -1   62.39   14.50
   8   8   1   59.29   10.90
   9  -8   1   69.29   16.60
  -9   8  -1  118.09   25.60
   9   8   1  121.19   20.40
  -9  -9   1  780.42   38.50
   9  -9  -1  762.32   45.60
   9   9  -1  814.72   40.90
  -9   9   1  850.71   47.20
   8  -9  -1    4.10    9.00
  -8  -9   1    8.80    8.00
   8   9  -1   10.50    6.40
  -8   9   1   14.60    9.00
   8   9  -1    9.60   12.70
  -7  -9   1  778.32   34.50
   7  -9  -1  735.13   40.40
  -7  -9   1  788.62   35.50
  -7   9   1  811.62   38.40
  -7   9   1  733.83   39.90
   7   9  -1  799.42   36.60
   6  -9  -1 1460.15   64.69
  -6  -9   1 1481.65   60.99
  -6  -9   1 1407.76   60.19
  -6  -9   1 1542.55   65.49
  -6   9   1 1366.76   65.49
   6   9  -1 1571.94   65.79
   6   9  -1 1585.54   62.89
  -6   9   1 1434.76   63.09
  -5  -9   1  494.95   22.00
   5  -9  -1  488.65   26.10
  -5  -9   1  494.25   21.60
  -5  -9   1  538.75   27.00
  -5   9   1  485.55   27.00
   5   9  -1  507.75   24.30
  -5   9   1  536.75   25.50
   5   9  -1  582.14   27.30
  -4  -9   1  830.32   37.90
   4  -9  -1  745.53   36.30
  -4  -9   1  911.81   32.90
  -4   9   1  763.62   37.30
  -4   9   1  761.92   37.80
   4   9  -1  905.91   38.00
   4   9  -1  781.42   35.00
  -3  -9   1 2771.22  113.79
   3  -9  -1 2612.04  111.99
  -3  -9   1 2974.10  109.79
  -3   9   1 2713.53  112.89
   3   9  -1 2732.53  110.79
   3   9  -1 2905.91  113.49
  -3   9   1 2916.91  112.59
   2  -9  -1  550.54   26.20
  -2  -9   1  661.63   25.50
  -2  -9   1  607.04   28.20
  -2   9   1  601.54   27.20
   2   9  -1  648.24   28.20
   2   9  -1  588.94   25.30
  -2   9   1  582.64   27.20
   1  -9  -1    1.20    2.20
  -1  -9   1    3.80    2.60
  -1   9   1    4.20    2.30
   1   9  -1    9.10    2.90
  -1   9   1    1.90    2.30
   0  -9  -1 2940.21  109.89
   0  -9   1 2842.02  110.49
   0  -9  -1 2679.63  111.49
   0  -9   1 2699.83  111.29
   0   9   1 2850.91  111.59
   0   9  -1 2860.71  109.69
   0   9  -1 2783.82  111.59
   0   9   1 2762.42  111.19
  -1  -9  -1 7178.98  272.17
  -1  -9  -1 6981.30  274.17
   1  -9   1 6582.84  272.47
   1  -9   1 6958.20  272.77
   1   9   1 6875.41  273.87
   1   9   1 7154.58  273.47
  -1   9  -1 7369.36  272.67
  -2  -9  -1  333.17   17.30
  -2  -9  -1  332.27   15.90
   2  -9   1  348.57   16.10
   2  -9   1  325.67   15.10
  -2   9  -1  350.96   16.20
   2   9   1  319.47   17.00
  -3  -9  -1 1082.59   44.40
   3  -9   1 1011.30   43.90
  -3  -9  -1 1040.30   45.70
   3   9   1 1052.49   45.30
  -3   9  -1 1047.00   44.30
  -4  -9  -1  807.62   36.00
   4  -9   1  814.62   35.90
  -4  -9  -1  797.12   36.80
  -4   9  -1  805.62   35.60
   4   9   1  770.22   36.20
   5  -9   1  191.58   14.00
  -5  -9  -1  182.88   13.80
  -5  -9  -1  212.98   14.70
   5   9   1  200.08   13.70
  -5   9  -1  190.38   14.20
   6  -9   1  252.87   17.90
  -6  -9  -1  222.58   17.80
   6   9   1  245.58   16.90
  -6   9  -1  249.18   18.10
  -7  -9  -1 1286.07   59.09
   7  -9   1 1265.77   59.89
  -7  -9  -1 1268.77   59.69
   7   9   1 1396.86   58.89
  -8  -9  -1  491.55   29.50
   8  -9   1  490.65   31.80
  -8  -9  -1  448.06   33.40
   8   9   1  500.15   29.50
  -9  10   1   63.69   15.80
   9  10  -1   63.69   12.20
  -8 -10   1  285.97   16.20
  -8 -10   1  252.17   18.40
   8 -10  -1  269.47   23.20
   8  10  -1  226.48   18.80
  -8  10   1  235.68   23.30
   7 -10  -1   40.40    8.70
  -7 -10   1   44.60    7.00
  -7 -10   1   56.19    8.70
   7  10  -1   39.80   11.50
   7  10  -1   30.70    6.50
  -7  10   1   29.00    8.30
  -7  10   1   36.80    9.10
  -6 -10   1   65.39   10.30
  -6 -10   1   60.69    6.30
   6 -10  -1   75.19   10.80
  -6 -10   1   69.29    5.70
   6  10  -1   55.59    8.40
   6  10  -1   73.39   12.70
  -6  10   1   65.19    9.80
  -6  10   1   64.79   10.10
  -5 -10   1  574.44   28.90
   5 -10  -1  545.55   27.80
   5 -10  -1  576.04   22.70
  -5  10   1  546.05   27.10
   5  10  -1  593.14   29.50
   5  10  -1  542.15   26.00
  -5  10   1  492.35   28.50
   4 -10  -1  956.60   41.80
  -4 -10   1 1107.79   41.00
  -4 -10   1 1044.20   46.40
   4 -10  -1  929.01   44.40
  -4  10   1 1028.90   44.60
  -4  10   1 1040.80   46.10
   4  10  -1  955.10   43.00
   4  10  -1 1133.49   46.80
   3 -10  -1   15.70    3.10
  -3 -10   1   20.80    2.70
   3 -10  -1   18.20    3.70
  -3 -10   1   19.50    4.60
  -3  10   1   15.80    3.90
  -3  10   1   19.20    4.20
   3  10  -1   21.40    6.00
   3  10  -1   19.50    3.20
   2 -10  -1  438.16   20.60
  -2 -10   1  480.75   19.70
  -2 -10   1  428.26   22.20
   2 -10  -1  425.16   20.20
   2  10  -1  486.35   22.60
  -2  10   1  451.45   21.60
   2  10  -1  434.06   19.50
  -2  10   1  432.96   21.50
   1 -10  -1  341.27   16.70
  -1 -10   1  329.17   17.60
  -1 -10   1  344.17   15.70
  -1  10   1  339.77   17.10
   1  10  -1  359.46   17.90
   1  10  -1  340.07   15.00
  -1  10   1  335.87   17.00
   0 -10   1  143.29    8.00
   0 -10  -1  131.49    8.80
   0 -10   1  135.89    8.80
   0  10  -1  135.59    7.40
   0  10   1  123.59    8.60
   0  10   1  134.79    8.90
   0  10  -1  136.49    7.20
   1 -10   1   13.90    2.80
  -1 -10  -1    8.80    2.00
   1 -10   1    6.40    2.30
  -1 -10  -1    5.20    2.90
  -1  10  -1    7.30    2.50
   1  10   1    7.00    2.80
   1  10   1    7.90    2.80
  -2 -10  -1  175.08   11.70
   2 -10   1  191.28    9.30
  -2 -10  -1  208.48   10.40
   2 -10   1  199.68   10.80
   2  10   1  193.88   11.90
  -2  10  -1  195.58   10.80
  -3 -10  -1  418.66   21.50
  -3 -10  -1  408.06   19.40
   3 -10   1  380.26   19.10
   3  10   1  418.96   21.00
  -3  10  -1  418.76   19.90
  -4 -10  -1    6.80    4.10
  -4 -10  -1   12.40    4.60
   4 -10   1    8.40    3.80
  -4  10  -1    5.30    3.50
   4  10   1    6.90    4.00
  -5 -10  -1  597.64   30.20
  -5 -10  -1  601.84   29.10
   5 -10   1  583.74   29.20
   5  10   1  606.04   29.60
  -5  10  -1  575.44   29.20
  -6 -10  -1  372.26   23.50
  -6 -10  -1  405.56   23.20
   6 -10   1  355.66   22.60
  -6  10  -1  359.96   23.30
   7 -10   1    0.20    8.00
  -7 -10  -1    5.50    9.70
  -7 -10  -1    5.30    6.90
   7  10   1    6.30    6.60
   8 -10   1  108.59   16.50
  -8 -10  -1  129.69   17.90
   8  10   1  150.38   17.50
   9 -11  -1  115.69   18.10
   9  11  -1  108.79   18.10
  -9  11   1  130.59   20.70
   8 -11  -1   15.10   10.60
   8  11  -1    9.90    7.30
  -8  11   1    9.10   11.20
   7 -11  -1  235.28   20.30
   7  11  -1  240.48   16.30
  -7  11   1  233.98   21.10
  -6 -11   1  940.71   44.60
   6 -11  -1  909.31   43.50
   6  11  -1  931.81   41.30
  -6  11   1  896.71   42.50
   5 -11  -1  201.68   15.20
  -5 -11   1  229.68   16.40
   5 -11  -1  231.88   10.10
   5  11  -1  209.98   13.40
  -5  11   1  234.18   15.20
  -5  11   1  212.18   16.70
   5  11  -1  232.88   17.80
   4 -11  -1  506.95   22.20
   4 -11  -1  484.25   25.00
  -4 -11   1  565.64   21.80
  -4 -11   1  504.25   26.80
   4  11  -1  501.55   23.90
  -4  11   1  530.05   25.30
  -4  11   1  494.65   26.40
   4  11  -1  515.55   27.20
   3 -11  -1 1140.29   51.69
  -3 -11   1 1320.67   50.09
   3 -11  -1 1256.07   50.99
  -3 -11   1 1254.67   54.49
   3  11  -1 1185.18   51.09
   3  11  -1 1310.47   54.99
  -3  11   1 1268.07   52.99
  -3  11   1 1209.58   53.39
   2 -11  -1  393.96   17.20
  -2 -11   1  340.27   18.70
   2 -11  -1  314.67   16.10
  -2 -11   1  361.46   15.80
  -2  11   1  334.57   17.80
   2  11  -1  334.87   15.90
   2  11  -1  355.66   19.40
  -2  11   1  316.47   17.70
   1 -11  -1    5.70    3.00
  -1 -11   1    1.40    2.80
  -1 -11   1   -1.70    1.60
  -1  11   1    2.50    2.60
  -1  11   1    2.20    2.70
   1  11  -1    3.90    3.70
   1  11  -1    1.40    1.70
   1  11  -1    2.20    1.70
   0 -11   1  854.81   36.60
   0 -11  -1  820.12   36.60
   0 -11   1  836.02   35.30
   0  11  -1  861.31   34.60
   0  11   1  824.42   36.50
   0  11   1  788.42   36.10
   0  11  -1  863.91   34.80
  -1 -11  -1 1364.06   60.59
   1 -11   1 1410.76   59.29
   1 -11   1 1597.04   59.69
  -1 -11  -1 1482.45   57.49
   1  11   1 1414.86   59.79
  -1  11  -1 1454.25   59.09
   1  11   1 1432.96   60.49
  -2 -11  -1   58.79    6.60
  -2 -11  -1   52.29    4.60
   2 -11   1   51.39    5.20
  -2  11  -1   49.40    5.70
   2  11   1   47.60    6.40
  -3 -11  -1  191.78   13.30
  -3 -11  -1  205.28   11.40
   3 -11   1  204.68   11.20
  -3  11  -1  202.78   13.40
   3  11   1  200.18   13.20
   4 -11   1  384.96   20.00
  -4 -11  -1  383.66   21.70
  -4 -11  -1  422.56   19.90
  -4  11  -1  391.16   20.30
   4  11   1  390.96   21.40
   5 -11   1  254.67   16.10
  -5 -11  -1  252.57   15.90
  -5 -11  -1  239.58   19.50
  -5  11  -1  235.98   16.40
   5  11   1  236.38   16.30
   6 -11   1   85.59   12.60
  -6 -11  -1   93.99   12.20
  -6 -11  -1  100.09   13.10
  -6  11  -1   90.69   14.90
   6  11   1   99.69   11.90
  -7 -11  -1  571.54   31.30
  -7 -11  -1  539.05   31.20
   7 -11   1  527.15   31.30
   7  11   1  525.05   29.70
  -8 -11  -1  119.39   20.00
  -8 -11  -1  120.99   18.50
   8  11   1  111.09   17.70
  -8  11  -1  167.88   25.20
   9 -12  -1  257.27   29.90
   9  12  -1  185.28   22.60
   8 -12  -1  737.93   40.50
   8  12  -1  685.73   35.60
  -8  12   1  686.13   42.00
   7 -12  -1  396.36   25.50
  -7  12   1  383.16   28.20
   6 -12  -1   19.00    7.10
  -6 -12   1   19.40    6.80
  -6  12   1   10.20    6.50
  -6  12   1   12.80    8.00
   6  12  -1   17.00   10.20
   6  12  -1   13.40    4.90
  -5 -12   1 1215.28   61.49
   5 -12  -1 1359.96   57.59
   5 -12  -1 1423.46   52.19
   5  12  -1 1265.67   55.79
  -5  12   1 1338.27   57.29
  -5  12   1 1275.57   59.09
   4 -12  -1 2044.80   77.89
   4 -12  -1 1899.11   80.29
  -4 -12   1 2081.99   83.49
   4  12  -1 1634.14   82.69
  -4  12   1 2047.10   82.79
   4  12  -1 1985.00   79.69
  -4  12   1 1974.00   81.19
  -3 -12   1   68.59    8.30
   3 -12  -1   67.69    6.80
   3 -12  -1   64.59    6.00
  -3 -12   1   81.49    5.40
  -3  12   1   59.79    7.70
   3  12  -1   69.69    6.30
  -3  12   1   74.69    7.80
   3  12  -1   52.09    9.10
   2 -12  -1  512.05   23.60
   2 -12  -1  533.15   24.70
  -2 -12   1  537.05   26.90
  -2 -12   1  588.94   23.90
  -2  12   1  558.34   26.00
   2  12  -1  554.64   24.00
  -2  12   1  511.55   25.80
  -1 -12   1  860.91   35.30
  -1 -12   1  850.41   37.70
   1 -12  -1  838.42   36.50
   1  12  -1  831.12   34.70
   1  12  -1  822.42   34.50
  -1  12   1  793.02   36.80
  -1  12   1  833.52   36.80
   0 -12  -1  333.17   17.60
   0 -12   1  331.27   16.40
   0 -12   1  369.26   18.00
   0  12  -1  338.27   15.70
   0  12  -1  335.67   16.00
   0  12   1  328.67   17.60
   0  12   1  327.07   17.40
  -1 -12  -1  595.34   28.60
   1 -12   1  635.14   27.20
   1 -12   1  583.84   27.00
  -1  12  -1  636.04   27.00
  -1  12  -1  586.94   26.60
   1  12   1  590.94   28.20
   1  12   1  606.14   27.90
  -2 -12  -1 2888.91  118.89
  -2 -12  -1 3059.29  114.29
   2  12   1 2741.53  117.99
  -2  12  -1 3029.90  116.99
  -3 -12  -1 1446.06   56.79
   3 -12   1 1449.46   56.99
  -3 -12  -1 1398.96   61.09
  -3  12  -1 1383.96   58.99
   3  12   1 1375.86   60.19
   4 -12   1    3.70    3.60
  -4 -12  -1    3.40    3.40
  -4 -12  -1   -0.60    4.70
   4  12   1    0.30    4.00
  -4  12  -1    2.10    4.00
  -5 -12  -1 1052.89   44.90
  -5 -12  -1 1065.89   48.60
   5 -12   1 1006.10   46.00
  -5  12  -1 1041.90   46.90
   5  12   1 1032.10   47.40
  -6 -12  -1  808.62   40.40
  -6 -12  -1  798.82   37.30
   6 -12   1  823.12   39.10
  -6  12  -1  778.22   41.60
   6  12   1  790.22   38.90
   7 -12   1   14.20    9.10
  -7 -12  -1   13.60    9.60
  -7  12  -1   45.40   11.60
   7  12   1   12.50    7.30
   8 -12   1  212.68   25.90
  -8 -12  -1  172.78   21.60
   8  12   1  159.48   20.80
  -8  12  -1  201.48   26.30
   8 -13  -1   10.70   12.10
   8  13  -1   11.80    8.30
  -8  13   1   17.10   14.30
   7 -13  -1   -5.70    8.60
   7  13  -1   -3.30    5.70
  -7  13   1    2.90    8.70
  -6 -13   1    6.80    7.30
   6 -13  -1   -0.90    5.90
  -6  13   1   11.10    7.60
  -6  13   1  -10.30    7.10
   6  13  -1    0.30    4.50
   6  13  -1    3.40    9.90
  -5 -13   1   12.90    6.30
   5 -13  -1   24.80    3.40
   5 -13  -1   17.00    5.90
  -5  13   1   19.10    5.80
   5  13  -1   17.60    5.00
   5  13  -1    3.80    8.70
  -5  13   1   23.10    6.80
  -4 -13   1    3.50    4.70
   4 -13  -1    2.60    3.90
   4 -13  -1   10.60    3.00
  -4  13   1    5.40    4.40
  -4  13   1   -1.30    4.50
   4  13  -1   -5.40    7.30
   4  13  -1    2.60    3.20
   3 -13  -1   -1.80    2.90
  -3 -13   1    8.80    5.00
   3 -13  -1    2.60    2.80
  -3  13   1    6.00    4.00
   3  13  -1    1.80    2.90
  -3  13   1    3.70    4.00
   3  13  -1   12.60    6.30
  -2 -13   1  108.39    7.10
   2 -13  -1   93.29    8.00
  -2 -13   1  126.59   10.60
  -2  13   1   92.69    9.30
   2  13  -1   99.99    7.60
  -2  13   1  109.69    9.70
  -1 -13   1   90.39    6.70
   1 -13  -1   87.29    7.70
  -1 -13   1   86.59    8.50
   1  13  -1   84.49    6.60
  -1  13   1   81.49    8.20
   1  13  -1   74.99    6.30
  -1  13   1   93.69    9.00
   0 -13   1   11.80    3.10
   0 -13  -1    8.90    4.00
   0 -13   1   12.30    4.20
   0  13  -1   12.60    3.60
   0  13  -1   14.40    2.90
   0  13   1   14.90    4.40
   0  13   1   12.90    4.30
   1 -13   1  125.49    8.80
   1 -13   1  124.29    9.00
  -1 -13  -1  136.19   10.40
   1  13   1  128.49   10.00
  -1  13  -1  122.79    8.60
   1  13   1  123.99   10.00
  -1  13  -1  129.29    9.20
  -2 -13  -1  549.35   27.60
   2  13   1  574.84   26.90
   2  13   1  549.35   27.10
  -2  13  -1  523.35   25.80
  -2  13  -1  565.24   25.80
  -3 -13  -1   17.00    4.70
   3  13   1   14.00    4.70
  -3  13  -1   17.10    4.40
   4 -13   1    7.50    4.00
  -4 -13  -1   -1.90    2.60
  -4 -13  -1   -1.10    5.60
   4  13   1    3.10    4.10
  -4  13  -1   -2.90    4.20
  -5 -13  -1  150.38   14.20
   5 -13   1  148.29   12.60
  -5 -13  -1  170.88   11.20
  -5  13  -1  149.09   14.20
   5  13   1  122.59   13.10
  -6 -13  -1  106.29   12.00
  -6 -13  -1   88.29   13.90
   6 -13   1   91.29   13.40
   6  13   1   76.09   11.40
  -6  13  -1  129.69   16.90
   7 -13   1    1.30   10.30
  -7 -13  -1   -8.60    8.30
  -7 -13  -1   -5.50    5.70
  -7  13  -1    0.90   10.70
   7  13   1    0.60    8.10
   8 -14  -1  891.91   48.30
   8  14  -1  941.91   44.80
  -8  14   1  884.31   51.99
   7 -14  -1  343.87   25.00
  -7  14   1  416.96   29.60
   7  14  -1  347.67   22.50
  -6 -14   1   14.40    8.10
   6 -14  -1   16.80    6.90
  -6  14   1   21.20    9.10
   6  14  -1   15.30    5.60
  -6  14   1    9.30   13.50
   5 -14  -1  544.95   21.10
  -5 -14   1  483.35   28.00
   5 -14  -1  479.85   25.60
  -5  14   1  478.65   26.60
   5  14  -1  479.35   24.70
   4 -14  -1  817.22   34.00
   4 -14  -1  791.32   35.40
   4  14  -1  804.12   35.60
  -4  14   1  792.32   37.30
  -4  14   1  759.72   38.30
  -3 -14   1   33.30    7.10
   3 -14  -1   31.60    5.60
   3 -14  -1   35.90    5.10
  -3  14   1   30.30    6.30
   3  14  -1   28.30    4.70
  -3  14   1   38.30    6.70
   2 -14  -1  415.96   21.70
  -2 -14   1  429.26   24.00
   2  14  -1  441.76   21.10
  -2  14   1  450.85   23.10
   2  14  -1  481.75   20.90
  -2  14   1  444.96   23.30
  -1 -14   1 1513.15   66.39
   1 -14  -1 1470.55   65.19
  -1 -14   1 1586.14   63.99
   1  14  -1 1631.64   63.59
   1  14  -1 1627.54   63.79
  -1  14   1 1501.45   65.79
  -1  14   1 1586.54   65.79
   0 -14   1  771.72   34.80
   0 -14  -1  764.52   35.00
   0  14  -1  742.03   32.80
   0  14   1  748.53   34.80
   0  14   1  764.22   34.70
   0  14  -1  744.83   32.90
  -1 -14  -1 1003.40   46.00
   1 -14   1 1121.79   44.70
  -1  14  -1 1015.30   43.80
   1  14   1 1011.10   45.20
   1  14   1 1009.20   45.60
  -1  14  -1 1017.30   43.80
  -2 -14  -1 2577.74  106.79
   2  14   1 2590.94  105.99
  -2  14  -1 2498.55  104.49
  -2  14  -1 2679.73  104.89
   2  14   1 2582.54  105.79
  -3 -14  -1  196.78   21.70
  -3  14  -1  250.37   15.00
  -3  14  -1  229.78   15.20
   3  14   1  239.98   15.50
  -4 -14  -1   21.50    7.40
   4 -14   1   17.30    4.10
  -4  14  -1   27.10    6.50
  -4  14  -1   24.60    6.40
   4  14   1   15.70    6.50
  -5 -14  -1  347.87   22.90
   5 -14   1  363.46   19.50
  -5  14  -1  355.06   23.30
  -5  14  -1  330.17   22.20
   5  14   1  333.07   22.00
  -6 -14  -1  935.41   47.70
   6 -14   1  990.40   44.70
  -6  14  -1  935.61   48.40
   6  14   1  963.60   45.90
   7 -14   1   65.99   13.90
  -7 -14  -1   99.19   16.10
  -7  14  -1  100.79   17.10
   7  14   1   84.79   12.40
   8 -15  -1  -19.50   13.40
  -8  15   1    1.10   16.00
   8  15  -1    1.90    9.40
   7 -15  -1  257.57   22.60
   7  15  -1  225.08   18.50
  -7  15   1  227.18   25.50
  -6 -15   1  509.55   30.40
   6 -15  -1  477.85   27.40
  -6  15   1  456.95   31.40
   6  15  -1  498.25   26.00
   5 -15  -1   62.49    5.50
  -5 -15   1   68.69   12.00
   5 -15  -1   70.09   10.50
  -5  15   1   71.39   10.40
  -5  15   1   67.69   10.90
   5  15  -1   56.39    9.20
  -4 -15   1   64.89   10.70
   4 -15  -1   71.29    6.90
   4 -15  -1   65.19    8.40
  -4  15   1   72.09   11.30
  -4  15   1   81.39   11.00
   4  15  -1   63.79    8.70
  -3 -15   1  468.95   25.90
   3 -15  -1  449.36   21.70
  -3  15   1  422.56   24.20
   3  15  -1  410.46   21.60
  -3  15   1  474.85   24.20
  -2 -15   1  318.77   20.30
   2 -15  -1  344.17   18.30
   2  15  -1  328.47   17.50
  -2  15   1  347.57   19.90
   2  15  -1  344.87   17.30
  -2  15   1  346.37   19.90
  -1 -15   1  214.38   14.90
   1 -15  -1  208.68   13.90
   1  15  -1  202.48   12.10
  -1  15   1  192.28   14.10
   1  15  -1  225.38   12.50
  -1  15   1  217.38   15.20
   0 -15   1 1201.18   50.79
   0 -15  -1 1095.09   50.59
   0  15   1 1146.89   50.69
   0  15  -1 1157.58   48.60
   0  15  -1 1159.68   48.60
   1 -15   1  556.04   26.10
  -1 -15  -1  540.45   27.80
  -1  15  -1  537.75   25.60
   1  15   1  548.05   27.40
   1  15   1  536.35   27.30
  -1  15  -1  520.35   25.30
  -2 -15  -1  285.67   17.80
   2  15   1  269.17   16.90
  -2  15  -1  267.27   15.60
  -2  15  -1  242.68   15.80
   2  15   1  263.77   17.30
  -3 -15  -1    2.80    5.80
  -3  15  -1    7.10    5.40
  -3  15  -1    8.60    5.10
   3  15   1    3.50    4.90
   3  15   1   18.80    6.90
  -4 -15  -1  503.25   27.30
  -4  15  -1  492.25   25.50
   4  15   1  472.45   26.20
  -4  15  -1  417.26   26.20
  -5 -15  -1   98.29   14.20
   5 -15   1   88.49   10.20
  -5  15  -1   64.19   11.30
   5  15   1   93.19   13.10
  -5  15  -1   76.19   10.70
  -6 -15  -1  237.48   21.10
   6 -15   1  251.77   19.10
  -6  15  -1  207.58   22.10
   6  15   1  255.47   19.80
  -7 -15  -1  538.85   34.40
  -7  15  -1  494.65   36.00
   7  15   1  540.65   32.80
   7 -16  -1  118.69   20.70
   7  16  -1  161.38   17.10
  -7  16   1  147.49   23.50
  -6 -16   1   15.90   10.10
   6 -16  -1   11.20    8.10
   6  16  -1    1.80    6.20
  -6  16   1    3.90    9.40
   5 -16  -1  219.58   15.30
   5 -16  -1  224.98   11.10
  -5 -16   1  231.28   19.60
  -5  16   1  234.28   19.80
  -5  16   1  212.08   19.60
   5  16  -1  220.68   15.60
   4 -16  -1  237.78   12.80
   4 -16  -1  206.28   12.70
  -4 -16   1  230.38   18.40
  -4  16   1  211.88   17.30
   4  16  -1  200.08   14.50
  -4  16   1  223.38   17.80
  -3 -16   1   26.60    7.70
   3 -16  -1   40.90    7.00
  -3  16   1   18.30    7.20
   3  16  -1   20.70    5.20
  -3  16   1   29.20    7.10
   3  16  -1   27.50    6.40
  -2 -16   1  408.66   23.30
   2 -16  -1  381.86   20.60
   2  16  -1  387.66   19.70
   2  16  -1  382.26   19.60
  -2  16   1  350.06   21.80
  -2  16   1  403.96   22.50
   1 -16  -1  810.42   37.10
  -1 -16   1  826.62   38.30
   1  16  -1  764.62   35.00
   1  16  -1  774.72   35.00
  -1  16   1  765.92   37.40
  -1  16   1  812.02   37.60
   0 -16   1  533.75   26.40
   0 -16  -1  490.25   26.30
   0  16   1  527.25   26.50
   0  16  -1  512.15   24.60
   0  16  -1  488.35   24.10
   0  16   1  478.45   26.20
  -1 -16  -1    5.20    5.20
   1 -16   1   -3.40    3.50
   1  16   1    2.40    5.40
  -1  16  -1   -1.50    4.10
  -1  16  -1    2.60    3.80
   1  16   1   -1.70    4.70
  -2 -16  -1   35.20    7.80
  -2  16  -1   35.30    6.50
  -2  16  -1   53.39    8.30
   2  16   1   40.30    7.60
   2  16   1   43.00    7.60
  -3 -16  -1    3.60    5.90
  -3  16  -1   -4.30    5.30
   3  16   1   -3.60    6.60
  -3  16  -1    2.20    5.30
   3  16   1    4.40    5.00
  -4 -16  -1    4.40    6.20
   4  16   1   -3.60    6.20
  -4  16  -1    8.10    7.50
  -4  16  -1    3.50    6.40
  -5 -16  -1   77.59   13.10
  -5  16  -1   71.29   11.90
   5  16   1   72.09   11.00
  -6 -16  -1  176.18   19.90
  -6  16  -1  173.78   21.30
   6  16   1  151.28   18.90
  -7  17   1  345.87   32.40
   7  17  -1  350.36   24.70
  -6 -17   1  857.71   44.50
   6 -17  -1  771.02   38.20
  -6  17   1  792.52   44.90
   5 -17  -1  131.99   11.70
  -5 -17   1  126.19   16.00
  -5  17   1  116.89   16.50
   5  17  -1  114.19   13.00
   4 -17  -1  343.57   17.70
  -4 -17   1  336.27   23.80
  -4  17   1  355.16   23.90
  -4  17   1  339.07   22.70
   4  17  -1  306.07   19.30
  -3 -17   1 1391.16   61.39
   3 -17  -1 1302.97   56.59
  -3  17   1 1320.77   60.09
  -3  17   1 1336.27   58.99
   3  17  -1 1307.47   56.79
   2 -17  -1  962.90   43.50
  -2 -17   1  948.81   49.70
   2  17  -1  973.30   42.40
   2  17  -1  959.10   42.60
  -2  17   1  965.50   45.40
  -2  17   1  986.30   45.10
  -1 -17   1    9.20    6.00
  -1  17   1   -2.50    6.10
  -1  17   1    3.40    5.40
   1  17  -1   12.20    4.80
   1  17  -1   -6.90    4.90
   0 -17   1  853.31   41.10
   0 -17  -1  928.91   42.30
   0  17   1  875.11   41.80
   0  17  -1  875.51   39.70
   0  17   1  906.91   41.80
   0  17  -1  896.11   39.80
  -1 -17  -1  897.91   44.30
   1 -17   1 1020.30   42.60
  -1  17  -1  952.30   41.70
  -1  17  -1  923.01   41.70
   1  17   1  875.51   43.10
   1  17   1  938.91   43.70
  -2 -17  -1   33.30    8.10
  -2  17  -1   53.19    9.00
   2  17   1   33.00    8.70
  -2  17  -1   34.00    6.70
   2  17   1   25.60    6.90
  -3 -17  -1  464.25   27.50
   3  17   1  456.65   28.20
  -3  17  -1  487.35   25.60
  -3  17  -1  478.35   26.00
   3  17   1  451.35   25.70
  -4 -17  -1  999.90   48.30
  -4  17  -1  937.01   46.50
  -4  17  -1  948.61   45.40
   4  17   1  960.10   51.89
   4  17   1  984.90   48.50
  -5 -17  -1  253.87   22.50
  -5  17  -1  214.18   21.60
   5  17   1  244.08   20.00
  -6 -17  -1   72.59   14.60
   6  17   1   91.49   13.80
  -6  17  -1   56.29   14.70
  -6 -18   1    5.30   12.00
   6  18  -1   14.80    8.70
  -6  18   1   42.60   14.30
   5  18  -1   57.69    9.20
  -5  18   1   60.09   12.80
  -4 -18   1   72.49   13.00
   4 -18  -1   86.19    9.60
  -4  18   1   68.19   11.70
  -4  18   1  117.39   15.90
   4  18  -1   78.59   11.50
   4  18  -1   72.99   11.60
   3 -18  -1   74.89    9.90
  -3 -18   1   60.09   12.00
   3  18  -1   81.59   10.60
   3  18  -1   70.99   10.10
  -3  18   1   68.49   10.80
  -3  18   1   41.60   10.40
   2 -18  -1   13.40    6.20
  -2 -18   1    9.90    7.40
  -2  18   1    6.20    7.80
  -2  18   1   10.90    6.40
   2  18  -1   13.60    5.50
  -1 -18   1   62.59   11.90
   1 -18  -1   90.09   11.20
   1  18  -1   82.49   13.10
  -1  18   1   79.99   11.50
  -1  18   1   77.49   11.20
   1  18  -1   68.79   10.30
   0 -18  -1   11.20    9.40
   0 -18   1   -0.30    5.60
   0  18   1    6.70    5.80
   0  18  -1   11.00    5.20
   0  18   1   20.50    7.80
   1 -18   1    5.30    5.30
  -1 -18  -1   -2.00    6.30
   1  18   1    6.50    6.20
   1  18   1    3.30    8.10
  -1  18  -1   -3.60    5.40
  -1  18  -1    5.00    5.70
  -2 -18  -1   73.49   13.00
   2  18   1   51.09   10.70
  -2  18  -1   75.19   11.50
  -2  18  -1   66.89    9.40
   2  18   1   54.79    9.90
  -3 -18  -1  105.99   15.30
   3  18   1   94.29   14.30
  -3  18  -1   85.79   13.90
   3  18   1  104.29   13.80
  -3  18  -1  111.49   14.20
  -4 -18  -1    2.50    8.90
  -4  18  -1    8.90   11.30
  -4  18  -1   23.50    9.40
   4  18   1    9.70    8.90
   4  18   1   -3.60   11.60
  -5 -18  -1   90.39   15.50
  -5  18  -1   63.69   14.10
   5  18   1   86.99   13.40
  -5 -19   1  122.49   21.10
   5  19  -1  121.89   15.10
  -5  19   1  123.89   20.60
  -4 -19   1   84.99   14.50
   4 -19  -1   79.69   10.60
   4  19  -1   70.69   12.00
   4  19  -1   92.39   13.70
  -4  19   1   85.99   13.50
   3 -19  -1  578.94   28.50
  -3 -19   1  586.84   33.40
  -3  19   1  505.15   31.40
  -3  19   1  525.95   32.00
   3  19  -1  577.24   30.00
   3  19  -1  563.04   28.50
  -2 -19   1  390.46   25.70
   2 -19  -1  402.86   22.80
  -2  19   1  400.36   25.50
   2  19  -1  390.16   22.00
  -2  19   1  355.76   24.40
   2  19  -1  377.76   23.10
  -1 -19   1    6.00    6.70
   1  19  -1   -1.20    6.00
  -1  19   1   10.80    8.90
  -1  19   1   20.30    7.50
   1  19  -1   12.10    7.80
   0 -19  -1  427.66   25.90
   0 -19   1  515.15   26.60
   0  19   1  436.66   26.70
   0  19   1  434.26   28.10
   0  19  -1  417.46   24.30
   0  19  -1  426.86   24.20
  -1 -19  -1  426.66   26.40
  -1  19  -1  421.86   24.00
   1  19   1  446.16   25.90
  -1  19  -1  414.16   23.60
   1  19   1  375.66   26.80
  -2 -19  -1  102.59   16.00
  -2  19  -1   86.89   13.50
  -2  19  -1   81.79   13.40
   2  19   1   99.39   12.90
   2  19   1   88.29   13.50
  -3 -19  -1  930.81   45.70
  -3  19  -1  797.22   49.00
  -3  19  -1  895.21   42.50
   3  19   1  874.71   45.90
  -4 -19  -1  771.22   42.10
  -4  19  -1  714.03   40.20
   4  19   1  769.62   39.90
  -5 -19  -1  304.37   30.90
   5  19   1  321.77   25.80
  -5  19  -1  358.66   29.50
  -5 -20   1  407.16   31.50
  -5  20   1  378.66   32.10
  -4 -20   1  307.87   26.20
  -4  20   1  299.97   26.40
   4  20  -1  271.07   21.10
  -3 -20   1   22.40   11.90
   3 -20  -1   17.20    7.70
  -3  20   1   -0.20    8.70
   3  20  -1   20.40    7.80
   3  20  -1   -9.90   10.20
  -2 -20   1  460.95   29.90
   2 -20  -1  494.15   27.80
   2  20  -1  471.35   26.10
   2  20  -1  471.45   27.20
  -2  20   1  474.05   30.10
  -2  20   1  467.05   29.80
   1 -20  -1  928.71   46.10
  -1 -20   1 1007.40   47.80
  -1  20   1  996.90   48.10
  -1  20   1  916.71   47.30
   1  20  -1  983.80   45.20
   1  20  -1  985.60   45.30
   0 -20  -1   71.49   11.80
   0 -20   1  112.49   14.50
   0  20   1   77.39   13.80
   0  20  -1   80.39   11.70
   0  20  -1   84.79   13.30
   0  20   1   98.69   16.10
  -1 -20  -1   40.90   11.00
  -1  20  -1   26.50    9.30
  -1  20  -1   49.50    9.30
   1  20   1   48.40   10.10
   1  20   1   55.39   13.10
  -2 -20  -1  209.78   20.20
  -2  20  -1  168.98   18.10
  -2  20  -1  202.68   18.50
   2  20   1  197.48   24.50
   2  20   1  166.18   29.50
  -3 -20  -1  423.46   29.30
   3  20   1  395.06   26.70
   3  20   1  389.26   32.60
  -3  20  -1  393.26   27.00
  -4 -20  -1    1.60   11.90
   4  20   1   -1.60   11.20
  -4  20  -1    6.70   11.60
  -4 -21   1   28.20   13.30
  -4  21   1    4.40   13.60
   3 -21  -1   69.89   11.70
  -3 -21   1   60.19   14.70
  -3  21   1   51.39   14.30
   3  21  -1   64.49   11.10
  -2 -21   1  181.48   19.60
   2 -21  -1  157.28   18.10
  -2  21   1  138.49   21.20
   2  21  -1  161.28   17.10
  -1 -21   1   15.50    9.60
   1 -21  -1   16.40    9.40
   1  21  -1   32.50   11.70
  -1  21   1   15.20   12.50
  -1  21   1   26.40   11.20
   1  21  -1   14.50    8.70
   0 -21  -1   63.79   12.30
   0  21  -1   99.99   14.90
   0  21  -1   82.09   12.80
   0  21   1   56.79   13.70
   0  21   1   56.49   14.50
  -1 -21  -1    0.50    9.20
  -1  21  -1   -2.10    8.80
  -1  21  -1  -13.90    9.70
   1  21   1   20.50   13.70
   1  21   1   14.20    9.90
  -2 -21  -1   29.50   12.40
   2  21   1   17.20   11.20
  -2  21  -1   35.70   12.00
   2  21   1   29.50   17.40
  -2  21  -1   40.30   11.40
  -3 -21  -1   -2.00   12.20
   3  21   1  -14.00   11.20
  -3  21  -1    1.70   11.60
  -2 -22   1  429.46   30.60
   2 -22  -1  415.66   28.00
  -2  22   1  406.36   31.50
   1 -22  -1 1183.38   55.29
   1  22  -1 1138.79   53.49
  -1  22   1 1081.79   56.19
   0 -22  -1  213.98   22.80
   0  22   1  247.28   24.70
   0  22  -1  280.47   22.70
  -1 -22  -1  170.18   21.80
  -1  22  -1  150.88   21.30
   1  22   1  154.98   22.10
  -2 -22  -1  547.35   35.00
   2  22   1  497.15   33.20
  -2  22  -1  435.46   32.40
 -10   0   2  445.06   30.60
  10   0  -2  417.16   30.20
  -9   0   2 1198.88   55.69
  -9   0   2 1134.99   55.89
   9   0  -2 1176.08   55.69
   9   0  -2 1217.68   51.69
   8   0  -2 1219.98   51.49
   8   0  -2 1156.98   54.69
  -8   0   2 1230.18   55.49
  -8   0   2 1198.98   53.99
   7   0  -2  167.98   13.50
  -7   0   2  208.58   14.80
   7   0  -2  188.18   11.80
  -7   0   2  199.68   13.50
   6   0  -2 2345.37   97.09
  -6   0   2 2263.57   97.59
  -6   0   2 2465.65   96.29
   6   0  -2 2432.36   95.59
  -5   0   2 1942.11   76.09
   5   0  -2 1920.71   76.99
   5   0  -2 1905.21   75.89
  -5   0   2 1754.72   77.09
   4   0  -2  596.14   27.30
  -4   0   2  634.24   27.80
  -4   0   2  637.54   26.80
   3   0  -2 2346.27   96.79
  -3   0   2 2418.46   97.19
   3   0  -2 2559.84   96.99
  -3   0   2 2486.05   96.39
   2   0  -2 8432.46  326.47
  -1   0   2  297.37   12.60
  -1   0   2  270.87   12.60
   1   0  -2  284.07   12.80
   1   0  -2  288.37   13.00
  -1   0   2  269.97   12.80
   0   0   2 1632.84   66.79
   0   0   2 1685.63   66.99
   0   0  -2 1679.23   67.19
   0   0   2 1761.22   66.39
   1   0   2 4017.00  163.68
   1   0   2 4457.25  162.58
  -1   0  -2 4096.39  164.18
  -2   0  -2 1731.23   70.99
   2   0   2 1673.33   70.29
   2   0   2 1834.62   68.49
   3   0   2  476.35   22.20
   3   0   2  500.15   19.90
  -3   0  -2  500.65   23.40
  -3   0  -2  443.46   20.60
  -4   0  -2 1372.26   55.99
   4   0   2 1429.66   58.09
  -4   0  -2 1333.27   62.89
   5   0   2  744.53   33.60
  -5   0  -2  680.53   31.10
  -5   0  -2  742.53   35.30
  -6   0  -2    4.20    5.40
   6   0   2   12.90    5.20
  -6   0  -2    8.80    3.70
  -7   0  -2 1117.49   55.09
   7   0   2 1172.68   52.69
   8   0   2 1563.94   70.39
   9   0   2  226.88   23.80
 -10  -1   2  199.18   20.30
  10  -1  -2  178.48   21.80
  10   1  -2  163.68   20.60
 -10   1   2  177.08   22.00
  10   1  -2  126.59   19.60
  -9  -1   2   13.40    8.50
   9  -1  -2    7.10    5.60
  -9  -1   2    6.50    7.30
  -9  -1   2    8.20    4.50
   9  -1  -2    7.20    7.00
   9   1  -2    3.90    7.30
  -9   1   2   17.80   10.00
   9   1  -2   -0.60    6.10
  -9   1   2   -0.50    7.40
   8  -1  -2  258.87   18.80
  -8  -1   2  292.47   19.10
   8  -1  -2  273.57   16.00
  -8  -1   2  268.47   19.60
   8   1  -2  303.87   20.10
  -8   1   2  265.17   20.30
   8   1  -2  291.47   16.70
  -8   1   2  276.57   18.50
   7  -1  -2  204.48   14.90
  -7  -1   2  200.08   15.00
   7  -1  -2  228.98   13.00
  -7  -1   2  242.48   15.00
   7   1  -2  236.08   15.30
   7   1  -2  234.98   13.60
  -7   1   2  204.98   16.00
  -7   1   2  233.88   14.70
   6  -1  -2    6.80    2.80
  -6  -1   2    7.00    3.60
  -6  -1   2    8.00    3.30
   6  -1  -2    6.50    3.20
  -6   1   2    8.70    3.70
   6   1  -2    8.00    3.10
  -6   1   2    9.90    3.40
   6   1  -2    5.60    3.00
   5  -1  -2  134.89    9.40
  -5  -1   2  152.98    9.00
   5  -1  -2  142.59    8.50
  -5  -1   2  144.79    9.90
  -5   1   2  153.08    9.20
  -5   1   2  139.29   10.10
   5   1  -2  135.19    9.20
   5   1  -2  137.89    8.80
   4  -1  -2  835.52   35.60
  -4  -1   2  816.92   35.40
  -4  -1   2  846.72   34.60
   4   1  -2  806.92   35.00
  -4   1   2  758.72   35.80
   4   1  -2  866.91   35.20
  -4   1   2  874.81   35.00
   3  -1  -2 1521.65   62.19
  -3  -1   2 1537.85   61.19
   3  -1  -2 1554.24   62.09
  -3  -1   2 1486.95   61.79
  -3   1   2 1422.96   62.19
  -3   1   2 1616.74   61.79
   3   1  -2 1651.23   61.89
   3   1  -2 1554.34   61.69
  -2  -1   2  232.08   10.30
  -2  -1   2  241.28   10.00
   2  -1  -2  210.48   10.80
  -2  -1   2  237.18   10.40
   2   1  -2  221.68   10.40
  -2   1   2  217.88   10.90
   2   1  -2  217.18   10.20
  -2   1   2  225.48   10.60
  -1  -1   2  349.67   13.60
   1  -1  -2  325.37   14.50
   1  -1  -2  299.47   14.20
  -1  -1   2  314.67   13.80
  -1   1   2  326.27   14.50
  -1   1   2  318.17   14.20
   1   1  -2  310.27   13.80
   1   1  -2  332.47   14.00
   0  -1  -2   77.69    5.30
   0  -1   2   79.19    4.50
   0  -1   2   74.59    4.50
   0   1   2   82.69    5.00
   0   1  -2   77.99    4.80
   0   1   2   85.59    4.50
   1  -1   2 1333.67   50.09
   1  -1   2 1133.19   50.59
  -1  -1  -2 1279.77   51.89
   1   1   2 1318.17   49.90
  -1   1  -2 1258.87   51.29
   1   1   2 1263.97   51.39
  -2  -1  -2  711.33   31.50
   2  -1   2  727.33   29.00
   2  -1   2  707.73   30.40
   2   1   2  668.53   30.70
  -2   1  -2  706.03   31.10
   2   1   2  778.42   28.80
   3  -1   2   93.89    5.10
   3  -1   2   81.09    6.60
  -3  -1  -2   84.79    7.70
  -3  -1  -2   83.59    5.80
  -3   1  -2  100.19    7.90
   3   1   2   86.89    7.00
   3   1   2   92.89    4.70
  -3   1  -2   85.79    5.20
  -4  -1  -2  250.37   16.20
   4  -1   2  251.97   14.10
  -4  -1  -2  241.18   12.60
  -4   1  -2  244.78   12.00
   4   1   2  258.17   14.30
  -5  -1  -2   18.00    3.60
   5  -1   2   20.00    4.40
  -5  -1  -2   28.10    6.80
  -5   1  -2   19.10    5.40
   5   1   2   18.40    4.50
  -5   1  -2   23.50    4.10
  -6  -1  -2  382.96   19.20
  -6  -1  -2  395.46   24.40
   6  -1   2  377.56   21.20
  -6   1  -2  361.96   18.10
   6   1   2  376.86   21.50
  -6   1  -2  375.06   23.40
  -7  -1  -2  141.59   19.00
  -7  -1  -2  141.09   11.30
   7  -1   2  144.79   14.40
  -7   1  -2  108.39   17.70
   7   1   2  156.18   13.80
   8  -1   2   65.69   10.80
   8   1   2  102.39   14.90
   9  -1   2  145.19   23.70
   9   1   2  125.79   20.70
 -10  -2   2  129.49   18.80
  10  -2  -2  133.19   21.60
 -10   2   2  149.59   21.40
  10   2  -2  113.99   15.80
  10   2  -2   95.79   15.10
  -9  -2   2  472.15   28.80
  -9  -2   2  457.55   22.00
   9  -2  -2  463.45   29.60
   9  -2  -2  505.85   24.50
  -9  -2   2  451.65   28.30
   9   2  -2  499.15   26.00
  -9   2   2  480.35   30.00
  -9   2   2  471.65   30.30
   9   2  -2  479.75   28.30
  -8  -2   2  450.75   19.80
  -8  -2   2  441.16   25.20
   8  -2  -2  440.16   26.10
   8  -2  -2  442.86   21.50
  -8  -2   2  425.36   24.50
   8   2  -2  377.06   31.20
  -8   2   2  415.66   24.10
   8   2  -2  464.15   23.20
  -7  -2   2   26.70    6.10
   7  -2  -2   19.40    5.40
   7  -2  -2   36.00    5.60
  -7  -2   2   32.00    6.30
   7   2  -2   41.70    6.80
   7   2  -2   27.60    5.70
  -7   2   2   36.70    6.30
  -6  -2   2 1153.98   45.90
   6  -2  -2 1018.70   44.20
  -6  -2   2 1050.19   46.40
   6  -2  -2 1024.80   46.70
   6   2  -2 1059.49   46.10
   6   2  -2 1111.39   45.50
  -6   2   2 1093.39   45.90
  -6   2   2  970.50   47.20
  -5  -2   2 1036.50   43.20
   5  -2  -2  974.30   44.30
  -5  -2   2  992.20   43.80
   5   2  -2 1051.99   43.80
  -5   2   2 1029.10   43.50
   5   2  -2 1012.00   43.50
  -5   2   2 1117.19   45.70
  -4  -2   2   20.20    3.40
   4  -2  -2   16.80    3.30
  -4  -2   2   21.60    3.00
  -4  -2   2   20.90    2.70
   4   2  -2   19.30    3.30
  -4   2   2   20.70    3.80
   4   2  -2   15.80    3.10
  -4   2   2   15.70    2.90
   3  -2  -2 3828.42  150.98
  -3  -2   2 3836.22  149.99
  -3  -2   2 4070.89  149.59
  -3  -2   2 3721.93  149.39
   3  -2  -2 3965.10  150.78
  -3   2   2 3602.84  150.98
  -3   2   2 4097.49  150.58
   3   2  -2 3685.53  149.79
   3   2  -2 3761.12  149.88
   2  -2  -2 2473.05  103.79
  -2  -2   2 2614.64  102.09
  -2  -2   2 2801.32  102.89
   2   2  -2 2611.34  102.49
  -2   2   2 2709.33  103.69
   2   2  -2 2741.43  102.89
  -2   2   2 2473.65  103.89
  -1  -2   2   29.10    2.50
  -1  -2   2   26.00    1.50
   1  -2  -2   24.10    2.80
  -1  -2   2   26.60    1.40
   1  -2  -2   18.50    2.70
  -1   2   2   22.60    2.90
  -1   2   2   22.50    2.70
   1   2  -2   26.40    2.00
   1   2  -2   24.60    2.00
   0  -2  -2  586.44   26.00
   0  -2   2  591.94   24.70
   0  -2   2  654.73   25.00
   0  -2   2  615.94   24.50
   0   2   2  595.24   26.00
   0   2  -2  619.14   25.00
   0   2   2  599.34   25.70
   1  -2   2 4949.00  206.48
   1  -2   2 5405.26  206.28
  -1  -2  -2 5487.65  208.18
   1   2   2 5018.00  207.68
  -1   2  -2 5295.37  207.18
   1   2   2 5773.42  205.88
   2  -2   2 3282.77  136.29
  -2  -2  -2 3450.45  137.89
   2  -2   2 3600.04  135.29
   2   2   2 3701.43  134.59
   2   2   2 3364.56  137.29
  -2   2  -2 3442.86  137.09
   3  -2   2   82.59    5.00
  -3  -2  -2   81.29    5.90
   3  -2   2   81.89    6.40
  -3  -2  -2   82.09    7.90
   3   2   2   84.49    4.20
  -3   2  -2  106.89    7.80
   3   2   2   86.89    7.10
  -3   2  -2   74.79    4.70
  -4  -2  -2  685.43   29.10
   4  -2   2  697.33   30.20
   4  -2   2  617.34   27.30
  -4  -2  -2  717.43   32.40
   4   2   2  654.43   30.40
  -4   2  -2  627.04   33.50
  -4   2  -2  636.34   27.50
  -5  -2  -2  461.75   21.90
  -5  -2  -2  481.75   25.50
   5  -2   2  463.15   23.30
   5   2   2  473.65   23.60
  -5   2  -2  475.85   24.90
  -5   2  -2  412.56   20.10
  -6  -2  -2   52.49    9.40
  -6  -2  -2   57.99    7.30
   6  -2   2   54.39    8.20
   6   2   2   59.49    9.80
   7  -2   2  484.75   27.10
  -7  -2  -2  472.85   24.00
  -7  -2  -2  482.75   30.60
  -7   2  -2  428.06   29.60
   7   2   2  485.55   26.80
   8  -2   2  651.63   36.10
   8   2   2  632.64   34.90
   9  -2   2   94.19   16.10
   9   2   2   64.99   13.40
 -10  -3   2  333.27   25.30
 -10  -3   2  283.77   29.10
  10  -3  -2  359.76   28.40
  10   3  -2  351.46   27.30
 -10   3   2  353.46   29.20
  -9  -3   2   25.20    9.80
   9  -3  -2   43.20    6.60
  -9  -3   2   28.10    7.70
   9  -3  -2   33.00    9.20
  -9   3   2   11.00   11.20
  -9   3   2   35.90   10.20
   9   3  -2   42.90    8.80
   9   3  -2   22.70    8.30
  -8  -3   2  433.36   25.60
  -8  -3   2  480.95   26.30
   8  -3  -2  469.85   27.40
   8  -3  -2  465.75   22.40
  -8  -3   2  472.95   20.60
   8   3  -2  472.25   24.60
  -8   3   2  482.45   26.20
  -8   3   2  492.05   28.60
   7  -3  -2 1436.36   65.19
   7  -3  -2 1518.55   61.59
  -7  -3   2 1497.25   60.09
  -7  -3   2 1528.25   64.49
  -7   3   2 1505.95   63.89
   7   3  -2 1573.54   63.69
   7   3  -2 1503.95   64.29
  -7   3   2 1457.55   66.29
   6  -3  -2  174.58   10.30
  -6  -3   2  195.58   11.80
   6  -3  -2  191.08   13.10
  -6  -3   2  162.78   11.80
  -6  -3   2  197.28    9.70
   6   3  -2  183.88   12.00
  -6   3   2  198.88   12.20
  -6   3   2  191.68   13.70
   5  -3  -2 1522.05   64.89
  -5  -3   2 1561.34   63.39
  -5  -3   2 1406.76   63.49
  -5  -3   2 1600.34   61.89
   5   3  -2 1603.34   63.89
  -5   3   2 1531.25   65.69
   5   3  -2 1569.54   64.09
  -5   3   2 1638.74   63.99
  -4  -3   2 4783.02  187.58
   4  -3  -2 4627.44  188.88
  -4  -3   2 4944.91  186.58
  -4  -3   2 4769.32  187.28
  -4   3   2 5130.89  188.48
   4   3  -2 4943.91  188.48
   4   3  -2 4686.53  187.48
  -4   3   2 4514.85  189.28
  -3  -3   2 1685.43   67.49
   3  -3  -2 1646.24   69.09
   3  -3  -2 1767.02   68.89
  -3  -3   2 1732.93   67.29
  -3  -3   2 1801.42   67.49
   3   3  -2 1700.63   68.79
   3   3  -2 1623.94   67.49
   3   3  -2 1680.53   67.69
  -3   3   2 1747.33   68.89
   2  -3  -2  422.46   19.90
  -2  -3   2  492.25   19.10
   2   3  -2  457.15   18.70
  -2   3   2  469.65   20.20
   2   3  -2  425.26   18.40
  -1  -3   2 2497.55   91.89
   1  -3  -2 2426.26   92.89
   1   3  -2 2300.47   90.79
  -1   3   2 2172.48   92.79
   1   3  -2 2409.56   90.79
  -1   3   2 2259.17   92.69
   0  -3   2 1141.39   45.10
   0  -3   2 1130.79   44.90
   0  -3   2 1236.68   45.90
   0  -3  -2 1159.48   47.10
   0   3   2 1143.19   47.10
   0   3  -2 1131.89   45.50
   0   3   2 1096.09   46.60
   1  -3   2  121.19    6.70
   1  -3   2  107.59    5.80
  -1  -3  -2  105.69    7.30
  -1   3  -2  103.49    6.20
   1   3   2  113.69    5.60
  -2  -3  -2 3553.74  138.29
   2  -3   2 3556.24  135.59
   2  -3   2 3280.57  136.29
   2   3   2 3700.13  134.59
   2   3   2 3251.97  137.39
  -2   3  -2 3510.45  136.99
   3  -3   2 4080.69  155.98
  -3  -3  -2 3850.91  157.18
  -3  -3  -2 3965.70  159.28
   3  -3   2 3891.51  157.48
  -3   3  -2 3728.93  154.98
   3   3   2 4270.27  154.48
   3   3   2 3998.00  158.48
  -3   3  -2 4206.28  158.48
   4  -3   2 1074.49   42.80
  -4  -3  -2 1061.69   47.10
   4  -3   2 1064.09   45.20
  -4   3  -2  971.30   42.00
  -4   3  -2 1092.39   46.30
   4   3   2 1054.19   45.70
  -5  -3  -2   48.80    6.30
  -5  -3  -2   71.89   10.30
   5  -3   2   51.09    7.40
  -5   3  -2   55.79    9.50
   5   3   2   55.49    7.50
  -6  -3  -2 1067.99   48.30
   6  -3   2 1009.00   45.70
  -6  -3  -2  901.41   43.30
  -6   3  -2 1014.70   47.30
   7  -3   2  477.75   26.80
  -7  -3  -2  435.86   24.00
  -7  -3  -2  495.45   31.20
   7   3   2  471.85   26.90
  -7   3  -2  455.55   30.10
   8  -3   2   49.50   11.10
   9  -3   2  467.05   35.50
   9   3   2  601.14   37.90
 -10  -4   2  -10.80   13.80
 -10  -4   2    1.80    9.50
  10  -4  -2   27.30   12.10
  10   4  -2   17.40    9.70
  10   4  -2   19.90   13.20
 -10   4   2   14.00   13.10
   9  -4  -2   14.70    8.90
  -9  -4   2   19.30    8.70
   9  -4  -2    1.20    4.90
  -9   4   2   10.40    9.50
   9   4  -2    0.30    8.10
   8  -4  -2    2.70    5.60
  -8  -4   2    9.40    3.30
   8  -4  -2    0.30    3.40
  -8  -4   2   12.30    6.40
  -8  -4   2    0.70    4.90
   8   4  -2    4.10    5.50
  -8   4   2    1.40    6.20
  -8   4   2    2.50    6.70
  -7  -4   2   30.70    6.00
  -7  -4   2   31.80    4.60
   7  -4  -2   25.70    4.10
  -7  -4   2   33.40    5.90
   7  -4  -2   21.50    6.20
  -7   4   2   28.30    5.90
   7   4  -2   29.40    5.80
   7   4  -2   38.90    6.90
  -7   4   2   33.20    7.90
  -6  -4   2   47.80    4.50
  -6  -4   2   43.00    6.50
  -6  -4   2   44.10    6.40
   6  -4  -2   42.40    7.00
   6  -4  -2   35.80    4.80
  -6   4   2   42.80    7.30
  -6   4   2   53.09    6.80
   6   4  -2   50.89    6.30
  -5  -4   2  110.69    7.80
  -5  -4   2  118.79    8.10
  -5  -4   2  110.99    6.60
   5  -4  -2  113.39    9.00
   5   4  -2  115.39    8.10
  -5   4   2  116.49    9.70
  -5   4   2  105.99    8.20
   5   4  -2  136.79    9.00
  -4  -4   2   72.19    5.30
  -4  -4   2   80.59    5.50
   4  -4  -2   75.29    6.70
  -4  -4   2   76.89    5.00
   4   4  -2   73.19    5.60
  -4   4   2   82.09    7.30
   4   4  -2   76.79    6.50
  -4   4   2   73.89    6.30
  -3  -4   2  235.88   10.00
  -3  -4   2  265.27   11.00
   3  -4  -2  230.98   12.50
   3  -4  -2  238.68   12.20
  -3  -4   2  222.88   10.10
   3   4  -2  226.58   12.10
   3   4  -2  240.58   10.90
  -3   4   2  235.78   12.20
   3   4  -2  233.08   10.80
   2  -4  -2   10.40    2.50
   2  -4  -2    6.50    1.90
  -2  -4   2   10.30    1.90
  -2   4   2   12.40    2.70
  -2   4   2    5.70    2.00
   2   4  -2   12.80    1.30
   2   4  -2   12.80    2.60
   2   4  -2   11.60    1.60
   1  -4  -2  183.68    9.60
  -1  -4   2  180.58    8.60
   1  -4  -2  159.58    9.10
  -1   4   2  164.78    9.50
  -1   4   2  174.48    9.40
   0  -4  -2  305.37   15.10
   0  -4   2  325.27   14.00
   0   4   2  331.97   15.00
   0   4  -2  306.07   13.20
   1  -4   2   19.00    2.70
   1  -4   2   20.00    2.30
  -1  -4  -2   18.70    3.60
  -1   4  -2   22.70    2.70
   1   4   2   12.30    2.70
   2  -4   2  133.29    7.10
   2  -4   2  117.29    7.30
  -2  -4  -2  141.39    9.40
   2   4   2  127.09    5.90
   2   4   2  122.39    8.30
  -2   4  -2  120.19    7.60
  -3  -4  -2  149.09    9.20
   3  -4   2  147.39    9.30
  -3  -4  -2  157.98   11.10
   3  -4   2  150.28    8.20
  -3   4  -2  143.99    6.50
   3   4   2  146.49   10.00
  -3   4  -2  151.78    9.80
   4  -4   2   46.60    4.40
  -4  -4  -2   44.10    5.30
   4  -4   2   41.90    6.20
  -4  -4  -2   45.20    7.80
  -4   4  -2   57.19    7.20
   4   4   2   53.29    6.50
  -5  -4  -2   44.30    6.30
  -5  -4  -2   37.10    7.40
   5  -4   2   44.70    6.80
  -5   4  -2   40.90    6.80
   5   4   2   48.60    7.30
  -6  -4  -2   87.19   13.80
   6  -4   2   81.99   10.60
  -6  -4  -2   76.79    8.50
  -6   4  -2  106.49   14.30
  -7  -4  -2   21.30   11.00
  -7  -4  -2   15.70    5.50
   7  -4   2   19.10    7.20
   7   4   2   10.60    6.30
   8  -4   2    0.30    7.80
   8   4   2    9.40    8.10
   9  -4   2    8.20   13.20
   9   4   2   33.80   15.40
 -10  -5   2  278.87   22.10
  10  -5  -2  237.98   27.10
  10   5  -2  237.38   23.70
 -10   5   2  285.07   28.40
  -9  -5   2    7.00    8.60
   9  -5  -2   -5.20    8.00
   9  -5  -2   -2.10    4.40
  -9  -5   2   -8.30    6.80
   9   5  -2    6.90    7.60
  -9   5   2   13.50    8.60
   9   5  -2   -2.50    8.30
  -8  -5   2  652.93   33.10
  -8  -5   2  673.53   32.70
   8  -5  -2  668.93   29.10
   8  -5  -2  647.94   35.10
  -8   5   2  677.63   34.20
  -8   5   2  625.54   36.00
   8   5  -2  706.63   33.40
  -7  -5   2 2099.19   79.29
   7  -5  -2 1972.20   80.79
   7  -5  -2 1838.82   85.29
  -7  -5   2 2040.10   83.49
  -7  -5   2 2040.00   83.49
  -7   5   2 2040.70   84.29
   7   5  -2 2034.00   83.89
   7   5  -2 2088.79   84.09
  -7   5   2 2014.20   87.19
   6  -5  -2  337.07   17.20
  -6  -5   2  369.36   18.90
   6  -5  -2  359.86   20.90
  -6  -5   2  382.56   19.00
  -6  -5   2  402.06   16.40
   6   5  -2  379.26   19.40
  -6   5   2  374.26   19.70
  -6   5   2  401.06   22.40
   6   5  -2  395.26   20.10
  -5  -5   2  854.11   37.10
   5  -5  -2  849.12   39.50
  -5  -5   2  934.11   35.90
  -5  -5   2  882.41   37.30
   5   5  -2  910.31   39.00
  -5   5   2  897.71   39.00
   5   5  -2  861.41   37.70
   4  -5  -2 4225.98  166.68
  -4  -5   2 4389.16  163.58
  -4  -5   2 4295.17  163.68
  -4  -5   2 3942.81  163.48
   4   5  -2 4260.37  166.08
  -4   5   2 4092.79  166.98
  -4   5   2 4337.87  165.98
   4   5  -2 4075.39  164.38
  -3  -5   2 2690.53   98.89
   3  -5  -2 2576.64  101.19
  -3   5   2 2545.85  100.69
   3   5  -2 2563.94  100.79
   3   5  -2 2388.26   98.69
  -3   5   2 2370.86  101.09
   2  -5  -2  288.47   13.90
  -2  -5   2  300.27   12.90
  -2   5   2  280.57   14.20
   2   5  -2  268.87   13.80
   1  -5  -2 2728.63  105.59
  -1  -5   2 2857.01  104.59
   1  -5  -2 2587.74  105.29
   1   5  -2 2680.43  105.09
  -1   5   2 2630.84  105.59
  -1   5   2 2502.05  105.79
   0  -5  -2 1791.12   70.59
   0  -5   2 1845.62   69.29
   0   5  -2 1701.43   69.19
   0   5   2 1776.92   70.39
   0   5   2 1684.53   70.69
   0   5  -2 1691.63   68.19
  -1  -5  -2  139.99    8.90
   1  -5   2  139.09    6.90
   1  -5   2  137.29    7.40
   1   5   2  130.89    8.50
  -1   5  -2  128.59    7.10
  -2  -5  -2 2568.24   95.79
   2  -5   2 2328.57   93.19
  -2  -5  -2 2036.20   94.29
   2  -5   2 2257.07   94.09
  -2   5  -2 2435.16   93.69
  -2   5  -2 2227.68   91.29
   2   5   2 2306.17   94.89
   2   5   2 2682.03   91.69
  -3  -5  -2 3396.76  133.69
  -3  -5  -2 3313.97  131.89
   3  -5   2 3174.58  131.39
   3  -5   2 3352.36  130.49
   3   5   2 3340.47  132.89
  -3   5  -2 3351.26  131.99
  -4  -5  -2   68.19    6.90
  -4  -5  -2   79.19    9.60
   4  -5   2   67.69    7.00
   4  -5   2   75.09    5.50
  -4   5  -2   86.39    8.20
   4   5   2   59.69    7.50
   5  -5   2  755.92   34.70
  -5  -5  -2  734.63   36.70
  -5  -5  -2  741.13   34.00
   5   5   2  735.53   34.90
  -5   5  -2  749.03   35.50
   6  -5   2 1191.28   54.39
  -6  -5  -2 1225.78   56.89
  -6  -5  -2 1166.88   52.99
  -6   5  -2 1227.58   55.69
   6   5   2 1293.07   54.79
  -7  -5  -2  678.23   33.40
   7  -5   2  710.23   35.60
  -7  -5  -2  616.14   38.30
   7   5   2  712.53   35.00
   8  -5   2    7.40    9.80
  -8  -5  -2    0.20    7.20
   8   5   2   10.20    9.30
 -10  -6   2   30.70   10.70
  10  -6  -2   23.90   13.50
 -10   6   2   35.90   15.10
  10   6  -2   27.00   10.50
  -9  -6   2  415.36   24.60
   9  -6  -2  374.06   19.50
   9  -6  -2  442.06   29.70
  -9  -6   2  425.56   26.10
   9   6  -2  432.06   27.80
  -9   6   2  440.66   29.90
   9   6  -2  437.06   26.50
   8  -6  -2  137.49    9.00
  -8  -6   2  150.28   12.90
   8  -6  -2  143.39   16.30
   8   6  -2  136.69   14.20
  -8   6   2  152.68   16.20
  -8   6   2  136.39   16.50
  -7  -6   2    6.90    4.70
   7  -6  -2    1.00    4.70
  -7  -6   2   14.00    2.70
   7  -6  -2    9.00    3.10
  -7  -6   2    7.70    4.20
   7   6  -2    9.30    5.30
  -7   6   2    2.80    6.20
   7   6  -2    2.40    3.80
  -7   6   2   -0.20    4.80
  -6  -6   2  632.14   24.70
  -6  -6   2  597.34   27.10
   6  -6  -2  564.64   29.70
  -6  -6   2  592.04   27.00
   6   6  -2  581.34   27.70
  -6   6   2  588.44   28.40
  -6   6   2  587.64   31.00
   6   6  -2  635.44   29.20
  -5  -6   2  771.02   32.60
   5  -6  -2  730.53   35.50
  -5  -6   2  771.02   32.70
  -5  -6   2  841.92   31.80
   5   6  -2  781.22   33.70
  -5   6   2  755.92   34.60
  -5   6   2  778.52   36.60
   4  -6  -2   82.09    7.70
  -4  -6   2   94.29    5.60
  -4   6   2   92.09    8.20
   4   6  -2   84.49    5.90
  -4   6   2   96.89    7.40
   4   6  -2   91.09    7.50
   3  -6  -2  771.22   35.90
  -3  -6   2  921.81   34.10
  -3   6   2  824.42   35.90
  -3   6   2  801.82   36.40
   3   6  -2  823.92   33.70
   3   6  -2  854.61   36.10
  -2  -6   2 1095.09   39.90
   2  -6  -2  918.51   41.10
   2  -6  -2  943.71   40.80
   2   6  -2  956.60   41.10
  -2   6   2  994.90   41.50
   1  -6  -2  402.96   19.70
   1  -6  -2  438.66   20.00
  -1  -6   2  481.65   19.20
  -1   6   2  431.06   20.30
   1   6  -2  469.25   19.90
  -1   6   2  427.16   20.50
   0  -6  -2 2370.16   93.59
   0  -6   2 2452.95   92.39
   0   6   2 2386.96   93.59
   0   6  -2 2159.18   92.19
   0   6   2 2303.97   93.89
   0   6  -2 2386.26   91.19
  -1  -6  -2 3224.58  117.99
   1  -6   2 2936.01  114.99
   1   6   2 2963.20  117.89
  -1   6  -2 2793.32  115.19
  -1   6  -2 2857.81  115.59
  -2  -6  -2  346.77   18.20
  -2  -6  -2  324.67   17.40
   2  -6   2  370.86   16.30
   2  -6   2  345.27   16.10
  -2   6  -2  377.06   16.80
  -2   6  -2  364.66   14.30
   2   6   2  349.07   18.00
  -3  -6  -2  157.58   10.30
   3  -6   2  169.68    9.40
  -3  -6  -2  190.98   12.40
   3  -6   2  170.38   10.20
  -3   6  -2  176.78   10.60
   3   6   2  172.38   11.40
   4  -6   2   38.60    4.50
   4  -6   2   39.20    6.20
  -4  -6  -2   56.69    8.70
   4   6   2   40.80    6.50
  -4   6  -2   28.10    5.10
  -5  -6  -2  359.46   22.00
   5  -6   2  327.37   19.20
  -5  -6  -2  349.37   19.20
   5   6   2  359.86   20.20
  -5   6  -2  368.06   20.40
  -6  -6  -2   10.90    5.00
   6  -6   2   12.30    5.80
  -6  -6  -2   21.90    7.70
   6   6   2   11.50    5.20
  -6   6  -2   12.60    7.60
  -7  -6  -2  446.46   31.30
   7  -6   2  491.65   28.20
   7   6   2  507.95   27.80
  -8  -6  -2  463.75   27.60
   8  -6   2  472.55   31.00
   8   6   2  479.35   29.50
  10  -7  -2  435.76   34.00
 -10  -7   2  377.86   29.10
 -10   7   2  372.46   32.80
  10   7  -2  361.16   27.40
  -9  -7   2    4.90    7.00
   9  -7  -2    6.70    3.60
   9  -7  -2    0.70    9.60
  -9  -7   2    8.90    8.70
   9   7  -2   11.60    7.40
  -9   7   2   16.80    9.80
  -8  -7   2  293.77   17.80
  -8  -7   2  268.27   16.70
   8  -7  -2  247.48   20.80
   8  -7  -2  261.27   12.80
   8   7  -2  268.77   19.40
  -8   7   2  233.18   20.00
  -8   7   2  266.97   21.40
   8   7  -2  255.47   19.60
   7  -7  -2  165.18    9.50
   7  -7  -2  177.48   15.40
  -7  -7   2  168.68   11.50
  -7  -7   2  175.38   12.40
  -7   7   2  181.28   14.10
   7   7  -2  175.28   13.00
   7   7  -2  199.08   14.20
  -6  -7   2   48.60    5.60
  -6  -7   2   47.60    4.10
  -6  -7   2   56.79    6.30
   6  -7  -2   35.00    6.80
  -6   7   2   55.59    7.50
   6   7  -2   41.90    6.30
  -6   7   2   42.20    8.00
   6   7  -2   53.89    8.00
  -5  -7   2   68.59    4.80
  -5  -7   2   71.39    4.70
  -5  -7   2   55.29    4.70
   5  -7  -2   65.59    8.00
  -5   7   2   64.19    7.10
   5   7  -2   63.29    6.10
   5   7  -2   72.89    7.60
  -5   7   2   61.59    8.60
   4  -7  -2 1141.99   49.70
  -4  -7   2 1190.28   46.30
  -4   7   2 1165.08   49.10
   4   7  -2 1127.39   47.10
  -4   7   2 1165.98   50.29
   4   7  -2 1136.09   49.30
   3  -7  -2  728.53   33.00
  -3  -7   2  811.42   30.80
  -3   7   2  718.23   33.30
   3   7  -2  730.93   30.30
  -3   7   2  729.73   32.90
   3   7  -2  749.23   33.00
  -2  -7   2  289.97   12.20
   2  -7  -2  230.78   13.10
   2  -7  -2  269.47   13.20
  -2   7   2  252.67   13.60
  -2   7   2  253.07   13.90
   2   7  -2  251.77   13.30
   1  -7  -2 1216.68   52.69
  -1  -7   2 1400.16   52.29
   1  -7  -2 1304.37   52.99
  -1   7   2 1265.37   53.79
  -1   7   2 1294.17   53.49
   1   7  -2 1290.57   52.99
   0  -7  -2 1861.81   73.59
   0   7  -2 1703.03   72.39
   0   7   2 1841.72   73.69
   0   7   2 1824.82   74.19
   0   7  -2 1869.91   71.19
  -1  -7  -2  207.48   11.90
   1  -7   2  221.98   10.80
  -1   7  -2  213.98   10.30
   1   7   2  218.68   12.10
  -1   7  -2  211.38   10.00
   1   7   2  214.28   12.40
   2  -7   2  685.13   27.80
  -2  -7  -2  686.93   30.10
  -2  -7  -2  698.03   29.80
   2  -7   2  645.94   28.00
  -2   7  -2  589.24   26.00
   2   7   2  608.44   29.70
  -2   7  -2  669.93   28.20
   3  -7   2  353.16   16.20
  -3  -7  -2  318.37   17.40
  -3  -7  -2  366.36   19.10
   3  -7   2  320.67   16.70
   3   7   2  332.17   18.30
  -3   7  -2  360.26   17.30
   4  -7   2    8.10    3.50
   4  -7   2   10.40    3.10
  -4  -7  -2    5.80    3.40
  -4  -7  -2   10.50    4.90
   4   7   2   15.00    4.90
  -4   7  -2   11.60    4.20
   5  -7   2   91.89    9.70
  -5  -7  -2   92.19   13.00
  -5  -7  -2  100.79    9.80
   5   7   2   98.29   10.30
  -5   7  -2   88.69   11.00
   6  -7   2  486.75   26.20
  -6  -7  -2  461.45   28.70
  -6  -7  -2  468.85   25.30
  -6   7  -2  453.85   27.20
   6   7   2  489.75   25.90
  -7  -7  -2  320.27   20.40
   7  -7   2  298.17   22.00
  -7  -7  -2  251.17   25.60
   7   7   2  317.87   21.20
  -8  -7  -2   21.30    9.20
   8  -7   2   25.80   11.20
   8   7   2   -1.50    8.80
  10  -8  -2  108.99   20.20
  10   8  -2  130.09   20.50
  -9  -8   2 1024.20   50.29
   9  -8  -2  921.71   51.39
  -9  -8   2  984.80   45.00
  -9   8   2 1009.10   52.99
   9   8  -2 1010.60   47.50
   8  -8  -2  498.85   21.90
  -8  -8   2  532.85   26.70
  -8  -8   2  530.25   25.80
   8  -8  -2  537.85   31.80
   8   8  -2  557.34   30.40
   8   8  -2  540.25   28.00
  -8   8   2  477.85   32.50
  -7  -8   2   59.79    7.90
  -7  -8   2   60.99    7.50
   7  -8  -2   64.29    5.30
   7  -8  -2   90.59   14.70
  -7   8   2   66.49   11.10
   7   8  -2   68.59    8.80
   7   8  -2   58.89   10.10
  -7   8   2   68.89   10.90
   6  -8  -2 1767.82   77.49
  -6  -8   2 1766.62   72.39
  -6  -8   2 1724.73   72.09
  -6  -8   2 2010.30   71.29
   6   8  -2 1770.02   74.69
   6   8  -2 1926.81   76.89
  -6   8   2 1804.82   75.99
  -6   8   2 1750.82   78.59
   5  -8  -2 1964.10   85.89
  -5  -8   2 2231.88   81.29
  -5   8   2 1939.81   84.79
   5   8  -2 2132.09   85.69
  -5   8   2 2074.69   87.09
   5   8  -2 2055.19   83.29
   4  -8  -2    7.20    3.30
  -4  -8   2    4.90    2.00
   4   8  -2    1.20    1.80
  -4   8   2    1.20    2.70
  -4   8   2    0.80    3.00
   4   8  -2    3.80    4.20
   3  -8  -2 1973.60   81.29
  -3  -8   2 2089.19   78.79
   3   8  -2 1900.11   78.29
   3   8  -2 2023.80   81.49
  -3   8   2 2031.40   81.29
  -3   8   2 1934.01   81.79
   2  -8  -2 3263.87  122.29
  -2  -8   2 3224.78  121.09
   2  -8  -2 2890.41  122.29
   2   8  -2 3026.20  122.79
  -2   8   2 3184.98  123.09
  -2   8   2 2916.31  123.09
  -1  -8   2  365.86   19.40
   1  -8  -2  439.46   19.50
   1  -8  -2  437.96   19.60
  -1   8   2  437.36   20.40
   1   8  -2  418.26   19.70
  -1   8   2  445.66   20.80
   0  -8  -2 2035.40   81.09
   0  -8   2 2027.00   80.19
   0   8  -2 1922.31   80.29
   0   8   2 1934.21   81.89
   0   8   2 2091.49   81.69
   0   8  -2 2084.19   78.99
  -1  -8  -2 2603.54  105.59
   1  -8   2 2718.53  104.69
   1   8   2 2719.93  106.09
  -1   8  -2 2634.84  103.69
   1   8   2 2492.65  106.19
  -1   8  -2 2676.63  103.89
  -2  -8  -2  728.83   32.60
   2  -8   2  733.73   31.00
   2  -8   2  712.63   30.10
  -2  -8  -2  730.03   32.40
  -2   8  -2  725.83   30.80
   2   8   2  696.13   32.60
  -3  -8  -2    0.50    3.50
   3  -8   2   -1.00    1.90
  -3  -8  -2   -2.30    2.70
   3  -8   2    2.10    2.70
  -3   8  -2    4.20    2.70
   3   8   2    1.10    2.90
   4  -8   2 1135.89   48.50
  -4  -8  -2 1087.89   50.29
  -4  -8  -2 1131.89   49.50
   4  -8   2 1124.19   47.20
  -4   8  -2 1149.58   48.90
   4   8   2 1157.48   50.09
  -5  -8  -2 1296.07   60.09
  -5  -8  -2 1335.57   58.69
   5  -8   2 1359.16   58.29
  -5   8  -2 1390.96   58.99
   5   8   2 1367.76   59.29
  -6  -8  -2   15.70    8.90
  -6  -8  -2   19.70   10.40
   6  -8   2    2.20    6.00
  -6   8  -2   10.60    7.30
   6   8   2   10.30    5.70
  -7  -8  -2  657.53   38.40
  -7  -8  -2  646.94   33.90
   7  -8   2  640.24   35.20
   7   8   2  668.43   34.90
   8  -8   2 1013.40   49.99
  -8  -8  -2  964.80   47.40
   8   8   2  921.61   48.50
  10  -9  -2   35.40   15.70
  10   9  -2   -9.40   10.10
   9  -9  -2   34.70   11.10
  -9  -9   2    9.10    6.30
   9   9  -2    6.40    7.60
  -9   9   2    4.10   11.70
  -8  -9   2  155.08   12.10
   8  -9  -2  154.88   18.10
  -8  -9   2  140.89   11.10
   8   9  -2  121.29   13.30
  -8   9   2  149.29   18.70
   8   9  -2  165.18   18.80
   7  -9  -2  119.49    6.90
  -7  -9   2  123.39    8.30
  -7  -9   2  126.09    8.10
   7   9  -2  115.39   10.90
   7   9  -2  117.99   13.60
  -7   9   2   90.59   14.40
  -7   9   2  120.49   12.80
   6  -9  -2    1.90    4.80
   6   9  -2    6.70    5.10
  -6   9   2    4.60    4.90
  -6   9   2    7.20    5.30
   6   9  -2    6.20    3.60
  -5  -9   2    6.90    2.40
   5  -9  -2    6.40    4.10
  -5   9   2   11.10    4.30
   5   9  -2    8.10    4.50
   5   9  -2    8.50    2.80
  -5   9   2    4.20    4.20
   4  -9  -2    0.30    3.00
  -4  -9   2    2.00    3.50
  -4  -9   2    4.60    2.00
   4   9  -2    1.60    3.40
  -4   9   2    2.70    3.00
  -4   9   2    2.50    2.80
   4   9  -2    2.10    2.00
  -3  -9   2  546.25   26.90
  -3  -9   2  586.24   23.70
   3  -9  -2  517.75   25.70
  -3   9   2  566.54   26.30
   3   9  -2  538.25   23.10
   3   9  -2  592.04   26.60
  -3   9   2  518.45   26.40
  -2  -9   2  664.73   30.50
   2  -9  -2  617.84   29.00
  -2  -9   2  679.73   28.20
  -2   9   2  692.03   30.60
   2   9  -2  661.33   29.90
  -2   9   2  651.63   30.00
   1  -9  -2  143.39    8.70
  -1  -9   2  141.89    8.10
  -1   9   2  149.09    9.90
  -1   9   2  141.79    9.70
   1   9  -2  151.18    9.30
   0  -9  -2   -0.30    2.20
   0  -9   2    6.80    2.10
   0  -9  -2    3.40    2.20
   0   9   2    6.40    3.00
   0   9  -2    5.30    1.70
   0   9   2    1.80    2.60
   0   9  -2    4.40    2.30
   1  -9   2 1184.58   47.90
  -1  -9  -2 1182.18   48.60
  -1  -9  -2 1137.09   49.60
  -1   9  -2 1137.59   47.00
  -1   9  -2 1182.18   47.00
   1   9   2 1090.19   49.40
   1   9   2 1190.88   49.30
   2  -9   2   17.30    3.40
  -2  -9  -2   25.80    4.90
  -2  -9  -2   15.50    4.10
   2  -9   2   13.10    2.50
  -2   9  -2   16.50    3.00
   2   9   2   19.70    4.50
   3  -9   2   80.99    6.70
  -3  -9  -2   69.49    7.20
  -3  -9  -2   85.29    9.00
   3  -9   2   68.29    5.90
  -3   9  -2   70.09    6.90
   3   9   2   72.39    8.40
   4  -9   2   18.90    4.70
   4  -9   2   29.40    4.70
  -4  -9  -2   17.60    4.80
  -4  -9  -2   24.20    6.30
  -4   9  -2   29.80    5.80
   4   9   2   19.40    5.50
   5  -9   2   12.10    5.30
  -5  -9  -2    9.80    5.60
  -5  -9  -2   25.00    7.30
   5   9   2    6.30    5.20
  -5   9  -2   15.10    6.30
  -6  -9  -2  138.99   13.30
  -6  -9  -2  147.69   17.30
   6  -9   2  139.69   14.30
   6   9   2  125.79   13.60
  -6   9  -2  103.89   15.80
  -7  -9  -2   46.80    9.50
   7  -9   2   50.89   11.20
  -7  -9  -2   41.70   13.70
   7   9   2   42.20    9.10
  -8  -9  -2    9.70    9.10
   8  -9   2    7.70   12.60
   9 -10  -2  473.05   35.10
   9  10  -2  547.25   29.70
  -9  10   2  520.65   37.50
   8 -10  -2  252.27   22.70
  -8  10   2  254.37   23.70
   8  10  -2  275.17   18.70
   7 -10  -2    4.50    2.20
   7 -10  -2    0.60    6.40
   7  10  -2    5.50    7.60
   7  10  -2   -4.60    4.10
  -7  10   2   16.10    6.50
  -7  10   2   -8.90    6.10
   6 -10  -2  972.10   47.70
  -6 -10   2 1144.79   41.50
   6  10  -2 1033.70   44.70
  -6  10   2 1107.69   50.19
  -6  10   2 1007.70   46.70
   6  10  -2  959.90   47.20
  -5 -10   2 1738.53   63.29
   5 -10  -2 1523.25   67.99
   5  10  -2 1658.83   68.39
  -5  10   2 1583.94   67.49
   5  10  -2 1510.45   65.09
  -5  10   2 1534.45   69.29
  -4 -10   2   61.09    4.60
  -4 -10   2   69.89    8.30
   4 -10  -2   43.30    7.70
   4  10  -2   69.09    8.10
  -4  10   2   49.10    7.30
  -4  10   2   63.99    8.70
   4  10  -2   47.90    5.10
   3 -10  -2 1960.20   84.09
  -3 -10   2 2012.80   85.89
  -3 -10   2 2261.77   82.19
  -3  10   2 2093.39   85.59
   3  10  -2 2008.70   81.49
  -3  10   2 2058.69   84.79
   2 -10  -2 1499.65   62.59
  -2 -10   2 1500.95   64.29
  -2 -10   2 1615.04   61.69
  -2  10   2 1526.75   64.19
  -2  10   2 1494.65   63.69
   2  10  -2 1525.05   63.59
  -1 -10   2  376.56   17.20
   1 -10  -2  371.76   17.50
  -1  10   2  363.26   19.00
  -1  10   2  360.66   18.90
   1  10  -2  377.46   18.40
   0 -10  -2  100.49    8.70
   0 -10   2  113.09    7.30
   0 -10  -2  119.69    7.90
   0  10  -2  122.79    7.90
   0  10   2  119.59    9.20
   0  10   2  123.99    9.50
   0  10  -2  127.79    6.70
  -1 -10  -2 1648.83   67.59
   1 -10   2 1628.04   65.99
  -1 -10  -2 1618.24   66.29
   1  10   2 1554.74   67.69
  -1  10  -2 1657.23   65.39
   1  10   2 1600.94   67.19
  -1  10  -2 1639.84   64.99
   2 -10   2 1126.99   46.50
  -2 -10  -2 1088.29   48.10
  -2 -10  -2 1159.18   47.60
   2  10   2 1072.29   48.50
  -2  10  -2 1112.49   46.20
   3 -10   2  323.27   16.10
   3 -10   2  307.87   15.50
  -3 -10  -2  304.87   17.80
  -3 -10  -2  324.07   18.00
   3  10   2  321.47   18.40
   4 -10   2 2666.73  108.69
  -4 -10  -2 2760.32  110.79
  -4 -10  -2 2619.94  110.69
   4  10   2 2666.83  110.89
  -4  10  -2 2788.22  109.69
  -5 -10  -2  851.71   42.70
  -5 -10  -2  942.71   43.00
   5 -10   2  871.71   40.70
  -5  10  -2  900.71   41.40
   5  10   2  895.01   42.20
  -6 -10  -2   36.10    9.80
   6 -10   2   29.00    7.70
  -6 -10  -2   20.40    6.90
  -6  10  -2   28.60    9.90
   6  10   2   23.50    6.60
  -7 -10  -2   39.70    9.90
  -7 -10  -2   26.50   13.20
   7 -10   2   47.00   10.70
   7  10   2   40.60    9.10
  -8 -10  -2  351.86   27.00
   8 -10   2  402.76   31.00
   8  10   2  413.76   29.00
   9 -11  -2   60.99   14.90
  -9  11   2   52.59   16.00
   9  11  -2   48.00    9.70
   8 -11  -2  164.78   20.00
   8  11  -2  156.28   14.40
  -8  11   2  159.68   21.30
   7 -11  -2  221.58   19.10
   7  11  -2  223.68   14.90
  -7  11   2  192.08   17.60
   7  11  -2  232.28   20.20
  -7  11   2  259.07   21.60
   6 -11  -2   44.90    8.20
  -6 -11   2   45.40    4.30
  -6  11   2   43.90    8.10
   6  11  -2   46.90    9.30
   6  11  -2   44.00    7.00
  -5 -11   2  731.83   28.70
   5 -11  -2  665.23   33.20
  -5  11   2  667.83   34.50
  -5  11   2  705.03   33.10
   5  11  -2  689.93   33.70
   5  11  -2  660.63   30.40
   4 -11  -2 1735.53   76.09
  -4 -11   2 1747.93   77.89
  -4 -11   2 1953.90   73.09
  -4  11   2 1860.01   77.89
   4  11  -2 1752.72   73.49
  -4  11   2 1846.82   76.49
   4  11  -2 1922.81   77.39
   3 -11  -2  367.86   19.50
  -3 -11   2  399.36   17.70
  -3 -11   2  398.66   21.60
  -3  11   2  388.66   20.80
   3  11  -2  388.06   20.70
  -3  11   2  407.16   21.40
   3  11  -2  374.16   17.20
  -2 -11   2   72.69    5.50
  -2 -11   2   61.39    7.60
   2 -11  -2   66.19    6.20
  -2  11   2   75.09    8.10
   2  11  -2   68.19    7.30
  -2  11   2   63.69    7.60
   1 -11  -2 1833.42   73.69
  -1 -11   2 1781.12   73.49
  -1  11   2 1832.52   75.89
  -1  11   2 1837.62   75.59
   1  11  -2 1853.91   74.99
   0 -11  -2 1808.72   79.79
   0 -11  -2 1992.30   78.09
   0 -11   2 1929.91   78.19
   0  11  -2 1944.81   76.79
   0  11   2 2009.50   79.99
   0  11  -2 2050.89   78.89
   0  11   2 1847.12   80.09
  -1 -11  -2   42.10    6.00
   1 -11   2   38.40    4.80
  -1 -11  -2   49.80    5.80
   1  11   2   32.40    5.70
  -1  11  -2   38.30    4.40
   1  11   2   33.60    5.90
  -2 -11  -2  843.22   37.80
   2 -11   2  844.22   36.10
  -2 -11  -2  867.11   36.70
  -2  11  -2  876.71   35.80
   2  11   2  829.52   38.10
   2  11   2  713.53   39.30
  -3 -11  -2  618.94   31.80
  -3 -11  -2  706.53   31.40
   3 -11   2  656.13   28.50
   3 -11   2  667.13   30.10
  -3  11  -2  651.73   30.30
   3  11   2  727.43   32.90
  -4 -11  -2  298.27   18.60
  -4 -11  -2  287.67   18.50
   4 -11   2  286.97   16.20
  -4  11  -2  332.67   18.30
   4  11   2  316.57   19.20
   5 -11   2   55.99    8.20
  -5 -11  -2   70.99   10.40
  -5 -11  -2   75.29   12.70
   5  11   2   51.99   13.10
  -5  11  -2   57.89    8.60
  -6 -11  -2  624.14   34.20
   6 -11   2  623.94   32.10
  -6 -11  -2  600.54   32.60
   6  11   2  603.04   32.70
   7 -11   2  252.47   21.90
  -7 -11  -2  220.78   20.10
  -7 -11  -2  241.68   31.60
   7  11   2  246.08   20.60
   9 -12  -2  185.28   26.50
   9  12  -2  202.98   20.20
  -9  12   2  249.78   30.10
   8 -12  -2   25.60   11.00
   8  12  -2   45.60    8.60
  -8  12   2   27.90   13.00
   7 -12  -2   11.50    8.90
   7  12  -2   18.70    5.50
  -7  12   2    5.10    7.90
   6 -12  -2   55.59    5.90
   6 -12  -2   45.60    8.90
  -6 -12   2   56.69    4.70
   6  12  -2   58.49   11.10
  -6  12   2   48.50    9.50
   6  12  -2   54.39    7.70
  -6  12   2   47.90    9.20
   5 -12  -2  498.15   26.10
   5  12  -2  526.05   27.40
  -5  12   2  478.35   25.70
  -5  12   2  464.85   27.40
   5  12  -2  482.75   23.10
  -4 -12   2   89.09   10.10
  -4 -12   2   87.99    6.30
   4 -12  -2   72.29    9.10
   4  12  -2   77.09   10.50
   4  12  -2   90.69    7.00
  -4  12   2   89.19   10.00
  -4  12   2   81.99   10.50
  -3 -12   2   71.49    5.80
   3 -12  -2   67.69    7.20
  -3 -12   2   78.19    9.00
   3  12  -2   87.79    9.30
   3  12  -2   60.89    5.50
  -3  12   2   61.99    8.40
  -3  12   2   67.69    8.80
  -2 -12   2  113.39    9.70
   2 -12  -2   71.19    8.20
   2 -12  -2   89.39    7.30
  -2 -12   2  105.89    6.90
  -2  12   2   86.69    9.10
   2  12  -2  106.29    9.20
   2  12  -2   89.29    6.00
  -1 -12   2  309.37   15.20
   1 -12  -2  317.77   17.10
  -1  12   2  302.57   17.30
   1  12  -2  295.07   13.10
   1  12  -2  321.87   16.80
   1  12  -2  281.87   13.30
  -1  12   2  283.07   17.10
   0 -12  -2    7.00    2.80
   0 -12   2    5.80    2.40
   0 -12  -2    6.20    3.50
   0  12  -2   10.10    3.60
   0  12   2    0.50    3.30
   0  12  -2    2.90    2.20
   0  12   2    6.50    3.90
   1 -12   2  240.68   13.20
  -1 -12  -2  249.68   13.10
  -1 -12  -2  237.98   14.50
   1  12   2  226.98   15.40
  -1  12  -2  257.67   12.70
   1  12   2  249.58   15.40
   2 -12   2    6.40    2.70
  -2 -12  -2    3.60    3.60
  -2 -12  -2    2.30    3.60
  -2  12  -2   -1.00    2.70
   2  12   2   -3.50    3.40
   2  12   2    1.30    4.50
  -3 -12  -2  307.27   18.30
   3 -12   2  308.77   16.10
  -3 -12  -2  292.67   16.70
  -3  12  -2  284.47   16.00
   3  12   2  283.97   18.10
  -4 -12  -2  292.37   18.70
  -4 -12  -2  314.37   18.20
   4 -12   2  274.37   15.90
   4  12   2  316.47   19.40
  -4  12  -2  323.67   18.40
  -5 -12  -2   83.69   13.10
  -5 -12  -2   74.39   11.90
   5 -12   2   90.49   11.00
  -5  12  -2   76.49   13.60
   5  12   2   92.29   12.50
  -6 -12  -2   -2.80    9.40
   6 -12   2   17.40    8.00
  -6 -12  -2    4.70    8.20
   6  12   2    8.50    7.00
   7 -12   2   23.10   10.90
  -7 -12  -2    9.20    9.70
   7  12   2    4.90    9.30
   9  13  -2    5.70   10.70
   8 -13  -2  219.68   25.10
   8  13  -2  272.37   19.40
  -8  13   2  272.07   26.80
   7 -13  -2  750.92   39.20
   7  13  -2  721.73   35.20
  -7  13   2  776.52   42.50
   6 -13  -2  151.88   16.20
   6 -13  -2  176.98    9.70
   6  13  -2  157.98   18.10
   6  13  -2  181.58   12.50
  -6  13   2  183.08   16.50
  -6  13   2  212.68   18.60
   5 -13  -2  785.82   39.30
   5 -13  -2  892.91   36.60
  -5 -13   2  870.61   34.90
   5  13  -2  803.22   36.80
  -5  13   2  796.92   41.60
  -5  13   2  852.81   39.90
   5  13  -2  897.51   41.90
  -4 -13   2 2677.63   99.09
  -4 -13   2 2536.65  104.99
   4 -13  -2 2303.87  101.39
   4 -13  -2 2374.06  100.69
   4  13  -2 2662.43  104.59
  -4  13   2 2508.15  104.49
  -4  13   2 2487.65  102.99
   4  13  -2 2433.56   99.59
  -3 -13   2  570.94   24.80
   3 -13  -2  543.95   26.10
  -3 -13   2  545.45   29.00
   3 -13  -2  523.15   26.60
   3  13  -2  542.55   24.40
  -3  13   2  564.74   28.80
  -3  13   2  582.94   28.30
   3  13  -2  617.24   29.30
   2 -13  -2  214.38   13.40
  -2 -13   2  202.38   11.40
  -2 -13   2  215.28   14.40
   2  13  -2  227.58   14.90
  -2  13   2  196.58   14.10
   2  13  -2  193.08   10.20
  -2  13   2  204.98   14.30
  -1 -13   2 1621.74   65.59
   1 -13  -2 1687.33   67.59
  -1  13   2 1518.45   67.89
  -1  13   2 1403.86   69.89
   1  13  -2 1702.33   68.19
   1  13  -2 1631.54   63.69
   1  13  -2 1641.44   63.89
   0 -13  -2 1340.37   57.49
   0 -13   2 1290.77   55.59
   0 -13  -2 1400.46   54.69
   0  13  -2 1380.06   54.49
   0  13   2 1291.77   57.99
   1 -13   2   79.19    6.60
  -1 -13  -2   70.79    6.20
  -1 -13  -2   65.49    8.10
  -1  13  -2   76.89    6.50
   1  13   2   66.19    8.90
   1  13   2   63.09    8.70
  -2 -13  -2  541.95   28.30
  -2 -13  -2  593.74   25.80
   2 -13   2  554.34   26.50
  -2  13  -2  573.14   26.20
   2  13   2  589.84   29.10
   2  13   2  559.24   28.70
  -3 -13  -2 1721.53   67.59
   3 -13   2 1612.14   67.99
  -3  13  -2 1601.64   67.79
   3  13   2 1594.94   70.19
   4 -13   2  264.57   14.30
  -4 -13  -2  268.77   16.70
  -4 -13  -2  271.77   18.20
   4  13   2  260.67   18.20
  -4  13  -2  292.07   18.00
  -5 -13  -2  409.56   25.10
  -5 -13  -2  436.36   23.60
   5 -13   2  398.16   21.60
  -5  13  -2  391.56   25.20
   5  13   2  393.16   24.70
   6 -13   2  732.93   36.40
  -6 -13  -2  722.33   38.90
   6  13   2  755.92   38.60
  -7 -13  -2  282.17   24.00
   7 -13   2  289.87   24.90
   7  13   2  255.17   23.60
   8 -14  -2  168.28   24.20
  -8  14   2  236.28   28.70
   8  14  -2  185.58   18.60
   7 -14  -2    3.10    9.00
   7  14  -2   11.40    6.40
  -7  14   2    4.50   10.70
   6 -14  -2  167.98   16.30
   6 -14  -2  179.68    9.80
   6  14  -2  162.08   12.80
  -6  14   2  159.78   18.10
  -6  14   2  185.08   19.10
  -5 -14   2  106.59    7.10
   5 -14  -2  121.59   12.30
   5 -14  -2  111.19    8.40
   5  14  -2  100.79    9.40
   5  14  -2  117.99   15.30
  -5  14   2  116.79   13.10
  -5  14   2   73.59   18.20
   4 -14  -2   44.50    6.40
  -4 -14   2   34.60    4.80
  -4 -14   2   47.60   10.40
   4 -14  -2   30.10    5.90
  -4  14   2   39.30    7.70
  -4  14   2   43.40    8.40
   4  14  -2   47.70    6.10
   4  14  -2   44.20    9.90
   3 -14  -2   78.79    7.60
  -3 -14   2   72.99    6.10
  -3 -14   2   82.89   10.30
   3 -14  -2   72.29    8.00
  -3  14   2   62.59   10.10
   3  14  -2   65.09   11.10
   3  14  -2   66.59    6.40
  -3  14   2   81.79   10.40
  -2 -14   2  487.25   25.60
  -2 -14   2  497.35   22.30
   2 -14  -2  482.15   24.00
  -2  14   2  471.05   25.60
   2  14  -2  509.75   26.30
  -2  14   2  474.05   25.30
   2  14  -2  476.05   20.90
   2  14  -2  451.45   21.00
  -1 -14   2   80.99    6.90
   1 -14  -2   87.99    8.60
  -1  14   2  113.39   11.00
  -1  14   2   84.19   10.00
   1  14  -2   89.39    6.20
   1  14  -2   89.39    6.60
   0 -14   2   60.69    6.20
   0 -14  -2   56.59    7.80
   0  14  -2   48.20    5.30
   0  14   2   57.29    9.60
   0  14   2   40.10    7.20
   0  14  -2   56.09    6.10
   1 -14   2   38.60    5.70
  -1 -14  -2   52.79    5.30
  -1 -14  -2   49.40    7.60
   1  14   2   25.60    6.10
   1  14   2   43.30    7.60
  -1  14  -2   37.30    5.70
   2 -14   2   37.70    5.50
  -2 -14  -2   35.90    5.40
  -2 -14  -2   42.30    7.50
   2  14   2   27.10    7.20
   2  14   2   41.90    7.40
  -3 -14  -2  142.89   10.30
  -3 -14  -2  148.79   13.00
   3  14   2  153.78   13.80
  -3  14  -2  136.49   11.50
   3  14   2  156.38   16.90
  -4 -14  -2  181.28   15.40
  -4 -14  -2  161.78   12.80
   4  14   2  190.68   17.40
  -4  14  -2  153.78   14.20
  -5 -14  -2  215.88   16.80
   5 -14   2  222.18   14.50
  -5 -14  -2  219.18   18.20
  -5  14  -2  217.88   20.60
   5  14   2  197.88   17.70
  -6 -14  -2   45.80   10.80
   6 -14   2   30.70    9.60
   6  14   2   40.00   10.10
  -7 -14  -2   79.29   15.20
   7  14   2   94.89   14.20
   8 -15  -2  381.86   30.00
   8  15  -2  315.07   22.80
  -8  15   2  278.47   33.00
   7 -15  -2  364.96   26.70
  -7  15   2  430.36   31.50
   7  15  -2  383.86   24.80
   6 -15  -2  237.38   11.80
   6 -15  -2  212.98   18.50
   6  15  -2  220.18   15.30
  -6  15   2  207.68   21.80
   5 -15  -2   75.19   11.00
   5 -15  -2   84.19    7.90
  -5  15   2   74.19   12.70
  -5  15   2   99.59   15.10
   5  15  -2   73.99    8.70
   5  15  -2   61.89   13.30
   4 -15  -2  617.74   28.10
  -4 -15   2  602.14   32.70
  -4 -15   2  643.94   26.60
   4 -15  -2  633.14   28.80
  -4  15   2  579.34   31.10
  -4  15   2  562.54   32.10
   4  15  -2  626.14   27.60
   4  15  -2  520.85   33.10
  -3 -15   2  106.29   12.00
  -3 -15   2   90.79    7.30
   3 -15  -2   83.29    8.90
  -3  15   2  101.79   12.20
   3  15  -2   69.19    7.20
  -3  15   2   82.39   11.60
   3  15  -2   81.19   13.50
  -2 -15   2  140.99   13.00
   2 -15  -2  162.38   12.00
  -2 -15   2  160.68    9.80
  -2  15   2  144.49   13.10
   2  15  -2  112.39   13.80
   2  15  -2  151.58    9.30
   2  15  -2  175.58    9.60
  -2  15   2  158.38   14.20
   1 -15  -2  840.02   38.70
  -1 -15   2  803.62   36.80
  -1  15   2  825.32   39.90
  -1  15   2  852.81   39.80
   1  15  -2  877.91   35.70
   1  15  -2  859.01   35.70
   0 -15   2  855.11   38.90
   0 -15  -2  897.31   41.00
   0  15   2  875.91   41.40
   0  15  -2  913.11   38.00
   0  15   2  887.91   41.80
   0  15  -2  902.41   37.70
  -1 -15  -2   67.39    9.80
   1 -15   2   68.89    6.90
  -1  15  -2   58.29    7.00
   1  15   2   76.19   10.90
  -1  15  -2   76.49    7.40
   1  15   2   64.69    9.80
  -2 -15  -2  378.76   22.10
   2 -15   2  356.96   19.50
  -2 -15  -2  366.86   16.30
  -2  15  -2  367.06   19.30
   2  15   2  359.46   21.70
   2  15   2  388.46   23.40
  -3 -15  -2  862.31   43.20
  -3 -15  -2  966.90   37.50
   3  15   2  899.11   43.10
  -3  15  -2  875.11   40.50
   3  15   2  927.51   44.40
  -4 -15  -2   73.89   13.40
  -4 -15  -2   95.09    8.50
  -4  15  -2   80.89   12.60
   4  15   2   71.89   13.60
   4  15   2   87.59   13.60
  -5 -15  -2  206.38   18.80
   5  15   2  216.68   19.20
  -6 -15  -2  263.47   23.80
  -6  15  -2  319.27   25.70
   6  15   2  265.67   22.40
   7 -16  -2   82.69   14.50
   7  16  -2   95.09   15.00
  -7  16   2  108.39   18.60
   6 -16  -2  442.86   26.20
  -6  16   2  500.85   32.40
   6  16  -2  424.76   23.70
   5 -16  -2  535.85   27.20
   5 -16  -2  535.55   24.60
  -5  16   2  517.35   31.80
   5  16  -2  518.35   25.70
  -5  16   2  505.05   29.70
   4 -16  -2   34.90    6.20
   4 -16  -2   40.50    6.70
   4  16  -2   55.99    7.90
   4  16  -2   39.70   12.40
  -4  16   2   43.50    8.80
  -3 -16   2  564.34   24.80
   3 -16  -2  567.94   26.70
  -3 -16   2  518.75   30.00
  -3  16   2  521.75   29.10
   3  16  -2  521.05   24.70
  -3  16   2  521.05   29.50
   2 -16  -2 1342.17   56.49
  -2 -16   2 1328.27   54.49
  -2 -16   2 1339.67   58.69
   2  16  -2 1269.07   53.59
  -2  16   2 1273.07   58.39
  -2  16   2 1321.87   58.19
   2  16  -2 1229.98   53.19
  -1 -16   2  223.48   13.00
   1 -16  -2  227.38   15.10
   1  16  -2  213.68   12.40
  -1  16   2  222.58   17.80
  -1  16   2  221.28   16.40
   1  16  -2  214.18   12.80
   0 -16  -2  493.05   25.90
   0 -16   2  452.35   23.40
   0  16   2  491.45   26.80
   0  16   2  468.45   26.70
   0  16  -2  487.55   22.80
   0  16  -2  493.65   22.60
   1 -16   2 1248.18   55.19
  -1 -16  -2 1304.07   57.69
  -1  16  -2 1245.58   54.29
   1  16   2 1337.97   58.09
  -1  16  -2 1336.77   54.29
   1  16   2 1279.57   57.99
  -2 -16  -2  161.58   14.70
  -2  16  -2  195.98   12.80
   2  16   2  180.38   17.50
  -2  16  -2  145.09   12.40
   2  16   2  172.78   15.30
  -3 -16  -2  144.69   14.30
   3  16   2  120.49   15.30
   3  16   2  135.59   14.90
  -3  16  -2  122.19   12.40
  -3  16  -2  138.19   13.00
  -4 -16  -2  449.56   27.40
  -4  16  -2  419.06   25.70
  -4  16  -2  450.15   26.00
   4  16   2  441.76   26.60
   4  16   2  429.76   31.80
  -5 -16  -2  566.94   33.00
   5  16   2  549.25   32.20
  -5  16  -2  530.65   32.30
  -6 -16  -2   74.89   15.50
  -6  16  -2   69.89   15.10
   6  16   2   39.20   12.40
   7 -17  -2   20.10   11.70
   7  17  -2    4.10    7.40
   6 -17  -2  152.38   16.60
   6  17  -2  137.19   13.80
  -6  17   2  129.49   21.90
   5 -17  -2   53.29    8.40
   5 -17  -2   51.79    8.10
   5  17  -2   42.30    7.00
  -5  17   2   38.40   10.80
   4 -17  -2   22.50    5.80
  -4  17   2   -0.60    7.50
  -4  17   2    6.80    7.40
   4  17  -2   11.70    4.90
   3 -17  -2   24.70    6.20
  -3  17   2   21.40    8.30
   3  17  -2   -3.70   10.40
   3  17  -2   21.10    5.30
   3  17  -2   22.80    5.70
  -3  17   2    9.20    6.70
   2 -17  -2   10.20    5.50
  -2 -17   2   11.00    3.80
   2  17  -2   12.00    4.70
   2  17  -2    2.90    8.80
  -2  17   2   -9.80    7.10
   2  17  -2    8.30    4.20
  -2  17   2   -1.50    5.40
  -1 -17   2   14.60    4.20
   1 -17  -2   17.30    6.80
   1  17  -2   22.80    4.80
  -1  17   2   20.40    8.30
   1  17  -2   22.60    4.90
  -1  17   2   16.90    7.20
   0 -17  -2   92.39   12.50
   0  17   2   88.09   12.60
   0  17  -2   63.89    8.80
   0  17  -2   77.99    8.60
   0  17   2   83.99   14.10
  -1 -17  -2   13.20    6.60
   1  17   2   17.90    8.50
  -1  17  -2   10.60    5.10
  -1  17  -2    7.90    4.70
   1  17   2   18.40    6.80
  -2 -17  -2   77.99   13.00
   2  17   2   60.19    9.80
  -2  17  -2   67.59   10.40
   2  17   2   79.29   12.60
  -2  17  -2   87.29   10.30
  -3 -17  -2   24.90    8.90
  -3  17  -2   10.90    7.00
   3  17   2   27.20   11.30
   3  17   2   21.20    8.00
  -3  17  -2   19.10    7.10
  -4 -17  -2   33.80    9.80
  -4  17  -2    5.90    8.20
   4  17   2   10.70    9.00
  -4  17  -2    0.10    9.00
  -5 -17  -2   48.80   12.10
   5  17   2   38.70   11.50
  -5  17  -2   25.30   11.90
   6 -18  -2  806.62   38.30
   6  18  -2  780.22   37.60
  -6  18   2  779.02   46.40
   5 -18  -2  713.13   31.90
   5 -18  -2  694.53   32.60
  -5  18   2  687.23   40.60
   5  18  -2  687.03   33.00
   4 -18  -2    7.20    6.10
   4  18  -2    5.20    5.20
  -4  18   2    2.50    8.80
   4  18  -2   14.00    9.10
   3 -18  -2  851.91   39.10
   3  18  -2  824.92   37.10
  -3  18   2  832.12   42.10
  -3  18   2  822.72   42.60
   3  18  -2  846.72   37.40
   2 -18  -2  655.13   31.60
   2  18  -2  617.64   28.60
   2  18  -2  612.64   28.70
  -2  18   2  569.94   32.90
  -2  18   2  611.54   33.80
   1 -18  -2   20.30    8.30
  -1  18   2   23.70    8.50
  -1  18   2   18.00    9.10
   1  18  -2   15.80    6.10
   1  18  -2   22.40    5.70
   0 -18  -2  164.58   14.90
   0  18  -2  150.18   12.40
   0  18   2  144.69   18.30
   0  18   2  162.88   16.00
   0  18  -2  166.68   12.60
  -1 -18  -2 1157.48   54.69
  -1  18  -2 1200.98   51.59
  -1  18  -2 1196.68   50.89
   1  18   2 1163.38   55.09
   1  18   2 1197.18   55.59
  -2 -18  -2 1311.47   59.99
   2  18   2 1262.57   60.69
  -2  18  -2 1275.47   56.69
  -2  18  -2 1317.57   55.99
  -3 -18  -2  -12.40    7.90
  -3  18  -2   13.90    7.70
  -3  18  -2    7.30    7.20
   3  18   2    8.50   12.90
   3  18   2    9.60    8.60
  -4 -18  -2  779.42   42.30
  -4  18  -2  773.82   40.90
   4  18   2  792.12   41.70
  -5  18  -2  233.78   24.60
   5  18   2  240.68   24.50
  -6  19   2   56.19   16.60
   6  19  -2   24.60   12.20
  -5  19   2   96.49   15.30
   5  19  -2   57.59    9.20
   4 -19  -2  285.97   18.60
   4  19  -2  257.17   19.70
   4  19  -2  266.77   17.70
  -4  19   2  301.47   23.90
   3 -19  -2  128.89   13.40
  -3  19   2  189.38   24.00
  -3  19   2  114.99   17.30
   3  19  -2  123.59   12.10
   3  19  -2  121.59   13.20
   2 -19  -2   59.19   14.10
  -2  19   2   97.29   15.50
  -2  19   2   63.79   13.00
   2  19  -2   74.59   11.80
   2  19  -2   65.69    8.80
   1 -19  -2  363.06   22.20
  -1  19   2  303.77   25.40
   1  19  -2  310.27   19.50
   1  19  -2  341.27   19.30
   0 -19  -2  246.28   19.30
   0  19   2  237.78   23.30
   0  19  -2  233.78   16.20
   0  19   2  257.57   23.30
   0  19  -2  241.28   16.30
  -1 -19  -2   24.20    9.20
  -1  19  -2   12.40    6.30
  -1  19  -2    4.70    6.00
  -2 -19  -2  245.48   20.10
  -2  19  -2  191.48   17.30
   2  19   2  207.08   20.90
  -2  19  -2  221.38   17.30
   2  19   2  190.38   24.60
  -3 -19  -2  216.88   21.80
  -3  19  -2  215.38   19.10
  -3  19  -2  167.58   19.10
   3  19   2  226.08   21.30
  -4 -19  -2   29.40   12.90
  -4  19  -2   25.20   11.90
   4  19   2   30.30   11.80
  -5  20   2  201.18   25.50
   4 -20  -2   22.20    7.90
   4  20  -2    0.80    7.40
   3  20  -2  163.78   14.10
  -3  20   2  128.89   20.70
   2 -20  -2  222.78   18.60
   2  20  -2  220.38   22.30
   2  20  -2  253.87   16.60
  -2  20   2  237.78   23.10
   1 -20  -2   62.99   11.10
  -1  20   2   42.30   14.60
  -1  20   2   50.19   12.40
   1  20  -2   61.29    9.70
   1  20  -2   84.69   12.00
   0 -20  -2   28.80    8.90
   0  20   2   37.10   14.00
   0  20  -2   14.10    7.10
   0  20   2   24.40    9.30
   0  20  -2   14.50    8.00
  -1 -20  -2  233.08   21.20
  -1  20  -2  240.28   17.80
   1  20   2  243.58   21.50
  -1  20  -2  213.68   18.00
   1  20   2  195.08   25.80
  -2 -20  -2  176.08   20.40
   2  20   2  202.18   21.40
  -2  20  -2  180.38   17.70
  -2  20  -2  175.28   18.90
  -3 -20  -2   12.20   11.80
  -3  20  -2   21.80   10.10
   3  20   2   12.90   11.10
  -4  21   2  377.16   32.10
   3 -21  -2  435.06   26.80
  -3  21   2  397.06   32.70
   2 -21  -2    0.20    9.60
   2  21  -2   25.10    8.20
  -2  21   2   14.20   11.60
   1 -21  -2  497.75   31.50
   1  21  -2  545.65   28.60
  -1  21   2  519.15   33.80
   0 -21  -2  523.25   31.10
   0  21  -2  448.16   27.50
   0  21   2  506.75   33.40
  -1 -21  -2   -8.40   11.10
  -1  21  -2   25.30    9.60
   1  21   2   27.30   11.30
  -2 -21  -2  583.94   36.70
  -2  21  -2  514.85   39.40
   2  21   2  617.24   36.10
   2 -22  -2   13.40   11.60
  -2  22   2   -9.70   13.30
   1 -22  -2   25.80   11.70
  -1  22   2    7.40   13.10
   0 -22  -2   60.89   13.40
   0  22   2   16.30   12.70
  -1 -22  -2    4.10   12.30
  11   0  -3   11.20   14.80
 -11   0   3   25.10   14.50
  10   0  -3   -1.70   10.20
 -10   0   3   13.10    5.60
 -10   0   3    1.10   13.40
  10   0  -3    5.40    8.00
 -10   0   3    8.40    9.50
  -9   0   3   17.90    8.20
  -9   0   3   14.60    8.00
   9   0  -3    4.60    5.90
   9   0  -3    7.90    6.90
   8   0  -3    3.90    6.50
  -8   0   3    1.60    4.70
   8   0  -3    7.40    5.10
  -8   0   3   13.80    6.00
  -7   0   3   -2.60    3.50
   7   0  -3   -1.90    4.10
   7   0  -3   -1.90    3.80
  -7   0   3    7.60    4.60
   6   0  -3   -0.30    3.00
  -6   0   3   -0.20    2.60
   6   0  -3    0.60    2.60
  -6   0   3    4.20    3.30
  -5   0   3   -2.60    1.70
   5   0  -3    0.60    2.20
  -5   0   3    2.30    2.60
  -4   0   3    4.00    1.70
   4   0  -3   -0.40    1.60
  -4   0   3   -0.10    2.00
   3   0  -3   -2.00    1.50
  -3   0   3    1.50    1.60
   3   0  -3    0.20    1.70
  -3   0   3    1.90    1.40
  -2   0   3   -3.30    1.10
   2   0  -3   -3.60    1.10
  -2   0   3   -2.30    1.20
  -2   0   3   -3.20    1.50
   2   0  -3   -2.90    1.30
   1   0  -3   -0.80    1.30
   1   0  -3   -0.70    1.30
  -1   0   3   -0.40    1.20
  -1   0   3    0.30    1.50
  -1   0   3    0.30    1.20
   0   0  -3   -4.40    1.50
   0   0   3   -2.90    1.20
   0   0   3    1.90    1.80
   0   0   3   -4.90    1.20
  -1   0  -3   -1.90    1.90
   1   0   3    1.00    1.50
   1   0   3    0.50    1.30
   2   0   3   -1.30    1.40
   2   0   3    0.30    1.80
  -2   0  -3    0.00    2.30
  -3   0  -3    0.10    2.20
   3   0   3    1.80    1.70
   3   0   3    1.60    2.10
  -3   0  -3    2.20    3.60
   4   0   3    1.10    1.90
   4   0   3    9.80    3.40
  -4   0  -3   -3.30    4.40
  -4   0  -3   -0.90    1.90
  -5   0  -3    7.40    6.20
  -5   0  -3    8.10    3.00
   5   0   3    5.10    3.50
   6   0   3    7.70    4.60
  -6   0  -3    6.10    3.70
  -6   0  -3    1.50    7.90
   7   0   3    4.40    6.70
  -7   0  -3    5.00    4.80
   8   0   3    5.40   10.50
  11  -1  -3  237.08   37.30
 -11  -1   3  253.17   27.40
 -11   1   3  243.38   28.50
 -11   1   3  260.77   17.10
  11   1  -3  168.68   30.20
  10  -1  -3  157.48   15.00
 -10  -1   3  136.69   18.50
 -10  -1   3   96.39   11.00
 -10  -1   3  126.89   21.30
  10  -1  -3  131.79   20.40
  10   1  -3  127.99   19.90
  10   1  -3  114.09   15.50
 -10   1   3  136.49   20.00
   9  -1  -3 1740.13   69.39
  -9  -1   3 1528.35   72.59
   9  -1  -3 1682.33   74.09
  -9  -1   3 1641.64   67.09
  -9  -1   3 1671.33   71.79
   9   1  -3 1638.34   73.49
  -9   1   3 1591.34   73.89
   9   1  -3 1665.23   69.99
  -9   1   3 1628.74   71.79
  -8  -1   3 1202.28   54.99
  -8  -1   3 1267.07   53.69
   8  -1  -3 1247.58   52.19
   8   1  -3 1182.68   52.49
   8   1  -3 1160.88   54.89
  -8   1   3 1189.08   56.09
  -8   1   3 1253.37   53.69
  -7  -1   3  189.48   13.90
   7  -1  -3  187.38   13.90
   7  -1  -3  196.48   12.20
  -7  -1   3  145.29   16.20
   7   1  -3  190.48   13.60
   7   1  -3  191.88   12.50
  -7   1   3  192.68   12.70
  -7   1   3  184.48   14.40
  -6  -1   3   28.70    4.40
  -6  -1   3   37.80    6.60
   6  -1  -3   30.70    5.10
   6  -1  -3   38.10    6.40
   6   1  -3   43.20    5.80
  -6   1   3   37.60    5.80
  -6   1   3   48.20    7.60
   6   1  -3   36.30    6.00
  -5  -1   3 2664.53  101.69
   5  -1  -3 2474.05  103.09
  -5  -1   3 2618.34  103.09
  -5   1   3 2513.05  103.69
   5   1  -3 2522.15  102.69
  -5   1   3 2540.25  101.89
   4  -1  -3 1656.03   67.49
  -4  -1   3 1661.33   66.19
   4  -1  -3 1635.54   67.79
  -4  -1   3 1600.14   67.29
  -4   1   3 1725.43   66.99
   4   1  -3 1626.24   67.09
  -4   1   3 1629.84   67.99
   4   1  -3 1722.73   67.19
  -3  -1   3 2795.32  116.09
  -3  -1   3 2972.60  115.39
  -3  -1   3 3091.39  115.99
   3  -1  -3 2847.42  116.79
   3  -1  -3 2968.50  116.79
   3   1  -3 2945.51  116.39
   3   1  -3 3003.80  116.29
  -3   1   3 3118.69  116.39
  -3   1   3 2803.62  116.89
   2  -1  -3 5245.58  196.48
  -2  -1   3 4599.44  195.28
  -2  -1   3 5294.37  195.58
   2  -1  -3 5137.79  196.38
   2   1  -3 5144.99  195.68
  -2   1   3 5236.28  195.98
  -2   1   3 4641.34  196.18
   2   1  -3 4877.01  195.68
   1  -1  -3 1783.42   72.29
  -1  -1   3 1955.60   71.69
   1  -1  -3 1805.12   72.69
  -1  -1   3 1707.53   71.49
  -1  -1   3 1796.92   71.49
  -1   1   3 1907.51   71.59
   1   1  -3 1725.93   71.99
  -1   1   3 1747.93   72.39
   1   1  -3 1808.62   71.79
  -1   1   3 1821.22   72.29
   0  -1   3   73.79    5.40
   0  -1   3   85.09    5.10
   0  -1   3   73.49    5.20
   0  -1  -3   72.19    6.10
   0   1   3   81.79    5.00
   0   1   3   78.89    5.80
   0   1  -3   87.39    6.00
   0   1   3   71.39    5.70
   1  -1   3 2457.65  100.69
   1  -1   3 2616.14   99.69
  -1  -1  -3 2525.65  102.19
  -1   1  -3 2578.54  101.69
   1   1   3 2613.74   99.59
   1   1   3 2451.45  101.29
   2  -1   3 2700.83  116.09
  -2  -1  -3 2810.32  117.79
   2  -1   3 3097.19  114.69
   2   1   3 3101.39  114.39
   2   1   3 2893.81  116.89
  -2   1  -3 2958.60  117.59
   3  -1   3  176.48    8.90
  -3  -1  -3  188.28   13.20
   3  -1   3  175.08   11.00
   3   1   3  192.78    8.80
  -3   1  -3  177.08   12.50
   3   1   3  186.68   11.50
   4  -1   3  982.90   40.40
   4  -1   3 1002.10   43.30
  -4  -1  -3 1039.80   45.80
  -4  -1  -3  914.51   41.20
   4   1   3 1027.30   39.60
  -4   1  -3  915.61   40.50
   4   1   3 1025.30   43.60
   5  -1   3 2334.87   96.49
  -5  -1  -3 2255.17   94.09
  -5  -1  -3 2498.65   99.59
  -5   1  -3 2230.78   93.19
   5   1   3 2389.56   96.89
   6  -1   3  401.06   22.70
  -6  -1  -3  407.26   26.90
  -6  -1  -3  392.86   19.70
   6   1   3  398.26   22.70
  -6   1  -3  353.36   18.60
  -6   1  -3  352.46   25.70
   7  -1   3   86.79   14.30
  -7  -1  -3   70.09    9.80
   7   1   3  111.79   14.10
   8  -1   3  353.06   28.10
   8   1   3  351.86   26.20
 -11  -2   3  144.99   24.80
  11   2  -3  227.68   28.10
 -11   2   3  158.28   22.30
 -10  -2   3  436.36   31.30
 -10  -2   3  454.45   29.70
  10  -2  -3  495.05   31.90
  10  -2  -3  486.55   25.30
 -10   2   3  438.66   31.70
  10   2  -3  473.15   31.40
  10   2  -3  449.06   27.60
  -9  -2   3   83.09    8.30
  -9  -2   3  103.39   14.40
   9  -2  -3   87.29   10.50
   9  -2  -3   71.69   11.70
   9   2  -3   75.39   12.30
   9   2  -3   94.69   14.40
  -9   2   3   91.69   14.70
  -9   2   3  100.59   15.80
   8  -2  -3  252.87   15.90
   8  -2  -3  242.18   19.90
  -8  -2   3  271.87   18.30
  -8  -2   3  270.17   17.70
  -8  -2   3  293.57   14.30
   8   2  -3  271.77   16.90
  -8   2   3  310.97   17.90
   8   2  -3  258.87   18.50
  -8   2   3  263.07   20.30
  -7  -2   3  371.16   17.50
   7  -2  -3  376.76   21.40
  -7  -2   3  338.67   20.20
  -7  -2   3  385.66   19.60
   7  -2  -3  386.06   18.80
   7   2  -3  358.46   19.40
   7   2  -3  360.56   20.50
  -7   2   3  373.16   19.80
  -7   2   3  333.87   21.70
   6  -2  -3   57.19    7.30
  -6  -2   3   61.79    6.30
  -6  -2   3   50.39    6.40
  -6  -2   3   58.39    7.30
  -6   2   3   67.99    8.40
  -6   2   3   52.09    7.50
   6   2  -3   62.89    7.00
   6   2  -3   52.49    6.80
   5  -2  -3   30.40    5.20
  -5  -2   3   28.00    3.90
  -5  -2   3   25.30    3.80
  -5  -2   3   20.60    3.90
  -5   2   3   18.20    4.00
   5   2  -3   19.30    4.00
   5   2  -3   31.20    4.80
  -5   2   3   20.10    3.50
  -4  -2   3 2137.89   85.09
   4  -2  -3 2082.69   85.69
  -4  -2   3 2203.48   84.59
   4  -2  -3 2000.80   85.99
  -4  -2   3 2133.69   84.09
  -4   2   3 2236.98   85.49
  -4   2   3 2127.79   86.59
   4   2  -3 2182.08   85.19
   4   2  -3 2066.09   84.99
   3  -2  -3 5092.09  205.58
  -3  -2   3 5162.88  204.08
  -3  -2   3 5648.44  204.38
   3  -2  -3 4974.90  205.18
  -3   2   3 5675.03  205.28
   3   2  -3 5192.38  204.48
   3   2  -3 5350.26  204.28
  -3   2   3 4882.11  205.58
   2  -2  -3  898.61   40.30
   2  -2  -3  963.40   40.60
  -2  -2   3 1031.50   39.60
  -2  -2   3  960.60   38.80
  -2  -2   3 1017.50   38.50
  -2   2   3  907.01   40.50
   2   2  -3  961.60   39.30
  -2   2   3  968.20   40.30
   2   2  -3 1010.10   39.60
   1  -2  -3  684.63   30.50
  -1  -2   3  744.33   29.80
   1  -2  -3  697.83   31.00
  -1  -2   3  686.13   29.10
  -1  -2   3  753.72   29.20
  -1   2   3  704.33   30.60
   1   2  -3  753.62   29.80
   1   2  -3  723.13   30.00
   0  -2  -3 2853.11  108.29
   0  -2   3 2508.65  105.99
   0  -2   3 2847.02  106.39
   0  -2   3 2676.53  106.39
   0   2  -3 2663.33  106.99
   0   2   3 2953.60  106.19
   0   2   3 2743.93  107.59
   0   2   3 2422.36  107.39
   1  -2   3 1953.30   85.29
   1  -2   3 2308.57   85.09
  -1  -2  -3 2273.37   87.79
   1   2   3 2274.67   84.69
  -1   2  -3 2007.00   86.29
   1   2   3 2108.49   86.69
  -2  -2  -3   97.29    8.60
   2  -2   3   91.99    5.70
   2  -2   3   85.19    6.50
  -2   2  -3  101.09    7.90
   2   2   3   95.79    5.40
   2   2   3   89.59    7.30
  -3  -2  -3 1224.38   53.69
   3  -2   3 1159.48   51.29
  -3   2  -3 1208.78   52.89
   3   2   3 1246.28   52.39
   3   2   3 1292.07   48.70
   4  -2   3   74.49    5.30
   4  -2   3   74.69    7.70
  -4  -2  -3   68.09    9.70
  -4  -2  -3   59.49    5.90
  -4   2  -3   64.99    9.00
   4   2   3   68.09    4.50
   4   2   3   59.19    7.20
  -4   2  -3   68.79    5.10
  -5  -2  -3  142.79   15.80
   5  -2   3  156.98    9.00
  -5  -2  -3  154.68   10.60
   5  -2   3  167.48   12.60
   5   2   3  170.38   12.50
  -5   2  -3  166.48   15.00
  -5   2  -3  168.38    9.20
  -6  -2  -3  186.08   20.60
  -6  -2  -3  227.98   13.80
   6  -2   3  252.87   16.90
  -6   2  -3  217.68   20.10
   6   2   3  229.08   16.20
  -6   2  -3  202.08   11.70
  -7  -2  -3  300.57   19.10
   7  -2   3  359.16   23.10
   7   2   3  354.16   23.00
   8  -2   3  129.49   18.80
   8   2   3   91.09   14.50
 -10  -3   3   14.80    9.40
  10  -3  -3   35.10   10.00
 -10  -3   3   16.30   12.00
  10  -3  -3   54.49   13.50
  10   3  -3   15.90    9.50
 -10   3   3   28.00   12.00
  10   3  -3   28.70   10.30
  -9  -3   3  162.08   16.50
  -9  -3   3  171.88   10.70
  -9  -3   3  161.48   15.80
   9  -3  -3  151.68   12.70
   9  -3  -3  180.08   18.60
  -9   3   3  211.88   18.00
   9   3  -3  139.39   16.30
  -9   3   3  187.38   19.50
   9   3  -3  167.38   15.70
   8  -3  -3  271.77   15.70
   8  -3  -3  261.47   19.90
  -8  -3   3  265.87   18.00
  -8  -3   3  278.87   14.00
  -8  -3   3  266.37   17.50
   8   3  -3  275.37   17.40
   8   3  -3  310.07   19.10
  -8   3   3  286.87   18.10
  -7  -3   3   35.90    6.50
  -7  -3   3   37.70    6.30
   7  -3  -3   29.90    6.40
  -7  -3   3   41.20    5.40
   7  -3  -3   36.10    6.10
  -7   3   3   44.90    7.80
  -7   3   3   45.30    8.30
   7   3  -3   40.90    6.90
   7   3  -3   29.70    5.80
   6  -3  -3  181.98   13.20
  -6  -3   3  187.58   11.90
  -6  -3   3  183.68   11.00
  -6  -3   3  160.58   10.10
  -6   3   3  186.68   11.60
   6   3  -3  184.78   11.80
  -6   3   3  193.68   13.60
  -5  -3   3  720.13   30.10
  -5  -3   3  693.03   30.80
   5  -3  -3  693.93   32.40
  -5  -3   3  748.93   29.90
  -5   3   3  666.93   32.70
   5   3  -3  630.34   30.60
   5   3  -3  742.43   31.80
  -5   3   3  736.43   31.40
  -4  -3   3  692.23   31.70
   4  -3  -3  766.32   33.40
  -4  -3   3  804.92   32.00
  -4  -3   3  758.02   31.30
   4  -3  -3  738.63   33.80
  -4   3   3  779.32   34.30
  -4   3   3  795.92   33.10
   4   3  -3  760.92   33.30
   4   3  -3  763.82   32.30
   4   3  -3  782.22   32.40
  -3  -3   3  166.28    7.20
  -3  -3   3  162.98    7.60
   3  -3  -3  165.88    9.60
  -3  -3   3  162.28    8.50
  -3   3   3  147.79    9.70
  -3   3   3  155.98    9.30
   3   3  -3  157.58    8.50
   3   3  -3  155.58    8.10
   2  -3  -3  394.36   18.20
  -2  -3   3  391.66   17.00
   2  -3  -3  371.26   18.00
  -2   3   3  377.86   18.20
   2   3  -3  369.46   16.50
  -2   3   3  370.86   17.80
   2   3  -3  390.86   16.30
  -1  -3   3  127.79    6.80
   1  -3  -3  110.89    7.70
  -1  -3   3  116.69    5.20
  -1  -3   3  111.59    5.10
  -1   3   3  120.69    7.70
   1   3  -3  118.39    6.30
   1   3  -3  112.09    6.20
  -1   3   3  111.59    7.40
   0  -3  -3  219.48   12.10
   0  -3   3  219.98   10.30
   0  -3   3  198.68    9.50
   0  -3   3  184.48    9.80
   0   3   3  211.88   11.70
   0   3  -3  209.78   10.60
   0   3   3  224.18   11.60
   1  -3   3 1305.27   54.09
   1  -3   3 1397.36   54.09
   1  -3   3 1394.16   54.59
  -1  -3  -3 1367.36   56.69
  -1   3  -3 1320.17   55.19
   1   3   3 1266.37   55.79
   1   3   3 1369.66   53.49
  -2  -3  -3 1960.40   80.49
   2  -3   3 1818.32   77.79
  -2   3  -3 1923.21   79.29
   2   3   3 2104.19   76.39
   2   3   3 1909.31   79.49
   3  -3   3    5.60    1.80
  -3  -3  -3    5.30    2.50
  -3  -3  -3    7.70    4.20
   3  -3   3    2.70    2.40
   3   3   3    2.90    3.10
  -3   3  -3    5.60    3.10
  -3   3  -3    2.70    1.60
   3   3   3    6.80    1.70
  -4  -3  -3  295.17   19.20
   4  -3   3  312.87   16.70
  -4  -3  -3  271.27   15.30
   4  -3   3  319.57   14.40
  -4   3  -3  295.27   13.60
   4   3   3  300.17   17.20
  -4   3  -3  315.77   18.80
  -5  -3  -3  105.49    8.70
   5  -3   3  106.09   10.30
  -5  -3  -3   84.69   13.10
   5  -3   3   89.69    6.70
  -5   3  -3  100.99    6.40
  -5   3  -3  119.29   13.40
   5   3   3   96.19   10.00
   6  -3   3    7.10    5.00
  -6  -3  -3  -13.70    8.30
  -6  -3  -3    5.50    4.20
   6   3   3    4.40    5.10
  -6   3  -3    3.50    9.00
   7  -3   3   21.20    7.70
  -7  -3  -3   19.50    6.00
   7   3   3   11.10    7.10
   8  -3   3  142.99   21.10
  -8  -3  -3  101.49   20.20
   8   3   3  139.79   18.30
  10  -4  -3 1096.89   58.79
 -10  -4   3 1170.18   55.39
 -10  -4   3 1217.48   55.99
 -10   4   3 1198.28   59.89
  10   4  -3 1161.68   56.89
  10   4  -3 1181.48   58.49
  -9  -4   3  164.78   17.20
  -9  -4   3  177.58   15.90
   9  -4  -3  185.68   19.80
   9  -4  -3  154.48   14.00
   9   4  -3  202.18   17.40
  -9   4   3  174.98   19.80
  -9   4   3  195.18   18.70
   9   4  -3  198.28   16.40
   8  -4  -3   91.39   13.30
   8  -4  -3   79.09    8.50
  -8  -4   3   85.39   10.60
  -8  -4   3   78.79    7.90
  -8   4   3   87.29   12.20
  -8   4   3   65.49   11.00
   8   4  -3   87.69   11.20
   8   4  -3  112.29   11.60
   7  -4  -3  685.13   30.40
  -7  -4   3  720.63   31.40
  -7  -4   3  653.23   31.70
   7  -4  -3  634.24   33.80
  -7   4   3  690.13   32.30
   7   4  -3  706.53   32.40
   7   4  -3  689.53   32.30
  -7   4   3  642.04   34.50
  -6  -4   3 1651.13   64.29
  -6  -4   3 1617.24   65.99
  -6  -4   3 1607.44   65.29
   6  -4  -3 1506.85   67.99
   6   4  -3 1652.43   67.09
   6   4  -3 1536.15   66.29
  -6   4   3 1493.75   68.59
  -6   4   3 1714.33   66.89
   5  -4  -3   16.30    4.40
  -5  -4   3   16.60    3.20
  -5  -4   3   17.60    3.00
  -5  -4   3   17.50    3.30
  -5   4   3    8.90    3.60
  -5   4   3   15.80    3.60
   5   4  -3   12.20    3.40
   5   4  -3   13.60    3.00
   4  -4  -3 4964.90  186.68
   4  -4  -3 4828.92  187.48
  -4  -4   3 4932.61  184.88
  -4  -4   3 4503.75  183.98
  -4  -4   3 4661.63  183.78
   4   4  -3 4727.03  186.48
  -4   4   3 4908.31  186.58
   4   4  -3 4856.61  185.08
  -4   4   3 4520.25  187.48
   4   4  -3 4473.05  184.88
  -3  -4   3 3975.60  151.58
   3  -4  -3 3649.33  153.28
   3  -4  -3 4189.38  153.28
  -3   4   3 3969.30  153.18
   3   4  -3 3844.32  151.28
  -3   4   3 3601.44  153.48
   3   4  -3 3898.81  150.98
   2  -4  -3    4.50    2.20
   2  -4  -3    0.40    1.80
  -2  -4   3    5.80    1.90
  -2   4   3    2.40    1.80
   2   4  -3    2.70    1.40
  -2   4   3    2.90    2.00
   1  -4  -3  574.04   26.30
   1  -4  -3  563.54   25.90
  -1  -4   3  617.14   25.10
  -1   4   3  547.65   26.40
   1   4  -3  605.04   24.20
  -1   4   3  601.04   26.30
   1   4  -3  610.34   24.30
   0  -4   3 2313.67   93.09
   0  -4  -3 2431.46   96.49
   0  -4   3 2560.14   94.59
   0  -4   3 2272.47   93.29
   0   4  -3 2332.27   94.29
   0   4   3 2432.06   96.39
  -1  -4  -3 1329.07   56.89
   1  -4   3 1287.37   54.39
   1  -4   3 1263.17   53.89
   1   4   3 1422.76   56.39
  -1   4  -3 1337.07   55.19
   1   4   3 1464.35   53.79
   2  -4   3  834.52   34.40
  -2  -4  -3  780.92   37.50
   2  -4   3  789.62   34.80
   2   4   3  826.42   36.90
  -2   4  -3  826.12   36.20
   2   4   3  899.31   33.50
   3  -4   3 4557.44  186.38
   3  -4   3 4799.82  185.18
  -3  -4  -3 4783.42  189.98
  -3  -4  -3 4280.97  186.68
  -3   4  -3 4921.41  189.08
   3   4   3 5089.99  183.58
   3   4   3 4763.82  188.28
   4  -4   3 1839.82   74.79
  -4  -4  -3 1998.90   80.59
  -4  -4  -3 1752.92   76.29
   4  -4   3 1863.61   77.29
  -4   4  -3 1909.31   79.09
   4   4   3 1946.91   78.59
  -4   4  -3 1794.22   73.39
  -5  -4  -3   48.40    7.10
   5  -4   3   51.79    5.40
   5  -4   3   53.59    8.30
  -5  -4  -3   47.30    9.50
  -5   4  -3   44.20    8.40
   5   4   3   38.70    7.10
   6  -4   3  822.92   39.80
  -6  -4  -3  823.42   38.20
  -6  -4  -3  807.12   43.80
  -6   4  -3  866.61   43.20
   6   4   3  847.72   40.40
  -7  -4  -3  500.35   26.70
   7  -4   3  515.15   30.00
   7   4   3  489.35   29.10
  -8  -4  -3  159.28   16.10
   8  -4   3  147.49   21.50
   8   4   3  102.99   15.50
 -10  -5   3   91.79   15.70
  10  -5  -3  128.89   22.30
  10   5  -3  110.79   19.40
 -10   5   3  101.99   16.90
  -9  -5   3  113.09   13.40
  -9  -5   3   85.89   14.60
   9  -5  -3  104.99   16.90
   9  -5  -3   88.89    9.80
  -9   5   3  125.39   18.80
   9   5  -3  108.19   14.80
   9   5  -3  131.49   14.80
  -8  -5   3  298.07   17.90
   8  -5  -3  248.38   19.90
   8  -5  -3  258.67   15.60
  -8  -5   3  292.57   14.10
  -8  -5   3  316.57   18.00
   8   5  -3  286.77   18.90
  -8   5   3  267.57   21.80
  -8   5   3  327.87   19.80
   8   5  -3  312.67   19.50
  -7  -5   3  462.55   22.60
   7  -5  -3  417.16   25.20
  -7  -5   3  464.05   20.40
   7  -5  -3  456.45   21.80
  -7  -5   3  439.36   22.70
   7   5  -3  490.05   24.00
  -7   5   3  469.05   24.10
   7   5  -3  480.55   24.10
  -7   5   3  456.45   26.70
  -6  -5   3    1.10    2.70
  -6  -5   3    2.90    2.90
   6  -5  -3    0.10    3.60
  -6  -5   3    2.10    3.00
  -6   5   3    4.10    4.00
   6   5  -3   -4.70    3.00
  -6   5   3   -1.50    2.90
   6   5  -3   -1.10    2.90
  -5  -5   3   85.69    5.90
   5  -5  -3   90.99    8.40
  -5  -5   3   83.99    5.70
  -5  -5   3   83.09    6.00
  -5   5   3   82.79    8.70
  -5   5   3   90.59    8.30
   5   5  -3   81.89    7.70
   5   5  -3   85.39    6.60
  -4  -5   3   63.89    5.00
   4  -5  -3   70.39    6.60
   4  -5  -3   66.99    6.70
   4   5  -3   68.49    5.20
  -4   5   3   61.09    7.20
  -4   5   3   73.59    6.50
   4   5  -3   63.49    4.80
   4   5  -3   65.49    6.50
   3  -5  -3   46.70    5.30
  -3  -5   3   52.19    4.50
   3  -5  -3   48.20    5.60
   3   5  -3   47.80    3.50
   3   5  -3   50.09    3.90
   3   5  -3   44.80    4.90
  -3   5   3   51.69    6.00
  -3   5   3   53.49    5.70
   2  -5  -3   24.80    4.10
  -2  -5   3   24.40    3.30
   2  -5  -3   28.10    4.20
   2   5  -3   24.20    2.00
  -2   5   3   24.20    4.10
  -2   5   3   19.60    4.10
   2   5  -3   23.60    2.20
   1  -5  -3    3.10    1.80
  -1  -5   3    8.30    2.20
   1  -5  -3    8.30    2.70
   1   5  -3    5.30    1.90
  -1   5   3    1.90    2.00
  -1   5   3    4.30    2.30
   1   5  -3    4.90    1.20
   0  -5  -3    1.50    2.60
   0  -5   3   -4.30    2.40
   0   5   3   -2.60    2.10
   0   5  -3   -1.80    1.30
   0   5   3   -3.30    1.70
   1  -5   3  102.19    5.80
   1  -5   3  100.29    6.00
  -1  -5  -3  103.09    8.60
   1  -5   3  102.19    6.30
   1   5   3   89.29    7.60
  -1   5  -3   95.29    6.80
   1   5   3  101.09    8.00
   2  -5   3  795.42   33.90
  -2  -5  -3  816.82   37.30
   2  -5   3  774.42   34.10
   2   5   3  796.32   36.40
   2   5   3  873.71   32.90
  -2   5  -3  820.72   35.50
  -3  -5  -3   17.50    4.00
   3  -5   3   11.30    2.50
  -3  -5  -3    2.40    4.70
   3  -5   3    7.40    3.00
   3   5   3   11.60    3.90
   3   5   3   15.00    2.10
  -4  -5  -3  756.22   36.50
   4  -5   3  700.63   30.80
   4  -5   3  700.93   32.70
  -4  -5  -3  694.03   32.50
  -4   5  -3  771.72   34.90
   4   5   3  705.33   34.10
   5  -5   3   88.19    6.80
   5  -5   3   74.19    9.60
  -5  -5  -3   91.99   13.70
  -5  -5  -3   73.39    8.40
  -5   5  -3   81.59   13.00
   5   5   3   73.49   10.40
  -6  -5  -3   33.40    7.00
  -6  -5  -3   40.50   12.20
   6  -5   3   60.49    9.50
   6   5   3   42.70    7.50
  -6   5  -3   54.49   11.80
  -7  -5  -3   65.69   11.30
   7  -5   3   90.59   14.80
   7   5   3   70.89   10.80
  -8  -5  -3   41.30   10.40
   8  -5   3   23.50   11.90
   8   5   3   28.40   12.50
  10  -6  -3  691.23   42.00
 -10  -6   3  605.74   34.80
 -10   6   3  693.13   43.60
  10   6  -3  705.83   37.90
   9  -6  -3  200.18   20.10
   9  -6  -3  153.98   11.80
  -9  -6   3  174.68   14.90
   9   6  -3  160.08   15.70
   9   6  -3  175.28   17.80
  -9   6   3  187.48   20.70
  -8  -6   3  345.67   19.70
  -8  -6   3  366.86   16.30
   8  -6  -3  345.87   23.60
   8  -6  -3  348.97   18.00
  -8  -6   3  338.47   19.50
   8   6  -3  350.26   21.80
   8   6  -3  361.36   21.10
  -8   6   3  365.86   24.90
  -8   6   3  356.06   22.60
  -7  -6   3  920.51   41.40
  -7  -6   3  977.60   41.50
  -7  -6   3  979.50   39.70
   7  -6  -3  929.21   45.50
   7   6  -3  990.90   43.40
  -7   6   3  971.20   46.90
   7   6  -3  995.70   44.10
  -7   6   3  960.30   43.50
  -6  -6   3  685.33   28.60
  -6  -6   3  660.13   28.60
  -6  -6   3  667.33   28.30
   6  -6  -3  674.53   33.00
  -6   6   3  634.84   33.50
   6   6  -3  670.33   31.70
   6   6  -3  662.63   30.30
  -6   6   3  686.13   31.50
   5  -6  -3   34.60    6.00
  -5  -6   3   29.20    3.80
   5   6  -3   41.60    4.70
   5   6  -3   24.70    4.90
  -5   6   3   20.40    4.50
  -5   6   3   33.60    5.70
   4  -6  -3 1880.91   81.49
  -4  -6   3 2066.89   78.69
   4   6  -3 2015.30   80.99
  -4   6   3 2040.40   80.99
   4   6  -3 1883.81   78.39
  -4   6   3 1988.80   82.29
   3  -6  -3 3905.61  144.39
   3  -6  -3 3542.65  144.69
  -3  -6   3 3937.21  142.59
   3   6  -3 3683.73  144.09
  -3   6   3 3383.66  144.89
   3   6  -3 3337.67  141.09
  -3   6   3 3749.22  144.49
   3   6  -3 3545.15  141.39
  -2  -6   3  100.49    6.40
   2  -6  -3   93.79    7.20
  -2   6   3   90.09    7.60
   2   6  -3  103.99    7.00
  -1  -6   3 1405.26   55.19
   1  -6  -3 1422.56   56.79
   1  -6  -3 1248.18   55.79
   1   6  -3 1274.97   55.29
  -1   6   3 1340.87   56.59
   1   6  -3 1304.37   53.19
   1   6  -3 1524.85   53.49
  -1   6   3 1367.96   57.09
   0  -6  -3 1566.84   63.09
   0  -6   3 1558.74   61.09
   0   6   3 1512.85   62.69
   0   6  -3 1470.45   60.19
   0   6   3 1475.35   63.09
   1  -6   3  289.37   13.70
  -1  -6  -3  304.47   16.20
   1  -6   3  292.97   12.80
   1  -6   3  279.97   12.50
   1   6   3  283.27   15.50
   1   6   3  255.87   15.30
  -1   6  -3  280.47   13.80
   2  -6   3  210.08   10.90
  -2  -6  -3  217.48   13.90
   2  -6   3  206.78   10.90
  -2   6  -3  217.58   12.00
   2   6   3  214.88    9.80
   2   6   3  191.68   12.80
  -3  -6  -3 1650.13   69.59
   3  -6   3 1661.23   68.59
   3  -6   3 1740.93   67.89
   3   6   3 1832.52   65.49
  -3   6  -3 1589.74   73.39
   3   6   3 1583.24   70.39
   4  -6   3 1732.83   71.39
  -4  -6  -3 1728.83   73.39
  -4  -6  -3 1778.92   76.69
   4  -6   3 1719.93   73.29
   4   6   3 1833.12   75.19
  -4   6  -3 1830.22   74.99
   5  -6   3   41.60    5.50
  -5  -6  -3   42.50    7.70
  -5  -6  -3   52.49   10.80
   5  -6   3   44.20    7.10
  -5   6  -3   35.00    8.10
  -6  -6  -3  524.45   32.30
  -6  -6  -3  482.15   25.80
   6  -6   3  472.95   26.80
  -6   6  -3  497.35   31.40
   6   6   3  477.45   27.00
   7  -6   3  316.87   24.30
  -7  -6  -3  339.87   21.50
   7   6   3  346.27   23.30
   8  -6   3   30.60   12.10
  -8  -6  -3    3.50    9.40
   8   6   3   21.30   11.40
 -10  -7   3   90.99   12.90
  10  -7  -3   88.39   17.90
  10   7  -3  101.39   15.10
 -10   7   3   79.29   18.80
  -9  -7   3  619.04   30.20
   9  -7  -3  554.74   35.90
  -9  -7   3  588.24   29.60
   9  -7  -3  573.74   27.00
   9   7  -3  640.54   32.90
  -9   7   3  591.04   36.70
   8  -7  -3  375.06   19.00
  -8  -7   3  386.76   20.10
   8  -7  -3  367.76   25.50
  -8  -7   3  377.46   20.10
  -8  -7   3  414.36   17.40
   8   7  -3  407.46   22.70
  -8   7   3  352.76   23.60
   8   7  -3  398.06   23.70
  -8   7   3  393.86   26.80
   7  -7  -3    4.50    5.00
  -7  -7   3    5.90    3.50
  -7  -7   3   -2.40    2.60
  -7  -7   3    5.80    3.40
   7   7  -3   15.20    6.00
  -7   7   3    6.20    4.70
   7   7  -3    0.80    3.60
  -7   7   3    7.80    6.20
  -6  -7   3  709.13   29.30
   6  -7  -3  701.73   34.40
   6   7  -3  686.73   31.20
   6   7  -3  693.73   33.10
  -6   7   3  707.83   32.90
  -6   7   3  671.23   35.20
  -5  -7   3 1620.64   61.19
   5  -7  -3 1375.96   64.59
   5   7  -3 1570.14   64.39
   5   7  -3 1433.16   61.69
  -5   7   3 1591.04   64.19
  -5   7   3 1535.45   66.19
   4  -7  -3 1065.89   46.10
  -4  -7   3 1055.89   43.30
  -4   7   3 1044.90   45.40
  -4   7   3 1066.89   46.70
   4   7  -3 1000.50   42.50
   4   7  -3 1056.19   45.40
   3  -7  -3  128.39    8.60
   3  -7  -3  103.89    8.50
  -3   7   3  114.29    8.90
   3   7  -3  111.99    8.40
  -3   7   3   96.69    8.90
   3   7  -3  122.59    5.90
   2  -7  -3 4047.50  166.88
   2  -7  -3 4289.47  166.88
  -2  -7   3 4347.47  165.48
   2   7  -3 4025.90  166.38
  -2   7   3 4308.77  167.48
  -2   7   3 4347.67  168.08
   1  -7  -3 2816.52  111.09
   1  -7  -3 2578.64  110.29
  -1  -7   3 2839.82  109.49
   1   7  -3 2773.92  109.99
  -1   7   3 2886.61  111.39
  -1   7   3 2735.03  111.79
   0  -7  -3   11.70    3.30
   0  -7   3   11.60    2.60
   0   7  -3   11.10    2.50
   0   7   3    6.90    2.80
   0   7   3   12.30    3.60
   0   7  -3   13.20    2.30
  -1  -7  -3 1255.67   51.79
   1  -7   3 1224.38   49.20
   1  -7   3 1221.88   47.20
  -1   7  -3 1170.78   48.80
  -1   7  -3 1189.78   48.30
   1   7   3 1104.79   51.19
   1   7   3 1229.18   51.39
   2  -7   3 2715.23  111.09
   2  -7   3 2730.73  111.69
  -2  -7  -3 2709.53  114.59
  -2   7  -3 2848.31  112.49
  -2   7  -3 2816.82  109.89
   2   7   3 3010.90  110.19
   2   7   3 2903.41  114.69
   3  -7   3  134.49    9.00
   3  -7   3  124.69    8.30
  -3  -7  -3  131.89   10.10
   3   7   3  138.19    6.50
  -3   7  -3  133.89   10.30
   3   7   3  144.19   11.30
   4  -7   3  624.44   28.60
  -4  -7  -3  667.63   33.80
   4  -7   3  637.04   30.20
  -4  -7  -3  629.84   30.60
   4   7   3  680.43   32.40
  -4   7  -3  660.63   31.80
   5  -7   3  197.38   11.90
  -5  -7  -3  198.08   14.30
   5  -7   3  193.38   14.70
  -5  -7  -3  229.58   19.60
   5   7   3  218.98   15.80
  -5   7  -3  218.98   18.00
  -6  -7  -3   -7.20    9.70
   6  -7   3   34.40    8.00
  -6  -7  -3    7.30    5.60
   6   7   3   14.70    6.10
   7  -7   3   41.60   10.40
  -7  -7  -3   54.19   10.10
   7   7   3   47.40   11.10
  -8  -7  -3  600.44   35.60
   8  -7   3  659.63   40.00
   8   7   3  675.33   40.70
  10  -8  -3   39.00   15.00
 -10   8   3   14.40   14.30
  10   8  -3   -3.80    8.80
   9  -8  -3   61.39    8.10
  -9  -8   3   76.59   10.90
   9  -8  -3   81.69   13.90
   9   8  -3   43.80    9.40
  -9   8   3   70.79   14.00
  -8  -8   3  136.19   10.00
   8  -8  -3  152.78   10.20
   8  -8  -3  131.89   17.20
  -8  -8   3  156.78   10.70
   8   8  -3  149.39   13.50
  -8   8   3  124.59   16.00
  -8   8   3  154.78   17.70
   8   8  -3  177.18   16.20
  -7  -8   3  419.26   18.00
   7  -8  -3  348.07   31.90
  -7   8   3  408.96   22.70
   7   8  -3  411.06   21.30
   7   8  -3  398.56   23.30
  -7   8   3  425.76   26.80
   6  -8  -3   89.19   10.50
  -6  -8   3   75.09    6.10
  -6   8   3   68.59   11.00
  -6   8   3   81.59    9.30
   6   8  -3   60.39    9.00
   6   8  -3   74.99    7.70
   5  -8  -3  144.89   11.50
  -5   8   3  138.89   10.70
   5   8  -3  133.69    8.50
   5   8  -3  122.89   10.70
  -5   8   3  147.29   12.30
   4  -8  -3   24.00    5.00
  -4  -8   3   27.80    3.80
  -4   8   3   22.80    5.20
   4   8  -3   24.10    3.30
   4   8  -3   16.10    4.20
  -4   8   3   24.00    5.60
   3  -8  -3   33.40    5.60
  -3  -8   3   28.40    4.00
   3  -8  -3   35.50    5.30
  -3   8   3   37.10    6.10
   3   8  -3   32.00    5.10
   3   8  -3   33.10    2.80
  -3   8   3   36.50    6.10
   2  -8  -3   55.59    5.80
  -2  -8   3   57.09    4.90
   2  -8  -3   48.70    5.90
  -2   8   3   56.89    6.60
  -2   8   3   56.39    6.80
   2   8  -3   51.79    5.60
   1  -8  -3  168.38   10.70
   1  -8  -3  158.08   10.10
  -1  -8   3  165.88    9.30
  -1   8   3  176.78   11.60
   1   8  -3  172.78    9.90
  -1   8   3  164.98   11.10
   0  -8   3  104.39    7.00
   0  -8  -3  110.79    8.70
   0   8  -3  101.19    6.80
   0   8   3  106.39    8.90
   0   8  -3  102.59    5.80
   0   8   3  112.19    8.90
   1  -8   3   59.19    5.10
  -1  -8  -3   60.19    7.60
   1   8   3   68.69    7.30
   1   8   3   66.99    7.60
  -1   8  -3   65.29    5.40
  -1   8  -3   59.89    4.80
  -2  -8  -3   29.10    5.70
  -2  -8  -3   32.40    5.80
   2  -8   3   36.00    4.30
   2  -8   3   34.90    4.30
   2   8   3   35.00    6.10
  -2   8  -3   35.10    5.20
  -2   8  -3   36.00    3.00
  -3  -8  -3  168.38   11.90
   3  -8   3  170.98   10.70
   3  -8   3  164.68   10.10
   3   8   3  179.38   13.30
  -3   8  -3  169.28   11.70
   3   8   3  179.78    7.90
   4  -8   3   73.09    6.50
  -4  -8  -3   72.09    8.50
  -4  -8  -3   74.19   12.10
   4  -8   3   71.09    8.60
  -4   8  -3   70.59   10.20
   4   8   3   74.59   10.10
  -5  -8  -3   -3.40    7.30
  -5  -8  -3   -6.00    4.20
   5  -8   3    3.70    4.80
   5   8   3   -5.80    4.90
  -5   8  -3   -4.20    6.50
   6  -8   3   42.40    8.90
  -6  -8  -3   16.20   12.00
  -6  -8  -3   26.40    7.40
   6   8   3   33.30    8.50
   7  -8   3   37.30   11.10
  -7  -8  -3   39.90    9.20
   7   8   3   64.49   12.00
  10  -9  -3   32.10   16.30
 -10   9   3   35.60   16.90
   9  -9  -3  660.63   40.10
  -9   9   3  633.04   41.40
   9   9  -3  712.73   35.60
   8  -9  -3  478.55   30.50
   8  -9  -3  477.65   22.10
   8   9  -3  502.25   26.20
  -8   9   3  450.35   31.60
   8   9  -3  489.05   28.40
  -7  -9   3  104.59    6.90
   7  -9  -3  101.69   13.80
  -7   9   3   79.49   12.20
   7   9  -3  109.79   10.50
  -7   9   3   85.39   15.10
   7   9  -3   96.79   12.80
   6  -9  -3  461.65   26.40
  -6   9   3  483.85   27.90
   6   9  -3  479.45   25.60
   6   9  -3  485.15   22.90
  -6   9   3  486.05   25.40
   5  -9  -3 2050.39   89.99
  -5  -9   3 2269.37   85.79
  -5   9   3 2171.28   89.39
  -5   9   3 2211.98   91.59
   5   9  -3 2202.38   89.69
   5   9  -3 2052.49   86.19
  -4  -9   3  924.51   36.60
   4  -9  -3  880.81   39.80
  -4   9   3  843.72   40.50
   4   9  -3  846.42   35.80
   4   9  -3  886.51   39.50
  -4   9   3  861.41   39.30
   3  -9  -3  328.37   16.90
   3  -9  -3  308.17   17.40
  -3  -9   3  334.27   15.30
   3   9  -3  331.47   17.30
  -3   9   3  296.87   17.60
  -3   9   3  319.77   18.30
   2  -9  -3 3135.39  133.19
  -2  -9   3 3358.06  131.89
   2  -9  -3 3521.05  133.49
   2   9  -3 3341.37  133.39
  -2   9   3 3278.27  134.69
  -2   9   3 3444.26  134.39
   1  -9  -3 1851.01   72.69
  -1  -9   3 1765.02   71.09
  -1   9   3 1794.32   73.29
   1   9  -3 1657.33   71.59
  -1   9   3 1752.32   73.69
   0  -9  -3  164.68   11.10
   0  -9   3  154.38    9.40
   0   9   3  163.88   11.70
   0   9   3  182.08   11.80
   0   9  -3  152.68    9.30
   0   9  -3  155.88    8.00
  -1  -9  -3 1702.53   67.59
   1  -9   3 1524.15   65.19
  -1   9  -3 1573.34   64.29
   1   9   3 1670.03   68.19
   1   9   3 1582.74   67.99
  -1   9  -3 1585.24   64.49
  -2  -9  -3 2217.38   91.79
   2  -9   3 2142.39   89.59
   2  -9   3 2315.87   87.59
   2  -9   3 2168.28   87.49
  -2  -9  -3 2130.19   91.99
  -2   9  -3 2312.37   87.29
  -2   9  -3 2278.27   89.79
   2   9   3 2118.39   92.19
   2   9   3 2385.46   92.89
   3  -9   3  382.76   19.10
   3  -9   3  383.16   18.90
  -3  -9  -3  410.16   21.20
   3   9   3  384.26   21.90
  -3   9  -3  404.76   20.50
   3   9   3  408.56   16.60
  -4  -9  -3  703.03   35.50
  -4  -9  -3  674.83   33.00
   4  -9   3  697.63   31.70
   4  -9   3  677.23   30.70
  -4   9  -3  691.53   33.20
   4   9   3  679.63   34.00
   5  -9   3 1261.17   54.19
  -5  -9  -3 1181.28   54.69
  -5  -9  -3 1170.78   56.99
   5   9   3 1235.38   55.89
  -5   9  -3 1300.57   56.19
  -6  -9  -3  101.79   15.20
  -6  -9  -3  116.59   12.90
   6   9   3  111.69   14.90
  -7  -9  -3  122.89   15.70
   7  -9   3  106.99   19.10
   7   9   3  143.29   18.00
  10  10  -3  164.08   22.30
   9 -10  -3   80.19   14.80
  -9  10   3   51.09   15.60
   9  10  -3   72.89   10.80
   8 -10  -3   10.10    4.10
   8 -10  -3   25.60    9.10
   8  10  -3    5.00    5.50
  -8  10   3    6.20    9.60
  -7 -10   3  282.57   13.40
   7 -10  -3  267.27   20.70
  -7  10   3  267.67   22.00
   7  10  -3  299.17   17.00
  -7  10   3  265.47   19.40
   7  10  -3  314.97   20.60
   6 -10  -3  210.28   16.60
  -6 -10   3  228.18   11.20
  -6  10   3  204.38   17.70
   6  10  -3  204.08   12.70
   6  10  -3  245.68   16.50
  -6  10   3  209.88   15.70
   5 -10  -3   18.30    5.70
  -5 -10   3   20.10    3.60
  -5  10   3   17.50    6.30
   5  10  -3   17.10    3.50
  -5  10   3   23.30    6.00
   5  10  -3   12.80    5.40
  -4 -10   3  294.47   13.90
   4 -10  -3  267.57   16.90
   4  10  -3  277.27   13.10
   4  10  -3  301.17   17.10
  -4  10   3  276.27   16.80
  -4  10   3  269.07   17.60
   3 -10  -3  530.75   24.80
  -3 -10   3  530.15   23.20
   3 -10  -3  525.25   25.40
  -3  10   3  500.45   26.40
  -3  10   3  532.25   26.00
   3  10  -3  501.85   25.70
   2 -10  -3  106.59    8.20
  -2 -10   3   96.09    7.00
   2 -10  -3  106.29    8.30
  -2  10   3  104.99    9.70
  -2  10   3  111.89   10.00
   2  10  -3  101.29    8.40
   1 -10  -3  137.69    9.60
  -1 -10   3  144.99    8.70
  -1  10   3  138.79   10.80
  -1  10   3  136.99   11.00
   1  10  -3  125.29    9.00
   0 -10   3  197.48   11.00
   0 -10  -3  206.38   12.70
   0  10  -3  198.78    9.60
   0  10   3  197.88   13.40
   0  10   3  207.28   13.60
   0  10  -3  198.48   11.20
  -1 -10  -3   35.50    6.30
  -1 -10  -3   54.79    7.40
   1 -10   3   41.80    5.00
   1  10   3   43.40    6.90
  -1  10  -3   32.80    4.40
  -1  10  -3   48.20    4.70
   1  10   3   32.60    5.70
   2 -10   3  353.86   18.50
  -2 -10  -3  375.06   20.40
  -2 -10  -3  369.66   20.80
   2  10   3  391.16   21.40
   2  10   3  419.96   22.30
  -2  10  -3  381.76   18.70
  -3 -10  -3 1330.77   57.89
   3 -10   3 1277.57   55.69
   3 -10   3 1321.87   54.69
   3  10   3 1377.46   59.29
  -3  10  -3 1324.37   56.69
   3  10   3 1405.16   52.89
   4 -10   3  301.27   16.90
  -4 -10  -3  332.97   21.50
  -4 -10  -3  262.77   23.50
   4 -10   3  314.47   16.30
   4  10   3  303.57   19.70
  -4  10  -3  293.17   18.80
   5 -10   3   15.50    6.00
  -5 -10  -3    4.70    6.00
  -5 -10  -3    0.20    8.30
   5  10   3    3.40    5.70
  -5  10  -3    1.30    7.20
   6 -10   3   13.80    9.30
  -6 -10  -3    9.10   12.50
  -6 -10  -3   12.50    7.00
   6  10   3   12.90    7.70
  -7 -10  -3  183.88   32.40
  -7 -10  -3  150.58   18.20
   7 -10   3  160.48   22.30
   7  10   3  173.88   20.40
   9 -11  -3  194.48   25.00
   9  11  -3  181.38   18.50
  -9  11   3  182.58   28.30
   8 -11  -3  473.15   22.10
   8 -11  -3  493.55   31.90
   8  11  -3  538.05   32.20
  -8  11   3  499.15   34.20
   7 -11  -3   52.19   10.70
  -7 -11   3   51.49    5.50
  -7  11   3   68.49   11.00
   7  11  -3   80.79   13.60
  -7  11   3   60.99   11.90
   7  11  -3   67.09    8.80
  -6 -11   3  407.96   17.20
   6 -11  -3  363.86   22.90
  -6  11   3  357.06   21.90
   6  11  -3  391.46   22.60
  -6  11   3  313.37   27.60
   6  11  -3  380.46   18.90
  -5 -11   3  717.43   28.50
   5 -11  -3  642.74   32.60
  -5  11   3  655.13   32.50
   5  11  -3  648.54   28.70
   5  11  -3  658.53   32.60
  -5  11   3  638.34   34.30
   4 -11  -3  104.29   10.50
  -4 -11   3  124.59    7.80
  -4  11   3  124.69   12.10
  -4  11   3  128.49   11.20
   4  11  -3  104.89    6.80
  -3 -11   3  203.38   10.70
   3 -11  -3  193.48   12.60
  -3  11   3  187.48   13.70
  -3  11   3  181.48   13.80
   3  11  -3  198.28   13.20
  -2 -11   3 1289.07   53.89
   2 -11  -3 1370.26   55.19
   2 -11  -3 1261.17   54.99
   2  11  -3 1357.96   55.89
  -2  11   3 1323.17   57.29
  -2  11   3 1267.87   56.49
  -1 -11   3  365.56   17.50
   1 -11  -3  381.26   18.70
  -1  11   3  372.66   20.60
   1  11  -3  362.66   18.50
  -1  11   3  328.17   23.00
   0 -11  -3   33.50    5.50
   0 -11   3   25.20    4.10
   0  11   3   26.30    5.70
   0  11  -3   28.30    3.40
   0  11   3   25.90    5.60
   0  11  -3   30.50    5.00
   1 -11   3  197.38   11.70
  -1 -11  -3  194.78   13.50
  -1 -11  -3  209.28   13.70
  -1  11  -3  200.08   10.80
   1  11   3  206.58   14.70
  -1  11  -3  209.78   11.00
   1  11   3  202.88   14.40
   2 -11   3  746.03   34.20
  -2 -11  -3  824.92   36.50
  -2 -11  -3  755.62   36.10
   2  11   3  751.52   36.90
  -2  11  -3  767.32   34.00
   2  11   3  818.52   37.80
   3 -11   3  196.88   10.20
   3 -11   3  195.18   10.30
  -3 -11  -3  190.68   13.80
   3 -11   3  188.68   11.80
   3  11   3  203.58   15.40
   3  11   3  203.08    9.90
  -3  11  -3  203.58   13.50
  -4 -11  -3  392.76   23.10
   4 -11   3  371.56   20.10
   4 -11   3  388.06   20.30
  -4 -11  -3  450.75   25.50
  -4  11  -3  423.86   22.80
   5 -11   3  699.33   33.40
  -5 -11  -3  690.53   35.30
  -5 -11  -3  716.13   37.20
   5  11   3  691.73   36.00
  -5  11  -3  666.53   35.60
  -6 -11  -3  180.98   17.30
   6 -11   3  175.78   17.60
  -6 -11  -3  203.68   23.90
   6  11   3  143.29   17.40
   7 -11   3  -10.00   11.80
  -7 -11  -3   -8.10    9.90
   7  11   3   -2.70    9.90
   9 -12  -3   32.70   14.90
  -9  12   3   42.80   17.10
   9  12  -3   43.10   10.30
   8 -12  -3  165.58   22.30
  -8  12   3  196.88   24.50
  -7 -12   3 1346.07   51.89
   7 -12  -3 1245.28   59.99
  -7  12   3 1261.77   62.69
   7  12  -3 1302.47   55.49
   6 -12  -3  952.30   47.60
  -6 -12   3 1074.19   41.50
   6  12  -3 1039.90   47.80
  -6  12   3  994.90   49.90
  -6  12   3 1016.40   47.10
   6  12  -3  968.20   43.10
   5 -12  -3    0.80    5.20
  -5 -12   3   -0.30    2.30
   5  12  -3    4.50    3.00
  -5  12   3    0.00    5.30
  -5  12   3   -0.40    5.40
   5  12  -3    2.70    5.90
   4 -12  -3  928.31   43.10
  -4 -12   3  972.20   40.00
   4  12  -3  981.00   43.90
  -4  12   3  966.70   44.00
  -4  12   3  952.60   45.10
   4  12  -3  939.61   39.20
  -3 -12   3 1586.84   63.19
   3 -12  -3 1480.95   64.89
  -3  12   3 1558.84   66.59
   3  12  -3 1612.14   66.19
  -3  12   3 1509.85   67.19
  -2 -12   3  214.98   11.80
   2 -12  -3  231.18   13.20
   2 -12  -3  192.98   12.50
  -2  12   3  216.58   15.30
  -2  12   3  203.88   14.70
   2  12  -3  210.08   13.60
   1 -12  -3  597.54   27.50
  -1 -12   3  578.14   26.70
   1  12  -3  598.44   24.30
   1  12  -3  590.94   27.70
  -1  12   3  571.04   29.60
  -1  12   3  626.64   29.80
   0 -12   3 1524.45   63.89
   0 -12  -3 1609.74   64.69
   0  12  -3 1602.64   63.99
   0  12   3 1518.35   66.39
   0  12  -3 1568.14   61.99
   0  12   3 1478.95   66.69
  -1 -12  -3  593.54   29.70
   1 -12   3  580.14   27.70
  -1 -12  -3  631.24   29.00
  -1  12  -3  631.34   27.10
  -1  12  -3  576.94   26.40
   1  12   3  647.94   30.90
   1  12   3  594.94   30.60
  -2 -12  -3  254.37   17.10
   2 -12   3  286.17   15.60
  -2 -12  -3  316.07   18.00
   2  12   3  288.87   18.40
  -2  12  -3  302.47   16.70
   2  12   3  283.07   19.50
  -3 -12  -3 2139.79   93.59
   3 -12   3 2158.38   91.19
  -3 -12  -3 2273.57   93.89
  -3  12  -3 2309.27   91.99
   3  12   3 2355.06   95.79
   3  12   3 2214.98   94.39
  -4 -12  -3  572.14   31.10
   4 -12   3  563.44   26.40
  -4 -12  -3  609.44   30.80
   4 -12   3  565.84   27.80
  -4  12  -3  601.44   30.30
   4  12   3  621.34   31.80
  -5 -12  -3   38.90    9.00
  -5 -12  -3   40.60   11.00
   5 -12   3   26.50    7.20
   5  12   3   24.60    8.00
  -5  12  -3   24.10    9.70
  -6 -12  -3  241.68   20.20
  -6 -12  -3  220.18   26.30
   6 -12   3  217.88   19.50
   6  12   3  233.58   20.80
   7 -12   3  350.06   29.20
  -7 -12  -3  401.36   29.70
   7  12   3  450.05   29.70
   9 -13  -3  -11.20   13.70
  -9  13   3   -6.40   15.70
   8 -13  -3   34.10   11.80
   8  13  -3   -1.20    7.00
  -8  13   3   15.20   12.20
   7 -13  -3   28.40   10.60
  -7  13   3   56.99   13.40
   7  13  -3   50.49    7.30
  -6 -13   3   44.50    5.50
   6 -13  -3   55.89   10.00
  -6  13   3   42.40   10.60
  -6  13   3   51.69   10.30
   6  13  -3   35.10    8.70
   6  13  -3   50.59    7.30
  -5 -13   3   14.20    3.30
   5 -13  -3    5.80    4.70
   5 -13  -3    6.30    5.80
  -5  13   3    9.20    6.10
   5  13  -3   11.80    7.10
   5  13  -3   16.80    3.60
  -5  13   3    7.50    8.30
  -4 -13   3   31.40    4.60
   4 -13  -3   25.50    5.90
   4  13  -3   25.50    3.60
  -4  13   3   40.90    8.50
   4  13  -3   27.00    6.50
  -4  13   3   32.90    7.80
  -3 -13   3   57.29    5.70
   3 -13  -3   63.59    7.70
  -3  13   3   54.79    9.50
   3  13  -3   61.29    9.00
  -3  13   3   45.60    8.40
  -2 -13   3   34.60    5.10
  -2  13   3   42.70    7.60
  -2  13   3   41.60    7.60
   2  13  -3   44.90    7.60
   1 -13  -3    7.60    4.90
   1 -13  -3    4.90    3.60
  -1 -13   3    5.20    2.90
  -1  13   3    7.00    5.00
  -1  13   3   12.90    5.60
   1  13  -3   12.30    4.60
   1  13  -3    7.30    2.20
   0 -13   3   58.09    5.90
   0 -13  -3   43.10    7.20
   0 -13  -3   60.09    8.00
   0  13  -3   77.19    7.70
   0  13   3   58.09    9.30
   0  13  -3   52.59    5.20
   0  13   3   77.49   10.40
   1 -13   3   98.99    8.00
  -1 -13  -3  100.39    9.50
  -1 -13  -3   93.39    9.80
   1  13   3   99.19   10.70
   1  13   3   87.19   11.30
  -1  13  -3   96.49    7.40
  -2 -13  -3   37.40    7.20
   2 -13   3   36.80    5.70
  -2 -13  -3   24.70    9.10
   2  13   3   31.90    8.30
  -2  13  -3   36.50    5.80
   2  13   3   36.80    7.70
   3 -13   3   35.90    6.10
  -3 -13  -3   22.20    6.50
  -3 -13  -3   24.00    7.10
   3  13   3   21.80    7.30
   3  13   3   16.30    8.80
  -3  13  -3   30.90    6.70
  -4 -13  -3   12.30    6.60
  -4 -13  -3    7.60    7.50
  -4  13  -3    3.60    6.50
   4  13   3    2.10    6.20
  -5 -13  -3   11.40    9.50
  -5 -13  -3   25.80    9.10
   5 -13   3    2.00    6.00
   5  13   3   10.80    8.30
  -6 -13  -3   44.50   11.50
   6 -13   3   30.50    9.90
   6  13   3   16.50   10.20
   8 -14  -3  228.78   26.30
   8  14  -3  259.47   18.90
  -8  14   3  264.77   29.30
   7 -14  -3  698.33   39.70
   7 -14  -3  804.22   33.30
   7  14  -3  763.12   35.10
  -7  14   3  720.13   43.90
  -6 -14   3  608.64   25.40
  -6  14   3  579.74   35.00
   6  14  -3  551.84   26.90
   5 -14  -3   -7.50    4.60
   5 -14  -3    7.00    5.60
  -5 -14   3    3.30    3.10
   5  14  -3    0.20    3.20
   5  14  -3    6.30    7.60
  -5  14   3   -4.60    6.80
  -5  14   3    5.80    7.30
  -4 -14   3  728.03   30.30
   4 -14  -3  669.73   32.90
   4  14  -3  738.43   35.10
   4  14  -3  674.63   29.20
  -4  14   3  667.53   35.80
  -4  14   3  640.04   34.40
   3 -14  -3 1582.44   69.59
  -3 -14   3 1712.83   68.59
   3  14  -3 1664.73   66.49
   3  14  -3 1741.63   72.09
  -3  14   3 1665.83   72.39
  -3  14   3 1700.33   73.49
  -2 -14   3  279.77   15.00
  -2  14   3  290.37   19.00
  -2  14   3  281.67   18.80
   2  14  -3  274.87   17.40
   1 -14  -3 1309.37   52.69
  -1 -14   3 1199.18   52.49
   1 -14  -3 1249.28   55.29
  -1  14   3 1160.38   55.79
  -1  14   3 1268.67   55.79
   1  14  -3 1269.47   54.09
   1  14  -3 1271.17   50.09
   0 -14  -3 1729.53   72.59
   0 -14   3 1537.05   69.89
   0 -14  -3 1728.83   69.99
   0  14  -3 1740.73   68.09
   0  14   3 1708.53   73.19
   0  14   3 1691.23   73.69
   0  14  -3 1741.83   71.09
  -1 -14  -3  240.18   14.20
   1 -14   3  208.28   13.20
  -1 -14  -3  219.28   15.10
  -1  14  -3  240.88   12.80
   1  14   3  205.68   16.40
   1  14   3  247.98   18.10
   2 -14   3    4.90    3.30
  -2 -14  -3   -4.60    4.90
  -2 -14  -3    7.50    5.40
   2  14   3   -3.70    5.40
   2  14   3    0.10    7.10
  -2  14  -3    9.10    4.40
  -3 -14  -3  607.94   28.70
   3 -14   3  521.35   26.60
  -3 -14  -3  522.65   29.30
   3  14   3  458.45   32.40
   3  14   3  620.34   33.10
  -3  14  -3  563.34   27.90
  -4 -14  -3  695.33   35.30
   4  14   3  722.53   43.50
   4  14   3  637.74   35.10
  -4  14  -3  626.24   33.80
  -5 -14  -3   26.70   15.40
  -5 -14  -3    7.00    8.70
   5  14   3   -1.60    8.70
  -6 -14  -3  537.85   33.40
   6  14   3  524.25   33.50
   8 -15  -3  427.26   32.20
  -8  15   3  403.26   37.60
   8  15  -3  400.06   25.40
   7 -15  -3    2.60    4.70
   7 -15  -3  -11.60    9.60
  -7  15   3  -17.60   11.50
   7  15  -3    3.40    5.90
  -6 -15   3  197.68   10.70
   6 -15  -3  165.08   20.50
   6 -15  -3  213.28   13.60
  -6  15   3  140.49   19.80
   6  15  -3  193.58   12.80
  -5 -15   3  323.77   15.70
   5 -15  -3  293.77   19.50
   5 -15  -3  311.47   18.60
   5  15  -3  291.37   15.80
   5  15  -3  310.87   23.10
  -5  15   3  297.37   21.40
  -5  15   3  315.77   23.30
  -4 -15   3  118.59    8.20
   4 -15  -3   89.19   10.90
   4 -15  -3  107.29   10.80
   4  15  -3  109.19   14.30
   4  15  -3  103.29    7.70
  -4  15   3   91.89   13.70
  -3 -15   3  183.98   11.10
   3 -15  -3  161.08   13.80
  -3  15   3  153.18   15.40
  -3  15   3  171.28   15.80
   3  15  -3  178.08    9.30
   3  15  -3  166.88   14.80
  -2 -15   3  926.71   40.60
   2 -15  -3  950.90   43.40
   2  15  -3  903.71   37.90
  -2  15   3  920.21   44.80
   2  15  -3 1026.20   44.10
  -2  15   3  888.31   44.20
   1 -15  -3  626.54   30.70
  -1 -15   3  564.64   28.00
   1  15  -3  606.14   26.00
  -1  15   3  613.04   32.40
   1  15  -3  592.24   25.70
  -1  15   3  631.14   32.20
   1  15  -3  631.24   30.80
   0 -15   3    5.90    3.10
   0 -15  -3    9.00    4.10
   0 -15  -3    9.20    4.80
   0  15   3   -0.10    7.10
   0  15   3   -1.70    5.40
   0  15  -3    5.30    3.00
   1 -15   3  518.75   26.00
  -1 -15  -3  556.34   25.60
  -1 -15  -3  555.94   28.60
  -1  15  -3  547.35   25.10
   1  15   3  553.24   29.80
   1  15   3  522.95   30.20
   2 -15   3  558.94   28.50
  -2 -15  -3  600.24   31.30
  -2 -15  -3  631.84   28.40
   2  15   3  615.44   34.00
   2  15   3  581.44   32.00
  -2  15  -3  598.54   28.30
   3 -15   3   13.60    5.00
  -3 -15  -3   12.50    6.90
  -3 -15  -3   30.30    7.30
  -3  15  -3   19.90    6.60
   3  15   3   16.10   11.00
   3  15   3   20.70    8.40
  -4 -15  -3   87.39   15.10
  -4 -15  -3  109.69   14.10
  -4  15  -3   97.69   16.50
   4  15   3   88.89   15.50
  -5 -15  -3  221.48   21.20
   5  15   3  198.18   21.40
  -7  16   3  179.38   25.60
   7  16  -3  186.28   15.20
   6 -16  -3   72.69    9.90
  -6 -16   3   90.39    7.30
   6 -16  -3   64.89   11.60
   6  16  -3   87.29   10.00
  -6  16   3  110.49   18.70
  -5 -16   3   14.70    4.00
   5 -16  -3   19.50    7.30
   5 -16  -3   27.90    6.50
   5  16  -3   17.60    4.70
  -5  16   3    1.80    8.90
   4 -16  -3   68.19   10.30
  -4 -16   3   71.79    7.00
   4 -16  -3   77.39   10.00
   4  16  -3   61.49    7.00
  -4  16   3   61.39   11.00
  -4  16   3   87.59   14.00
   4  16  -3   70.09   12.70
   3 -16  -3   87.69   10.60
  -3 -16   3   91.09    8.10
   3  16  -3  100.79    7.40
   3  16  -3   84.19    7.30
  -3  16   3  127.09   15.50
   3  16  -3   90.09   13.70
  -3  16   3   86.99   13.60
   2 -16  -3   11.00    5.40
  -2 -16   3    4.50    3.60
   2  16  -3    2.50    3.00
   2  16  -3    4.60    7.50
  -2  16   3    7.70    6.70
  -2  16   3   17.30    8.20
   2  16  -3    2.90    3.10
  -1 -16   3  372.16   18.00
   1 -16  -3  332.27   20.20
   1  16  -3  310.77   15.70
  -1  16   3  301.47   21.60
   1  16  -3  312.07   15.30
  -1  16   3  331.57   22.60
   0 -16  -3  165.58   13.80
   0 -16   3  147.79   10.80
   0  16  -3  165.38   10.20
   0  16   3  183.78   16.30
   0  16  -3  157.88   10.20
   0  16   3  121.69   17.00
   1 -16   3   87.09    8.80
  -1 -16  -3  110.19    9.30
  -1 -16  -3  103.59   12.10
   1  16   3   78.09   12.30
   1  16   3   97.29   13.10
  -2 -16  -3    4.20    6.00
  -2 -16  -3   -0.40    4.60
   2 -16   3    5.10    3.30
   2  16   3    6.80    9.60
   2  16   3   -1.40    7.10
  -2  16  -3   11.30    5.40
  -3 -16  -3  241.18   18.90
  -3 -16  -3  275.47   16.60
   3  16   3  247.28   20.80
   3  16   3  270.37   27.30
  -3  16  -3  294.97   19.00
  -4 -16  -3  176.68   18.00
   4  16   3  159.38   18.90
  -5 -16  -3    8.50   10.80
   5  16   3  -13.10    9.40
   7 -17  -3   31.10   12.60
   7  17  -3   26.70    7.70
  -7  17   3   36.90   15.60
   6 -17  -3  416.76   21.40
   6 -17  -3  400.26   25.90
   6  17  -3  389.66   21.20
  -6  17   3  406.16   31.50
  -5 -17   3 1047.00   41.90
   5 -17  -3  928.61   44.60
   5 -17  -3 1024.50   44.20
   5  17  -3  927.01   42.00
  -5  17   3  984.10   50.69
  -4 -17   3  360.86   17.50
   4 -17  -3  352.96   20.20
  -4  17   3  327.97   24.90
   4  17  -3  347.37   16.90
  -4  17   3  269.27   23.50
  -3 -17   3  113.69    9.00
   3 -17  -3  115.09   12.30
   3  17  -3   89.49    8.30
  -3  17   3  116.39   15.70
   3  17  -3  127.39    9.00
   3  17  -3   90.39   14.90
  -3  17   3  117.19   17.60
  -2 -17   3  884.81   40.10
   2 -17  -3  905.91   43.00
   2  17  -3  918.71   38.10
  -2  17   3  919.41   45.80
   2  17  -3  928.01   38.20
  -1 -17   3  535.25   26.40
   1 -17  -3  541.55   29.00
  -1  17   3  571.04   31.70
  -1  17   3  566.44   32.60
   1  17  -3  556.54   24.80
   1  17  -3  547.15   24.60
   0 -17   3   18.20    4.90
   0 -17  -3   17.90    7.20
   0  17  -3   20.50    5.00
   0  17   3   27.90    8.10
   0  17  -3   12.80    7.30
   0  17   3   29.10    9.70
   0  17  -3   30.60    5.10
   1 -17   3  817.32   38.90
  -1 -17  -3  843.12   41.90
  -1  17  -3  858.71   38.20
   1  17   3  844.62   44.50
   1  17   3  892.31   44.70
  -1  17  -3  864.71   37.70
  -2 -17  -3  845.62   41.70
   2 -17   3  802.82   38.70
   2  17   3  866.91   45.30
   2  17   3  811.52   42.70
  -2  17  -3  846.22   38.00
  -3 -17  -3   71.29   12.30
  -3  17  -3   86.29   15.00
   3  17   3   79.59   12.80
  -4 -17  -3  252.47   23.30
   4  17   3  298.57   23.90
   5  17   3  747.13   42.10
   6 -18  -3   81.69   12.90
  -6  18   3   36.10   15.30
   6  18  -3   48.70    7.90
   5 -18  -3    7.00    7.30
   5 -18  -3    4.50    7.20
   5  18  -3    7.50    5.70
  -5  18   3   11.90   10.10
  -4 -18   3   22.90    4.70
   4 -18  -3   13.50    6.80
  -4  18   3   23.30    9.80
   4  18  -3   22.50    6.10
   4  18  -3   20.40    5.10
  -3 -18   3   32.50    5.50
   3 -18  -3   28.30    8.00
  -3  18   3   48.70   10.40
  -3  18   3   20.90   10.70
   3  18  -3   24.10    5.90
   3  18  -3   13.60   13.40
   3  18  -3   29.60    5.40
   2 -18  -3   20.70    7.20
  -2 -18   3   36.70    6.10
   2  18  -3   40.10    6.10
  -2  18   3   20.20    9.80
   2  18  -3   24.90   10.90
   2  18  -3   44.50    7.30
  -2  18   3   28.70   11.50
  -1 -18   3    1.90    3.70
   1 -18  -3   -0.80    6.40
  -1  18   3   11.80    8.00
  -1  18   3    3.40   10.50
   1  18  -3   15.00    9.80
   1  18  -3    2.50    4.30
   0 -18  -3  108.59   14.00
   0 -18   3  115.59    9.90
   0  18  -3  100.89   10.30
   0  18  -3  126.59   10.40
   0  18   3  140.99   19.70
   0  18   3  122.79   16.80
  -1 -18  -3    6.30    7.40
   1 -18   3   -3.00    2.90
  -1  18  -3    2.30    5.10
  -1  18  -3    3.90    5.70
   1  18   3    4.20    8.30
   1  18   3   17.40   11.90
  -2 -18  -3  273.07   20.90
  -2  18  -3  279.97   18.20
   2  18   3  238.98   21.60
  -2  18  -3  202.58   17.20
  -3 -18  -3  128.99   16.90
  -3  18  -3  133.79   16.00
  -3  18  -3  114.09   18.20
   3  18   3  172.88   19.50
  -4 -18  -3   68.69   15.40
   4  18   3   66.29   13.70
  -4  18  -3   53.29   12.40
  -6  19   3  326.57   32.70
   5 -19  -3  817.42   39.00
  -5  19   3  809.72   47.30
   5  19  -3  851.61   44.00
   4 -19  -3  251.07   19.10
   4  19  -3  229.58   14.40
  -4  19   3  219.08   25.00
  -3 -19   3   70.59    8.00
   3 -19  -3   53.59   10.60
   3  19  -3   63.29    8.50
   3  19  -3   67.99    9.20
  -3  19   3   67.09   13.40
  -2 -19   3  651.43   30.40
   2 -19  -3  613.54   33.30
   2  19  -3  620.84   28.90
   2  19  -3  651.33   29.20
  -2  19   3  643.14   37.10
  -1 -19   3  459.55   25.40
   1 -19  -3  518.95   29.70
   1  19  -3  500.25   24.20
  -1  19   3  535.15   36.30
  -1  19   3  541.75   31.80
   1  19  -3  523.85   24.80
   0 -19   3    2.80    3.90
   0 -19  -3    9.00    8.30
   0  19   3    1.80    8.70
   0  19  -3   14.70    5.60
   0  19  -3   -7.30    6.10
  -1 -19  -3  260.77   20.70
  -1  19  -3  250.47   17.10
  -1  19  -3  263.57   17.50
   1  19   3  251.77   22.70
  -2 -19  -3  260.97   22.70
  -2  19  -3  253.87   19.70
   2  19   3  253.87   24.10
  -2  19  -3  297.37   20.20
  -3 -19  -3   68.49   13.70
  -3  19  -3   36.50   10.30
   3  19   3   60.89   13.50
  -5  20   3   50.89   14.80
   4 -20  -3  504.35   29.10
  -4  20   3  502.45   35.30
   3 -20  -3  459.25   27.60
  -3  20   3  454.45   32.40
   2 -20  -3   46.80   10.70
   2  20  -3   19.80    6.70
  -2  20   3    8.80   11.00
   1 -20  -3  139.29   17.50
  -1  20   3  161.08   20.40
   1  20  -3  149.39   13.80
   0 -20  -3  668.13   36.90
   0  20  -3  672.23   32.60
   0  20   3  668.43   39.20
  -1 -20  -3  290.97   24.60
  -1  20  -3  289.97   20.20
   1  20   3  303.77   26.30
  -2 -20  -3  106.89   19.60
  -2  20  -3  146.79   17.20
   2  20   3  105.09   16.70
   4 -21  -3   20.00   10.60
  -4  21   3   14.10   15.40
   3 -21  -3   -4.40    9.80
  -3  21   3  -14.10   12.40
   2 -21  -3   38.70   11.30
  -2  21   3   39.70   15.10
   1 -21  -3  -13.00    9.40
  -1  21   3   -2.30   12.10
   0 -21  -3   15.80   11.00
   0  21   3   17.20   13.50
  -1 -21  -3    6.20   12.00
   1  21   3   -2.10   12.90
 -11   0   4  972.20   52.09
 -11   0   4  934.01   42.10
  11   0  -4  946.81   53.39
 -10   0   4  719.63   38.20
  10   0  -4  656.93   35.10
 -10   0   4  671.23   39.30
 -10   0   4  681.63   31.80
  10   0  -4  767.62   40.70
   9   0  -4  570.84   32.00
   9   0  -4  520.65   28.10
  -9   0   4  584.54   29.50
  -9   0   4  472.85   34.20
   8   0  -4 1620.44   72.59
  -8   0   4 1589.34   72.49
  -8   0   4 1701.03   69.99
   8   0  -4 1724.63   70.39
   7   0  -4   44.00    7.30
  -7   0   4   48.50    8.30
  -7   0   4   58.49    7.60
   7   0  -4   56.69    9.00
  -6   0   4  229.68   12.40
   6   0  -4  213.38   14.00
  -6   0   4  216.68   14.30
  -5   0   4  750.62   31.80
   5   0  -4  722.33   33.30
  -5   0   4  749.42   33.60
   5   0  -4  729.63   32.90
   4   0  -4 1887.51   78.39
   4   0  -4 1864.31   77.99
  -4   0   4 1953.40   78.39
  -4   0   4 1999.60   77.19
   3   0  -4  208.58   11.60
   3   0  -4  217.18   11.70
  -3   0   4  196.48   11.40
  -3   0   4  205.08   10.60
  -3   0   4  200.78   10.90
  -2   0   4 5105.79  203.98
   2   0  -4 5290.17  204.58
   2   0  -4 5246.07  204.78
  -2   0   4 5405.36  203.98
  -2   0   4 5063.59  204.28
   1   0  -4 9999.00  370.96
   1   0  -4 9029.00  369.96
  -1   0   4 9704.83  369.36
  -1   0   4 9370.56  369.96
   0   0   4  472.65   19.30
   0   0   4  420.86   20.00
   0   0   4  406.36   20.10
   0   0  -4  413.56   20.90
   1   0   4 1478.05   56.59
  -1   0  -4 1358.66   59.39
   1   0   4 1367.96   58.09
   1   0   4 1412.36   58.59
   2   0   4 1485.75   61.49
  -2   0  -4 1568.44   65.59
   2   0   4 1530.75   63.59
   3   0   4 2117.19   84.39
  -3   0  -4 2008.80   86.49
   3   0   4 2023.60   81.49
  -4   0  -4  155.08   15.30
   4   0   4  167.58    8.60
   4   0   4  165.68   12.10
  -4   0  -4  152.28    9.80
   5   0   4 1279.17   54.69
  -5   0  -4 1226.78   57.89
   5   0   4 1185.08   49.40
  -5   0  -4 1206.68   51.19
  -6   0  -4  904.81   40.10
   6   0   4  933.71   44.20
   7   0   4   10.40    9.80
  11  -1  -4   -2.50   13.80
 -11  -1   4    4.40    6.80
 -11  -1   4  -22.80   11.90
 -11   1   4   -4.80    5.60
 -11   1   4   21.10   14.10
  11   1  -4   26.70   14.30
  10  -1  -4   48.10   10.20
 -10  -1   4   56.39    8.30
 -10  -1   4   52.19   11.20
  10  -1  -4   61.99   13.60
 -10  -1   4   68.69   13.00
 -10   1   4   38.60   12.00
 -10   1   4   61.29   12.70
  10   1  -4   82.69   15.10
  10   1  -4   52.99   12.20
   9  -1  -4   89.89   15.80
   9  -1  -4  111.39   12.30
  -9  -1   4  137.09   14.50
  -9  -1   4   84.09   14.00
  -9  -1   4  107.19    9.50
   9   1  -4   93.49   15.20
  -9   1   4  113.69   13.60
   9   1  -4  117.29   13.30
  -9   1   4  116.49   16.20
  -8  -1   4   -1.70    4.50
  -8  -1   4    7.20    5.40
   8  -1  -4   -8.40    6.30
  -8  -1   4    5.60    3.70
   8  -1  -4    5.80    4.90
  -8   1   4    0.10    4.60
  -8   1   4    3.10    6.20
   8   1  -4    7.00    5.10
   8   1  -4    9.20    6.00
  -7  -1   4  372.46   21.40
   7  -1  -4  377.86   20.00
   7  -1  -4  375.46   21.80
  -7  -1   4  389.66   19.50
  -7  -1   4  392.26   19.10
   7   1  -4  399.76   20.70
  -7   1   4  403.16   20.00
  -7   1   4  356.96   21.90
   7   1  -4  356.56   21.20
   6  -1  -4  475.75   24.50
  -6  -1   4  461.85   22.30
  -6  -1   4  464.55   23.80
  -6  -1   4  485.35   22.10
  -6   1   4  493.15   22.60
   6   1  -4  495.75   24.20
  -6   1   4  463.55   24.60
   5  -1  -4   51.69    6.40
  -5  -1   4   42.10    5.30
  -5  -1   4   43.50    5.90
   5  -1  -4   46.70    6.20
  -5  -1   4   58.99    5.00
  -5   1   4   49.50    5.30
   5   1  -4   51.59    6.30
   5   1  -4   53.19    6.10
  -5   1   4   46.30    6.70
  -4  -1   4   -0.70    1.90
   4  -1  -4    1.30    2.40
   4  -1  -4    2.10    2.40
  -4  -1   4    2.10    2.00
  -4  -1   4    2.90    1.60
  -4   1   4    0.70    1.60
   4   1  -4   -0.50    2.20
   4   1  -4    1.60    2.00
  -4   1   4    1.30    2.30
  -3  -1   4  112.69    7.30
  -3  -1   4  115.09    6.60
  -3  -1   4  108.39    7.20
   3  -1  -4  102.49    7.80
   3  -1  -4  116.69    8.10
  -3   1   4  104.09    7.90
   3   1  -4  114.89    7.60
   3   1  -4  107.29    7.70
  -3   1   4  111.69    7.30
   2  -1  -4  187.38   11.00
  -2  -1   4  198.28    9.70
  -2  -1   4  173.58   11.10
   2  -1  -4  188.88   10.80
  -2  -1   4  194.28   10.10
   2   1  -4  195.18   10.50
  -2   1   4  177.38   10.70
  -2   1   4  186.98   10.40
   2   1  -4  199.58   10.80
  -2   1   4  188.68   10.50
   1  -1  -4  457.75   22.50
  -1  -1   4  514.45   22.20
  -1  -1   4  500.85   22.10
   1  -1  -4  504.35   23.60
  -1  -1   4  521.05   22.10
  -1   1   4  483.45   22.70
  -1   1   4  517.45   22.00
   1   1  -4  484.15   22.90
   1   1  -4  506.35   22.50
  -1   1   4  502.95   23.00
   0  -1   4  832.32   33.20
   0  -1   4  775.62   33.50
   0  -1   4  792.92   33.80
   0  -1  -4  742.33   35.00
   0   1   4  785.82   34.30
   0   1   4  808.62   32.90
   0   1  -4  792.82   34.70
   0   1   4  771.22   34.30
   1  -1   4   29.50    4.30
   1  -1   4   20.50    3.70
  -1  -1  -4   23.40    5.10
   1   1   4   24.60    3.50
   1   1   4   29.30    4.50
   1   1   4   33.00    5.20
  -1   1  -4   29.00    5.10
   2  -1   4   52.39    4.70
   2  -1   4   54.29    5.90
  -2  -1  -4   46.60    8.30
   2   1   4   49.60    6.10
  -2   1  -4   47.80    7.90
   2   1   4   60.09    4.50
   3  -1   4   53.79    6.80
   3  -1   4   36.60    4.30
  -3  -1  -4   56.19    8.90
  -3   1  -4   45.10    8.10
   3   1   4   43.70    4.20
   3   1   4   42.80    6.20
  -4  -1  -4  805.02   36.60
   4  -1   4  842.42   38.80
   4  -1   4  875.21   35.30
  -4  -1  -4  824.92   41.70
   4   1   4  872.41   39.00
  -4   1  -4  806.32   35.90
  -4   1  -4  904.11   42.00
   4   1   4  875.41   34.80
  -5  -1  -4  210.08   12.30
   5  -1   4  207.98   10.60
  -5  -1  -4  195.18   19.60
   5  -1   4  202.18   16.30
   5   1   4  196.48   15.30
   5   1   4  186.08   10.10
  -5   1  -4  245.38   20.00
  -5   1  -4  175.88   11.30
   6  -1   4   68.69   10.30
  -6  -1  -4   88.79    9.00
   6   1   4   58.19    9.60
  -6   1  -4   65.59    8.20
   7  -1   4   76.29   12.00
  -7  -1  -4   61.19   11.10
   7   1   4   63.89   12.10
 -11  -2   4  330.37   29.00
  11  -2  -4  288.07   32.10
  11   2  -4  306.87   31.20
 -11   2   4  317.77   31.10
  10  -2  -4  139.09   20.40
 -10  -2   4  131.89   10.70
  10  -2  -4   98.79   14.60
 -10  -2   4  118.09   18.30
 -10  -2   4  123.59   17.90
 -10   2   4  119.99   17.00
  10   2  -4  131.39   17.70
  10   2  -4  130.89   19.60
   9  -2  -4  250.17   21.10
  -9  -2   4  283.97   18.60
   9  -2  -4  266.57   16.90
  -9  -2   4  231.58   18.90
  -9  -2   4  244.48   14.60
  -9   2   4  271.07   19.30
   9   2  -4  240.58   18.30
  -9   2   4  262.17   21.90
   9   2  -4  259.47   20.00
  -8  -2   4 1316.27   52.09
   8  -2  -4 1271.47   53.69
  -8  -2   4 1279.37   53.69
   8  -2  -4 1054.99   61.39
  -8  -2   4 1212.88   55.39
  -8   2   4 1252.67   54.19
  -8   2   4 1233.18   57.69
   8   2  -4 1271.77   54.59
   8   2  -4 1225.48   55.99
   7  -2  -4  793.22   38.30
  -7  -2   4  762.22   34.40
  -7  -2   4  783.12   36.80
  -7  -2   4  814.22   35.20
  -7   2   4  823.92   36.00
   7   2  -4  746.93   37.00
   7   2  -4  833.32   36.70
  -7   2   4  769.42   38.60
  -6  -2   4  146.69    9.10
  -6  -2   4  148.69   10.60
   6  -2  -4  127.69   11.10
  -6  -2   4  139.59    9.20
  -6   2   4  139.99   10.00
  -6   2   4  147.39   12.10
   6   2  -4  136.19   10.40
   6   2  -4  147.19   10.70
   5  -2  -4 1929.91   79.49
  -5  -2   4 1835.32   78.49
  -5  -2   4 1968.80   77.39
   5  -2  -4 1883.11   80.09
  -5  -2   4 2050.99   78.39
   5   2  -4 1900.11   78.69
   5   2  -4 1919.21   79.09
  -5   2   4 2044.80   78.89
  -5   2   4 1929.71   80.59
   4  -2  -4  912.01   40.50
  -4  -2   4  946.11   39.00
   4  -2  -4  918.11   40.20
  -4  -2   4  938.61   37.80
  -4  -2   4  927.11   39.00
  -4   2   4  856.71   40.40
   4   2  -4  905.01   39.30
   4   2  -4  980.80   39.50
  -4   2   4  973.10   39.70
   3  -2  -4   88.59    7.40
  -3  -2   4  107.99    6.80
  -3  -2   4   93.19    5.90
   3  -2  -4   88.89    7.60
  -3  -2   4   98.49    5.40
  -3   2   4  102.69    7.20
  -3   2   4   93.89    7.40
   3   2  -4   93.09    6.60
   3   2  -4  106.69    7.20
  -2  -2   4  414.56   17.80
   2  -2  -4  425.86   20.00
  -2  -2   4  406.66   18.10
   2  -2  -4  400.56   20.00
  -2   2   4  422.36   19.70
   2   2  -4  418.46   18.90
   2   2  -4  413.56   19.20
   1  -2  -4 3540.25  138.79
  -1  -2   4 3446.56  136.29
   1  -2  -4 3398.56  137.79
  -1  -2   4 3533.75  136.49
   1   2  -4 3296.47  136.89
   1   2  -4 3525.75  137.59
  -1   2   4 3685.33  138.19
  -1   2   4 3638.94  136.89
  -1   2   4 3288.37  138.09
   0  -2   4  375.16   18.10
   0  -2   4  411.56   18.30
   0  -2  -4  400.26   20.50
   0  -2   4  405.26   18.70
   0   2   4  404.76   19.80
   0   2   4  425.06   18.20
   0   2  -4  405.46   19.60
   0   2   4  413.66   19.80
   1  -2   4  270.07   14.30
  -1  -2  -4  274.37   16.20
   1  -2   4  251.27   13.50
   1  -2   4  278.47   13.10
  -1   2  -4  268.67   15.20
   1   2   4  270.37   15.20
   1   2   4  267.07   15.00
   1   2   4  298.17   13.00
   2  -2   4  555.74   25.40
   2  -2   4  552.74   24.10
  -2   2  -4  541.65   27.30
   2   2   4  540.15   26.60
   2   2   4  590.44   23.70
  -3  -2  -4  910.11   42.00
   3  -2   4  870.11   38.70
   3  -2   4  870.31   36.40
   3   2   4  854.61   39.50
   3   2   4  893.51   35.80
  -3   2  -4  864.71   41.00
  -4  -2  -4   29.80    7.70
   4  -2   4   34.60    6.40
   4  -2   4   43.60    4.30
  -4  -2  -4   32.80    5.50
   4   2   4   27.10    5.40
   4   2   4   26.50    3.70
  -4   2  -4   25.60    8.10
  -4   2  -4   30.70    4.40
   5  -2   4 1307.47   52.69
  -5  -2  -4 1231.88   54.59
  -5  -2  -4 1271.07   60.69
  -5   2  -4 1261.67   52.99
  -5   2  -4 1417.86   61.09
   5   2   4 1276.77   57.09
  -6  -2  -4  340.07   19.20
   6  -2   4  371.46   22.50
  -6   2  -4  322.17   16.90
   6   2   4  344.27   22.10
   7  -2   4   -1.60    8.20
  -7  -2  -4   13.00    6.30
   7   2   4   14.00    8.40
  11  -3  -4   18.60   15.00
 -11  -3   4  -18.20   12.00
 -11   3   4   -4.70   14.80
  11   3  -4   11.20   13.50
  10  -3  -4  398.16   31.00
 -10  -3   4  467.55   28.50
 -10  -3   4  441.86   21.50
  10  -3  -4  419.06   24.80
 -10  -3   4  438.76   27.90
  10   3  -4  407.96   27.50
  10   3  -4  498.35   30.70
 -10   3   4  475.15   33.00
   9  -3  -4  921.51   47.50
  -9  -3   4  991.80   43.50
  -9  -3   4  940.11   40.10
  -9  -3   4  918.71   44.70
   9  -3  -4  948.71   42.40
  -9   3   4  914.71   44.40
  -9   3   4  930.81   48.40
   9   3  -4  953.30   46.20
   9   3  -4  917.51   44.10
   8  -3  -4    5.70    4.80
   8  -3  -4    1.10    6.00
  -8  -3   4   10.20    5.10
  -8  -3   4    3.00    3.70
  -8  -3   4   -9.40    4.50
  -8   3   4    9.30    7.40
  -8   3   4    1.60    4.80
   8   3  -4    0.60    4.60
   8   3  -4   14.90    6.20
   7  -3  -4 2160.08   94.09
  -7  -3   4 2207.78   92.09
  -7  -3   4 2256.17   90.69
  -7  -3   4 2269.27   90.09
  -7   3   4 2193.98   95.19
   7   3  -4 2365.26   92.89
   7   3  -4 2167.98   92.79
  -7   3   4 2316.77   92.09
  -6  -3   4 2775.72  113.89
  -6  -3   4 2802.12  112.69
   6  -3  -4 2718.23  116.09
  -6  -3   4 2946.31  113.09
  -6   3   4 2822.52  116.99
  -6   3   4 2966.90  114.49
   6   3  -4 2844.02  114.79
   6   3  -4 2865.71  115.09
  -5  -3   4  480.85   22.40
  -5  -3   4  484.95   22.30
   5  -3  -4  501.45   24.20
  -5  -3   4  486.25   21.40
   5  -3  -4  495.75   24.80
   5   3  -4  515.95   23.10
  -5   3   4  481.45   25.00
   5   3  -4  494.15   23.10
  -5   3   4  499.45   23.40
  -4  -3   4  129.89    7.40
  -4  -3   4  126.99    6.60
  -4  -3   4  127.79    8.10
   4  -3  -4  124.89    9.50
   4  -3  -4  136.49    9.40
   4   3  -4  130.09    8.10
   4   3  -4  126.89    8.20
  -4   3   4  137.49    8.80
  -4   3   4  121.89    9.60
  -3  -3   4 1906.61   74.99
  -3  -3   4 1805.52   73.39
   3  -3  -4 1839.42   76.69
  -3  -3   4 1834.02   72.89
   3  -3  -4 1864.71   76.49
  -3   3   4 1859.11   76.89
  -3   3   4 1896.61   75.99
   3   3  -4 1871.11   74.79
   3   3  -4 1949.01   75.09
  -2  -3   4 1928.61   79.29
  -2  -3   4 2055.89   79.19
   2  -3  -4 1965.00   82.39
   2  -3  -4 2084.59   82.89
  -2  -3   4 2029.70   81.09
  -2   3   4 2121.59   82.49
   2   3  -4 2053.89   81.19
   2   3  -4 2115.19   81.09
  -2   3   4 1932.91   82.69
   1  -3  -4   51.69    5.30
   1  -3  -4   51.99    6.20
  -1  -3   4   52.89    3.90
  -1  -3   4   59.89    4.90
  -1  -3   4   52.09    3.60
   1   3  -4   53.79    5.00
  -1   3   4   59.89    6.10
  -1   3   4   43.00    5.50
   1   3  -4   55.79    4.70
   0  -3  -4 1617.74   65.99
   0  -3   4 1614.04   63.39
   0  -3   4 1420.56   62.49
   0  -3   4 1633.44   63.29
   0   3   4 1490.75   64.99
   0   3  -4 1569.34   64.39
   0   3   4 1634.24   63.09
   0   3   4 1593.74   65.09
   1  -3   4  488.55   23.30
   1  -3   4  498.65   22.80
  -1  -3  -4  512.85   25.90
   1  -3   4  522.35   22.70
   1   3   4  554.54   22.40
  -1   3  -4  517.05   24.60
   1   3   4  519.85   24.80
   1   3   4  520.45   25.00
   2  -3   4    2.90    2.20
   2  -3   4    2.10    2.00
  -2   3  -4    2.00    3.10
   2   3   4    8.00    2.30
   2   3   4    1.60    2.50
   3  -3   4  942.11   41.10
   3  -3   4  908.51   39.00
  -3  -3  -4  916.61   44.30
   3   3   4  900.51   42.20
   3   3   4 1012.60   38.20
  -3   3  -4  975.90   43.60
  -4  -3  -4 2688.13  111.49
   4  -3   4 2714.83  109.79
  -4  -3  -4 2917.31  116.89
   4  -3   4 2857.71  112.69
   4   3   4 2905.31  113.99
  -4   3  -4 2533.55  108.99
   4   3   4 2864.41  108.29
  -4   3  -4 2722.93  115.19
   5  -3   4  498.55   32.60
  -5  -3  -4  600.74   28.30
  -5  -3  -4  618.04   35.00
   5  -3   4  610.54   26.10
  -5   3  -4  569.14   25.40
   5   3   4  610.04   30.60
  -5   3  -4  642.44   34.30
  -6  -3  -4  251.17   16.10
   6  -3   4  245.58   19.20
   6   3   4  247.08   18.80
   7  -3   4  612.54   34.30
  -7  -3  -4  575.74   30.30
   7   3   4  605.84   34.30
 -11  -4   4    9.00   12.60
 -11   4   4  -14.70   16.00
  10  -4  -4   -7.20    7.50
 -10  -4   4  -13.10    9.90
 -10  -4   4   -2.80    9.10
 -10  -4   4    4.30    5.00
  10  -4  -4    1.70   11.00
 -10   4   4   10.20   12.40
  10   4  -4    4.70    9.40
   9  -4  -4   27.70    7.20
  -9  -4   4   29.60    8.00
   9  -4  -4   29.80   10.30
  -9  -4   4   39.50    5.90
  -9  -4   4   29.40    7.70
  -9   4   4   34.80    9.30
   9   4  -4   28.10    8.00
  -9   4   4   35.40   10.70
   9   4  -4   42.10    9.70
  -8  -4   4   35.10    6.70
   8  -4  -4   29.30    8.10
   8  -4  -4   39.40    7.00
  -8  -4   4   46.40    5.80
  -8  -4   4   35.90    6.60
  -8   4   4   46.60    7.90
   8   4  -4   40.20    8.30
   8   4  -4   39.50    7.60
  -8   4   4   26.70   10.90
  -7  -4   4  192.68   12.80
  -7  -4   4  184.28   11.20
   7  -4  -4  201.68   15.80
  -7  -4   4  184.38   11.80
   7   4  -4  192.58   13.50
  -7   4   4  187.08   16.00
  -7   4   4  211.08   13.60
   7   4  -4  204.18   14.10
  -6  -4   4   53.79    5.50
  -6  -4   4   63.39    6.00
   6  -4  -4   73.09    9.00
  -6  -4   4   49.20    6.40
  -6   4   4   68.39    8.90
  -6   4   4   56.89    7.30
   6   4  -4   66.09    8.10
   6   4  -4   62.19    6.90
  -5  -4   4  125.99    7.50
   5  -4  -4  123.39   10.30
  -5  -4   4  123.59    7.00
  -5  -4   4  128.79    8.10
   5   4  -4  121.89   14.10
  -5   4   4  122.99   10.60
  -5   4   4  116.49    9.00
   5   4  -4  131.69    8.50
   5   4  -4  116.89    8.40
  -4  -4   4    2.30    2.10
   4  -4  -4    1.00    2.40
   4  -4  -4    8.20    3.40
  -4   4   4   -0.40    2.20
   4   4  -4   -1.70    1.80
   4   4  -4    0.30    1.50
  -4   4   4   -1.60    2.60
  -3  -4   4   41.40    4.40
   3  -4  -4   46.30    5.80
   3  -4  -4   31.90    5.50
   3   4  -4   37.00    3.80
  -3   4   4   39.50    5.40
   3   4  -4   36.90    4.20
  -3   4   4   36.10    5.70
  -2  -4   4   13.60    2.60
   2  -4  -4    9.40    2.90
   2  -4  -4   11.90    3.60
   2   4  -4   13.00    2.30
   2   4  -4   12.60    2.60
  -2   4   4    8.90    2.70
  -2   4   4   11.90    3.00
  -1  -4   4   65.69    5.30
   1  -4  -4   58.79    6.60
   1  -4  -4   47.80    5.50
  -1   4   4   63.59    6.60
   1   4  -4   58.19    5.00
  -1   4   4   47.60    5.80
   1   4  -4   65.69    4.80
   0  -4  -4   36.60    6.40
   0  -4   4   32.40    3.70
   0  -4   4   35.30    3.20
   0  -4   4   40.30    4.30
   0   4   4   37.70    5.50
   0   4  -4   27.30    4.40
   0   4   4   37.00    4.10
   1  -4   4   45.40    4.40
   1  -4   4   40.00    4.90
   1  -4   4   47.80    4.60
  -1  -4  -4   41.10    7.00
   1   4   4   56.39    6.90
   1   4   4   33.90    5.80
  -1   4  -4   42.20    6.10
   1   4   4   46.30    4.40
  -2  -4  -4    5.10    4.60
   2  -4   4    3.30    2.20
   2  -4   4    7.40    2.30
   2   4   4    4.10    3.30
   2   4   4    6.60    2.20
  -2   4  -4    6.10    3.70
   3  -4   4   88.09    6.30
   3  -4   4   89.19    8.00
  -3  -4  -4   97.99   12.30
   3   4   4   91.49    9.40
   3   4   4   94.69    5.70
  -3   4  -4   77.39   10.30
  -4  -4  -4   -1.00    3.40
   4  -4   4    4.60    2.40
   4  -4   4   -1.00    3.60
  -4  -4  -4    6.30    6.10
   4   4   4    1.70    3.90
  -4   4  -4   -0.50    5.50
   4   4   4    1.50    2.00
  -4   4  -4    5.90    2.00
  -5  -4  -4  181.68   19.60
  -5  -4  -4  184.38   13.00
   5  -4   4  190.68   14.60
   5  -4   4  182.98   10.60
   5   4   4  180.48   14.40
  -5   4  -4  163.18   17.80
  -5   4  -4  170.88    9.00
   6  -4   4   13.70    7.40
  -6  -4  -4   26.30    6.60
   6   4   4   24.50    8.00
   7  -4   4    9.70   10.40
  -7  -4  -4   32.70    8.30
   7   4   4   31.60    9.90
  10  -5  -4  819.62   47.80
 -10  -5   4  828.82   41.60
 -10   5   4  884.41   49.60
  10   5  -4  873.61   45.00
  -9  -5   4 1344.47   57.69
  -9  -5   4 1389.66   54.69
   9  -5  -4 1354.66   57.19
   9  -5  -4 1261.07   63.19
  -9  -5   4 1249.18   57.89
  -9   5   4 1394.36   61.39
   9   5  -4 1365.56   60.79
  -9   5   4 1319.17   64.79
   9   5  -4 1300.77   59.79
  -8  -5   4   -1.70    4.60
   8  -5  -4   11.20    5.10
   8  -5  -4    7.00    6.20
  -8  -5   4    9.10    4.00
  -8  -5   4    1.40    4.60
  -8   5   4   11.40    7.40
   8   5  -4   11.30    6.10
   8   5  -4    6.50    6.60
  -8   5   4   13.40    6.10
  -7  -5   4 1022.70   41.60
  -7  -5   4 1006.90   42.30
   7  -5  -4  960.80   46.50
  -7  -5   4 1003.40   41.80
   7   5  -4  964.20   44.20
  -7   5   4  983.40   44.10
   7   5  -4 1004.70   44.90
  -7   5   4  941.81   47.50
  -6  -5   4  714.73   30.10
   6  -5  -4  701.03   34.90
  -6  -5   4  741.23   31.10
  -6  -5   4  691.83   30.40
  -6   5   4  730.53   35.80
   6   5  -4  732.73   33.80
   6   5  -4  670.23   32.30
  -6   5   4  756.62   33.40
   5  -5  -4  122.39    9.80
  -5  -5   4  103.39    7.40
   5  -5  -4   98.09    9.50
   5   5  -4  107.19    7.70
   5   5  -4  126.69    8.10
   5   5  -4  107.09    9.10
  -5   5   4  102.89    9.90
  -5   5   4  108.09   10.50
  -4  -5   4  582.14   24.50
   4  -5  -4  540.65   26.00
   4  -5  -4  516.15   26.50
  -4   5   4  556.34   27.20
   4   5  -4  540.65   25.80
   4   5  -4  574.54   24.20
  -4   5   4  531.85   25.80
   4   5  -4  552.14   23.90
  -3  -5   4 4542.85  175.48
   3  -5  -4 4433.46  177.18
   3  -5  -4 4540.15  177.68
  -3   5   4 4354.86  177.88
  -3   5   4 4634.74  177.38
   3   5  -4 4424.06  174.68
   3   5  -4 4408.06  174.48
   2  -5  -4 3486.65  136.69
   2  -5  -4 3343.27  136.29
  -2  -5   4 3359.86  134.59
   2   5  -4 3368.76  133.69
  -2   5   4 3591.94  136.69
   2   5  -4 3436.76  133.79
  -2   5   4 3347.36  136.89
   1  -5  -4   93.79    7.60
   1  -5  -4  114.79    8.70
  -1  -5   4   99.69    6.80
  -1   5   4  113.09    8.90
   1   5  -4  105.29    6.70
   1   5  -4  105.99    6.40
   0  -5   4 3009.80  117.59
   0  -5   4 2912.11  117.29
   0  -5  -4 3127.59  122.29
   0  -5   4 3091.49  119.39
   0   5  -4 2971.50  119.59
   0   5   4 3047.90  121.49
   0   5   4 2974.70  121.69
   1  -5   4 1542.35   65.39
   1  -5   4 1620.84   66.09
  -1  -5  -4 1595.64   69.49
   1  -5   4 1643.34   66.29
   1   5   4 1654.93   68.89
   1   5   4 1785.12   65.69
  -1   5  -4 1637.14   67.59
   1   5   4 1637.04   68.99
   2  -5   4   19.80    4.10
   2  -5   4   11.90    3.10
   2  -5   4   16.80    3.40
  -2  -5  -4   15.90    6.10
   2   5   4   18.60    4.60
   2   5   4   19.50    3.00
  -2   5  -4   19.00    4.70
  -3  -5  -4  857.01   43.20
   3  -5   4  853.11   38.10
   3  -5   4  892.91   39.30
  -3   5  -4  900.21   41.90
   3   5   4  982.40   36.50
   3   5   4  924.31   41.70
   4  -5   4 2114.39   84.59
  -4  -5  -4 2022.40   86.39
   4  -5   4 2172.28   86.89
  -4  -5  -4 2139.89   91.29
   4   5   4 2123.79   88.59
  -4   5  -4 2239.88   89.79
  -4   5  -4 1851.11   82.19
   4   5   4 2181.08   81.89
   5  -5   4  622.84   31.60
   5  -5   4  631.94   28.40
  -5  -5  -4  617.44   30.60
  -5  -5  -4  698.33   37.60
   5   5   4  658.23   33.20
  -5   5  -4  605.64   35.60
   6  -5   4  133.49   15.90
   6   5   4  140.49   15.80
   7  -5   4  646.34   35.10
  -7  -5  -4  587.54   32.20
   7   5   4  611.84   35.20
 -10  -6   4   44.80   10.10
  10  -6  -4   48.70   13.90
  10   6  -4   44.50   12.00
 -10   6   4   55.09   15.40
   9  -6  -4   23.40    6.50
  -9  -6   4   16.60    6.50
  -9  -6   4    9.50    6.40
  -9  -6   4   15.90    4.70
   9  -6  -4   27.30   10.00
   9   6  -4   19.30    9.70
  -9   6   4   12.30   11.30
   9   6  -4    9.80    7.60
   8  -6  -4  831.02   43.30
  -8  -6   4  865.61   37.50
  -8  -6   4  878.71   36.60
  -8  -6   4  829.12   37.70
  -8   6   4  896.31   41.20
   8   6  -4  885.11   40.90
  -8   6   4  855.41   45.20
   8   6  -4  868.81   41.40
  -7  -6   4  549.54   23.50
   7  -6  -4  498.45   28.90
  -7  -6   4  540.45   23.80
  -7  -6   4  557.54   24.10
  -7   6   4  528.75   30.50
   7   6  -4  538.55   26.80
  -7   6   4  539.55   27.30
   7   6  -4  540.35   27.80
   6  -6  -4  290.57   18.50
  -6  -6   4  290.77   14.50
  -6   6   4  308.07   17.60
   6   6  -4  282.47   15.80
  -6   6   4  304.77   19.70
   6   6  -4  292.17   17.40
  -5  -6   4  642.14   27.40
   5  -6  -4  600.24   30.40
   5  -6  -4  652.73   29.90
   5   6  -4  623.64   29.70
  -5   6   4  607.24   29.40
  -5   6   4  648.54   31.60
   5   6  -4  593.64   27.40
   5   6  -4  626.14   27.50
  -4  -6   4  218.28   11.30
   4  -6  -4  191.88   12.70
   4  -6  -4  203.68   13.40
   4   6  -4  209.18   10.40
  -4   6   4  208.38   14.10
   4   6  -4  219.18   12.80
   4   6  -4  194.98   10.60
  -3  -6   4   15.20    3.00
   3  -6  -4   20.80    4.40
   3  -6  -4   11.10    3.40
  -3   6   4   11.30    3.80
   3   6  -4   13.50    2.50
  -3   6   4   16.60    4.50
   3   6  -4   19.00    2.60
   2  -6  -4  726.83   33.30
  -2  -6   4  754.72   31.50
   2   6  -4  742.03   30.20
   2   6  -4  741.83   30.10
  -2   6   4  745.93   33.40
  -2   6   4  688.23   33.70
  -1  -6   4 1203.78   49.30
   1  -6  -4 1121.49   50.29
  -1   6   4 1156.28   51.59
   1   6  -4 1225.78   48.30
  -1   6   4 1244.98   51.39
   1   6  -4 1220.68   48.40
   0  -6  -4  342.57   18.70
   0  -6   4  345.57   16.10
   0   6   4  299.07   18.00
   0   6  -4  326.37   16.00
   0   6   4  359.16   18.50
   1  -6   4    1.20    1.50
   1  -6   4    2.50    2.30
  -1  -6  -4    2.20    4.20
   1  -6   4    2.40    2.10
   1   6   4    0.40    3.00
  -1   6  -4    2.30    2.60
   1   6   4    0.70    2.20
   2  -6   4  584.24   26.40
  -2  -6  -4  634.04   30.90
   2  -6   4  586.14   26.20
   2  -6   4  596.94   26.90
   2   6   4  546.45   28.80
   2   6   4  629.94   25.20
   2   6   4  607.54   30.00
  -2   6  -4  592.24   28.50
  -3  -6  -4  436.86   25.80
   3  -6   4  435.06   21.30
  -3  -6  -4  403.26   22.50
   3  -6   4  423.66   20.20
   3   6   4  478.05   18.50
   3   6   4  426.96   23.60
  -3   6  -4  444.36   24.00
  -4  -6  -4   44.40    7.30
   4  -6   4   34.40    4.90
  -4  -6  -4   53.99   10.60
   4  -6   4   43.40    6.90
  -4   6  -4   54.99    9.70
   5  -6   4  581.54   28.80
   5  -6   4  546.15   25.10
  -5  -6  -4  533.15   34.20
  -5  -6  -4  545.05   27.70
   5   6   4  551.34   29.70
  -5   6  -4  498.55   31.90
  -6  -6  -4  261.77   17.80
   6  -6   4  254.47   19.30
   6   6   4  254.67   20.00
   7  -6   4    5.20   10.10
  -7  -6  -4    4.40    8.20
   7   6   4   16.20   10.70
  10  -7  -4  313.67   30.00
  10   7  -4  251.87   23.40
 -10   7   4  279.67   32.20
   9  -7  -4  251.17   23.70
   9  -7  -4  274.17   17.00
  -9  -7   4  271.47   15.80
  -9  -7   4  261.57   14.20
   9   7  -4  296.77   21.10
  -9   7   4  277.37   26.50
  -8  -7   4   23.80    4.50
   8  -7  -4   15.40    8.00
  -8   7   4    7.60    7.70
   8   7  -4   11.40    5.20
  -8   7   4   22.20    7.30
   8   7  -4   20.60    7.60
   7  -7  -4  118.59   13.90
  -7  -7   4  110.89    7.90
   7   7  -4  117.49   11.60
   7   7  -4  107.29   10.00
  -7   7   4   91.39   11.40
  -7   7   4   91.29   15.60
   6  -7  -4  273.27   18.20
  -6  -7   4  285.47   13.80
   6   7  -4  272.47   16.90
  -6   7   4  271.47   18.60
  -6   7   4  259.77   16.50
   6   7  -4  255.87   14.80
   5  -7  -4   10.60    4.60
  -5  -7   4   15.20    3.40
   5   7  -4   21.20    5.30
  -5   7   4   16.30    4.20
  -5   7   4    9.70    4.80
   5   7  -4   12.00    2.90
   4  -7  -4  340.87   19.10
  -4  -7   4  349.87   16.50
   4   7  -4  319.47   18.60
  -4   7   4  334.47   19.80
  -4   7   4  334.07   18.80
   4   7  -4  354.36   15.70
   4   7  -4  348.07   15.50
  -3  -7   4 1259.37   50.29
   3  -7  -4 1240.78   52.19
   3  -7  -4 1190.68   52.49
   3   7  -4 1269.07   51.99
  -3   7   4 1156.78   53.09
  -3   7   4 1206.28   52.59
   3   7  -4 1237.18   48.50
   3   7  -4 1203.28   48.80
   2  -7  -4 1144.39   49.60
   2  -7  -4 1253.97   50.29
  -2  -7   4 1196.38   48.00
   2   7  -4 1156.28   46.10
   2   7  -4 1122.09   48.70
   2   7  -4 1123.99   47.10
  -2   7   4 1101.09   50.49
  -2   7   4 1167.48   50.09
  -1  -7   4  113.99    7.70
   1  -7  -4  128.59   10.00
   1   7  -4  122.89    6.90
  -1   7   4  119.99   10.00
  -1   7   4  120.09    9.80
   1   7  -4  114.69    6.60
   0  -7   4 1491.65   61.09
   0  -7  -4 1546.75   63.79
   0   7   4 1437.86   63.59
   0   7   4 1538.65   63.69
   0   7  -4 1469.45   60.69
   1  -7   4  506.55   23.40
  -1  -7  -4  553.14   27.20
   1  -7   4  519.75   21.60
   1  -7   4  532.05   21.50
   1   7   4  513.85   26.10
   1   7   4  493.45   26.10
  -1   7  -4  503.95   24.10
   1   7   4  527.65   22.70
   2  -7   4  173.28   10.00
   2  -7   4  163.98    9.60
  -2  -7  -4  180.68   14.30
   2  -7   4  161.88   10.00
   2   7   4  178.88    9.00
  -2   7  -4  148.59   11.90
   2   7   4  163.38   12.70
   2   7   4  175.58   13.80
   3  -7   4   37.30    4.90
  -3  -7  -4   48.60    8.60
   3  -7   4   37.30    5.80
  -3  -7  -4   44.60    7.20
  -3   7  -4   55.39    9.30
  -3   7  -4   39.10    3.00
   3   7   4   37.40    6.80
   3   7   4   43.10    4.40
   4  -7   4  527.65   24.30
   4  -7   4  514.95   25.70
  -4  -7  -4  539.15   30.90
  -4  -7  -4  520.15   26.30
   4   7   4  509.65   28.10
  -4   7  -4  529.55   29.20
  -5  -7  -4   22.80   10.90
   5  -7   4    8.80    3.70
   5  -7   4   13.50    5.70
  -5  -7  -4   10.40    5.80
  -5   7  -4   28.10    9.40
   5   7   4   13.50    5.70
   6  -7   4  212.08   18.40
  -6  -7  -4  236.28   17.20
   6   7   4  217.18   18.80
  -7  -7  -4  153.88   17.90
   7  -7   4  217.68   21.70
   7   7   4  167.28   20.90
  10  -8  -4  170.18   28.10
 -10   8   4  192.88   31.40
  10   8  -4  208.88   21.60
   9  -8  -4  394.16   30.10
   9  -8  -4  411.56   23.10
  -9   8   4  344.77   30.90
   9   8  -4  423.76   25.20
  -8  -8   4 2534.85   95.79
   8  -8  -4 2383.16  103.99
  -8   8   4 2295.37  100.49
   8   8  -4 2353.36   99.89
   8   8  -4 2379.56  101.39
  -8   8   4 2516.85  106.79
  -7  -8   4  758.42   31.90
   7  -8  -4  739.83   41.20
   7   8  -4  744.03   34.60
  -7   8   4  731.43   39.60
   7   8  -4  749.23   36.60
  -7   8   4  730.33   35.90
  -6  -8   4   83.79    6.90
   6  -8  -4   84.29   10.60
  -6   8   4   91.19   12.10
  -6   8   4   81.39   10.00
   6   8  -4   75.29    7.60
   6   8  -4   87.29   10.10
   5  -8  -4  576.04   29.30
  -5  -8   4  602.14   25.70
   5   8  -4  585.44   28.30
   5   8  -4  547.15   25.30
  -5   8   4  552.34   30.20
  -5   8   4  596.84   28.40
  -4  -8   4 1454.85   58.59
   4  -8  -4 1380.86   61.49
   4  -8  -4 1525.85   61.09
   4   8  -4 1421.96   60.79
   4   8  -4 1395.36   57.19
  -4   8   4 1360.56   62.29
  -4   8   4 1485.55   61.39
   4   8  -4 1442.16   57.49
  -3  -8   4   64.09    5.70
   3  -8  -4   67.49    7.50
   3  -8  -4   71.59    7.60
  -3   8   4   74.39   11.00
  -3   8   4   58.79    8.00
   3   8  -4   68.49    4.50
   3   8  -4   59.99    7.10
   2  -8  -4 3327.07  132.79
  -2  -8   4 3284.77  130.79
   2  -8  -4 3317.47  132.49
   2   8  -4 3367.76  128.49
   2   8  -4 3300.37  131.79
  -2   8   4 3357.46  133.29
  -2   8   4 3185.68  133.69
  -1  -8   4 2830.52  108.19
   1  -8  -4 2697.63  110.29
  -1   8   4 2631.74  110.89
  -1   8   4 2827.42  110.89
   1   8  -4 2686.43  108.39
   1   8  -4 2612.04  106.29
   0  -8   4  161.98    9.70
   0  -8  -4  180.98   12.30
   0   8   4  156.18   12.80
   0   8  -4  165.08    9.60
   0   8  -4  155.28    9.10
   1  -8   4  265.27   13.60
  -1  -8  -4  236.38   18.50
  -1   8  -4  243.18   12.50
   1   8   4  278.27   16.60
  -1   8  -4  238.88   13.70
   1   8   4  258.07   16.10
  -2  -8  -4 1281.77   56.19
   2  -8   4 1242.08   50.69
   2  -8   4 1219.88   51.99
   2  -8   4 1278.87   50.99
   2   8   4 1288.67   50.29
  -2   8  -4 1163.18   49.99
   2   8   4 1322.17   56.19
   2   8   4 1202.08   54.99
   3  -8   4  897.31   40.10
  -3  -8  -4  945.61   45.30
  -3  -8  -4  957.40   42.60
   3  -8   4  908.81   40.00
  -3   8  -4  909.81   42.70
   3   8   4  962.00   37.50
   3   8   4  963.50   43.90
  -4  -8  -4    0.50    4.70
   4  -8   4   -1.40    4.10
   4  -8   4   -3.50    2.50
  -4  -8  -4    2.10    8.00
   4   8   4    2.10    5.10
  -4   8  -4    6.90    6.80
  -5  -8  -4 1179.78   54.49
   5  -8   4 1199.78   53.99
   5  -8   4 1187.48   51.59
  -5  -8  -4 1239.18   59.69
   5   8   4 1279.17   56.49
  -5   8  -4 1250.67   58.29
   6  -8   4 1428.66   64.19
  -6  -8  -4 1430.46   64.19
   6   8   4 1454.85   65.69
   7  -8   4   15.10   11.90
  -7  -8  -4    1.30    8.90
   7   8   4   12.20   10.70
  10  -9  -4   19.40   14.80
  10   9  -4   40.30   11.70
 -10   9   4   12.00   17.20
   9  -9  -4   70.69   14.10
   9  -9  -4   54.79   11.10
  -9   9   4   68.29   15.30
   9   9  -4   43.00    9.40
   8  -9  -4   13.80    9.20
  -8  -9   4    5.40    3.60
   8   9  -4   -2.00   10.20
  -8   9   4    7.30    9.30
   8   9  -4    9.60    5.70
   7  -9  -4   27.60    7.90
  -7  -9   4   26.60    4.40
   7   9  -4   23.30    5.60
  -7   9   4   15.90    6.50
  -7   9   4    5.00    7.20
   7   9  -4   37.50    8.60
  -6  -9   4   89.79    7.20
   6  -9  -4   77.09   11.30
  -6   9   4  101.09   10.70
   6   9  -4   91.09   10.90
  -6   9   4  102.69   13.20
   6   9  -4   88.79    7.90
   5  -9  -4   56.79    9.50
  -5  -9   4   66.69    6.30
   5   9  -4   69.29    9.10
  -5   9   4   61.99   10.30
   5   9  -4   67.89    5.90
  -5   9   4   72.99    8.80
   4  -9  -4    6.90    4.30
   4  -9  -4    2.30    3.40
  -4  -9   4    2.50    2.30
  -4   9   4    3.30    4.10
   4   9  -4   -3.10    3.50
   4   9  -4    0.70    1.80
  -4   9   4    2.20    4.40
   4   9  -4    4.20    1.60
  -3  -9   4  230.78   11.90
   3  -9  -4  213.58   13.70
   3  -9  -4  206.58   13.80
  -3   9   4  217.78   14.60
   3   9  -4  186.18   14.90
  -3   9   4  230.48   14.80
  -2  -9   4  143.09    9.20
   2  -9  -4  148.89   11.20
   2  -9  -4  146.79   10.60
   2   9  -4  150.58   10.40
  -2   9   4  164.08   12.30
  -2   9   4  156.48   12.30
  -1  -9   4   33.90    4.40
   1  -9  -4   29.40    5.30
   1   9  -4   25.50    3.20
   1   9  -4   34.50    5.20
  -1   9   4   29.50    6.00
  -1   9   4   22.50    4.90
   0  -9  -4   52.09    8.20
   0  -9   4   47.70    5.20
   0   9   4   43.60    7.50
   0   9  -4   41.90    5.20
   0   9   4   35.90    6.50
   0   9  -4   37.50    4.80
   1  -9   4    4.30    2.90
   1   9   4    5.30    3.50
  -1   9  -4    5.90    3.00
   1   9   4    4.90    4.40
   2  -9   4   20.80    3.50
  -2  -9  -4   10.90    5.20
  -2  -9  -4   24.10    7.10
   2  -9   4   16.30    3.80
   2  -9   4   14.80    2.80
   2   9   4   26.10    7.00
  -2   9  -4   15.30    4.90
   2   9   4   19.30    3.80
   2   9   4   32.00    6.60
  -2   9  -4   14.90    2.40
  -3  -9  -4   91.39   13.80
   3  -9   4   66.79    6.90
  -3  -9  -4   79.09    9.20
   3  -9   4   85.39    7.60
   3  -9   4   81.99    8.20
   3   9   4   80.29    5.70
   3   9   4   90.59   11.00
  -3   9  -4   87.79   11.20
   3   9   4   94.39   14.60
   4  -9   4  130.99    9.60
  -4  -9  -4  141.29   17.40
   4  -9   4  138.69   11.70
  -4  -9  -4  149.19   12.40
   4   9   4  137.29   14.30
  -4   9  -4  161.68   16.40
  -5  -9  -4  250.37   24.50
   5  -9   4  214.58   16.10
  -5  -9  -4  192.78   16.00
   5  -9   4  199.38   12.60
   5   9   4  190.58   18.00
  -6  -9  -4   38.10    9.90
   6  -9   4   46.70   10.30
   6   9   4   23.10    9.80
  -7  -9  -4   -7.70    9.60
   7  -9   4   -0.70   12.70
   7   9   4    3.80   18.30
  10 -10  -4   81.19   19.60
  10  10  -4   83.09   14.60
 -10  10   4   32.60   21.00
   9 -10  -4  280.07   26.90
   9  10  -4  254.67   20.80
  -9  10   4  281.07   29.70
  -8 -10   4 1468.55   56.69
   8 -10  -4 1381.66   65.69
   8  10  -4 1380.26   60.89
  -8  10   4 1356.96   68.49
  -7 -10   4  508.95   22.30
   7 -10  -4  457.35   29.20
  -7  10   4  494.45   31.20
   7  10  -4  505.55   27.90
  -7  10   4  484.25   27.50
   7  10  -4  495.35   24.70
   6 -10  -4   45.00    8.10
  -6 -10   4   44.20    5.60
   6  10  -4   54.59    9.60
   6  10  -4   48.00    6.20
  -6  10   4   48.60    8.20
  -5 -10   4  778.52   32.10
   5 -10  -4  731.03   36.20
  -5  10   4  757.32   37.70
   5  10  -4  694.93   31.10
   5  10  -4  765.32   35.70
  -5  10   4  696.53   35.10
   4 -10  -4 1619.84   63.99
   4 -10  -4 1500.35   64.79
  -4 -10   4 1513.15   61.39
   4  10  -4 1514.05   64.09
   4  10  -4 1491.35   59.59
  -4  10   4 1537.45   64.79
  -4  10   4 1471.15   65.89
   4  10  -4 1362.96   59.39
  -3 -10   4  107.09    7.80
   3 -10  -4  113.29   10.10
  -3  10   4   96.79   10.80
   3  10  -4  140.69   10.40
  -3  10   4  125.99   11.70
   2 -10  -4 1101.39   47.50
   2 -10  -4 1086.89   47.50
  -2 -10   4 1078.79   45.80
  -2  10   4 1097.09   49.40
   2  10  -4 1054.19   46.90
  -2  10   4 1122.99   48.90
  -1 -10   4 1417.66   59.59
   1 -10  -4 1510.35   61.89
  -1  10   4 1547.75   62.89
   1  10  -4 1432.36   60.19
  -1  10   4 1451.05   63.19
   1  10  -4 1337.87   57.19
   0 -10  -4  389.76   21.20
   0 -10   4  365.36   18.60
   0  10  -4  389.86   18.60
   0  10  -4  383.86   17.60
   0  10   4  389.16   22.00
   0  10   4  378.66   21.70
  -1 -10  -4  267.97   17.30
   1 -10   4  263.67   14.00
   1  10   4  264.47   17.70
  -1  10  -4  249.08   14.00
   1  10   4  247.08   17.00
  -1  10  -4  248.08   12.90
  -2 -10  -4 1675.23   75.09
  -2 -10  -4 1847.42   76.39
   2 -10   4 1634.54   72.29
   2  10   4 1814.22   70.59
  -2  10  -4 1723.03   73.19
   2  10   4 1837.52   76.99
   2  10   4 1788.82   76.19
  -2  10  -4 1817.82   69.89
   3 -10   4  470.45   21.30
   3 -10   4  452.85   21.30
  -3 -10  -4  472.75   27.70
   3 -10   4  436.86   22.50
   3  10   4  439.26   33.80
   3  10   4  467.05   28.90
  -3  10  -4  486.85   25.40
   3  10   4  505.55   19.90
   4 -10   4   54.79    7.30
   4 -10   4   59.49    6.60
  -4 -10  -4   56.19    8.80
  -4 -10  -4   58.79   11.50
   4  10   4   39.50    8.00
  -4  10  -4   56.89   10.10
  -5 -10  -4  474.85   27.00
   5 -10   4  473.85   23.50
  -5 -10  -4  443.46   32.50
   5 -10   4  467.65   25.60
   5  10   4  479.25   28.60
   6 -10   4  575.04   33.10
  -6 -10  -4  580.94   33.30
   6  10   4  605.84   34.80
   9 -11  -4  353.46   30.90
  -9  11   4  320.67   33.30
   9  11  -4  350.56   24.20
  -8 -11   4   51.29    5.80
   8 -11  -4   31.40   12.60
   8  11  -4   54.69    8.90
  -8  11   4   59.09   13.40
  -7 -11   4  804.02   32.30
   7 -11  -4  751.82   39.70
  -7  11   4  725.23   38.00
   7  11  -4  676.63   38.00
   7  11  -4  780.92   34.70
  -7  11   4  763.62   41.80
   6 -11  -4 1115.29   53.89
  -6 -11   4 1164.98   47.80
  -6  11   4 1207.38   55.69
   6  11  -4 1183.28   52.79
  -6  11   4 1135.29   52.19
   6  11  -4 1116.09   48.30
  -5 -11   4   23.20    3.90
   5 -11  -4   18.80    5.60
  -5  11   4   14.50    6.20
   5  11  -4   23.00    3.70
   5  11  -4   17.70    7.10
  -5  11   4   11.50    6.20
  -4 -11   4  355.86   17.40
   4 -11  -4  351.86   20.50
  -4  11   4  357.96   21.20
  -4  11   4  370.16   22.30
   4  11  -4  331.27   15.30
   4  11  -4  371.76   20.60
   3 -11  -4 1056.19   47.40
  -3 -11   4 1065.49   45.20
   3 -11  -4 1151.18   47.40
   3  11  -4 1096.39   47.50
  -3  11   4 1017.00   49.00
  -3  11   4 1028.70   50.99
   2 -11  -4  779.52   36.40
   2 -11  -4  776.02   38.70
  -2 -11   4  817.32   35.20
   2  11  -4  726.53   38.90
  -2  11   4  863.31   39.40
  -2  11   4  878.71   38.80
   1 -11  -4   10.70    4.60
  -1 -11   4   11.30    3.40
   1  11  -4   14.70    2.30
  -1  11   4   13.40    5.60
  -1  11   4   13.00    6.10
   1  11  -4    9.10    3.70
   0 -11  -4  438.16   26.30
   0 -11   4  420.46   21.20
   0  11  -4  470.55   21.60
   0  11   4  453.75   25.00
   0  11   4  454.65   24.80
   0  11  -4  439.56   20.00
  -1 -11  -4  838.52   38.60
   1 -11   4  768.12   35.30
   1  11   4  814.52   39.10
   1  11   4  798.52   38.70
  -1  11  -4  793.02   34.00
  -1  11  -4  800.12   34.90
   2 -11   4   50.89    6.40
  -2 -11  -4   57.29    8.80
  -2 -11  -4   75.89   11.40
  -2  11  -4   56.79    4.70
   2  11   4   68.49   10.40
   2  11   4   64.19   10.60
  -2  11  -4   57.59    8.80
  -3 -11  -4  510.35   29.60
  -3 -11  -4  521.85   27.40
   3 -11   4  488.95   24.90
  -3  11  -4  500.95   27.20
   3  11   4  570.94   32.30
   3  11   4  538.95   21.90
   3  11   4  510.75   28.80
   4 -11   4  644.14   31.50
   4 -11   4  700.83   31.10
   4 -11   4  672.53   30.80
  -4 -11  -4  652.23   34.40
  -4 -11  -4  739.43   38.40
   4  11   4  745.33   45.50
  -4  11  -4  694.03   36.00
   4  11   4  661.53   35.80
  -5 -11  -4    7.50    7.50
  -5 -11  -4    8.50   12.40
   5 -11   4   34.60    7.70
   5  11   4   17.80    8.70
  -6 -11  -4  190.88   20.00
   6  11   4  238.28   23.50
   9 -12  -4   -1.20   13.70
   9  12  -4   26.30    9.40
  -9  12   4   -1.10   15.90
   8 -12  -4   19.10   10.70
   8  12  -4   10.20    6.40
  -8  12   4    5.40   10.70
  -7 -12   4   11.60    3.90
   7 -12  -4   -1.30    8.00
   7  12  -4    8.90    4.90
  -7  12   4   17.60    9.00
   6 -12  -4   19.00   12.90
  -6 -12   4   37.40    5.50
  -6  12   4   22.20    8.40
   6  12  -4   31.20    8.40
   6  12  -4   33.60    5.20
   5 -12  -4  124.59   13.30
  -5 -12   4  121.69    8.40
   5  12  -4  116.79    7.50
  -5  12   4   96.19   12.60
   5  12  -4  111.39   12.50
  -5  12   4  107.79   15.50
   4 -12  -4  177.38   14.30
  -4 -12   4  206.08   11.40
  -4  12   4  177.88   15.20
   4  12  -4  208.68   14.80
  -4  12   4  207.18   16.60
   4  12  -4  183.48    9.10
  -3 -12   4   26.40    4.40
   3 -12  -4   55.69    8.50
   3 -12  -4   44.10    7.50
  -3  12   4   30.40    7.50
   3  12  -4   39.00    7.30
  -3  12   4   35.50    8.00
  -2 -12   4  242.18   13.60
  -2  12   4  238.98   17.30
  -2  12   4  254.17   17.60
   2  12  -4  254.77   15.40
   1 -12  -4  301.07   19.90
  -1 -12   4  278.67   15.60
   1  12  -4  303.47   13.50
  -1  12   4  285.97   19.30
   1  12  -4  330.37   17.20
  -1  12   4  320.87   19.90
   0 -12   4    9.20    3.20
   0  12  -4   13.80    3.20
   0  12   4   11.50    6.80
   0  12  -4   11.50    4.00
   0  12   4    4.30    5.10
  -1 -12  -4   77.79   10.20
   1 -12   4   93.69    7.90
  -1 -12  -4  110.69   12.00
   1  12   4   86.29   11.50
   1  12   4   98.39   13.30
  -1  12  -4  110.79    7.70
  -1  12  -4  100.29    8.50
  -2 -12  -4  401.56   23.10
  -2 -12  -4  445.56   24.80
   2 -12   4  391.76   20.80
   2  12   4  387.16   24.50
   2  12   4  450.85   27.00
  -2  12  -4  413.26   21.60
   3 -12   4  217.48   14.00
  -3 -12  -4  237.78   19.70
  -3 -12  -4  250.27   17.10
   3  12   4  230.18   18.70
   3  12   4  256.57   22.80
  -3  12  -4  232.98   17.20
   3  12   4  252.67   12.00
   4 -12   4    1.40    4.30
  -4 -12  -4    6.30    6.30
   4 -12   4   -6.80    3.90
  -4 -12  -4   12.80   10.00
   4 -12   4    4.10    3.50
  -4  12  -4  -10.80    7.60
   4  12   4   -2.60    6.60
  -5 -12  -4   27.10    9.50
  -5 -12  -4   38.80   14.50
   5 -12   4   34.00    7.90
   5  12   4   29.40    9.90
  -6 -12  -4  -12.00    9.80
   6  12   4    9.10   10.30
   9 -13  -4  644.24   42.70
  -9  13   4  651.23   48.10
   9  13  -4  694.23   36.20
   8 -13  -4    2.90   12.10
  -8  13   4   30.10   13.00
   8  13  -4   17.50    7.20
   7 -13  -4  712.63   40.00
  -7 -13   4  778.12   32.00
   7  13  -4  751.72   34.30
  -7  13   4  721.53   42.70
  -6 -13   4 1030.00   40.50
   6 -13  -4  937.51   46.20
   6  13  -4  935.51   40.80
   6  13  -4  915.51   45.70
  -6  13   4  965.60   46.00
  -6  13   4  916.41   49.00
  -5 -13   4  264.47   13.80
   5 -13  -4  257.47   18.30
  -5  13   4  243.38   20.10
  -5  13   4  276.17   20.40
   5  13  -4  249.58   12.90
   5  13  -4  234.58   18.40
  -4 -13   4  286.17   14.90
   4 -13  -4  271.97   17.90
  -4  13   4  264.07   19.50
   4  13  -4  301.77   19.00
  -4  13   4  248.28   19.70
   3 -13  -4 2089.89   87.59
   3 -13  -4 2119.29   87.29
  -3 -13   4 2043.70   85.49
  -3  13   4 2245.38   90.19
   3  13  -4 2086.49   88.09
  -3  13   4 2097.39   90.49
   2 -13  -4  576.34   27.60
  -2 -13   4  527.05   25.30
  -2  13   4  541.85   29.50
   2  13  -4  554.84   27.30
  -2  13   4  531.35   29.80
  -1 -13   4  234.48   13.70
  -1  13   4  244.58   18.20
  -1  13   4  274.97   18.90
   1  13  -4  229.78   11.10
   1  13  -4  234.08   15.40
   0 -13   4 1232.58   52.59
   0  13  -4 1212.78   50.39
   0  13  -4 1314.17   52.39
   0  13   4 1235.98   56.19
   0  13   4 1171.18   56.09
   1 -13   4 1379.56   61.09
  -1 -13  -4 1355.16   63.89
  -1 -13  -4 1504.45   63.39
  -1  13  -4 1404.86   59.99
   1  13   4 1435.26   64.89
   1  13   4 1537.65   65.79
  -1  13  -4 1557.94   59.79
  -2 -13  -4  129.39   12.60
  -2 -13  -4  142.89   15.10
   2 -13   4  123.39    9.90
   2  13   4  140.89   17.90
  -2  13  -4  142.09   11.90
   2  13   4   91.49   14.80
  -3 -13  -4  367.16   23.00
  -3 -13  -4  422.46   25.40
   3 -13   4  381.96   20.60
  -3  13  -4  390.86   23.10
   3  13   4  387.56   25.30
   3  13   4  416.96   29.30
  -4 -13  -4  687.63   36.40
  -4 -13  -4  621.94   34.10
   4 -13   4  609.84   30.50
   4  13   4  645.14   35.30
  -4  13  -4  652.53   35.70
  -5 -13  -4  137.39   19.40
  -5 -13  -4  163.38   18.10
   5  13   4  166.48   20.20
   8 -14  -4  209.98   24.80
  -8  14   4  176.08   28.00
   8  14  -4  207.18   17.30
   7 -14  -4  175.78   20.10
  -7 -14   4  181.78   10.40
  -7  14   4  129.89   22.30
   7  14  -4  166.38   12.80
   6 -14  -4   10.90    8.10
  -6  14   4    7.30    8.90
   6  14  -4    0.10    4.00
   5 -14  -4   54.79    9.60
  -5 -14   4   55.19    6.50
  -5  14   4   40.30    9.40
   5  14  -4   80.39   13.60
  -5  14   4   43.30    9.30
   5  14  -4   56.09    6.10
   4 -14  -4    6.30    5.60
  -4 -14   4    6.60    3.20
   4 -14  -4    7.90    5.50
  -4  14   4    5.00    6.90
   4  14  -4   -0.50    7.20
  -4  14   4   -5.70    7.20
   3 -14  -4  122.39   11.20
  -3 -14   4  113.09    8.80
  -3  14   4  108.29   14.10
   3  14  -4  102.09   11.90
  -3  14   4  127.39   14.60
   2 -14  -4  197.68   13.60
  -2 -14   4  163.98   11.10
   2  14  -4  190.98   14.10
  -2  14   4  167.88   15.90
  -2  14   4  177.98   17.40
  -1 -14   4  391.86   20.00
   1  14  -4  420.86   21.40
  -1  14   4  418.36   25.20
   1  14  -4  383.16   17.20
  -1  14   4  357.56   24.00
   0 -14   4  121.29    9.70
   0 -14  -4  113.99   14.00
   0  14  -4  129.59    8.50
   0  14   4  110.19   15.60
   0  14   4  131.89   14.00
   0  14  -4  137.59   10.60
  -1 -14  -4   53.19    8.60
  -1 -14  -4   54.89    9.50
   1 -14   4   53.09    6.60
  -1  14  -4   58.69    7.80
  -1  14  -4   45.50    7.80
   1  14   4   47.90   10.40
   1  14   4   27.30    9.20
  -2 -14  -4  249.18   18.20
  -2 -14  -4  282.47   19.60
   2 -14   4  256.57   15.40
   2  14   4  261.27   22.80
   2  14   4  251.57   19.80
  -2  14  -4  244.68   16.50
  -3 -14  -4  204.28   19.20
   3 -14   4  168.88   12.30
  -3 -14  -4  184.68   16.10
   3  14   4  185.98   19.10
  -3  14  -4  172.78   17.20
  -4 -14  -4   14.60    8.40
  -4 -14  -4   23.00   11.40
   4  14   4   -3.70    8.30
   5  14   4   65.69   14.00
   8 -15  -4  -21.70   12.50
  -8  15   4    5.10   14.90
   7 -15  -4  298.77   25.50
  -7 -15   4  313.27   15.20
  -7  15   4  287.37   29.10
   7  15  -4  272.87   17.80
   6 -15  -4  393.06   25.60
  -6 -15   4  425.56   19.30
   6  15  -4  393.16   19.70
  -6  15   4  348.67   28.50
   5 -15  -4  230.88   17.80
  -5 -15   4  234.38   12.90
   5  15  -4  216.48   20.10
  -5  15   4  214.58   20.60
  -5  15   4  228.38   24.20
   5  15  -4  203.68   11.60
   4 -15  -4   57.09   10.00
  -4 -15   4   53.69    6.50
  -4  15   4   55.39   10.70
  -4  15   4   64.79   11.80
   4  15  -4   64.69   10.80
  -3 -15   4 1142.39   48.50
  -3  15   4 1049.70   60.69
   3  15  -4 1137.49   51.49
  -3  15   4 1181.98   53.79
  -2 -15   4  393.66   21.00
   2 -15  -4  447.36   22.90
  -2  15   4  429.16   26.70
   2  15  -4  455.55   24.20
  -2  15   4  391.96   26.10
  -1 -15   4   77.49    7.80
   1 -15  -4   65.89   11.90
  -1  15   4   80.19   11.60
   1  15  -4   84.89   10.30
  -1  15   4   80.89   13.40
   1  15  -4   76.89    6.00
   0 -15   4  418.16   22.30
   0 -15  -4  453.75   25.40
   0  15   4  446.86   35.90
   0  15  -4  438.56   20.50
   0  15   4  445.86   28.20
  -1 -15  -4  501.05   27.70
  -1 -15  -4  484.55   26.40
   1 -15   4  461.95   23.70
   1  15   4  456.85   28.00
  -1  15  -4  416.76   23.20
   1  15   4  461.25   30.00
  -2 -15  -4   11.40    6.80
  -2 -15  -4   18.00    8.20
   2 -15   4   16.00    4.60
   2  15   4    9.90    7.60
   2  15   4   21.70   11.20
  -2  15  -4   11.70    6.20
  -3 -15  -4  277.17   20.60
   3 -15   4  275.17   17.40
  -3 -15  -4  309.97   23.10
   3  15   4  307.07   23.30
  -3  15  -4  297.77   21.70
  -4 -15  -4  331.17   24.70
   4  15   4  390.56   27.00
  -5 -15  -4  115.89   16.80
   5  15   4   82.19   15.20
   7 -16  -4  374.06   27.60
  -7 -16   4  366.26   16.80
   7 -16  -4  329.47   21.50
   7  16  -4  299.97   19.50
  -7  16   4  263.27   30.70
  -6 -16   4   25.50    4.50
   6 -16  -4   25.20    9.70
   6 -16  -4    5.30    7.80
  -6  16   4   19.70   10.20
   6  16  -4   18.40    5.30
  -5 -16   4  727.13   31.00
  -5  16   4  661.33   39.20
   5  16  -4  654.03   29.20
  -4 -16   4  582.14   26.20
   4 -16  -4  535.45   28.40
  -4  16   4  556.24   33.30
  -4  16   4  545.95   33.00
   4  16  -4  521.35   30.90
  -3 -16   4   21.10    4.80
   3 -16  -4    7.10    7.20
   3  16  -4   29.00    9.00
  -3  16   4   23.20    8.40
  -3  16   4   18.10    9.20
   2 -16  -4  434.76   26.30
  -2 -16   4  448.86   22.70
  -2  16   4  450.15   28.60
  -2  16   4  480.85   29.70
   2  16  -4  454.75   25.90
   1 -16  -4 1228.88   53.99
   1 -16  -4 1011.90   53.99
  -1 -16   4 1106.29   50.29
  -1  16   4 1162.18   55.59
   1  16  -4 1266.57   52.49
  -1  16   4 1228.68   56.09
   1  16  -4 1131.59   47.10
   0 -16  -4  213.58   16.50
   0 -16   4  178.08   12.70
   0 -16  -4  226.88   15.10
   0  16   4  223.58   18.80
   0  16   4  169.78   21.00
   0  16  -4  188.98   11.60
   0  16  -4  157.58   15.00
  -1 -16  -4  239.28   17.60
  -1 -16  -4  174.38   20.50
   1 -16   4  220.18   14.30
   1  16   4  219.78   23.80
  -1  16  -4  225.58   14.80
   1  16   4  229.28   19.70
  -2 -16  -4  834.62   39.00
   2 -16   4  672.43   34.40
  -2 -16  -4  743.93   38.00
   2  16   4  707.63   39.30
  -2  16  -4  718.03   35.10
   3 -16   4  385.96   22.00
  -3 -16  -4  391.06   26.50
   3  16   4  415.56   28.40
  -3  16  -4  400.16   26.10
  -4 -16  -4   20.80   11.10
   4  16   4   30.90   11.20
  -7 -17   4    1.90    4.70
   7 -17  -4  -21.30   11.40
  -7  17   4  -12.80   13.00
  -6 -17   4    7.30    4.10
   6 -17  -4    6.00    8.00
   6 -17  -4    2.10    8.70
  -6  17   4    5.90   11.20
   6  17  -4    4.00    5.20
   5 -17  -4   -6.80    9.10
  -5 -17   4    5.80    3.60
   5 -17  -4   -0.30    7.20
   5  17  -4    3.70    3.90
  -5  17   4    2.40   10.70
  -4 -17   4    7.60    3.70
   4 -17  -4    5.30   11.90
  -4  17   4    2.40    9.00
  -3 -17   4    5.50    3.60
   3 -17  -4    1.20    6.50
  -3  17   4  -15.80    7.80
   3  17  -4   12.20    9.20
  -3  17   4  -15.80   11.60
  -2 -17   4   13.90    3.90
   2 -17  -4    5.90    7.20
  -2  17   4   14.50   10.70
   2  17  -4   12.10    8.60
  -2  17   4    8.40    8.00
   1 -17  -4    4.80    6.30
  -1 -17   4    0.20    3.20
   1  17  -4    2.90    3.40
  -1  17   4   13.20   11.20
  -1  17   4    5.50    7.60
   1  17  -4   13.60    8.50
   1  17  -4    3.90    3.50
   0 -17  -4   37.60    7.10
   0 -17   4   26.50    5.50
   0 -17  -4   24.40    8.00
   0  17  -4   27.00    5.50
   0  17  -4    7.10    7.80
   0  17   4   25.80   12.70
   0  17   4   47.90   10.80
  -1 -17  -4   64.09    9.30
  -1 -17  -4   69.19   11.90
   1 -17   4   79.49    8.30
  -1  17  -4   75.49   11.30
   1  17   4   72.39   11.40
   2 -17   4    1.80    4.00
  -2 -17  -4   -7.00    6.90
   2  17   4    5.70    9.00
  -2  17  -4  -12.80    7.30
  -3 -17  -4   56.49   12.80
   3 -17   4   48.60    9.20
   3  17   4   68.79   14.10
  -3  17  -4   77.59   12.60
  -4 -17  -4   12.30   12.10
   4  17   4   33.00   14.20
   6 -18  -4   61.39   11.60
   6 -18  -4   57.79   10.40
  -6 -18   4   38.70    6.10
  -6  18   4   45.00   15.90
  -5 -18   4  985.60   40.30
  -5  18   4  931.51   50.99
   5  18  -4  832.52   38.40
   4 -18  -4 1200.88   53.19
  -4 -18   4 1108.89   49.20
  -4  18   4 1119.79   57.19
  -3 -18   4   35.10    6.50
   3 -18  -4   33.60    8.50
  -3  18   4   34.80   12.50
   3  18  -4   53.29   13.60
   2 -18  -4  307.87   21.40
  -2 -18   4  293.87   17.20
  -2  18   4  334.87   25.00
   2  18  -4  247.38   24.40
  -1 -18   4  542.15   28.30
   1 -18  -4  594.74   32.10
   1  18  -4  605.64   26.10
  -1  18   4  636.64   35.90
   1  18  -4  549.95   25.70
   0 -18  -4  150.88   17.00
   0 -18   4  164.68   12.70
   0  18   4  191.18   20.70
   0  18  -4  188.88   13.80
   0  18  -4  187.88   12.70
   1 -18   4  176.68   13.50
  -1 -18  -4  151.58   17.70
   1  18   4  166.58   20.70
  -1  18  -4  183.58   14.90
  -2 -18  -4  794.42   41.70
  -2  18  -4  760.82   38.80
   2  18   4  807.22   43.80
  -3 -18  -4  218.18   21.80
   3  18   4  224.78   24.50
  -6 -19   4  364.76   19.00
   5 -19  -4   21.40   10.00
  -5 -19   4    4.60    4.20
  -5  19   4   -3.20   13.30
  -4 -19   4  324.37   18.00
   4 -19  -4  327.27   22.70
  -4  19   4  322.27   28.80
  -3 -19   4  214.38   14.30
   3 -19  -4  239.48   19.60
  -3  19   4  241.58   24.10
   2 -19  -4   99.89   15.20
  -2 -19   4  130.79   10.50
  -2  19   4  127.59   21.40
   1 -19  -4   12.80    9.50
  -1 -19   4   17.10    5.10
   1  19  -4   28.80   12.70
   1  19  -4   13.50    7.50
   1  19  -4   29.40    6.10
  -1  19   4   33.60   11.10
   0 -19  -4  135.89   17.10
   0 -19   4  153.78   12.30
   0  19  -4  128.99   12.70
   0  19   4  166.38   21.00
  -1 -19  -4  233.78   21.40
   1  19   4  252.37   24.10
  -1  19  -4  204.08   17.30
  -2 -19  -4   17.60   11.40
   2  19   4   36.70   12.80
  -5 -20   4  268.97   16.00
   5 -20  -4  282.97   22.70
  -4 -20   4  364.76   20.10
   4 -20  -4  359.46   25.90
  -4  20   4  417.66   34.20
   3 -20  -4    6.60   11.00
  -3 -20   4   25.50    5.90
  -3  20   4   23.60   14.10
   2 -20  -4  164.08   19.40
  -2 -20   4  152.78   12.30
  -2  20   4  184.38   23.00
   1 -20  -4  201.38   20.70
  -1 -20   4  201.38   14.70
  -1  20   4  250.67   25.50
   0 -20   4    4.30    4.40
   0 -20  -4   -1.10   11.20
   0  20   4   35.00   12.30
  -1 -20  -4   42.10   13.00
   3 -21  -4  528.45   33.00
  -3 -21   4  540.25   26.70
  -3  21   4  468.55   38.70
   2 -21  -4  267.77   24.40
  -2  21   4  248.88   28.70
   1 -21  -4   50.89   13.10
  -1 -21   4   30.90    7.10
  -1  21   4   68.19   16.30
   0 -21  -4  865.11   46.40
   0  21   4  810.42   49.40
 -11   0   5   30.90   13.90
  11   0  -5   30.20   15.50
 -10   0   5   -8.50    8.60
 -10   0   5   -7.90    9.70
  10   0  -5   16.50   10.20
 -10   0   5    3.00    5.30
  10   0  -5    3.10    9.70
   9   0  -5    1.20    7.50
  -9   0   5   11.90    7.60
  -9   0   5    3.90    5.70
  -9   0   5   -3.50    4.00
   9   0  -5   14.70    8.10
  -8   0   5    2.90    3.80
  -8   0   5   -3.90    4.20
  -8   0   5   -1.20    5.50
   8   0  -5    4.30    6.10
   8   0  -5    0.00    5.20
  -7   0   5   -3.90    4.20
   7   0  -5    6.60    4.90
  -6   0   5    2.50    3.30
  -6   0   5    1.10    2.70
   6   0  -5   -1.30    3.60
  -6   0   5    6.80    3.90
   6   0  -5    7.20    4.00
  -5   0   5    0.10    2.80
   5   0  -5    1.10    2.70
  -5   0   5    4.60    3.00
   5   0  -5    1.90    2.90
  -5   0   5    3.20    2.20
  -4   0   5   -4.00    2.40
   4   0  -5    0.10    2.60
  -4   0   5   -4.30    2.30
   4   0  -5   -2.60    2.70
  -4   0   5   -1.40    1.80
  -3   0   5    1.00    1.90
   3   0  -5    1.40    2.20
  -3   0   5    3.20    2.30
  -3   0   5   -0.10    2.40
   3   0  -5    3.80    2.80
  -2   0   5   -0.40    2.30
  -2   0   5   -2.60    1.90
   2   0  -5   -0.30    2.40
   2   0  -5   -1.30    2.80
   1   0  -5    0.20    2.20
  -1   0   5   -0.70    2.50
  -1   0   5    2.80    2.50
  -1   0   5    3.00    2.30
   1   0  -5   -0.20    2.70
   0   0  -5   -0.50    3.30
   0   0   5   -0.50    2.70
   0   0   5    1.80    2.40
   0   0   5    6.40    2.50
  -1   0  -5   -0.50    3.70
   1   0   5   -1.40    2.50
   1   0   5    1.40    2.10
   1   0   5    5.20    3.50
   2   0   5    5.40    3.10
  -2   0  -5   -1.70    4.70
   2   0   5    2.80    4.20
   2   0   5    0.30    2.30
   3   0   5    2.30    2.20
   3   0   5   -0.40    3.50
  -3   0  -5   -1.30    3.20
  -3   0  -5   -5.70    5.30
  -4   0  -5    5.20    3.20
  -4   0  -5   -2.70    7.50
   4   0   5    5.40    2.50
  -5   0  -5    5.80    4.20
   5   0   5    2.90    3.30
   5   0   5   -0.20    5.50
  -6   0  -5   14.20    5.10
   6   0   5    6.40    7.50
   7   0   5   -0.80   11.10
  11  -1  -5  556.04   39.90
 -11  -1   5  522.55   26.60
 -11  -1   5  541.45   36.60
  11   1  -5  528.15   39.60
 -11   1   5  612.64   39.20
 -11   1   5  513.85   27.20
 -10  -1   5  261.87   22.50
 -10  -1   5  256.57   15.60
 -10  -1   5  218.78   21.20
  10  -1  -5  229.08   20.40
  10  -1  -5  217.98   24.50
  10   1  -5  269.57   24.50
 -10   1   5  205.58   23.40
  10   1  -5  222.38   20.40
 -10   1   5  270.97   16.30
 -10   1   5  285.37   22.80
   9  -1  -5  -10.40    6.60
  -9  -1   5    7.00    4.70
  -9  -1   5   14.50    6.30
  -9  -1   5   10.70    7.20
   9  -1  -5   -3.30    6.90
   9   1  -5    0.90    7.70
  -9   1   5    6.60    7.80
  -9   1   5   21.70    7.20
   9   1  -5    3.30    7.80
  -8  -1   5  815.92   40.70
   8  -1  -5  860.41   39.70
  -8  -1   5  839.12   37.90
  -8  -1   5  867.61   38.20
   8   1  -5  882.71   40.30
  -8   1   5  860.81   38.70
  -8   1   5  830.12   41.80
   8   1  -5  839.82   41.60
  -7  -1   5 2992.90  126.09
   7  -1  -5 3020.40  127.19
  -7  -1   5 3312.07  124.69
  -7  -1   5 3175.18  123.89
  -7   1   5 3135.99  124.49
  -7   1   5 3024.80  127.39
   7   1  -5 3068.29  126.99
   6  -1  -5  431.86   23.10
  -6  -1   5  394.16   20.70
  -6  -1   5  433.96   20.00
  -6  -1   5  416.06   21.90
   6  -1  -5  437.86   22.40
  -6   1   5  405.16   22.70
   6   1  -5  476.35   22.30
  -6   1   5  426.16   20.60
   6   1  -5  409.46   22.20
  -5  -1   5 1008.70   42.00
  -5  -1   5 1008.80   43.40
  -5  -1   5  981.90   43.70
   5  -1  -5  952.80   45.90
   5  -1  -5 1015.90   45.00
  -5   1   5 1103.79   43.40
   5   1  -5 1011.50   44.40
   5   1  -5 1041.50   44.10
  -5   1   5 1002.10   44.80
  -4  -1   5 1449.95   59.29
  -4  -1   5 1485.75   59.29
  -4  -1   5 1479.35   57.99
   4  -1  -5 1395.16   60.39
   4  -1  -5 1423.46   60.29
  -4   1   5 1409.96   60.29
  -4   1   5 1483.95   59.09
   4   1  -5 1402.76   59.79
   4   1  -5 1347.77   59.59
  -3  -1   5  784.82   33.60
  -3  -1   5  765.42   33.50
   3  -1  -5  773.42   34.70
   3  -1  -5  808.32   35.10
  -3  -1   5  808.02   32.80
   3   1  -5  748.03   34.20
  -3   1   5  770.32   34.60
   3   1  -5  742.03   34.10
  -3   1   5  779.92   33.70
  -3   1   5  774.42   33.70
  -2  -1   5  431.46   20.00
  -2  -1   5  440.86   20.20
   2  -1  -5  407.06   21.00
  -2  -1   5  422.46   19.80
   2  -1  -5  432.56   21.80
   2   1  -5  440.86   21.30
  -2   1   5  435.76   21.10
   2   1  -5  420.06   20.60
  -2   1   5  435.16   20.80
  -2   1   5  451.45   20.30
  -1  -1   5 4493.55  170.78
   1  -1  -5 4629.04  173.38
   1  -1  -5 4267.37  171.78
  -1  -1   5 4389.16  171.08
  -1  -1   5 4245.98  170.88
  -1   1   5 4201.58  171.78
  -1   1   5 4435.06  171.98
   1   1  -5 4333.97  172.48
  -1   1   5 4505.25  170.78
   1   1  -5 3965.10  171.08
   0  -1   5 1660.83   66.19
   0  -1   5 1516.65   66.59
   0  -1  -5 1700.13   69.49
   0  -1   5 1700.63   67.49
   0   1   5 1696.73   68.19
   0   1   5 1609.54   65.99
   0   1   5 1585.74   67.59
   0   1  -5 1595.74   68.59
   1  -1   5    0.20    2.40
   1  -1   5    1.70    2.90
  -1  -1  -5    2.90    4.40
   1  -1   5    1.50    2.30
   1   1   5    9.70    3.50
   1   1   5    0.20    3.20
   1   1   5    0.60    2.20
   2  -1   5  893.21   40.60
  -2  -1  -5  950.10   44.10
   2  -1   5  955.30   38.90
   2   1   5  879.71   41.20
   2   1   5  920.81   38.50
  -2   1  -5  972.00   43.80
   2   1   5  924.11   42.60
   3  -1   5 1349.77   58.19
  -3  -1  -5 1405.76   62.39
   3  -1   5 1302.47   55.29
   3   1   5 1382.56   58.89
   3   1   5 1378.66   55.09
  -3   1  -5 1351.76   61.79
  -4  -1  -5  117.39   17.00
   4  -1   5  134.29   12.00
  -4  -1  -5  106.09    9.20
   4  -1   5  112.99    7.50
  -4   1  -5  113.39    8.50
  -4   1  -5  132.59   16.70
   4   1   5  108.19   12.20
   4   1   5  124.39    7.70
   5  -1   5  181.58   10.30
   5  -1   5  176.78   15.70
  -5  -1  -5  162.38   12.20
   5   1   5  170.78   15.50
  -5   1  -5  172.38   11.50
   5   1   5  176.58   10.00
   6  -1   5  753.62   37.80
  -6  -1  -5  683.93   33.00
   6   1   5  744.43   37.90
  -6   1  -5  653.63   31.60
   7  -1   5  538.55   33.80
   7   1   5  456.05   32.70
 -11  -2   5   22.70   12.80
 -11  -2   5   34.30    6.90
  11  -2  -5   56.19   16.20
  11   2  -5   62.89   15.90
 -11   2   5   52.69   16.10
 -11   2   5   36.30    7.90
 -10  -2   5  191.18   19.30
  10  -2  -5  235.88   18.90
  10  -2  -5  216.58   24.20
 -10  -2   5  197.08   19.70
 -10  -2   5  201.38   13.40
 -10   2   5  189.68   20.60
 -10   2   5  191.98   22.90
  10   2  -5  239.08   31.60
  10   2  -5  180.98   22.50
  -9  -2   5  320.17   17.80
   9  -2  -5  318.57   24.60
  -9  -2   5  326.87   22.10
  -9  -2   5  350.16   20.30
   9  -2  -5  370.46   21.60
   9   2  -5  339.67   23.50
  -9   2   5  292.67   24.50
   9   2  -5  346.07   22.30
  -9   2   5  310.57   20.90
  -8  -2   5  112.29   12.00
  -8  -2   5  112.49    9.60
   8  -2  -5  105.49   13.80
  -8  -2   5   99.49   13.20
  -8   2   5  117.49   11.60
   8   2  -5  109.09   12.20
  -8   2   5  125.99   14.50
   8   2  -5  104.69   12.70
  -7  -2   5   -1.50    4.10
   7  -2  -5   -3.60    4.10
  -7  -2   5    7.90    3.30
  -7  -2   5    6.70    3.20
   7   2  -5    4.40    5.10
  -7   2   5    6.70    3.80
   7   2  -5    5.40    4.50
  -7   2   5    4.10    4.90
  -6  -2   5  760.92   34.00
  -6  -2   5  758.92   32.20
   6  -2  -5  772.82   36.10
  -6  -2   5  746.63   33.40
   6  -2  -5  737.33   34.90
  -6   2   5  728.03   36.00
   6   2  -5  768.12   34.30
   6   2  -5  732.23   34.80
   5  -2  -5 1240.78   56.19
  -5  -2   5 1314.07   54.39
  -5  -2   5 1321.47   52.89
   5  -2  -5 1335.37   56.39
  -5  -2   5 1242.98   54.29
  -5   2   5 1263.97   56.39
  -5   2   5 1379.46   54.89
   5   2  -5 1350.36   55.19
   5   2  -5 1305.27   55.29
  -4  -2   5    2.80    2.20
  -4  -2   5    0.30    2.30
   4  -2  -5    0.00    2.60
  -4  -2   5    2.70    1.60
   4  -2  -5    2.90    2.80
  -4   2   5   -1.50    2.60
   4   2  -5    2.40    2.90
   4   2  -5    0.10    2.60
  -4   2   5    0.50    2.20
  -3  -2   5 1288.47   53.99
   3  -2  -5 1283.57   55.49
  -3  -2   5 1302.87   53.19
  -3  -2   5 1382.16   52.59
   3  -2  -5 1328.17   55.59
  -3   2   5 1268.27   55.39
   3   2  -5 1310.97   54.49
   3   2  -5 1270.47   54.39
  -3   2   5 1322.47   54.69
   2  -2  -5 1182.58   49.10
  -2  -2   5 1119.99   46.20
  -2  -2   5 1099.39   46.90
   2  -2  -5 1080.99   48.10
  -2  -2   5 1134.39   46.00
   2   2  -5 1154.08   47.90
  -2   2   5 1123.99   48.00
  -2   2   5 1148.69   47.10
  -2   2   5 1136.99   48.50
   2   2  -5 1097.69   47.30
  -1  -2   5   90.19    6.80
   1  -2  -5  102.89    9.20
  -1  -2   5   92.59    6.60
  -1  -2   5  102.99    7.00
   1  -2  -5   86.69    7.50
   1   2  -5   94.69    7.20
  -1   2   5   92.89    7.80
  -1   2   5   87.29    8.10
  -1   2   5  100.69    7.00
   1   2  -5   91.69    8.10
   0  -2   5  643.34   28.70
   0  -2  -5  670.53   31.80
   0  -2   5  668.53   28.70
   0  -2   5  672.73   29.40
   0   2  -5  650.83   30.70
   0   2   5  646.64   30.40
   0   2   5  665.43   28.50
   0   2   5  643.24   30.60
  -1  -2  -5 1292.57   56.09
   1  -2   5 1303.57   51.89
   1  -2   5 1223.78   52.39
   1  -2   5 1295.97   53.59
   1   2   5 1224.98   53.89
  -1   2  -5 1247.28   58.59
   1   2   5 1282.47   51.49
   1   2   5 1202.38   56.79
  -2  -2  -5  174.28   14.70
   2  -2   5  186.48   12.70
   2  -2   5  168.58    9.70
   2  -2   5  160.38   11.10
   2   2   5  182.58    9.60
   2   2   5  162.98   13.70
   2   2   5  152.38   12.00
  -2   2  -5  161.58   14.00
   3  -2   5  119.69    8.20
   3  -2   5  124.79   10.10
  -3  -2  -5  122.99   14.50
   3   2   5  132.99    7.60
   3   2   5  118.89   11.00
  -3   2  -5  111.59   13.90
   4  -2   5  568.44   28.10
   4  -2   5  546.05   24.30
  -4  -2  -5  548.05   26.30
  -4  -2  -5  495.35   32.10
  -4   2  -5  514.25   24.40
   4   2   5  566.34   23.40
  -4   2  -5  544.75   32.60
   4   2   5  562.64   28.50
   5  -2   5  519.95   26.90
   5  -2   5  464.65   21.50
  -5  -2  -5  461.95   23.90
  -5   2  -5  454.75   22.10
   5   2   5  472.25   26.80
   6  -2   5   24.00    9.10
  -6  -2  -5    3.30    6.00
  -6   2  -5    7.40    4.70
   6   2   5  -11.40    7.50
   7  -2   5  304.67   25.40
   7   2   5  216.58   25.30
 -11  -3   5  118.29   17.00
 -11  -3   5  170.68   13.10
  11  -3  -5  130.19   21.10
  11   3  -5  193.98   27.90
 -11   3   5  165.48   28.00
 -10  -3   5   72.99   11.70
 -10  -3   5   70.29    8.10
  10  -3  -5   60.39   14.00
  10  -3  -5   58.99   11.50
  10   3  -5   72.49   13.60
 -10   3   5   54.39   14.10
   9  -3  -5   -5.90    7.40
  -9  -3   5    2.40    3.90
  -9  -3   5   14.70    6.30
   9  -3  -5    6.30    6.60
  -9  -3   5    2.60    6.50
   9   3  -5    7.80    7.20
  -9   3   5    3.00    7.00
  -9   3   5   -3.80    8.20
   9   3  -5    2.60    7.80
  -8  -3   5   76.79    7.70
   8  -3  -5   89.39   13.20
  -8  -3   5   78.49   10.30
  -8  -3   5   87.99    9.30
   8   3  -5   88.69   12.40
   8   3  -5   73.39   11.30
  -8   3   5   75.09   11.30
  -8   3   5   78.09   11.10
  -7  -3   5  487.15   23.10
  -7  -3   5  494.45   24.60
   7  -3  -5  504.35   27.50
  -7  -3   5  516.25   24.00
   7   3  -5  465.05   25.80
  -7   3   5  512.65   25.00
  -7   3   5  505.75   28.00
   7   3  -5  518.85   26.30
   6  -3  -5   41.90    7.10
  -6  -3   5   51.79    6.70
  -6  -3   5   46.60    5.00
   6  -3  -5   69.39    8.70
  -6  -3   5   43.70    5.80
  -6   3   5   61.79    9.30
   6   3  -5   37.80    9.20
   6   3  -5   46.90    7.00
  -5  -3   5  469.85   21.80
  -5  -3   5  465.05   20.60
   5  -3  -5  505.95   24.50
   5  -3  -5  483.45   24.90
  -5  -3   5  483.05   22.60
  -5   3   5  482.55   23.30
   5   3  -5  473.85   23.20
   5   3  -5  501.45   23.30
  -5   3   5  493.95   25.20
  -4  -3   5  359.36   15.50
  -4  -3   5  352.26   17.60
   4  -3  -5  364.56   19.40
  -4  -3   5  353.76   16.20
   4  -3  -5  363.76   19.50
  -4   3   5  358.16   19.60
   4   3  -5  354.46   17.90
  -4   3   5  377.36   18.60
   4   3  -5  360.16   18.00
  -3  -3   5  116.09    8.10
  -3  -3   5  126.69    6.70
   3  -3  -5  114.59    9.80
   3  -3  -5  128.79    9.70
  -3  -3   5  124.19    6.20
  -3   3   5  128.19   10.00
  -3   3   5  124.59    9.30
   3   3  -5  118.49    8.20
   3   3  -5  122.19    8.70
   2  -3  -5   24.40    4.50
  -2  -3   5   30.60    4.30
   2  -3  -5   24.80    4.60
  -2  -3   5   32.60    3.20
  -2  -3   5   32.90    3.40
  -2   3   5   38.50    4.90
  -2   3   5   30.20    5.20
   2   3  -5   40.30    4.70
   2   3  -5   32.40    4.90
  -2   3   5   30.70    5.30
  -1  -3   5 1245.08   49.30
  -1  -3   5 1230.18   48.40
  -1  -3   5 1164.58   47.90
   1  -3  -5 1245.88   51.99
   1  -3  -5 1132.89   50.19
  -1   3   5 1172.18   50.99
   1   3  -5 1045.10   48.90
  -1   3   5 1226.78   49.10
   1   3  -5 1209.28   50.29
  -1   3   5 1171.98   50.79
   0  -3  -5  978.10   42.80
   0  -3   5  924.81   39.00
   0  -3   5  875.21   39.00
   0  -3   5  909.91   38.50
   0   3  -5  882.61   40.60
   0   3   5  967.60   41.60
   0   3   5  913.81   41.20
   0   3   5  948.41   38.80
   1  -3   5   25.20    4.10
   1  -3   5   24.90    3.90
  -1  -3  -5   27.50    6.00
   1  -3   5   24.70    4.50
  -1   3  -5   22.30    5.40
   1   3   5   22.30    4.80
   1   3   5   26.40    3.80
   1   3   5   25.20    5.00
   2  -3   5  249.48   12.80
  -2  -3  -5  249.48   18.10
   2  -3   5  240.68   15.10
   2  -3   5  217.88   13.50
  -2   3  -5  223.68   16.60
   2   3   5  262.37   12.40
   2   3   5  263.57   17.40
   2   3   5  242.38   15.50
   3  -3   5  280.77   16.60
   3  -3   5  326.47   19.30
  -3  -3  -5  292.67   21.90
   3  -3   5  294.77   14.80
  -3   3  -5  274.47   20.20
   3   3   5  310.07   14.10
   3   3   5  279.27   17.80
  -4  -3  -5   29.00    9.60
   4  -3   5    6.60    2.90
   4  -3   5    9.10    4.90
  -4  -3  -5   12.30    4.30
   4   3   5    3.30    5.00
  -4   3  -5   17.30    9.30
   4   3   5    6.40    3.30
  -4   3  -5   10.20    3.20
  -5  -3  -5   77.99    9.40
   5  -3   5  111.19   13.20
   5  -3   5   73.59    7.10
  -5   3  -5   76.09    7.10
   5   3   5   95.79   12.60
   5   3   5   71.49    7.30
  -6  -3  -5  196.58   16.50
   6  -3   5  226.18   20.40
  -6   3  -5  227.38   12.40
   6   3   5  225.58   20.20
   7  -3   5   92.69   14.90
  -7  -3  -5   80.69   14.90
   7   3   5   81.79   17.40
 -11   4   5   26.40   17.00
  11   4  -5   55.79   15.80
 -10  -4   5  104.09   15.70
 -10  -4   5   87.39    9.60
  10  -4  -5   84.89   15.80
  10  -4  -5  146.89   22.50
  10   4  -5  114.09   18.80
 -10   4   5   87.49   16.30
   9  -4  -5  564.44   34.20
   9  -4  -5  569.54   29.30
  -9  -4   5  602.84   28.50
  -9  -4   5  551.44   29.40
  -9  -4   5  568.84   26.60
  -9   4   5  519.25   34.50
   9   4  -5  576.04   32.20
  -9   4   5  587.14   31.20
   9   4  -5  572.64   31.50
  -8  -4   5  677.13   31.10
  -8  -4   5  696.03   31.10
   8  -4  -5  715.73   36.90
  -8  -4   5  683.53   32.40
   8   4  -5  716.83   34.80
  -8   4   5  702.83   41.40
  -8   4   5  679.43   33.60
   8   4  -5  653.03   34.40
  -7  -4   5  324.17   17.10
   7  -4  -5  331.77   21.20
  -7  -4   5  337.77   16.40
  -7  -4   5  337.57   17.30
  -7   4   5  335.57   21.90
  -7   4   5  327.97   18.70
   7   4  -5  306.47   19.20
   7   4  -5  345.97   20.10
   6  -4  -5 3769.32  150.78
  -6  -4   5 3634.94  145.29
   6  -4  -5 3777.52  149.49
  -6  -4   5 3716.73  147.19
  -6  -4   5 3606.74  145.99
   6   4  -5 3659.93  149.69
  -6   4   5 3714.83  151.38
  -6   4   5 3817.02  148.69
   6   4  -5 3604.84  148.29
   6   4  -5 3846.82  149.59
  -5  -4   5 1299.77   51.69
   5  -4  -5 1224.58   56.69
   5  -4  -5 1272.97   55.99
  -5  -4   5 1326.77   52.19
  -5  -4   5 1315.17   54.39
  -5   4   5 1320.67   57.49
   5   4  -5 1361.46   54.79
  -5   4   5 1365.56   57.79
   5   4  -5 1279.17   54.69
   4  -4  -5  154.18   11.90
  -4  -4   5  162.48   10.10
  -4   4   5  173.08   12.30
  -4   4   5  186.38   11.70
   4   4  -5  164.38   10.40
   4   4  -5  170.38   10.20
   3  -4  -5 1977.40   81.19
   3  -4  -5 1992.60   81.19
  -3  -4   5 1874.01   78.99
  -3   4   5 1892.41   81.29
   3   4  -5 1831.02   78.69
   3   4  -5 2016.70   79.19
  -3   4   5 2112.39   80.99
   2  -4  -5 3862.11  159.48
  -2  -4   5 4064.19  157.98
   2  -4  -5 4141.99  160.28
  -2   4   5 3601.64  159.68
  -2   4   5 4196.18  159.78
   2   4  -5 3949.30  157.98
   2   4  -5 4223.98  157.88
  -1  -4   5 1130.99   46.80
  -1  -4   5 1076.59   44.60
  -1  -4   5 1161.38   45.10
   1  -4  -5 1173.98   49.80
  -1   4   5 1203.48   49.10
  -1   4   5 1075.69   46.50
  -1   4   5 1103.69   48.90
   1   4  -5 1113.79   47.40
   1   4  -5 1043.50   46.40
   0  -4   5  774.82   33.70
   0  -4   5  772.32   34.10
   0  -4   5  780.52   33.10
   0   4   5  815.62   36.90
   0   4   5  777.72   36.50
   0   4  -5  840.42   36.00
   0   4   5  822.82   34.00
   1  -4   5 2756.22  114.49
  -1  -4  -5 3045.30  119.69
   1  -4   5 2991.50  115.69
   1  -4   5 2902.71  114.99
   1   4   5 2908.91  114.29
   1   4   5 2968.70  118.39
   1   4   5 2745.13  117.49
  -1   4  -5 2834.82  117.39
   2  -4   5  668.23   29.70
   2  -4   5  657.63   30.70
  -2  -4  -5  697.53   35.00
   2  -4   5  648.84   29.00
   2   4   5  637.14   32.00
  -2   4  -5  624.64   32.50
   2   4   5  661.93   28.20
   2   4   5  705.93   33.90
   3  -4   5  270.87   17.10
   3  -4   5  245.78   14.90
   3  -4   5  224.38   12.90
  -3  -4  -5  245.48   19.90
  -3   4  -5  265.07   19.20
   3   4   5  274.87   19.70
   3   4   5  241.78   16.40
   3   4   5  235.98   12.10
   4  -4   5  856.31   37.70
  -4  -4  -5  795.92   43.80
   4  -4   5  788.22   34.50
  -4  -4  -5  786.62   36.70
   4   4   5  825.62   32.70
  -4   4  -5  744.73   33.30
  -4   4  -5  804.02   41.80
   4   4   5  807.72   38.90
  -5  -4  -5  408.16   22.50
   5  -4   5  421.66   19.80
   5  -4   5  438.36   24.80
   5   4   5  432.96   25.20
  -5   4  -5  375.26   18.20
   6  -4   5   53.99   10.20
  -6  -4  -5   50.99    8.90
   6   4   5   33.30    9.30
 -10  -5   5   -1.90    4.70
  10  -5  -5   25.90   12.60
 -10  -5   5   -2.00    8.20
  10  -5  -5   13.40    9.80
 -10   5   5   -6.00   11.50
  10   5  -5  -12.90    9.20
  -9  -5   5    4.60    3.90
  -9  -5   5   13.40    6.60
  -9  -5   5   12.30    6.00
   9  -5  -5   17.30    9.60
   9  -5  -5   12.30    7.20
  -9   5   5   10.60    9.40
   9   5  -5   15.40    7.90
  -9   5   5    8.30    8.80
   9   5  -5   13.20    9.40
  -8  -5   5   90.09    8.70
  -8  -5   5   86.99    9.20
   8  -5  -5   80.89   14.20
  -8  -5   5   86.09    8.10
   8   5  -5   72.89   11.90
   8   5  -5   67.69   11.10
  -8   5   5   97.09   15.50
  -8   5   5  100.29   11.40
  -7  -5   5  260.37   13.00
  -7  -5   5  265.87   13.60
   7  -5  -5  254.17   19.00
  -7  -5   5  270.17   14.80
   7   5  -5  261.37   16.60
  -7   5   5  271.27   17.10
   7   5  -5  268.87   17.90
  -7   5   5  295.17   20.40
   6  -5  -5  242.88   17.20
   6  -5  -5  276.67   17.10
  -6  -5   5  278.17   14.40
   6   5  -5  264.47   15.20
   6   5  -5  263.87   16.70
   6   5  -5  247.08   14.60
  -6   5   5  236.48   17.80
  -6   5   5  248.28   15.70
   5  -5  -5  126.59   10.80
   5  -5  -5  120.09   11.20
  -5  -5   5  118.19    8.50
   5   5  -5  130.89    9.00
  -5   5   5  116.99    9.80
   5   5  -5  115.79    8.80
  -5   5   5  120.79   11.10
   4  -5  -5  406.56   21.90
  -4  -5   5  411.76   20.00
   4  -5  -5  430.86   22.60
   4   5  -5  445.56   20.10
  -4   5   5  416.96   22.80
   4   5  -5  419.66   19.70
  -3  -5   5  222.98   12.30
   3  -5  -5  217.78   14.20
   3  -5  -5  232.28   14.40
  -3   5   5  230.78   14.10
   3   5  -5  232.98   12.00
   3   5  -5  217.88   12.20
  -3   5   5  217.68   14.50
   2  -5  -5  272.57   16.00
  -2  -5   5  276.67   14.60
   2  -5  -5  287.37   16.90
  -2   5   5  284.77   16.70
   2   5  -5  304.77   14.30
   2   5  -5  271.77   14.40
  -2   5   5  295.57   16.70
   1  -5  -5   73.59    8.90
  -1  -5   5   71.59    6.20
  -1   5   5   81.99    8.90
   1   5  -5   73.89    6.60
  -1   5   5   56.29    7.40
   0  -5   5  824.72   34.30
   0  -5   5  854.31   36.30
   0  -5   5  861.41   35.00
   0  -5  -5  851.81   39.80
   0   5  -5  808.02   37.30
   0   5   5  810.52   38.60
   0   5   5  874.61   39.20
   0   5   5  882.11   36.00
   1  -5   5   76.39    7.30
  -1  -5  -5   98.89   11.70
   1  -5   5   85.79    6.80
   1  -5   5   86.69    6.30
   1   5   5   73.09    8.80
   1   5   5   86.09   10.20
  -1   5  -5   86.89    8.90
   1   5   5   88.99    6.50
   2  -5   5  106.59    9.40
   2  -5   5  111.59    8.20
  -2  -5  -5   94.59   13.00
   2  -5   5  100.69    7.70
   2   5   5  102.49    9.90
  -2   5  -5  109.79   11.50
   2   5   5  113.69   12.90
   3  -5   5    9.50    3.10
   3  -5   5    3.80    4.00
  -3  -5  -5   12.40    8.20
  -3  -5  -5    5.70    4.50
   3   5   5   11.50    7.20
  -3   5  -5    3.10    6.10
   3   5   5   10.40    3.00
   3   5   5    3.30    4.90
   4  -5   5    3.80    4.70
  -4  -5  -5    8.00    4.60
   4  -5   5    5.80    3.00
  -4   5  -5    4.10    7.80
   4   5   5    1.80    2.70
  -4   5  -5    1.80    2.30
   4   5   5    5.50    5.10
  -5  -5  -5    0.90    6.30
   5  -5   5    1.50    3.40
   5  -5   5    3.40    6.10
   6  -5   5   54.29   11.70
  -6  -5  -5   36.80    8.80
   6   5   5   43.60   10.60
  10  -6  -5  153.88   24.60
 -10  -6   5  179.58   12.00
  10   6  -5  166.18   20.70
 -10   6   5  163.48   27.20
  -9  -6   5  564.44   29.30
   9  -6  -5  747.23   33.80
  -9  -6   5  694.53   30.20
  -9  -6   5  693.03   30.20
   9  -6  -5  700.13   39.50
  -9   6   5  661.03   40.60
   9   6  -5  670.43   36.20
   8  -6  -5  497.15   30.10
  -8  -6   5  513.65   23.10
  -8   6   5  486.85   31.50
  -8   6   5  468.35   26.50
   8   6  -5  509.55   28.00
   8   6  -5  450.65   26.60
  -7  -6   5  120.19    8.80
   7  -6  -5   91.09   18.10
   7   6  -5  107.39   10.80
   7   6  -5  152.58   13.50
  -7   6   5  128.39   14.40
  -7   6   5  122.49   12.20
   6  -6  -5 1761.82   76.59
   6  -6  -5 1680.03   74.89
  -6  -6   5 1796.02   72.39
   6   6  -5 1847.82   75.49
  -6   6   5 1809.92   77.69
  -6   6   5 1778.72   74.59
   6   6  -5 1745.83   73.29
  -5  -6   5 1038.30   46.00
   5  -6  -5 1143.99   48.80
   5  -6  -5 1089.09   49.60
  -5   6   5 1053.39   49.99
   5   6  -5 1102.09   48.40
  -5   6   5 1152.78   48.50
   5   6  -5 1112.99   46.10
   5   6  -5 1080.99   46.10
  -4  -6   5   42.90    5.40
   4  -6  -5   29.60    6.20
   4  -6  -5   44.30    6.90
   4   6  -5   42.70    5.30
   4   6  -5   53.09    5.00
  -4   6   5   48.30    7.10
  -4   6   5   37.80    6.60
   3  -6  -5  618.94   34.10
  -3  -6   5  673.53   30.00
   3  -6  -5  697.73   32.40
   3   6  -5  689.03   29.50
   3   6  -5  682.23   29.10
  -3   6   5  716.73   33.30
   2  -6  -5 1796.92   78.19
  -2  -6   5 1893.21   73.29
   2  -6  -5 1676.73   74.49
   2   6  -5 1749.22   72.09
  -2   6   5 1687.03   75.59
  -2   6   5 1838.62   79.69
   2   6  -5 1938.01   72.69
  -1  -6   5   52.79    5.50
  -1   6   5   56.49    7.60
   1   6  -5   60.79    5.90
  -1   6   5   58.39    9.60
   0  -6  -5  941.91   43.80
   0  -6   5  945.11   40.50
   0   6   5  953.60   43.30
   0   6  -5  969.70   41.30
   0   6   5  903.91   43.00
   0   6   5  970.60   39.90
  -1  -6  -5  811.92   41.00
   1  -6   5  845.52   36.90
   1  -6   5  893.01   36.30
   1  -6   5  836.02   35.60
   1   6   5  862.81   40.10
  -1   6  -5  881.51   39.10
   1   6   5  879.41   36.20
  -2  -6  -5  258.77   18.70
   2  -6   5  239.48   13.30
   2  -6   5  253.47   13.30
   2  -6   5  230.08   14.20
   2   6   5  251.67   16.60
  -2   6  -5  243.78   16.60
   2   6   5  258.27   18.10
   3  -6   5   48.30    5.50
  -3  -6  -5   26.90    6.70
  -3  -6  -5   35.30   10.70
   3  -6   5   34.40    5.80
   3  -6   5   40.90    6.90
  -3   6  -5   26.70    7.10
   3   6   5   40.40    8.70
   3   6   5   40.30    5.00
   3   6   5   26.30   10.10
  -4  -6  -5  926.41   47.10
   4  -6   5  890.11   37.90
  -4  -6  -5  844.72   40.10
   4  -6   5  908.91   40.00
  -4   6  -5  820.72   34.60
   4   6   5  903.51   42.70
  -4   6  -5  794.52   43.70
  -5  -6  -5  892.91   42.00
   5  -6   5  867.21   38.80
   5  -6   5  930.31   42.90
   5   6   5  892.91   44.30
   6  -6   5   19.50    9.40
   6   6   5   15.90    9.20
  10  -7  -5  354.46   31.50
 -10  -7   5  316.47   19.30
  10   7  -5  342.27   26.00
 -10   7   5  283.57   32.50
  -9  -7   5   34.00    5.80
   9  -7  -5   24.00   11.20
   9   7  -5   34.80    8.80
  -9   7   5   22.60   11.10
   8  -7  -5  724.73   37.50
  -8  -7   5  686.33   30.20
  -8   7   5  613.14   33.90
  -8   7   5  670.83   39.10
   8   7  -5  666.83   33.80
   8   7  -5  687.33   35.40
  -7  -7   5 1125.69   46.90
   7  -7  -5 1049.09   51.99
  -7   7   5 1150.18   50.09
   7   7  -5 1140.09   50.79
   7   7  -5 1070.59   48.80
  -7   7   5 1117.29   57.69
  -6  -7   5 1003.40   42.10
   6  -7  -5  911.31   45.80
   6   7  -5  977.60   42.70
  -6   7   5 1010.50   44.70
  -6   7   5  970.50   47.30
   6   7  -5 1020.30   45.30
   5  -7  -5   35.10    7.30
   5  -7  -5   41.50    7.00
  -5  -7   5   29.80    4.60
  -5   7   5   33.80    7.40
   5   7  -5   36.20    5.10
   5   7  -5   31.00    5.40
  -5   7   5   42.90    6.90
   5   7  -5   57.09    8.10
  -4  -7   5 1409.66   57.79
   4  -7  -5 1379.26   60.59
   4  -7  -5 1391.86   59.99
   4   7  -5 1453.05   56.99
   4   7  -5 1422.96   56.69
  -4   7   5 1341.67   59.79
   4   7  -5 1381.76   59.49
  -4   7   5 1373.46   61.29
  -3  -7   5   43.50    5.40
   3  -7  -5   33.30    5.60
   3  -7  -5   39.00    6.50
  -3   7   5   37.30    6.80
   3   7  -5   46.10    4.60
  -3   7   5   39.00    6.80
   3   7  -5   51.49    5.20
   2  -7  -5  801.62   36.80
  -2  -7   5  816.62   35.00
  -2   7   5  763.72   37.80
  -2   7   5  848.72   37.90
   2   7  -5  821.22   34.10
   2   7  -5  792.32   33.80
   1  -7  -5 1856.91   75.79
  -1  -7   5 1716.93   72.49
  -1   7   5 1713.73   75.59
   1   7  -5 1793.42   72.19
  -1   7   5 1827.42   75.49
   0  -7  -5 1712.13   72.29
   0  -7   5 1599.64   68.59
   0   7   5 1583.34   71.59
   0   7  -5 1668.33   69.19
   0   7   5 1773.12   72.09
   0   7   5 1731.53   68.19
   1  -7   5    8.00    3.00
   1  -7   5    7.90    2.10
  -1  -7  -5   13.50    6.00
   1  -7   5    7.10    2.50
   1   7   5    5.50    3.10
   1   7   5    6.40    4.00
   1   7   5    5.80    5.70
  -1   7  -5    3.70    4.30
   2  -7   5 1015.10   42.10
   2  -7   5  909.61   41.90
  -2  -7  -5 1000.40   47.80
   2  -7   5  969.00   41.30
  -2   7  -5 1000.20   45.30
   2   7   5  968.70   45.80
   2   7   5 1039.50   47.30
  -3  -7  -5  510.55   30.60
  -3  -7  -5  486.75   27.00
   3  -7   5  492.45   24.20
   3  -7   5  546.65   24.70
   3  -7   5  515.05   25.60
  -3   7  -5  478.75   28.50
   3   7   5  556.24   31.90
   3   7   5  520.45   28.50
   3   7   5  543.35   22.10
  -4  -7  -5   61.69    9.90
  -4  -7  -5   48.30   13.40
   4  -7   5   88.79   12.80
   4  -7   5   67.89    7.40
   4  -7   5   82.79   10.10
   4   7   5   79.69   12.90
   4   7   5   86.29   15.10
  -4   7  -5   70.49   12.70
  -5  -7  -5  235.68   18.00
   5  -7   5  258.07   20.50
   5  -7   5  250.07   14.60
   5   7   5  260.67   20.80
   6  -7   5  968.20   47.30
  -6  -7  -5  959.80   46.50
   6   7   5  966.60   48.80
  10  -8  -5   34.30   15.30
 -10   8   5   25.10   17.10
  10   8  -5   20.20   11.20
  -9  -8   5   80.89    8.60
   9  -8  -5   78.19   13.50
   9   8  -5   68.79   11.00
  -9   8   5   53.79   15.70
   8  -8  -5   16.70    8.10
  -8  -8   5   27.20    5.40
  -8   8   5   20.10    9.30
   8   8  -5   20.80    6.80
  -8   8   5   17.50    8.10
   8   8  -5   18.20    9.00
  -7  -8   5   20.60    4.80
   7  -8  -5   20.00    7.70
   7   8  -5    9.40    4.80
  -7   8   5   28.20    7.00
   7   8  -5   11.90    7.00
  -7   8   5   11.00    7.60
  -6  -8   5   82.89    7.70
   6  -8  -5   97.09   11.60
   6   8  -5   89.19    8.20
   6   8  -5   85.09   10.60
  -6   8   5   81.29   10.70
  -6   8   5   90.39   12.30
   5  -8  -5   13.90    5.10
  -5  -8   5   21.40    4.30
   5  -8  -5    9.80    5.00
  -5   8   5    9.80    4.70
   5   8  -5   13.50    3.50
   5   8  -5   16.00    3.60
  -5   8   5    2.90    4.80
   5   8  -5   13.40    5.20
  -4  -8   5   -0.40    2.60
   4  -8  -5    4.20    3.90
   4  -8  -5    2.80    3.80
   4   8  -5   -3.20    2.40
  -4   8   5    3.70    3.90
  -4   8   5    1.70    4.10
   4   8  -5    1.70    2.20
   4   8  -5    3.50    3.90
   3  -8  -5    6.70    4.80
   3  -8  -5   11.50    4.30
  -3  -8   5    6.20    3.10
   3   8  -5   13.00    3.20
   3   8  -5   12.70    4.60
   3   8  -5   15.30    2.40
  -3   8   5    8.00    5.10
  -3   8   5   15.90    5.40
   2  -8  -5  201.28   14.10
  -2  -8   5  176.98   11.00
   2  -8  -5  179.08   12.50
   2   8  -5  191.08   10.10
   2   8  -5  168.38   11.60
  -2   8   5  172.48   14.00
   2   8  -5  188.98    9.70
  -2   8   5  194.48   14.20
  -1  -8   5   19.90    3.90
   1  -8  -5   37.90    7.10
  -1   8   5   27.10    6.10
  -1   8   5   32.00    6.70
   1   8  -5   26.40    4.10
   0  -8   5  149.88    9.60
   0  -8  -5  148.99   13.20
   0   8  -5  145.09   10.10
   0   8   5  129.19   11.90
   0   8   5  138.49   12.80
  -1  -8  -5  152.98   14.80
   1  -8   5  125.79    9.50
   1   8   5  158.28    9.40
   1   8   5  149.49   13.80
   1   8   5  133.89   12.50
  -1   8  -5  154.78   11.90
   2  -8   5   60.69    6.70
   2  -8   5   68.79    6.60
  -2  -8  -5   72.09   11.60
   2  -8   5   57.09    5.80
   2   8   5   53.39    9.70
   2   8   5   61.89    9.80
  -2   8  -5   72.69   10.80
  -3  -8  -5    4.10    8.10
   3  -8   5    8.10    3.10
   3  -8   5    4.40    4.60
   3  -8   5    2.80    4.00
   3   8   5    2.10    3.40
  -3   8  -5   -1.50    6.70
   3   8   5    4.20    9.50
  -3   8  -5    0.00    1.80
   3   8   5    4.50    5.10
   4  -8   5   54.49    6.80
  -4  -8  -5   47.00    8.20
  -4  -8  -5   95.79   15.70
   4  -8   5   77.59   12.80
   4  -8   5   57.59    8.20
  -4   8  -5   66.89   11.90
   4   8   5   55.59    9.40
   5  -8   5  141.79   19.10
   5  -8   5  116.39   10.00
  -5  -8  -5  128.19   14.80
   5  -8   5  133.89   15.00
   5   8   5  125.99   16.40
   6  -8   5    2.30   10.60
  -6  -8  -5    9.10    8.80
  10  -9  -5  516.85   40.20
  10   9  -5  525.35   33.50
 -10   9   5  457.65   42.00
   9  -9  -5   43.00   13.50
  -9  -9   5   43.30    6.30
   9   9  -5   26.50   10.00
  -9   9   5   28.30   12.80
   8  -9  -5  674.63   38.90
  -8  -9   5  760.22   31.50
   8   9  -5  666.03   34.40
  -8   9   5  732.63   42.00
  -7  -9   5 1017.40   42.10
   7  -9  -5  959.70   48.30
  -7   9   5  986.60   49.90
   7   9  -5 1011.10   47.10
  -7   9   5 1008.50   46.50
   7   9  -5  937.31   43.70
   6  -9  -5   -4.10    5.40
  -6  -9   5    1.30    3.10
  -6   9   5    1.80    6.00
   6   9  -5   -2.70    3.20
   6   9  -5   -2.00    5.10
   5  -9  -5  970.80   45.80
   5  -9  -5  948.51   44.50
  -5  -9   5  962.60   41.70
   5   9  -5  991.60   41.10
   5   9  -5  971.10   41.00
  -5   9   5  967.10   44.90
   5   9  -5 1014.00   45.00
  -5   9   5 1004.30   47.40
  -4  -9   5 2239.78   91.69
   4  -9  -5 2163.98   94.79
   4  -9  -5 2358.86   94.39
  -4   9   5 2390.96   95.19
   4   9  -5 2345.47   94.19
   4   9  -5 2197.38   89.89
  -4   9   5 2253.47   96.29
   4   9  -5 2250.97   90.19
  -3  -9   5 1225.18   52.49
   3  -9  -5 1234.48   54.79
   3  -9  -5 1201.18   54.89
   3   9  -5 1279.47   54.19
  -3   9   5 1342.27   55.99
  -3   9   5 1289.27   56.79
   3   9  -5 1247.58   50.39
   3   9  -5 1223.78   50.59
  -2  -9   5   64.89    6.30
   2  -9  -5   71.19    9.40
   2  -9  -5   65.99    8.00
  -2   9   5   74.69   10.10
   2   9  -5   61.19    5.00
  -2   9   5   45.00    7.70
   2   9  -5   65.99    5.40
   2   9  -5   67.29    8.80
  -1  -9   5 2355.06   98.69
   1  -9  -5 2505.45  101.89
  -1   9   5 2314.37  102.19
  -1   9   5 2527.15  102.29
   1   9  -5 2528.65   99.29
   1   9  -5 2487.35   97.79
   0  -9   5 1847.22   80.09
   0  -9  -5 2042.80   83.89
   0   9  -5 1974.60   79.89
   0   9   5 2013.40   83.99
   0   9  -5 1940.51   80.19
   0   9   5 1992.60   83.99
  -1  -9  -5    0.60    5.50
   1  -9   5    3.00    3.10
  -1  -9  -5    2.00    4.50
   1   9   5   -1.10    4.10
   1   9   5   -7.20    5.30
  -1   9  -5    6.50    5.30
  -1   9  -5    3.30    2.90
   1   9   5    3.40    3.30
  -2  -9  -5  950.50   46.20
   2  -9   5  913.01   40.90
   2   9   5  975.50   46.60
  -2   9  -5  922.41   38.70
   2   9   5  922.91   39.20
  -2   9  -5  961.20   43.80
   3  -9   5  809.02   35.00
   3  -9   5  772.52   34.40
   3  -9   5  761.32   35.30
  -3  -9  -5  778.72   42.40
  -3  -9  -5  775.82   38.10
   3   9   5  796.42   42.70
  -3   9  -5  794.72   39.90
   3   9   5  826.42   39.70
   3   9   5  796.42   32.50
  -4  -9  -5  106.39   12.40
   4  -9   5  113.59   11.40
   4  -9   5  105.49    9.10
   4  -9   5  100.89   12.90
  -4  -9  -5   77.49   15.90
  -4   9  -5  117.29   19.90
   4   9   5   97.99   14.40
   5  -9   5  208.48   21.60
   5  -9   5  216.48   17.50
   5  -9   5  176.38   12.90
  -5  -9  -5  214.68   17.30
   5   9   5  200.38   19.70
   6  -9   5  741.73   39.00
  -6  -9  -5  669.83   37.70
   6   9   5  717.53   40.30
  10 -10  -5   41.70   17.50
  10  10  -5   13.00   11.80
 -10  10   5   -3.10   23.10
   9 -10  -5   24.30   13.60
   9  10  -5   28.80    9.80
  -9  10   5   64.09   16.30
   8 -10  -5    9.80    8.90
  -8 -10   5   11.50    4.10
  -8  10   5    4.70   10.50
   8  10  -5   16.80    6.70
  -7 -10   5   12.10    4.00
   7 -10  -5    3.70    7.80
   7  10  -5   -3.00    8.10
   7  10  -5   19.40    5.60
  -7  10   5    6.50    7.30
  -7  10   5   10.80    7.10
  -6 -10   5  502.45   23.20
   6 -10  -5  414.76   31.40
   6  10  -5  474.95   23.20
  -6  10   5  492.95   30.40
   6  10  -5  509.55   27.30
  -6  10   5  524.15   27.50
  -5 -10   5 1074.59   44.80
   5 -10  -5  989.00   48.50
   5 -10  -5 1067.59   47.70
   5  10  -5 1095.79   43.50
   5  10  -5 1036.20   43.40
   5  10  -5 1064.19   47.90
  -5  10   5 1016.80   50.19
  -5  10   5 1031.80   48.00
   4 -10  -5   36.70    6.90
  -4 -10   5   25.80    4.40
   4 -10  -5   42.30    7.50
   4  10  -5   37.30    6.80
   4  10  -5   42.60    4.80
  -4  10   5   32.20    6.90
  -4  10   5   32.50    7.70
   4  10  -5   38.50    4.10
   3 -10  -5 1219.38   50.39
  -3 -10   5 1074.69   47.20
   3 -10  -5 1086.49   49.80
   3  10  -5 1129.59   45.00
   3  10  -5 1090.19   44.70
  -3  10   5 1144.59   50.89
   3  10  -5 1123.89   49.20
  -3  10   5 1058.89   51.29
  -2 -10   5  213.58   12.40
   2 -10  -5  208.58   15.30
   2 -10  -5  200.08   14.20
   2  10  -5  208.28   13.50
  -2  10   5  214.18   16.10
   2  10  -5  217.68   10.40
  -2  10   5  217.48   16.40
   2  10  -5  214.08   10.70
  -1 -10   5   26.00    4.50
   1 -10  -5   34.50    6.50
  -1  10   5   16.60    5.60
   1  10  -5   27.40    5.10
   1  10  -5   30.30    5.10
   0 -10   5   17.20    3.80
   0 -10  -5   28.10    7.00
   0  10  -5   19.80    4.50
   0  10  -5   17.20    4.60
   0  10   5   10.80    5.20
   0  10   5   16.80    7.10
  -1 -10  -5  221.48   17.90
   1 -10   5  244.38   13.90
  -1  10  -5  246.08   13.20
   1  10   5  256.17   13.40
   1  10   5  244.68   17.60
   1  10   5  246.98   19.30
  -2 -10  -5   41.80    8.50
  -2 -10  -5   61.79   11.40
   2 -10   5   39.10    5.50
  -2  10  -5   45.10    5.20
  -2  10  -5   60.49    9.40
   2  10   5   30.40    8.00
   2  10   5   47.70    6.00
   2  10   5   44.90   10.50
   3 -10   5   16.00    4.60
  -3 -10  -5   23.40   10.70
   3 -10   5   16.60    4.70
  -3 -10  -5   21.70    6.50
   3 -10   5   14.40    4.00
   3  10   5   11.00   10.90
  -3  10  -5   28.30    9.30
   3  10   5   12.60    7.70
   3  10   5   21.70    4.10
  -4 -10  -5  195.98   25.20
   4 -10   5  158.78   12.60
  -4 -10  -5  133.99   14.30
   4 -10   5  139.99   10.60
   4 -10   5  155.68   14.20
  -4  10  -5  112.79   18.30
   4  10   5  130.49   16.50
   5 -10   5  229.98   19.40
  -5 -10  -5  231.78   19.30
   5 -10   5  240.78   15.00
   5  10   5  256.67   22.30
  -9 -11   5   70.19   10.00
   9 -11  -5   43.20   14.30
   9  11  -5   61.69   11.70
  -9  11   5   45.10   17.00
  -8 -11   5  272.47   15.30
   8 -11  -5  283.57   25.20
   8  11  -5  311.17   19.70
  -8  11   5  297.67   27.40
  -7 -11   5  378.86   18.60
   7 -11  -5  403.96   26.50
   7  11  -5  344.27   20.30
  -7  11   5  363.46   28.00
  -6 -11   5   23.70    4.70
   6 -11  -5   16.20    7.20
   6  11  -5   25.80    8.40
  -6  11   5   17.00    7.20
  -6  11   5    7.10    7.40
   6  11  -5   19.30    4.60
   5 -11  -5  795.42   39.00
  -5 -11   5  801.92   34.70
   5  11  -5  753.72   33.10
   5  11  -5  782.42   38.10
  -5  11   5  790.22   38.70
  -4 -11   5 1252.47   53.19
   4 -11  -5 1250.37   56.39
   4 -11  -5 1291.87   55.79
  -4  11   5 1260.27   56.99
  -4  11   5 1231.08   57.99
   4  11  -5 1282.87   55.89
   4  11  -5 1277.27   50.79
   4  11  -5 1265.27   50.59
  -3 -11   5  579.54   27.60
   3 -11  -5  616.14   30.20
   3 -11  -5  596.74   30.00
  -3  11   5  611.24   32.40
  -3  11   5  619.94   32.00
   3  11  -5  593.04   29.50
   2 -11  -5   28.70    7.00
  -2 -11   5   20.80    4.40
   2  11  -5   22.00    5.40
  -2  11   5   18.10    6.00
   2  11  -5   25.60    4.00
  -2  11   5   16.90    6.60
   1 -11  -5  341.87   20.40
  -1 -11   5  315.67   17.00
   1  11  -5  331.27   15.90
  -1  11   5  301.77   20.50
   1  11  -5  326.47   17.80
  -1  11   5  331.37   21.50
   0 -11   5  458.05   23.10
   0 -11  -5  501.65   27.20
   0  11  -5  460.35   22.70
   0  11  -5  464.05   22.90
   0  11   5  482.65   27.30
   0  11   5  504.65   28.20
   1 -11   5   11.50    4.10
  -1 -11  -5   21.30    7.70
   1  11   5   26.60    8.30
  -1  11  -5   20.70    5.60
   1  11   5    6.60    6.80
  -1  11  -5   16.00    4.10
   2 -11   5  339.57   18.50
  -2 -11  -5  355.06   24.20
  -2 -11  -5  323.47   21.40
   2  11   5  355.96   16.80
   2  11   5  343.87   22.90
  -2  11  -5  353.06   15.70
   2  11   5  362.86   25.80
  -2  11  -5  335.37   21.20
  -3 -11  -5  364.66   22.50
   3 -11   5  337.77   19.40
  -3 -11  -5  356.76   27.80
   3  11   5  403.46   25.30
  -3  11  -5  394.26   25.50
   4 -11   5  217.78   13.70
  -4 -11  -5  207.08   25.90
   4 -11   5  191.88   13.20
  -4 -11  -5  208.28   17.70
   4  11   5  192.48   20.20
   5 -11   5   57.59    8.50
  -5 -11  -5   57.89   12.50
   5  11   5   31.60   11.60
   9 -12  -5  667.53   43.50
   9  12  -5  725.43   37.40
  -9  12   5  646.14   46.20
   8 -12  -5  312.57   27.40
  -8 -12   5  334.67   16.80
   8  12  -5  321.47   20.90
  -8  12   5  315.17   30.40
   7 -12  -5  109.79   17.40
  -7 -12   5  102.89    8.60
   7  12  -5   80.29   11.00
  -7  12   5  151.18   19.50
   6 -12  -5 1052.89   51.69
  -6 -12   5 1174.28   46.50
  -6  12   5 1092.09   54.19
   6  12  -5 1021.80   45.80
  -6  12   5 1105.99   51.39
   6  12  -5 1074.39   50.99
  -5 -12   5 1159.18   48.60
   5 -12  -5 1131.19   55.89
   5  12  -5 1173.68   52.49
  -5  12   5 1109.79   52.69
  -5  12   5 1166.28   55.09
   5  12  -5 1112.19   46.70
   4 -12  -5   -8.10    4.40
   4 -12  -5   12.80    5.80
  -4 -12   5    0.90    2.80
   4  12  -5   -1.10    2.50
   4  12  -5    4.40    6.30
  -4  12   5   -1.60    6.70
  -4  12   5    0.10    6.90
   3 -12  -5  865.01   38.90
   3 -12  -5  769.52   38.20
  -3 -12   5  818.42   36.30
  -3  12   5  827.32   40.70
   3  12  -5  813.12   38.30
  -3  12   5  816.02   41.20
  -2 -12   5  741.63   34.80
   2 -12  -5  777.22   37.40
   2  12  -5  839.12   36.70
  -2  12   5  743.33   39.40
  -2  12   5  807.12   39.50
   2  12  -5  790.22   32.20
   1 -12  -5  126.79   13.90
  -1 -12   5  130.89    9.90
  -1  12   5  161.58   15.20
   1  12  -5  134.89    8.90
  -1  12   5  146.59   15.50
   1  12  -5  138.99   11.20
   0 -12  -5  600.14   30.50
   0 -12   5  523.95   26.10
   0  12   5  535.25   30.50
   0  12  -5  513.95   25.60
   0  12  -5  554.94   26.10
   0  12   5  590.34   31.90
  -1 -12  -5 1896.31   78.89
   1 -12   5 1687.13   74.49
  -1  12  -5 1725.23   74.89
   1  12   5 1815.12   80.19
  -1  12  -5 1834.52   72.89
   1  12   5 1842.52   79.29
  -2 -12  -5  294.17   19.10
   2 -12   5  257.17   15.50
  -2 -12  -5  261.87   21.90
   2  12   5  269.77   14.30
   2  12   5  266.27   24.70
  -2  12  -5  269.97   12.70
   2  12   5  248.88   20.00
  -2  12  -5  262.57   19.00
  -3 -12  -5  145.39   20.60
   3 -12   5  179.48   12.70
  -3 -12  -5  197.48   16.60
  -3  12  -5  223.48   19.70
   3  12   5  186.28   18.50
  -4 -12  -5  810.22   46.40
  -4 -12  -5  790.22   40.60
   4 -12   5  788.12   37.20
   4  12   5  833.12   43.20
  -5 -12  -5  749.82   40.00
   5  12   5  728.33   42.10
   9 -13  -5   50.29   16.10
   9  13  -5   18.60   10.10
  -9  13   5    5.00   18.50
  -8 -13   5   38.50    5.70
   8 -13  -5   15.40   12.10
   8  13  -5   30.60    8.40
  -8  13   5    6.10   12.70
  -7 -13   5    6.50    4.20
   7 -13  -5   25.40   10.20
  -7  13   5   -1.50    9.60
   7  13  -5    2.10    5.00
  -6 -13   5    4.30    4.00
   6 -13  -5   18.00    8.00
   6  13  -5   -1.40    4.00
  -6  13   5    1.60    8.00
  -5 -13   5   82.99    7.80
   5 -13  -5   56.09   10.00
   5  13  -5   50.69    6.20
   5  13  -5   78.09   13.10
  -5  13   5   96.49   15.50
  -5  13   5   75.59   12.20
  -4 -13   5    7.10    4.00
   4 -13  -5    4.10    6.40
   4 -13  -5   13.40    6.10
  -4  13   5   13.30    7.50
  -4  13   5    1.60    7.40
   4  13  -5    9.00    6.30
   3 -13  -5   -4.00    4.50
  -3 -13   5    3.00    3.30
   3 -13  -5    6.50    5.40
   3  13  -5   -7.80    5.50
  -3  13   5    5.40    8.00
  -2 -13   5    5.60    3.30
   2 -13  -5   -5.20    5.20
  -2  13   5    6.10    7.40
  -2  13   5    5.10    6.20
   2  13  -5   -0.10    5.30
   2  13  -5    3.20    2.50
  -1 -13   5    6.20    3.10
   1 -13  -5    6.00    7.50
   1 -13  -5    1.80    6.00
  -1  13   5    1.30    7.80
   1  13  -5    7.50    3.40
  -1  13   5    1.10    7.60
   1  13  -5    1.60    5.00
   0 -13   5   12.90    4.30
   0 -13  -5   -4.30    5.70
   0 -13  -5   25.50    7.40
   0  13  -5   13.80    4.80
   0  13   5   -2.90    7.80
   0  13   5   -8.80    5.70
   0  13  -5    4.20    3.90
  -1 -13  -5   21.60    8.30
   1 -13   5   19.00    4.80
  -1 -13  -5   24.40    9.20
   1  13   5   23.70    7.70
   1  13   5   33.80   11.10
  -1  13  -5   35.50    6.80
  -1  13  -5   26.30    5.00
   2 -13   5    6.10    3.90
  -2 -13  -5   31.60   10.30
  -2 -13  -5    2.70    6.30
   2  13   5   22.10    5.20
  -2  13  -5   14.70    7.70
   2  13   5   12.90    8.30
  -3 -13  -5   14.70   12.20
  -3 -13  -5   -0.30    7.00
   3 -13   5   12.50    5.00
  -3  13  -5   24.40    9.80
  -4 -13  -5   76.59   17.70
  -4 -13  -5  121.79   16.40
   4 -13   5   88.89    9.70
   4  13   5   82.29   14.00
  -5 -13  -5    8.10   11.30
   5  13   5   -2.30   12.00
  -8 -14   5  328.37   16.50
   8 -14  -5  334.97   29.20
  -8  14   5  338.57   32.30
   8  14  -5  277.57   21.10
  -7 -14   5  169.38   10.80
   7 -14  -5  172.88   21.80
   7  14  -5  159.28   13.20
  -7  14   5  145.89   23.80
  -6 -14   5  497.65   23.00
   6 -14  -5  482.35   29.40
  -6  14   5  495.65   32.90
   6  14  -5  432.76   22.30
  -5 -14   5  372.46   18.60
   5 -14  -5  346.87   23.10
  -5  14   5  425.46   32.90
   5  14  -5  317.57   16.30
  -5  14   5  404.96   27.50
   5  14  -5  315.27   23.60
  -4 -14   5   96.89    8.40
   4 -14  -5   95.79   12.20
   4  14  -5   82.09   12.70
  -4  14   5   82.49   14.70
  -4  14   5   85.39   13.90
   3 -14  -5  410.96   23.30
  -3 -14   5  392.46   20.40
  -3  14   5  389.06   26.80
   3  14  -5  404.76   23.70
  -3  14   5  379.36   25.80
   2 -14  -5 1308.07   57.99
  -2 -14   5 1248.38   55.89
  -2  14   5 1313.67   61.69
   2  14  -5 1321.17   57.79
  -2  14   5 1403.06   61.89
   1 -14  -5   89.59   12.30
  -1 -14   5   80.39    8.10
   1  14  -5   80.09    7.40
  -1  14   5   91.89   13.60
  -1  14   5   80.79   14.10
   1  14  -5   87.39   10.50
   0 -14  -5  890.71   40.20
   0 -14   5  766.82   36.20
   0  14  -5  737.43   35.00
   0  14   5  785.42   41.10
   0  14   5  813.52   42.80
   0  14  -5  769.72   40.30
  -1 -14  -5 1152.18   53.09
  -1 -14  -5 1232.58   53.79
   1 -14   5 1051.49   49.70
  -1  14  -5 1211.18   48.10
  -1  14  -5 1085.29   49.70
   1  14   5 1141.49   54.89
   1  14   5 1079.09   56.39
  -2 -14  -5  211.58   22.20
  -2 -14  -5  218.58   18.10
   2 -14   5  211.28   14.30
   2  14   5  200.58   20.10
   2  14   5  237.78   13.50
  -2  14  -5  238.58   18.90
  -3 -14  -5   30.50    9.50
   3 -14   5   25.40    5.50
  -3 -14  -5   45.50   13.40
   3  14   5   32.80   10.50
  -3  14  -5   44.00   11.90
  -4 -14  -5  636.54   37.20
   4  14   5  681.73   39.20
   8 -15  -5   64.79   17.20
  -8  15   5   52.49   18.70
   8  15  -5   40.80    9.40
  -7 -15   5  218.48   12.50
   7  15  -5  193.58   15.20
  -7  15   5  180.78   26.70
   6 -15  -5   87.79   13.00
  -6 -15   5   73.39    7.70
   6  15  -5   88.49    9.00
  -6  15   5   83.59   15.80
   5 -15  -5  371.26   23.90
  -5 -15   5  375.66   19.00
   5  15  -5  343.57   16.80
  -5  15   5  388.06   28.40
  -4 -15   5 1346.17   58.99
  -4  15   5 1418.56   66.49
   4  15  -5 1286.97   62.49
  -4  15   5 1608.74   74.69
   3 -15  -5  266.97   18.90
  -3 -15   5  267.67   15.30
   3  15  -5  247.18   19.10
  -3  15   5  231.48   23.70
  -3  15   5  280.47   22.50
   2 -15  -5  155.48   14.30
  -2 -15   5  126.79   10.50
   2  15  -5  156.18   14.40
  -2  15   5  146.39   20.50
  -2  15   5  133.59   17.00
   1 -15  -5  320.37   20.50
  -1 -15   5  297.37   17.20
  -1  15   5  312.97   23.70
   1  15  -5  298.07   19.00
   1  15  -5  287.37   15.20
  -1  15   5  321.37   25.70
   0 -15  -5  119.79   14.40
   0 -15  -5  100.99   13.80
   0 -15   5   87.09    9.00
   0  15  -5  114.59   10.20
   0  15   5   89.59   15.30
   0  15   5   88.89   15.40
   0  15  -5  117.69   11.40
  -1 -15  -5    1.70    6.70
   1 -15   5    1.20    2.90
  -1 -15  -5   -1.70    8.80
  -1  15  -5    7.70    6.50
  -1  15  -5    2.70    5.50
  -2 -15  -5   98.59   14.90
   2 -15   5  113.09   10.50
  -2 -15  -5  124.09   15.70
   2  15   5  122.49   17.50
  -2  15  -5  125.79   16.80
   2  15   5  136.89   10.80
  -3 -15  -5  307.17   23.40
  -3 -15  -5  359.46   31.00
   3 -15   5  281.07   19.20
  -3  15  -5  408.76   40.10
   3  15   5  352.66   27.20
  -4 -15  -5   66.89   14.60
   4 -15   5   56.09    8.50
   4  15   5   45.00   14.20
   7 -16  -5   25.00   12.40
  -7  16   5   46.30   15.30
  -6 -16   5  138.39   10.00
   6 -16  -5  109.29   18.70
   6  16  -5  122.49   10.50
  -6  16   5  178.48   25.40
  -5 -16   5   49.30    7.20
   5 -16  -5   83.39   13.60
  -5  16   5   53.99   13.20
   5  16  -5   44.10    6.40
  -4 -16   5   36.60    6.50
  -4  16   5   42.30   11.60
   4  16  -5   31.50   11.50
  -3 -16   5  248.78   15.10
  -3  16   5  242.68   22.70
   3  16  -5  270.07   20.50
  -2 -16   5  316.77   18.90
   2 -16  -5  420.86   22.80
   2  16  -5  345.57   22.10
  -2  16   5  325.77   26.00
   1 -16  -5  188.38   18.50
   1 -16  -5  257.87   18.40
  -1 -16   5  208.88   14.20
   1  16  -5  247.78   17.40
  -1  16   5  266.47   21.70
   1  16  -5  197.28   12.60
   0 -16  -5   14.50    8.20
   0 -16   5   14.50    4.80
   0 -16  -5   23.00    9.00
   0  16  -5   18.00    6.30
   0  16   5   18.00   10.00
   0  16  -5    4.50    6.80
  -1 -16  -5  267.97   20.40
  -1 -16  -5  277.57   22.20
   1 -16   5  247.18   16.40
  -1  16  -5  250.87   18.50
   1  16   5  251.37   23.60
   2 -16   5   88.19    9.50
  -2 -16  -5   81.69   14.60
  -2 -16  -5  134.39   21.50
  -2  16  -5   81.39   13.30
   2  16   5  111.09   10.70
   2  16   5   86.49   14.50
   3 -16   5   26.40    6.00
  -3 -16  -5   29.20   11.70
   3  16   5   22.60   12.90
  -7 -17   5  754.12   32.20
   7 -17  -5  719.83   41.80
  -7  17   5  601.94   48.30
   6 -17  -5   12.00   11.10
  -6 -17   5   26.60    5.70
   6 -17  -5   26.50   11.50
  -6  17   5   33.50   16.20
  -5 -17   5  348.87   18.60
   5 -17  -5  337.67   23.60
  -5  17   5  359.26   30.00
  -4 -17   5  801.92   37.60
  -4  17   5  868.41   47.30
  -3 -17   5  349.96   19.10
  -3  17   5  314.67   27.10
   3  17  -5  374.56   25.10
   2 -17  -5  108.19   12.70
   2 -17  -5   90.99   15.50
  -2 -17   5  113.99   10.00
  -2  17   5   90.79   14.60
   2  17  -5  107.29   15.90
  -1 -17   5 1181.08   53.79
   1 -17  -5 1310.07   58.29
   1 -17  -5 1314.67   55.29
  -1  17   5 1279.17   60.89
   1  17  -5 1267.07   55.49
   1  17  -5 1035.70   50.29
   0 -17   5  775.52   36.70
   0 -17  -5  826.92   38.70
   0 -17  -5  838.02   40.80
   0  17   5  786.92   43.20
   0  17  -5  646.94   34.80
   1 -17   5   11.20    4.50
  -1 -17  -5    9.90    8.70
  -1 -17  -5    0.10   12.50
   1  17   5   -2.00   10.00
  -1  17  -5   25.20    8.50
  -2 -17  -5  360.56   25.50
   2 -17   5  335.87   20.60
   2  17   5  377.56   29.00
  -2  17  -5  310.67   26.80
  -3 -17  -5  663.93   46.50
   3 -17   5  522.65   29.60
   3  17   5  602.14   39.30
  -6 -18   5  110.59    9.60
   6 -18  -5   96.99   15.00
   6 -18  -5   94.89   15.70
  -6  18   5  106.19   19.30
  -5 -18   5   68.99    8.40
   5 -18  -5   56.89   12.90
   4 -18  -5   -5.10   10.20
  -4 -18   5   -0.90    4.00
  -4  18   5  -17.60   11.20
  -3 -18   5   52.79    8.10
   3 -18  -5   75.19   12.80
  -3  18   5   71.69   15.70
   2 -18  -5  136.99   17.50
  -2 -18   5  116.39   10.70
   2  18  -5  109.59   15.80
  -2  18   5  134.09   21.30
   1 -18  -5  -15.40    9.90
  -1 -18   5    6.10    4.20
   1 -18  -5  -13.50    8.00
  -1  18   5   -3.90   10.60
   1  18  -5    5.20   10.70
   0 -18   5   31.40    5.90
   0 -18  -5   33.70   11.40
   0  18  -5   17.80   10.70
   0  18   5   26.80   12.20
   1 -18   5   33.30    6.80
  -1 -18  -5   33.50   10.70
   1  18   5   41.80   13.40
   2 -18   5   27.40    7.40
  -2 -18  -5   17.60   11.10
   2  18   5   18.80   13.10
  -5 -19   5   20.70    5.70
   5 -19  -5   39.70   12.10
  -5  19   5   12.60   16.00
  -4 -19   5   63.19    8.90
   4 -19  -5  112.69   18.20
  -4  19   5   62.79   16.60
  -3 -19   5  184.88   13.70
   3 -19  -5  209.38   21.20
  -3  19   5  196.98   26.40
   2 -19  -5  -12.10    9.40
  -2 -19   5   -0.50    4.10
   2  19  -5   -2.20   16.60
   1 -19  -5  581.54   34.60
  -1 -19   5  573.44   35.70
  -1  19   5  595.44   38.60
   0 -19  -5  331.17   25.30
   0 -19   5  315.67   19.10
   0  19   5  299.57   30.10
   1 -19   5   13.50    5.60
  -1 -19  -5   17.00   12.10
   1  19   5   11.70   14.10
  -4 -20   5   10.60    5.40
   4 -20  -5   29.00   12.60
  -3 -20   5  431.46   26.00
   3 -20  -5  439.96   29.90
  -3  20   5  415.76   36.20
   2 -20  -5  393.46   28.80
  -2 -20   5  362.96   22.70
  -2  20   5  494.55   35.60
  -1 -20   5   25.50    6.10
   1 -20  -5   23.80   12.30
  -1  20   5    7.40   14.70
   0 -20  -5   65.19   15.60
   0 -20   5  108.19   11.10
 -11   0   6  724.63   35.90
  11   0  -6  790.82   48.20
 -11   0   6  763.42   45.80
 -10   0   6 1023.60   51.09
 -10   0   6 1015.10   45.50
  10   0  -6 1009.40   52.39
 -10   0   6  963.30   47.40
  -9   0   6  139.39   12.10
   9   0  -6  107.39   17.40
   9   0  -6  174.98   17.20
  -9   0   6  154.58   17.30
  -9   0   6  176.08   13.90
   8   0  -6  383.66   29.70
  -8   0   6  409.66   24.50
  -8   0   6  413.46   21.50
  -8   0   6  416.46   21.80
  -7   0   6 1724.53   70.59
  -7   0   6 1623.24   71.79
   7   0  -6 1765.62   71.79
   7   0  -6 1587.24   72.39
  -6   0   6  764.42   34.60
  -6   0   6  759.12   33.10
   6   0  -6  764.02   36.20
  -6   0   6  703.43   35.10
   6   0  -6  777.42   35.40
  -5   0   6   14.70    4.70
  -5   0   6   13.50    3.30
   5   0  -6   15.90    4.20
   5   0  -6   18.00    4.90
  -5   0   6   14.90    4.80
  -4   0   6 1973.70   81.69
  -4   0   6 1931.51   81.89
  -4   0   6 2049.89   80.69
   4   0  -6 1998.10   83.19
   4   0  -6 2023.60   82.89
   3   0  -6 4036.40  163.18
  -3   0   6 3945.81  162.28
  -3   0   6 4196.18  161.78
  -3   0   6 4039.30  162.08
   3   0  -6 4252.67  163.68
  -2   0   6  750.92   33.90
  -2   0   6  750.42   33.40
   2   0  -6  765.12   35.60
  -2   0   6  787.62   33.90
   2   0  -6  736.43   34.30
  -1   0   6  597.04   27.60
  -1   0   6  592.64   27.20
  -1   0   6  585.44   26.40
   1   0  -6  526.45   32.90
   0   0   6 2237.98   93.59
   0   0  -6 2358.16   96.39
   0   0   6 2388.06   94.49
   0   0   6 2212.68   92.29
  -1   0  -6  628.94   32.80
   1   0   6  604.14   30.40
   1   0   6  606.24   27.40
   1   0   6  621.34   29.40
  -2   0  -6  433.56   27.00
   2   0   6  452.85   23.30
   2   0   6  449.26   25.40
   2   0   6  436.06   20.70
   3   0   6 1211.28   51.19
   3   0   6 1317.07   58.39
   3   0   6 1243.38   56.99
  -3   0  -6 1199.18   59.29
   4   0   6  347.87   21.30
  -4   0  -6  318.17   18.20
   4   0   6  343.77   27.80
   4   0   6  317.57   16.10
   5   0   6  116.19    9.20
   5   0   6  127.59   16.20
  -5   0  -6  108.59   11.00
   6   0   6 1050.19   49.60
  -6   0  -6  888.11   43.70
 -11  -1   6   60.19   14.80
 -11  -1   6   44.40    7.60
  11  -1  -6    8.80   15.50
 -11   1   6   54.99   15.20
  11   1  -6   42.90   16.30
 -11   1   6   38.20    8.40
  10  -1  -6    0.90   11.00
  10  -1  -6    5.60   12.00
 -10  -1   6   13.00    9.50
 -10  -1   6    7.80   10.20
 -10  -1   6    6.70    5.30
 -10   1   6   11.30    5.50
 -10   1   6    3.70    9.20
 -10   1   6   23.40   11.50
  10   1  -6   30.70   11.10
   9  -1  -6  149.69   19.10
  -9  -1   6  169.18   13.90
  -9  -1   6  138.49   16.00
  -9  -1   6  153.48   12.30
   9  -1  -6  135.79   15.80
  -9   1   6  144.69   12.50
   9   1  -6  161.98   18.20
  -9   1   6  157.58   14.50
  -9   1   6  162.58   17.90
   9   1  -6  142.89   16.90
   8  -1  -6  122.89   14.40
  -8  -1   6  115.29   10.30
  -8  -1   6  100.59   10.10
  -8  -1   6  123.29   13.10
  -8   1   6  104.69   14.70
  -8   1   6  109.69   10.50
   8   1  -6  108.09   15.50
  -8   1   6  119.79   11.30
   8   1  -6  120.09   13.20
  -7  -1   6    6.00    4.80
  -7  -1   6    0.40    3.60
   7  -1  -6    8.50    4.90
  -7  -1   6    2.70    3.40
   7  -1  -6   11.50    6.00
  -7   1   6    7.10    3.80
   7   1  -6    9.40    4.60
  -7   1   6   17.00    6.10
   7   1  -6   12.80    5.20
  -7   1   6    2.60    3.90
  -6  -1   6   70.39    6.50
  -6  -1   6   70.79    8.50
   6  -1  -6   84.99    9.80
  -6  -1   6   74.29    8.10
   6  -1  -6   70.99    9.40
  -6   1   6   61.09    7.30
   6   1  -6   71.69    9.20
  -6   1   6   90.09    8.00
   6   1  -6   76.39    9.40
  -6   1   6   69.29    9.30
   5  -1  -6  319.17   18.60
   5  -1  -6  317.17   18.40
  -5  -1   6  318.47   17.00
  -5  -1   6  306.27   16.90
  -5  -1   6  328.87   15.40
  -5   1   6  304.07   18.00
   5   1  -6  309.17   17.90
   5   1  -6  298.97   17.90
  -5   1   6  324.67   17.10
  -5   1   6  299.27   16.10
   4  -1  -6  354.16   23.50
  -4  -1   6  429.36   20.70
  -4  -1   6  417.46   20.60
   4  -1  -6  428.66   22.20
  -4  -1   6  447.96   19.50
   4   1  -6  406.86   21.40
  -4   1   6  401.46   20.70
  -4   1   6  431.86   20.50
   4   1  -6  435.36   21.90
  -4   1   6  413.86   21.60
  -3  -1   6   82.69    6.70
   3  -1  -6   83.69    9.40
  -3  -1   6   85.29    7.30
  -3  -1   6   89.19    7.30
   3  -1  -6   86.79    8.40
  -3   1   6   73.29    7.20
  -3   1   6   89.19    7.80
   3   1  -6   79.79    8.10
  -3   1   6   74.99    8.10
   3   1  -6   81.29    8.70
   2  -1  -6  816.22   43.20
  -2  -1   6  921.51   39.00
  -2  -1   6  943.21   39.10
  -2  -1   6  905.91   39.10
   2  -1  -6  951.50   40.60
   2   1  -6  904.21   40.00
  -2   1   6  857.81   38.90
  -2   1   6  875.01   40.00
  -2   1   6  952.60   40.20
   2   1  -6  917.71   40.90
  -1  -1   6  100.29    8.50
  -1  -1   6   99.29    8.10
   1  -1  -6   83.09   10.10
  -1  -1   6   98.49    7.40
  -1   1   6   89.59    7.40
   1   1  -6  105.89   10.70
  -1   1   6  102.29    9.30
  -1   1   6  100.09    8.80
   0  -1   6   14.00    3.80
   0  -1   6    6.60    4.00
   0  -1  -6    6.20    5.40
   0  -1   6   13.60    3.30
   0   1   6    8.10    3.80
   0   1   6    3.50    4.30
   0   1   6    7.80    3.20
   0   1  -6   11.00    5.40
   1  -1   6   21.10    4.10
  -1  -1  -6   19.00    6.60
   1  -1   6   15.80    4.40
  -1   1  -6    7.20    5.50
   1   1   6   13.90    3.50
   1   1   6   25.50    5.90
   1   1   6   13.20    4.20
   2  -1   6   84.49   12.00
   2  -1   6   90.69    7.20
  -2  -1  -6  115.49   15.60
   2  -1   6   79.39    9.20
   2   1   6   87.39    7.10
   2   1   6   72.99    9.60
  -2   1  -6  106.49   13.90
   2   1   6   92.99   12.60
   3  -1   6   25.50    6.30
   3  -1   6   26.60    4.60
  -3  -1  -6   26.40    9.80
   3  -1   6   16.10    8.20
  -3   1  -6   29.60   10.00
   3   1   6   16.90    6.70
   3   1   6   27.20    9.00
   3   1   6   29.70    4.20
   4  -1   6  108.89   15.50
  -4  -1  -6   82.09    9.40
   4  -1   6   63.39   11.40
   4  -1   6   84.69    7.30
   4   1   6  113.79   13.10
  -4   1  -6   84.29    8.60
   4   1   6   80.49    7.10
   4   1   6   77.99   14.80
   5  -1   6  284.37   20.90
   5  -1   6  235.68   13.80
  -5  -1  -6  230.28   16.30
   5   1   6  249.18   20.80
   5   1   6  248.98   13.50
  -5   1  -6  265.77   15.40
   6  -1   6   98.79   15.00
  -6  -1  -6  102.59   13.40
   6   1   6   77.09   14.00
  11  -2  -6  290.17   31.90
 -11  -2   6  224.88   26.00
 -11  -2   6  218.78   15.60
 -11   2   6  185.68   28.30
  11   2  -6  248.18   31.30
 -11   2   6  226.48   16.30
 -10  -2   6  341.87   23.80
  10  -2  -6  375.66   29.50
  10  -2  -6  383.46   26.30
 -10  -2   6  369.56   25.90
 -10  -2   6  373.16   20.00
 -10   2   6  359.36   21.00
  10   2  -6  365.06   28.80
 -10   2   6  283.47   27.50
 -10   2   6  341.67   24.90
  -9  -2   6  278.97   20.70
  -9  -2   6  320.67   19.20
  -9  -2   6  296.77   17.50
   9  -2  -6  327.47   21.30
   9  -2  -6  338.77   24.50
   9   2  -6  314.97   22.20
  -9   2   6  306.67   24.10
   9   2  -6  298.07   23.50
  -9   2   6  269.67   19.80
   8  -2  -6   99.79   13.90
  -8  -2   6  109.29    9.50
  -8  -2   6   82.69   11.70
  -8  -2   6   90.49    9.20
  -8   2   6  102.29   11.40
   8   2  -6  100.39   13.60
   8   2  -6   76.69   12.40
  -8   2   6   94.49   14.50
  -7  -2   6 1076.49   47.10
   7  -2  -6 1047.00   49.80
   7  -2  -6 1013.70   48.40
  -7  -2   6 1026.10   46.40
  -7  -2   6 1018.00   44.70
   7   2  -6 1123.39   48.00
  -7   2   6 1126.49   50.19
   7   2  -6 1032.90   48.60
  -7   2   6 1152.68   46.80
  -6  -2   6  247.98   13.10
  -6  -2   6  263.47   15.10
   6  -2  -6  282.17   17.20
  -6  -2   6  256.97   15.00
   6  -2  -6  253.47   17.40
   6   2  -6  263.47   16.00
  -6   2   6  266.27   15.20
   6   2  -6  260.67   16.40
  -6   2   6  246.88   17.10
  -5  -2   6   43.10    4.50
   5  -2  -6   52.09    8.40
  -5  -2   6   50.69    6.10
   5  -2  -6   40.60    6.70
  -5  -2   6   42.40    5.80
   5   2  -6   51.29   10.00
  -5   2   6   43.50    6.10
   5   2  -6   49.00    6.90
  -5   2   6   45.00    7.10
  -4  -2   6  631.64   29.50
   4  -2  -6  620.84   31.10
   4  -2  -6  643.74   31.30
  -4  -2   6  674.23   28.70
  -4  -2   6  663.43   27.50
  -4   2   6  649.64   29.90
   4   2  -6  660.13   30.40
  -4   2   6  649.14   29.70
   4   2  -6  662.93   30.30
  -4   2   6  602.04   30.70
  -3  -2   6 1278.27   52.19
  -3  -2   6 1279.47   53.39
   3  -2  -6 1217.68   56.29
  -3  -2   6 1329.37   51.69
   3  -2  -6 1264.07   54.89
   3   2  -6 1265.67   53.89
  -3   2   6 1262.87   53.89
  -3   2   6 1274.17   54.79
   3   2  -6 1279.67   54.29
  -3   2   6 1219.68   53.29
  -2  -2   6    7.50    2.90
   2  -2  -6   16.00    4.90
  -2  -2   6   12.10    3.20
  -2  -2   6   11.40    3.10
   2  -2  -6   14.80    4.10
   2   2  -6    9.60    4.30
  -2   2   6   11.80    4.00
   2   2  -6   10.10    3.10
  -2   2   6   11.20    4.10
  -2   2   6    8.30    3.00
  -1  -2   6  947.01   41.50
  -1  -2   6  956.70   41.90
  -1  -2   6  999.80   42.10
   1  -2  -6  993.40   45.20
   1   2  -6 1014.10   44.30
  -1   2   6  987.70   41.90
  -1   2   6  963.80   43.80
  -1   2   6 1001.40   43.80
   0  -2  -6 2085.99   85.39
   0  -2   6 1927.11   80.99
   0  -2   6 2095.19   82.19
   0  -2   6 1936.01   80.89
   0   2   6 1945.21   80.69
   0   2   6 1975.70   83.59
   0   2  -6 2001.90   84.19
   0   2   6 2030.00   83.29
   1  -2   6  684.13   32.60
  -1  -2  -6  693.23   35.70
   1  -2   6  692.03   31.30
   1  -2   6  654.43   30.30
  -1   2  -6  700.43   34.90
   1   2   6  699.13   30.30
   1   2   6  714.83   34.20
   1   2   6  673.03   32.90
  -2  -2  -6  295.87   22.20
   2  -2   6  332.07   19.80
   2  -2   6  306.77   17.30
   2  -2   6  304.67   15.70
   2   2   6  298.27   15.10
   2   2   6  306.57   20.70
  -2   2  -6  299.97   21.60
   2   2   6  296.47   18.80
   3  -2   6  827.82   36.70
   3  -2   6  735.83   33.50
   3  -2   6  748.83   38.80
  -3  -2  -6  766.62   42.70
   3   2   6  784.72   33.00
   3   2   6  837.32   41.30
  -3   2  -6  713.13   41.00
   3   2   6  778.72   37.60
   4  -2   6  204.78   16.40
   4  -2   6  177.68   10.90
  -4  -2  -6  186.08   13.20
   4  -2   6  184.18   21.70
   4   2   6  197.08   10.70
   4   2   6  182.28   16.20
   4   2   6  186.28   24.70
  -4   2  -6  180.98   12.00
  -5  -2  -6    3.90    6.10
   5  -2   6    1.30    7.50
   5  -2   6    8.40    4.40
   5   2   6   14.40    4.80
  -5   2  -6    1.90    5.00
   5   2   6    0.10    8.20
  -6  -2  -6  309.27   20.40
   6  -2   6  258.37   24.80
   6   2   6  272.17   25.70
  11  -3  -6  484.15   47.40
 -11  -3   6  344.47   20.00
 -11   3   6  275.97   34.10
  11   3  -6  388.06   35.50
 -11   3   6  351.76   21.60
 -10  -3   6    9.50    9.00
  10  -3  -6   19.80   11.60
  10  -3  -6   22.70   10.80
 -10   3   6   -2.20   11.20
  10   3  -6   16.80   10.50
  -9  -3   6  542.75   26.20
  -9  -3   6  532.25   26.00
  -9  -3   6  495.75   27.70
   9  -3  -6  481.65   32.20
   9   3  -6  502.45   30.30
  -9   3   6  527.55   28.60
   9   3  -6  515.05   31.30
  -9   3   6  521.35   32.90
  -8  -3   6  906.91   41.60
   8  -3  -6  884.71   45.60
  -8  -3   6  953.80   39.80
  -8  -3   6  902.61   40.90
   8   3  -6  958.80   44.10
   8   3  -6  907.71   44.20
  -8   3   6  921.51   41.80
  -8   3   6  894.51   49.40
  -7  -3   6    9.80    4.20
   7  -3  -6    0.30    5.70
  -7  -3   6   13.20    4.20
  -7  -3   6   10.80    3.40
   7  -3  -6   19.30    6.50
   7   3  -6   13.90    5.50
  -7   3   6    5.90    6.00
  -7   3   6   18.50    5.50
   7   3  -6    9.90    5.80
   6  -3  -6  902.61   41.60
   6  -3  -6  888.01   40.60
  -6  -3   6  856.51   36.00
  -6  -3   6  835.12   38.40
  -6  -3   6  838.02   37.20
  -6   3   6  891.91   41.70
   6   3  -6  844.72   39.60
   6   3  -6  908.91   39.40
  -6   3   6  857.31   38.80
  -5  -3   6 1276.37   51.29
   5  -3  -6 1250.37   56.39
   5  -3  -6 1409.16   56.39
  -5  -3   6 1247.88   52.29
  -5  -3   6 1262.97   54.19
   5   3  -6 1251.37   54.49
  -5   3   6 1289.97   54.89
  -5   3   6 1269.67   56.69
   5   3  -6 1267.37   54.79
  -4  -3   6  381.06   17.30
  -4  -3   6  375.06   16.40
   4  -3  -6  394.86   21.50
  -4  -3   6  367.76   19.00
   4  -3  -6  401.56   21.40
   4   3  -6  383.86   19.80
   4   3  -6  380.96   19.90
  -4   3   6  385.66   20.10
  -4   3   6  361.36   21.10
  -3  -3   6  238.38   12.10
   3  -3  -6  256.37   15.70
  -3  -3   6  261.07   11.80
   3  -3  -6  261.07   16.50
  -3  -3   6  251.27   13.90
  -3   3   6  253.07   14.30
   3   3  -6  267.97   14.60
   3   3  -6  256.07   15.00
  -3   3   6  245.98   15.20
  -3   3   6  248.08   15.80
  -2  -3   6 2132.29   83.89
   2  -3  -6 2130.39   88.39
  -2  -3   6 2040.20   83.79
  -2  -3   6 2020.40   85.49
   2  -3  -6 2184.68   87.49
  -2   3   6 2037.30   87.49
   2   3  -6 2184.78   86.99
   2   3  -6 2101.59   86.09
  -2   3   6 2229.58   87.59
  -2   3   6 2069.49   85.69
  -1  -3   6 1190.88   50.39
  -1  -3   6 1255.67   51.09
   1  -3  -6 1285.97   55.49
  -1  -3   6 1157.88   51.49
   1   3  -6 1294.97   53.89
  -1   3   6 1246.18   53.89
  -1   3   6 1212.78   51.59
   0  -3   6   99.89    7.40
   0  -3   6   88.99    8.20
   0  -3  -6  104.09   11.90
   0  -3   6   86.89    7.40
   0   3  -6   81.99    9.90
   0   3   6   87.69   10.30
   0   3   6   91.99    9.70
   0   3   6  102.19    7.60
   1  -3   6 1955.20   75.99
  -1  -3  -6 1890.31   79.69
   1  -3   6 1807.32   74.19
   1  -3   6 1728.83   74.19
  -1   3  -6 1736.33   77.89
   1   3   6 1800.62   73.59
   1   3   6 1824.02   76.99
   1   3   6 1817.22   77.89
   2  -3   6 1373.96   59.49
   2  -3   6 1412.76   58.49
  -2  -3  -6 1334.87   64.79
   2  -3   6 1417.56   61.39
  -2   3  -6 1453.35   64.29
   2   3   6 1474.15   63.99
   2   3   6 1436.36   61.99
   2   3   6 1407.86   57.69
   3  -3   6   47.50    7.70
   3  -3   6   41.30    9.40
  -3  -3  -6   37.60   11.70
   3  -3   6   53.49    6.40
   3   3   6   52.19    5.90
  -3   3  -6   52.89   12.40
   3   3   6   46.90    8.60
   3   3   6   37.40   10.60
   4  -3   6  433.46   28.50
  -4  -3  -6  413.16   22.50
   4  -3   6  430.76   24.00
   4  -3   6  405.56   20.00
   4   3   6  418.46   18.90
  -4   3  -6  401.76   20.00
   4   3   6  398.76   24.90
   5  -3   6  936.91   39.40
   5  -3   6  937.41   44.20
  -5  -3  -6  912.91   42.30
   5   3   6  944.61   45.70
  -5   3  -6  832.12   38.60
   6  -3   6  376.46   26.50
  -6  -3  -6  340.67   22.20
   6   3   6  319.17   27.30
  10  -4  -6   20.50   12.00
 -10  -4   6   11.90    5.50
 -10  -4   6   26.00    9.40
  10  -4  -6   23.80   11.50
 -10   4   6   35.50   13.50
  10   4  -6    1.90   11.20
  -9  -4   6   10.80    5.80
  -9  -4   6    8.40    6.90
  -9  -4   6   14.80    4.60
   9  -4  -6   -0.10    8.10
  -9   4   6   -2.60    9.30
   9   4  -6   15.80    8.80
  -9   4   6   23.80    8.40
  -8  -4   6    5.80    4.20
   8  -4  -6   -1.00    6.20
  -8  -4   6    0.10    3.90
  -8  -4   6   -6.10    4.60
   8   4  -6   12.00    6.40
  -8   4   6    7.80    5.70
   8   4  -6   11.30    8.10
  -8   4   6    3.00    7.60
  -7  -4   6  174.28    9.70
  -7  -4   6  177.48   10.70
   7  -4  -6  156.78   17.00
  -7  -4   6  161.08   11.50
  -7   4   6  166.88   16.30
  -7   4   6  174.58   13.40
   7   4  -6  164.88   14.40
   7   4  -6  143.99   13.20
   7   4  -6  175.48   13.90
   6  -4  -6   55.39    9.80
  -6  -4   6   69.19    5.40
  -6  -4   6   64.59    4.70
  -6  -4   6   58.69    7.00
   6  -4  -6   68.09   10.00
   6   4  -6   61.39    8.20
  -6   4   6   70.79    8.50
  -6   4   6   74.19   11.00
   6   4  -6   58.79    8.10
   5  -4  -6    6.90    4.80
  -5  -4   6   11.90    3.60
   5  -4  -6    9.30    4.50
   5   4  -6   10.10    4.30
  -5   4   6   12.00    5.60
   5   4  -6    9.70    3.70
  -5   4   6   12.40    4.20
   4  -4  -6   14.90    4.90
  -4  -4   6   10.30    3.10
   4  -4  -6    7.70    4.00
   4   4  -6   15.00    4.30
   4   4  -6   11.70    3.60
  -4   4   6   13.70    4.40
  -4   4   6    9.80    4.60
  -3  -4   6   10.50    3.10
   3  -4  -6   10.70    4.10
   3  -4  -6   10.10    4.80
   3   4  -6   15.40    3.90
   3   4  -6   10.80    4.00
  -3   4   6   16.70    4.40
  -2  -4   6  168.68   10.80
  -2  -4   6  177.08    8.30
   2  -4  -6  208.58   14.00
   2  -4  -6  163.98   12.00
  -2  -4   6  171.48    8.20
  -2   4   6  193.78   15.00
   2   4  -6  169.98   10.90
  -2   4   6  169.98   10.90
  -2   4   6  162.88   12.50
   2   4  -6  162.28   11.70
  -1  -4   6   48.80    5.00
   1  -4  -6   39.50    7.10
  -1  -4   6   40.10    5.70
  -1  -4   6   50.99    4.50
  -1   4   6   38.20    5.60
  -1   4   6   54.39    7.60
   1   4  -6   47.30    7.30
  -1   4   6   47.80    7.80
   0  -4   6   12.80    3.50
   0  -4   6   17.50    3.90
   0  -4  -6   11.00    6.00
   0  -4   6   12.30    3.10
   0   4   6    9.40    5.80
   0   4   6   13.20    3.30
   0   4  -6   12.00    5.10
   0   4   6   11.10    4.60
   1  -4   6  115.29    8.70
  -1  -4  -6  110.79   13.40
   1  -4   6  116.39   10.20
   1  -4   6  116.29    8.50
  -1   4  -6  113.39   11.90
   1   4   6  129.69   13.30
   1   4   6  116.59   11.10
   1   4   6  111.49    8.30
   2  -4   6    3.90    6.50
   2  -4   6    1.30    3.80
  -2  -4  -6   -4.80    7.80
   2  -4   6    1.70    2.80
   2   4   6   -3.60    2.90
   2   4   6    3.70    6.50
   2   4   6    4.40    4.70
   3  -4   6    3.50    3.60
   3  -4   6   10.60    4.90
  -3  -4  -6   -7.80    4.70
  -3  -4  -6   14.50   10.20
   3  -4   6   -4.90    6.80
   3   4   6    9.80    5.60
  -3   4  -6    4.40    9.10
   3   4   6    9.60    3.70
   3   4   6    0.10    9.20
   4  -4   6    7.50    5.70
   4  -4   6   15.90    9.30
   4   4   6    0.30    3.70
   4   4   6   12.60    7.90
  -4   4  -6   11.90    3.60
   5  -4   6   81.39   14.30
   5  -4   6   93.19   17.50
   5  -4   6   64.19    7.90
  -5  -4  -6   65.39   11.70
   5   4   6   66.19   12.30
  -5   4  -6   71.29    7.40
  -6  -4  -6   10.40    8.70
   6  -4   6   13.30   11.30
   6   4   6  -12.60   10.90
  10  -5  -6   43.90   11.60
 -10  -5   6   58.39    8.50
  10  -5  -6   63.89   15.60
  10   5  -6   56.39   12.90
 -10   5   6   29.10   13.90
  -9  -5   6  660.23   30.80
   9  -5  -6  583.74   37.90
  -9  -5   6  710.53   29.90
  -9   5   6  674.23   40.60
  -9   5   6  668.53   35.70
   9   5  -6  675.53   36.90
  -8  -5   6  844.52   37.20
   8  -5  -6  819.72   43.00
  -8   5   6  794.02   43.50
  -8   5   6  805.02   39.30
   8   5  -6  852.51   40.90
   8   5  -6  835.12   41.20
  -7  -5   6   13.40    4.60
   7  -5  -6   11.10    6.10
  -7   5   6   13.80    7.50
   7   5  -6    7.70    6.30
   7   5  -6   11.50    5.50
  -7   5   6   23.20    5.90
   6  -5  -6 1317.47   61.99
   6  -5  -6 1371.86   61.09
  -6  -5   6 1416.96   58.79
  -6   5   6 1476.05   60.29
   6   5  -6 1316.97   58.99
  -6   5   6 1500.85   63.59
   6   5  -6 1364.26   59.39
   5  -5  -6 2395.26  101.19
   5  -5  -6 2410.56  100.39
  -5  -5   6 2403.06   98.19
  -5   5   6 2350.46  101.59
   5   5  -6 2390.86   98.39
  -5   5   6 2450.35   99.59
   5   5  -6 2565.24   98.49
   4  -5  -6  750.22   35.50
   4  -5  -6  733.13   35.20
  -4  -5   6  709.13   32.60
   4   5  -6  720.33   32.50
  -4   5   6  728.83   34.40
   4   5  -6  723.93   32.70
  -4   5   6  743.33   35.80
   3  -5  -6   11.80    4.80
   3  -5  -6   15.60    4.60
  -3  -5   6   10.80    3.50
  -3   5   6   18.30    4.90
  -3   5   6   25.00    5.30
   3   5  -6   17.70    4.00
   3   5  -6   15.30    4.20
  -2  -5   6 1150.28   49.90
   2  -5  -6 1194.28   51.99
   2  -5  -6 1193.68   52.99
  -2   5   6 1176.08   50.09
  -2   5   6 1193.08   52.39
   2   5  -6 1209.18   50.59
   2   5  -6 1191.48   49.80
  -2   5   6 1142.29   52.49
   1  -5  -6 1670.33   71.29
  -1  -5   6 1646.64   64.49
  -1  -5   6 1576.94   64.19
  -1  -5   6 1601.44   67.39
  -1   5   6 1643.94   70.39
  -1   5   6 1633.24   67.39
  -1   5   6 1712.13   70.59
   1   5  -6 1634.64   68.69
   0  -5   6   13.60    3.70
   0  -5   6   12.80    2.70
   0  -5  -6   15.50    6.90
   0  -5   6   16.20    3.50
   0   5   6   22.40    6.90
   0   5  -6   13.70    5.60
   0   5   6   14.60    3.80
   0   5   6   11.60    4.80
   1  -5   6 2303.17   92.29
   1  -5   6 2314.17   91.29
  -1  -5  -6 2170.28   97.39
   1  -5   6 2250.47   92.29
   1   5   6 2389.86   96.89
   1   5   6 2308.57   91.49
   1   5   6 2284.87   95.69
  -1   5  -6 2231.38   95.49
   2  -5   6 1393.16   59.89
  -2  -5  -6 1414.86   66.59
   2  -5   6 1418.96   59.99
   2  -5   6 1473.35   61.69
   2   5   6 1545.35   66.29
   2   5   6 1457.15   58.69
  -2   5  -6 1407.66   64.79
  -3  -5  -6   -4.00    5.40
   3  -5   6    3.30    2.90
  -3  -5  -6   -3.10   10.00
   3  -5   6    1.60    4.40
   3  -5   6    4.50    6.50
   3   5   6    2.90    3.30
  -3   5  -6   -1.50    8.40
   3   5   6   -1.30    5.60
   3   5   6   -1.90    9.80
   4  -5   6  432.66   22.00
   4  -5   6  458.25   29.00
  -4  -5  -6  470.55   25.10
   4   5   6  503.05   27.90
  -4   5  -6  430.56   20.40
   5  -5   6  618.74   42.60
   5  -5   6  773.62   37.00
  -5  -5  -6  691.73   35.20
   5  -5   6  696.23   31.60
   5   5   6  705.13   37.90
  10  -6  -6  285.57   24.40
  10  -6  -6  302.57   31.50
 -10  -6   6  336.07   18.10
  10   6  -6  331.57   26.90
 -10   6   6  304.57   31.80
  -9  -6   6   64.99    8.00
   9  -6  -6   63.59   13.70
  -9   6   6   53.99   14.60
   9   6  -6   60.19   10.60
  -8  -6   6  144.09   10.80
   8  -6  -6  187.58   19.20
  -8   6   6  155.58   16.00
   8   6  -6  186.28   16.20
  -8   6   6  153.98   18.50
   8   6  -6  131.39   16.80
   7  -6  -6  290.37   21.90
  -7  -6   6  320.07   16.90
   7   6  -6  312.47   20.60
  -7   6   6  268.87   26.00
  -7   6   6  309.67   19.40
   7   6  -6  298.17   19.10
   6  -6  -6   91.29   12.00
   6  -6  -6  112.19   12.20
  -6  -6   6   96.69    8.20
   6   6  -6  119.49   10.20
  -6   6   6  104.59   13.30
  -6   6   6  122.59   11.60
   6   6  -6   93.79   11.40
   5  -6  -6    4.60    4.70
   5  -6  -6   13.40    5.20
  -5  -6   6   10.80    3.70
   5   6  -6    4.40    4.10
  -5   6   6   12.40    5.10
   5   6  -6    8.10    3.60
  -5   6   6   12.10    5.90
   4  -6  -6  381.06   22.50
  -4  -6   6  384.76   19.90
   4  -6  -6  412.66   22.80
  -4   6   6  428.46   22.40
   4   6  -6  408.26   20.10
  -4   6   6  392.26   23.10
   4   6  -6  381.86   19.40
   3  -6  -6  866.71   41.50
   3  -6  -6  985.50   42.70
  -3  -6   6  882.91   39.30
   3   6  -6  856.91   38.60
  -3   6   6  945.01   41.90
  -3   6   6  876.41   42.30
   3   6  -6  905.71   39.20
   2  -6  -6  111.79   11.90
   2  -6  -6  126.89   10.50
  -2  -6   6  114.79    9.00
   2   6  -6  107.59    9.20
  -2   6   6  126.09   12.00
  -2   6   6  113.99   11.20
   2   6  -6  115.99    8.20
  -1  -6   6  810.72   36.10
   1  -6  -6  825.92   39.70
  -1   6   6  871.51   39.60
  -1   6   6  786.72   38.80
   1   6  -6  813.22   36.90
  -1   6   6  816.92   35.90
   0  -6  -6 1089.99   50.09
   0  -6   6 1031.60   42.60
   0  -6   6 1020.10   45.30
   0  -6   6 1049.89   42.30
   0   6   6 1043.80   48.50
   0   6   6 1139.19   49.60
   0   6   6 1051.89   44.70
  -1  -6  -6  114.59   14.80
   1  -6   6  122.29    9.20
   1  -6   6  122.59    9.30
   1  -6   6  118.29    7.70
   1   6   6  157.28   15.10
   1   6   6  122.49    8.60
  -1   6  -6   98.09   12.60
   1   6   6  114.09   11.80
   2  -6   6    5.60    5.30
  -2  -6  -6   12.90    9.50
   2  -6   6   11.10    3.80
   2  -6   6    9.30    3.70
   2   6   6   15.40    7.80
  -2   6  -6   14.80    7.10
   2   6   6   13.10    4.00
   2   6   6    4.90    5.00
   3  -6   6  267.87   19.70
  -3  -6  -6  266.67   25.30
   3  -6   6  271.97   16.50
   3  -6   6  268.97   15.20
  -3   6  -6  320.17   23.90
   3   6   6  294.57   26.00
   3   6   6  260.27   19.50
   3   6   6  276.67   13.80
   4  -6   6  171.48   11.60
   4  -6   6  175.68   19.00
   4  -6   6  177.78   15.30
  -4  -6  -6  165.98   14.40
   4   6   6  217.18   18.40
  -4   6  -6  153.58    9.00
   5  -6   6   68.79   16.40
   5  -6   6   43.80    6.50
  -5  -6  -6   50.79   10.10
   5  -6   6   63.39   10.90
   5   6   6   45.80   11.10
 -10  -7   6   66.99    9.90
  10  -7  -6   67.89   16.30
  10   7  -6   87.49   15.20
 -10   7   6   64.29   17.80
   9  -7  -6  203.58   22.40
  -9  -7   6  200.68   13.10
   9   7  -6  200.98   19.50
  -9   7   6  225.68   25.00
   8  -7  -6  267.37   22.20
  -8  -7   6  268.27   15.70
  -8   7   6  309.97   24.70
   8   7  -6  264.37   19.20
  -8   7   6  259.27   20.30
  -7  -7   6   12.80    4.30
   7  -7  -6   11.80    7.40
  -7   7   6   15.20    8.20
   7   7  -6   17.50    5.90
   7   7  -6   10.80    7.40
  -6  -7   6  220.18   13.80
   6  -7  -6  247.58   17.90
   6  -7  -6  218.28   18.70
   6   7  -6  246.08   17.00
  -6   7   6  245.28   16.90
   6   7  -6  232.98   14.70
  -6   7   6  251.07   19.10
   6   7  -6  233.18   15.80
   5  -7  -6  665.53   34.20
   5  -7  -6  678.43   35.00
  -5  -7   6  678.93   31.60
   5   7  -6  741.23   31.70
  -5   7   6  681.53   34.00
   5   7  -6  720.93   31.60
  -5   7   6  693.43   36.00
   5   7  -6  723.33   34.20
   4  -7  -6  395.86   22.20
   4  -7  -6  356.76   21.30
  -4  -7   6  341.87   18.70
   4   7  -6  383.16   18.40
  -4   7   6  348.17   22.30
   4   7  -6  382.86   18.70
  -4   7   6  383.46   21.60
  -3  -7   6  130.29    9.50
   3  -7  -6  123.19   12.80
   3  -7  -6  137.19   11.80
   3   7  -6  138.79    9.20
  -3   7   6  138.79   12.70
   3   7  -6  127.89    9.70
  -3   7   6  145.29   12.80
  -2  -7   6  834.82   37.60
   2  -7  -6  887.01   41.20
   2  -7  -6  809.52   39.40
  -2   7   6  914.11   41.00
  -2   7   6  853.91   41.00
   2   7  -6  836.82   37.50
   2   7  -6  869.21   36.80
   1  -7  -6  368.16   22.30
  -1  -7   6  354.06   18.00
  -1   7   6  357.36   21.70
  -1   7   6  349.27   18.30
  -1   7   6  322.67   20.50
   1   7  -6  335.07   18.60
   0  -7  -6    6.90    6.10
   0  -7   6    4.80    2.90
   0   7   6    6.20    4.90
   0   7   6   -0.60    5.50
   0   7   6    5.40    3.30
   1  -7   6  338.37   15.20
   1  -7   6  288.17   16.60
   1  -7   6  324.47   14.60
  -1  -7  -6  311.87   23.10
   1   7   6  325.47   22.50
   1   7   6  307.17   15.90
   1   7   6  301.37   20.30
  -1   7  -6  332.37   20.10
   2  -7   6  364.76   18.60
   2  -7   6  361.56   17.70
   2  -7   6  335.87   18.70
  -2  -7  -6  379.66   26.80
   2   7   6  370.66   17.10
  -2   7  -6  345.97   23.40
   2   7   6  357.86   22.30
   2   7   6  336.57   25.10
  -3  -7  -6    2.10    6.50
  -3  -7  -6   14.00   11.50
   3  -7   6    0.00    3.00
   3  -7   6   -1.90    4.30
   3  -7   6    6.80    6.50
   3   7   6   -7.00    5.70
  -3   7  -6    8.90    9.10
   3   7   6   -1.40    3.50
   3   7   6   18.10   18.90
   4  -7   6   61.59    7.60
   4  -7   6   60.29   11.70
  -4  -7  -6   52.29    9.80
   4  -7   6   60.79    8.80
   4   7   6   48.90   10.00
  -5  -7  -6  113.09   15.80
   5  -7   6  137.99   10.80
   5  -7   6  152.88   17.40
   5   7   6  174.28   19.90
 -10  -8   6  719.33   32.10
  10  -8  -6  764.42   45.80
 -10   8   6  666.93   47.30
  10   8  -6  675.63   41.40
  -9  -8   6   81.39    9.10
   9  -8  -6   64.39   14.50
  -9   8   6   89.99   16.80
   9   8  -6   84.69   13.30
  -8  -8   6  266.87   15.20
   8  -8  -6  267.27   22.70
  -8   8   6  271.57   24.80
   8   8  -6  246.98   18.70
  -7  -8   6 1278.97   55.19
   7  -8  -6 1301.07   60.99
   7   8  -6 1312.57   59.39
  -7   8   6 1330.57   62.89
  -7   8   6 1320.07   58.79
   7   8  -6 1301.17   56.79
  -6  -8   6 1268.17   53.59
   6  -8  -6 1180.18   58.29
   6  -8  -6 1287.17   56.89
   6   8  -6 1324.07   53.49
  -6   8   6 1142.79   61.89
   6   8  -6 1270.47   53.79
  -6   8   6 1299.37   56.59
   6   8  -6 1299.07   56.99
  -5  -8   6    9.50    4.00
   5  -8  -6    2.20    5.40
   5  -8  -6   11.10    5.50
  -5   8   6    6.60    5.30
   5   8  -6    1.10    5.10
   5   8  -6    7.20    3.70
   5   8  -6    6.80    3.80
  -5   8   6    4.80    5.00
   4  -8  -6 1265.77   58.09
   4  -8  -6 1411.26   58.29
  -4  -8   6 1273.87   54.99
   4   8  -6 1318.07   54.19
   4   8  -6 1260.07   53.79
   4   8  -6 1338.97   57.09
  -4   8   6 1240.98   58.89
  -4   8   6 1317.27   57.99
   3  -8  -6 1112.39   49.40
  -3  -8   6 1034.40   45.90
   3  -8  -6 1119.29   48.90
   3   8  -6 1091.89   45.20
   3   8  -6  972.30   44.50
  -3   8   6 1049.20   49.80
  -3   8   6 1128.59   49.60
  -2  -8   6   38.80    5.80
   2  -8  -6   33.20    6.50
   2  -8  -6   34.00    7.90
   2   8  -6   33.70    5.20
  -2   8   6   32.60    7.10
  -2   8   6   43.70    8.30
   2   8  -6   45.60    6.40
   1  -8  -6 1467.25   64.59
  -1  -8   6 1400.36   60.69
  -1   8   6 1422.36   64.19
   1   8  -6 1464.35   60.89
  -1   8   6 1495.45   64.79
   0  -8  -6 2559.74  104.59
   0  -8   6 2445.46   99.89
   0   8   6 2373.06  103.29
   0   8   6 2500.65   99.19
   0   8   6 2445.96  103.99
  -1  -8  -6  494.25   29.80
   1  -8   6  459.85   23.00
   1   8   6  464.75   28.30
   1   8   6  478.15   22.00
  -1   8  -6  472.25   26.20
   1   8   6  454.45   28.20
  -2  -8  -6   29.80   10.90
   2  -8   6   25.60    4.60
   2  -8   6   28.30    5.30
   2  -8   6   33.70    5.80
   2   8   6   23.00    9.90
   2   8   6   24.80    7.70
   2   8   6   26.60    4.80
  -2   8  -6   28.50    9.10
   3  -8   6  711.73   31.90
  -3  -8  -6  707.63   35.90
   3  -8   6  753.12   33.40
  -3  -8  -6  700.73   42.50
   3  -8   6  671.83   32.10
  -3   8  -6  654.03   38.70
  -3   8  -6  692.63   29.40
   3   8   6  722.13   37.50
  -4  -8  -6  637.04   33.80
   4  -8   6  660.63   32.40
   4  -8   6  657.73   31.00
   4  -8   6  699.23   35.10
   4   8   6  655.43   37.00
  -5  -8  -6   21.60    9.50
   5  -8   6   32.50   10.80
   5  -8   6   22.50    5.40
   5   8   6   32.60   11.70
 -10  -9   6   14.30    6.20
  10  -9  -6   -9.40   16.90
  10   9  -6   25.30   12.30
 -10   9   6   23.20   16.70
   9  -9  -6   85.29   17.00
  -9  -9   6  125.29    9.80
   9   9  -6  132.19   17.60
  -9   9   6  113.89   20.80
   8  -9  -6   20.00   10.00
  -8  -9   6   40.30    6.00
  -8   9   6   22.10   10.80
   8   9  -6   33.10    8.30
  -7  -9   6   92.29    8.80
   7  -9  -6  105.99   14.70
  -7   9   6   89.19   14.10
   7   9  -6   83.39   13.90
  -7   9   6   84.59   11.90
   7   9  -6   84.79   10.90
  -6  -9   6    3.60    3.60
   6  -9  -6   -0.30    7.10
   6  -9  -6   -0.70    5.60
   6   9  -6    7.40    4.30
  -6   9   6   14.30    6.90
   6   9  -6    0.40    7.00
  -6   9   6   -1.50    6.30
  -5  -9   6   93.79    8.50
   5  -9  -6  100.59   12.60
   5  -9  -6  119.09   12.80
  -5   9   6  108.39   12.60
   5   9  -6   94.69   11.90
   5   9  -6  110.39    8.90
  -5   9   6   96.99   14.60
   5   9  -6   99.49    8.30
   4  -9  -6  450.85   24.90
  -4  -9   6  410.26   21.30
   4  -9  -6  431.36   24.40
  -4   9   6  395.46   25.60
  -4   9   6  437.86   25.20
   4   9  -6  431.16   20.20
   4   9  -6  465.15   20.70
   4   9  -6  435.36   23.90
  -3  -9   6  156.48   10.90
   3  -9  -6  154.68   14.70
   3  -9  -6  165.38   12.90
  -3   9   6  160.08   15.00
   3   9  -6  156.68    9.50
  -3   9   6  153.38   14.80
   3   9  -6  167.28   12.50
   3   9  -6  161.28   10.20
  -2  -9   6   29.40    5.20
   2  -9  -6   40.60    8.60
  -2   9   6   14.90    6.90
   2   9  -6   22.10    4.40
  -2   9   6   13.40    6.30
   2   9  -6   21.30    5.60
  -1  -9   6    0.40    2.60
   1  -9  -6    7.70    6.20
  -1   9   6    5.40    5.90
  -1   9   6  -10.60    5.50
   1   9  -6   -2.20    3.80
   0  -9  -6  115.99   14.90
   0  -9   6  115.09    9.20
   0   9   6  117.39   13.40
   0   9   6  109.89    9.10
   0   9   6  154.88   16.40
  -1  -9  -6   20.70    8.60
   1  -9   6    8.90    3.50
  -1  -9  -6    3.40    5.50
   1   9   6   12.70    6.80
   1   9   6   -0.60    7.70
  -1   9  -6   10.60    4.20
  -1   9  -6   14.40    6.50
   1   9   6   11.10    3.80
   2  -9   6    3.60    3.20
  -2  -9  -6    1.00    5.90
  -2  -9  -6   17.50   10.90
   2   9   6  -12.70    9.30
  -2   9  -6    6.30    3.80
  -2   9  -6   -0.10    7.50
   2   9   6   -4.20    5.50
   2   9   6    6.70    4.00
   3  -9   6   13.40    6.30
   3  -9   6   18.40    5.50
  -3  -9  -6   28.40    8.20
   3  -9   6   16.10    4.80
  -3  -9  -6   19.10   13.50
   3   9   6   23.30    5.60
  -3   9  -6   12.80   10.80
   3   9   6   15.40    8.60
   4  -9   6   71.89    8.50
   4  -9   6   93.39   13.00
  -4  -9  -6   75.29   12.90
   4   9   6   77.49   13.90
   5  -9   6   62.09    8.30
  -5  -9  -6   77.29   12.90
   5   9   6   44.80   12.60
   9 -10  -6  165.38   24.70
  -9 -10   6  133.19   11.00
  -9  10   6  139.69   22.70
   9  10  -6  128.89   18.20
   8 -10  -6   36.40   12.70
  -8 -10   6   54.49    7.20
  -8  10   6   73.59   14.60
   8  10  -6   45.80    9.10
   7 -10  -6 1120.39   54.59
  -7 -10   6 1112.19   48.00
   7  10  -6 1126.29   49.60
  -7  10   6 1113.79   56.69
   6 -10  -6 1116.99   53.19
   6 -10  -6 1072.49   51.89
  -6 -10   6 1128.99   48.00
  -6  10   6 1142.49   51.99
  -6  10   6 1162.68   55.19
   6  10  -6 1070.79   51.59
   6  10  -6 1146.49   47.40
   6  10  -6 1080.49   47.70
   5 -10  -6   86.39   12.80
   5 -10  -6   91.59   14.60
  -5 -10   6   90.29    8.10
  -5  10   6   89.69   14.00
   5  10  -6   81.69   12.30
   5  10  -6   82.29    7.70
   5  10  -6   89.59    8.00
  -5  10   6  121.39   14.30
  -4 -10   6  723.63   32.60
   4 -10  -6  765.72   35.90
   4 -10  -6  688.03   35.60
  -4  10   6  712.23   39.40
  -4  10   6  685.53   36.20
   4  10  -6  710.83   30.90
   4  10  -6  704.43   34.90
   4  10  -6  704.83   30.60
   3 -10  -6  167.28   13.90
   3 -10  -6  178.18   16.20
  -3 -10   6  181.98   11.60
   3  10  -6  182.28   13.70
   3  10  -6  168.78   10.60
  -3  10   6  166.88   16.00
  -3  10   6  175.68   16.20
   3  10  -6  183.28   10.00
  -2 -10   6   90.79    8.30
   2 -10  -6   97.69   12.80
   2  10  -6   91.89   10.00
   2  10  -6   91.19    8.40
  -2  10   6  119.29   14.40
  -2  10   6   94.19   13.10
   1 -10  -6  497.65   27.50
  -1 -10   6  436.96   22.70
   1  10  -6  449.36   22.70
   1  10  -6  444.16   23.20
  -1  10   6  476.35   27.40
  -1  10   6  460.65   27.60
   0 -10  -6 2417.86  100.09
   0 -10   6 2251.97   95.19
   0  10   6 2354.86   99.79
   0  10  -6 2170.68   94.49
   0  10   6 2478.65  100.59
   0  10   6 2354.46   94.49
  -1 -10  -6  296.17   23.30
   1 -10   6  267.67   16.30
  -1  10  -6  292.57   16.00
  -1  10  -6  312.27   19.80
   1  10   6  301.77   21.20
   1  10   6  303.27   24.20
   1  10   6  298.57   15.80
  -2 -10  -6  394.96   30.10
   2 -10   6  400.76   21.20
   2  10   6  405.36   19.30
   2  10   6  415.26   26.30
  -2  10  -6  413.66   26.00
  -2  10  -6  412.46   19.20
   3 -10   6  783.92   38.40
  -3 -10  -6  896.91   54.09
  -3 -10  -6  883.11   42.10
   3  10   6  862.81   43.90
  -3  10  -6  853.51   45.30
   4 -10   6  419.86   23.10
  -4 -10  -6  396.06   25.60
   4 -10   6  373.86   21.30
   4  10   6  421.26   28.80
   5 -10   6   -3.20    5.00
  -5 -10  -6   20.80   11.10
  -9 -11   6  380.86   18.90
   9 -11  -6  269.77   33.00
  -9  11   6  366.46   35.80
   9  11  -6  343.27   25.00
  -8 -11   6  273.37   15.00
   8 -11  -6  293.97   25.70
   8  11  -6  222.58   18.50
  -8  11   6  256.07   27.90
  -7 -11   6    7.90    4.20
   7 -11  -6    3.80    7.90
   7  11  -6    4.60    5.80
  -7  11   6   18.30   10.40
   6 -11  -6  272.97   21.60
  -6 -11   6  266.07   15.40
  -6  11   6  247.98   20.70
   6  11  -6  254.17   20.00
   6  11  -6  280.47   15.70
  -6  11   6  285.57   23.90
   5 -11  -6  508.75   28.50
  -5 -11   6  505.55   25.00
   5 -11  -6  504.15   29.30
  -5  11   6  527.25   30.20
   5  11  -6  502.05   23.50
   5  11  -6  519.65   23.50
  -5  11   6  532.55   31.50
   5  11  -6  522.95   28.50
   4 -11  -6  263.37   18.80
  -4 -11   6  263.37   15.50
   4 -11  -6  291.27   26.90
   4  11  -6  267.57   13.70
  -4  11   6  266.37   21.00
   4  11  -6  272.37   18.30
   4  11  -6  286.47   14.20
  -4  11   6  259.07   21.20
  -3 -11   6   85.19    7.90
   3 -11  -6   71.59   10.50
   3 -11  -6   85.49   10.50
   3  11  -6   69.59   10.30
   3  11  -6   69.59    7.10
   3  11  -6   73.09    6.20
  -3  11   6   79.59   12.20
  -3  11   6   58.19   16.10
   2 -11  -6 1318.17   57.09
  -2 -11   6 1202.98   52.99
  -2  11   6 1300.67   58.19
   2  11  -6 1153.68   53.89
   2  11  -6 1238.38   51.39
   1 -11  -6  699.83   35.60
  -1 -11   6  651.43   31.20
  -1  11   6  649.04   35.60
  -1  11   6  691.53   36.60
   1  11  -6  695.83   30.80
   1  11  -6  633.44   31.50
   0 -11  -6   71.69   12.10
   0 -11   6   76.99    7.80
   0  11  -6   60.29   10.50
   0  11   6   70.99   11.30
   0  11   6   77.59   12.70
   0  11  -6   71.89    8.80
  -1 -11  -6  757.82   40.20
   1 -11   6  710.33   33.90
   1  11   6  731.33   41.50
  -1  11  -6  738.23   36.60
  -1  11  -6  723.43   32.60
   1  11   6  728.33   38.50
   1  11   6  767.22   32.90
   2 -11   6  541.65   27.50
  -2 -11  -6  459.25   30.60
  -2 -11  -6  563.34   35.90
   2  11   6  581.94   25.50
   2  11   6  612.54   33.00
  -2  11  -6  594.74   24.70
  -2  11  -6  574.04   32.60
   3 -11   6   36.20    6.50
  -3 -11  -6   45.90   10.40
   3  11   6   33.30    9.30
  -4 -11  -6  235.08   20.30
   4 -11   6  233.78   15.30
   4  11   6  269.47   24.70
   9 -12  -6   16.00   14.90
  -9 -12   6    4.30    5.30
  -9  12   6   24.60   17.50
   9  12  -6   16.50   10.10
  -8 -12   6    9.90    4.60
   8 -12  -6    0.60   10.90
   8  12  -6   18.20    8.00
  -8  12   6   25.10   14.80
  -7 -12   6  130.79   10.20
   7 -12  -6  115.89   16.50
   7  12  -6  117.19   12.00
  -7  12   6  154.18   23.30
  -6 -12   6  195.38   13.20
   6 -12  -6  225.58   19.80
   6  12  -6  216.18   13.50
  -6  12   6  217.48   22.70
   5 -12  -6   12.20    6.40
   5 -12  -6   26.40    8.40
  -5 -12   6    1.50    3.60
  -5  12   6   -3.80    7.80
   5  12  -6   12.60    3.90
   5  12  -6    9.40    3.80
  -5  12   6   -0.20    7.80
   5  12  -6   -0.90    8.00
   4 -12  -6  251.17   19.10
   4 -12  -6  285.07   19.00
  -4 -12   6  246.38   14.80
  -4  12   6  241.48   20.90
   4  12  -6  259.57   13.20
   4  12  -6  252.47   12.80
  -4  12   6  260.07   21.30
   4  12  -6  214.28   17.50
   3 -12  -6  276.07   20.00
  -3 -12   6  234.68   14.80
  -3  12   6  317.67   21.80
   3  12  -6  257.67   17.80
   3  12  -6  253.07   12.70
  -3  12   6  268.27   20.60
   3  12  -6  239.08   13.30
  -2 -12   6  126.59   10.10
   2 -12  -6  137.39   15.90
   2  12  -6  141.69   12.70
  -2  12   6  156.58   18.40
  -2  12   6  162.48   15.90
   2  12  -6  125.09    9.40
   1 -12  -6    4.80    7.60
  -1 -12   6    2.80    3.70
   1  12  -6   -2.20    4.40
  -1  12   6    2.00    6.00
  -1  12   6    7.50    8.40
   1  12  -6   15.00    5.40
   0 -12   6   35.40    5.80
   0 -12  -6   43.10   10.30
   0  12   6   30.10    8.70
   0  12  -6   40.80    9.70
   0  12  -6   42.60    7.70
   0  12   6   40.10   12.20
  -1 -12  -6   -3.20    6.80
  -1 -12  -6   18.60   10.10
   1 -12   6    3.80    3.70
  -1  12  -6   -1.90    4.60
   1  12   6   -8.10    4.10
   1  12   6   -1.40    7.00
  -1  12  -6    6.80    7.30
  -2 -12  -6   98.39   16.10
   2 -12   6   64.69    8.00
  -2 -12  -6   53.59   10.80
   2  12   6   84.69    8.70
  -2  12  -6   92.59    7.00
  -2  12  -6   78.39   13.20
   2  12   6   77.49   13.10
  -3 -12  -6   92.89   14.80
   3 -12   6   84.79    9.20
   3  12   6  111.29   17.30
  -4 -12  -6   39.60   12.20
   4  12   6   58.99   14.60
  -8 -13   6  630.54   27.60
   8 -13  -6  603.54   39.30
  -8  13   6  548.45   42.90
   8  13  -6  526.45   30.50
  -7 -13   6   86.99    9.20
  -7  13   6  115.79   19.00
   7  13  -6   91.09   11.60
   6 -13  -6  697.23   39.60
  -6 -13   6  741.83   33.70
   6  13  -6  726.63   32.90
  -6  13   6  813.22   43.70
   5 -13  -6 1781.12   75.29
   5 -13  -6 1673.23   73.89
  -5 -13   6 1656.43   70.09
   5  13  -6 1589.14   73.79
   5  13  -6 1652.93   67.79
   5  13  -6 1808.12   67.79
  -5  13   6 1607.64   77.19
   4 -13  -6   73.79   11.10
  -4 -13   6   77.99    8.10
   4 -13  -6   63.69   10.40
   4  13  -6   72.39    6.40
  -4  13   6   75.09   13.10
   4  13  -6   93.29   13.30
  -4  13   6   50.39   11.00
   3 -13  -6  412.06   24.60
  -3 -13   6  375.36   20.70
  -3  13   6  425.26   27.90
   3  13  -6  363.26   18.20
  -3  13   6  407.86   27.40
   3  13  -6  405.06   23.60
  -2 -13   6 1113.39   51.09
   2 -13  -6 1216.58   54.69
   2  13  -6 1174.58   52.49
  -2  13   6 1207.18   57.19
  -2  13   6 1230.88   57.59
   2  13  -6 1151.98   48.80
   1 -13  -6 1313.27   58.59
  -1 -13   6 1224.78   54.09
   1  13  -6 1210.48   54.39
   1  13  -6 1255.57   52.89
  -1  13   6 1275.97   60.19
  -1  13   6 1225.38   59.29
   0 -13  -6   -4.20    6.90
   0 -13  -6   -9.70    9.00
   0 -13   6    9.30    3.70
   0  13  -6   10.50    6.50
   0  13  -6   17.20    6.20
   0  13   6    2.30    7.30
  -1 -13  -6  647.44   38.00
   1 -13   6  652.13   31.80
  -1  13  -6  650.93   30.00
   1  13   6  712.03   38.10
  -1  13  -6  635.04   34.30
   1  13   6  690.43   30.50
  -2 -13  -6  628.64   33.30
  -2 -13  -6  674.93   38.60
   2 -13   6  531.85   28.70
  -2  13  -6  601.04   35.00
  -2  13  -6  542.75   25.00
   2  13   6  596.14   26.90
   2  13   6  570.14   35.70
  -3 -13  -6   56.99   12.40
   3 -13   6   46.80    7.80
   3  13   6   62.39   13.40
  -4 -13  -6  244.98   23.50
   4 -13   6  240.88   16.70
   4  13   6  335.47   35.80
   8 -14  -6  214.28   28.80
  -8 -14   6  191.68   13.00
  -8  14   6  224.98   34.00
   8  14  -6  206.38   18.50
   7 -14  -6  223.58   23.20
  -7 -14   6  197.58   12.70
  -7  14   6  155.98   27.20
   7  14  -6  178.58   15.10
  -6 -14   6   77.39    8.50
   6 -14  -6   77.19   12.50
   6  14  -6   84.39    9.40
  -6  14   6  100.29   16.60
  -5 -14   6   96.69    9.50
   5 -14  -6  102.39   15.70
   5  14  -6  103.39    8.20
  -5  14   6  102.69   16.10
   4 -14  -6   22.70    8.50
   4 -14  -6    3.90    6.50
  -4 -14   6   -5.70    3.20
   4  14  -6   -8.70    8.90
   3 -14  -6  205.88   17.80
  -3 -14   6  170.98   12.30
   3  14  -6  183.78   17.20
  -3  14   6  158.48   19.80
   2 -14  -6    3.40    7.30
   2 -14  -6    7.70    8.50
  -2 -14   6   -2.60    3.40
  -2  14   6   24.10   14.20
   2  14  -6    5.90    7.20
  -2  14   6    1.40    7.70
   2  14  -6   -1.90    4.30
   1 -14  -6  178.08   20.00
  -1 -14   6  180.28   12.80
  -1  14   6  173.18   19.00
   1  14  -6  200.58   15.50
   1  14  -6  217.28   14.00
   0 -14   6  168.78   12.80
   0 -14  -6  172.98   20.10
   0  14   6  135.39   18.20
   0  14  -6  196.48   16.10
   0  14  -6  183.78   14.20
  -1 -14  -6   37.60   10.30
   1 -14   6   31.80    6.00
  -1 -14  -6   46.90   12.70
   1  14   6   49.60   12.30
   1  14   6   49.50    7.40
  -1  14  -6   47.00   11.20
   2 -14   6   13.80    4.80
  -2 -14  -6   22.20   14.20
  -2 -14  -6   26.00    9.40
  -2  14  -6   44.50   13.10
   2  14   6   17.70   11.20
   2  14   6   25.30    6.10
   3 -14   6   80.69    9.80
  -3 -14  -6   94.39   17.40
   3  14   6  125.89   18.40
  -8 -15   6  302.57   16.70
   7 -15  -6  134.69   22.40
  -7 -15   6  164.18   11.90
  -7  15   6  161.88   27.90
   7  15  -6  152.48   15.20
  -6 -15   6  234.78   14.60
   6 -15  -6  199.38   22.30
   6  15  -6  235.88   14.30
  -6  15   6  243.28   26.60
  -5 -15   6  849.61   37.60
   5 -15  -6  817.92   42.10
  -5  15   6  787.22   46.30
   4 -15  -6   -0.10    9.20
  -4 -15   6   14.00    4.30
  -4  15   6   -1.20   10.00
   4  15  -6   23.30   10.60
  -3 -15   6  168.28   11.80
   3 -15  -6  181.18   17.80
  -3  15   6  132.39   19.80
   3  15  -6  139.49   16.80
  -2 -15   6  281.07   17.60
   2 -15  -6  312.27   22.60
  -2  15   6  327.37   26.00
   2  15  -6  317.27   16.30
   2  15  -6  313.27   21.20
   1 -15  -6  405.26   25.20
  -1 -15   6  329.47   19.60
   1  15  -6  335.77   21.20
   1  15  -6  337.17   19.50
  -1  15   6  350.16   26.70
   0 -15   6   14.00    4.50
   0 -15  -6    5.70   11.10
   0 -15  -6   -0.70    8.70
   0  15  -6   17.60    8.40
   0  15  -6   20.20    7.50
   0  15   6   10.10   10.20
   1 -15   6  465.45   25.70
  -1 -15  -6  509.25   34.20
  -1 -15  -6  537.75   30.90
  -1  15  -6  505.65   24.80
   1  15   6  521.95   24.80
  -1  15  -6  481.85   30.00
   1  15   6  453.35   32.60
  -2 -15  -6  326.97   24.90
  -2 -15  -6  350.26   34.10
   2 -15   6  298.57   20.40
   2  15   6  384.76   18.90
  -2  15  -6  333.67   29.60
   2  15   6  356.66   29.80
   3 -15   6   58.39    8.80
  -3 -15  -6   38.40   13.60
   3  15   6   84.39   16.60
  -7 -16   6  490.15   24.50
   7 -16  -6  481.85   34.70
  -7  16   6  514.55   41.60
  -6 -16   6  303.07   16.80
   6 -16  -6  274.07   24.80
  -6  16   6  274.27   31.40
   5 -16  -6   29.30    9.70
  -5 -16   6   26.50    5.30
  -5  16   6   21.40   12.60
  -4 -16   6  361.66   19.80
  -4  16   6  356.36   29.90
  -3 -16   6  829.62   40.40
   3 -16  -6  984.30   44.90
  -3  16   6  930.91   49.50
   3  16  -6  831.02   44.00
   2 -16  -6   16.20    9.90
   2 -16  -6  -14.10    8.00
  -2 -16   6   -1.30    3.10
  -2  16   6    2.60    9.70
   2  16  -6    1.50    4.80
   2  16  -6   13.60    9.40
   1 -16  -6  537.35   33.90
  -1 -16   6  576.54   29.60
  -1  16   6  617.14   37.40
   1  16  -6  654.43   31.90
   1  16  -6  600.54   28.80
   0 -16  -6  666.93   37.40
   0 -16  -6  718.43   38.40
   0 -16   6  640.44   32.80
   0  16  -6  679.83   33.00
   0  16   6  678.33   40.10
   0  16  -6  647.74   34.10
  -1 -16  -6  162.58   18.40
   1 -16   6  138.99   16.20
  -1 -16  -6  156.88   20.30
  -1  16  -6  161.88   21.30
   1  16   6  167.98   22.80
  -2 -16  -6   83.99   14.70
   2 -16   6   79.99    9.90
   2  16   6   84.59   16.50
  -6 -17   6    3.10    4.20
   6 -17  -6   27.30   11.10
   6 -17  -6  -10.40   12.30
  -6  17   6    3.20   15.30
  -5 -17   6   13.30    5.20
   5 -17  -6    2.80   11.80
  -5  17   6   19.00   14.80
  -4 -17   6    3.60    4.60
   4 -17  -6  -13.30   10.10
  -4  17   6    5.00   11.60
   3 -17  -6   -4.80   10.50
  -3 -17   6   10.60    4.50
  -3  17   6    1.40   11.60
   2 -17  -6   21.20   11.30
   2 -17  -6    8.70   10.80
  -2 -17   6    8.20    4.70
   2  17  -6    4.60   10.30
  -2  17   6   25.80   11.40
   1 -17  -6   14.10   11.30
  -1 -17   6   13.20    5.20
   1 -17  -6    5.90   10.50
   1  17  -6    4.50    9.10
  -1  17   6   15.40   12.10
   0 -17   6    0.20    5.40
   0 -17  -6   15.30   10.10
   0  17   6   -5.70   10.60
  -1 -17  -6   27.70   10.90
   1 -17   6   23.60    6.60
   1  17   6   10.70   13.30
  -5 -18   6  221.58   14.70
  -5  18   6  207.98   30.40
  -4 -18   6  995.70   44.00
  -4  18   6  922.81   54.49
  -3 -18   6  451.95   24.00
  -3  18   6  443.06   34.90
  -2 -18   6   49.50    9.60
   2 -18  -6   58.19   14.40
  -2  18   6   96.59   16.80
   2  18  -6   76.99   14.40
  -1 -18   6  129.19   11.80
   1 -18  -6  131.69   19.00
  -1  18   6  124.19   19.60
   0 -18  -6  790.12   42.60
   0 -18   6  723.13   37.10
   0  18   6  792.72   46.60
   4 -19  -6  159.68   24.20
  -4  19   6  224.18   31.40
  -3 -19   6   27.40    6.30
   3 -19  -6   11.10   12.20
  -3  19   6  -12.30   15.40
   2 -19  -6  287.17   25.40
  -2 -19   6  250.47   17.50
  -2  19   6  307.97   32.40
  -1 -19   6   37.90    7.70
   1 -19  -6   70.89   15.30
  -1  19   6   43.40   17.80
 -10   0   7   -0.90    9.50
 -10   0   7    6.60    5.50
 -10   0   7   -2.00   10.80
  10   0  -7   -7.40   10.40
   9   0  -7   28.30   16.70
  -9   0   7    2.70    5.00
  -9   0   7   11.40    8.80
   9   0  -7   -1.30    8.30
  -9   0   7   -1.40    6.50
  -8   0   7   -4.00    3.80
  -8   0   7    3.30    4.60
   8   0  -7    0.90    7.00
  -8   0   7   -7.60    6.00
   7   0  -7    4.40    6.00
  -7   0   7    7.10    5.60
  -7   0   7    3.40    4.80
   7   0  -7    1.40    5.60
  -6   0   7    2.30    3.30
   6   0  -7   -0.20    4.80
  -6   0   7    4.50    3.70
  -6   0   7    0.40    4.10
   6   0  -7    1.20    5.30
  -5   0   7   -2.00    2.70
   5   0  -7    2.80    4.80
  -5   0   7    3.60    3.80
  -5   0   7    2.40    3.00
   5   0  -7    7.70    4.40
  -4   0   7    0.40    3.60
   4   0  -7   -1.20    4.10
  -4   0   7   -0.50    3.00
  -4   0   7    6.30    3.70
   4   0  -7    4.50    5.10
   3   0  -7    3.60    5.20
   3   0  -7    1.10    3.40
  -3   0   7    1.20    3.20
  -3   0   7    0.80    3.60
  -3   0   7    1.30    2.80
  -2   0   7   -1.40    3.00
  -2   0   7    5.70    3.60
  -2   0   7   -1.50    3.50
   2   0  -7   -1.50    3.20
   2   0  -7   -8.80    4.80
   1   0  -7   -3.60    5.30
  -1   0   7    1.30    4.50
  -1   0   7    2.90    3.50
  -1   0   7    1.20    3.00
   0   0   7    1.20    3.70
   0   0   7   -0.50    3.10
   0   0  -7   -1.50    5.70
   0   0   7    2.40    5.40
  -1   0  -7  -12.50    7.00
   1   0   7   -8.80    5.90
   2   0   7    0.10    7.60
   2   0   7   -3.50    2.90
  -2   0  -7    3.90   10.10
   3   0   7    2.90    3.80
   3   0   7    7.90   10.30
   3   0   7    3.00    6.40
  -3   0  -7   -2.10    5.30
  -4   0  -7    3.00    5.60
   4   0   7    2.30    4.20
   4   0   7   -9.50    7.40
  -5   0  -7    4.90    7.20
   5   0   7   -1.10    9.80
  10  -1  -7  685.13   44.00
 -10  -1   7  780.52   36.70
  10   1  -7  698.93   43.30
 -10   1   7  792.32   43.40
 -10   1   7  810.72   37.80
 -10   1   7  787.42   38.80
  -9  -1   7  782.72   36.90
  -9  -1   7  816.72   40.40
  -9  -1   7  789.82   37.90
   9  -1  -7  813.32   43.70
  -9   1   7  801.82   42.90
   9   1  -7  822.02   43.50
  -9   1   7  785.62   37.70
  -9   1   7  819.92   38.70
   8  -1  -7    9.90    7.60
  -8  -1   7   24.00    5.20
  -8  -1   7   23.20    7.30
   8   1  -7   32.50    8.20
  -8   1   7   24.20    6.20
  -8   1   7   25.30    6.30
  -8   1   7   16.50    7.70
  -7  -1   7  622.84   30.20
  -7  -1   7  629.84   27.60
   7  -1  -7  595.44   31.70
   7  -1  -7  596.44   32.50
  -7  -1   7  593.24   29.80
  -7   1   7  609.74   28.60
   7   1  -7  573.44   31.80
  -7   1   7  585.94   30.10
   7   1  -7  655.13   31.60
  -7   1   7  602.94   31.90
  -6  -1   7 2149.39   88.69
   6  -1  -7 2096.39   90.59
  -6  -1   7 2182.68   86.09
   6  -1  -7 2125.69   89.79
  -6  -1   7 2167.38   88.39
  -6   1   7 2148.78   89.09
  -6   1   7 2017.80   88.69
   6   1  -7 2147.89   90.19
  -6   1   7 2144.99   89.89
   6   1  -7 2211.48   89.49
   5  -1  -7  573.84   29.70
  -5  -1   7  576.14   27.50
  -5  -1   7  590.44   25.80
   5  -1  -7  569.74   29.70
  -5  -1   7  570.24   27.80
   5   1  -7  552.34   28.90
  -5   1   7  565.24   26.90
  -5   1   7  578.64   28.80
   5   1  -7  609.84   29.20
  -5   1   7  545.65   27.80
  -4  -1   7 1123.19   50.99
  -4  -1   7 1221.58   50.69
  -4  -1   7 1211.68   49.60
   4  -1  -7 1164.58   52.79
   4  -1  -7 1213.68   53.19
   4   1  -7 1166.08   52.09
   4   1  -7 1235.18   52.89
  -4   1   7 1114.29   51.09
  -4   1   7 1199.18   52.19
  -4   1   7 1220.58   50.89
   3  -1  -7 1285.77   54.99
  -3  -1   7 1254.27   51.49
  -3  -1   7 1204.08   52.39
   3  -1  -7 1161.78   53.69
  -3  -1   7 1226.78   51.89
  -3   1   7 1249.97   53.29
   3   1  -7 1191.58   53.29
  -3   1   7 1261.97   52.79
  -3   1   7 1165.58   52.29
   3   1  -7 1244.88   54.39
   2  -1  -7    4.30    5.40
   2  -1  -7    6.70    3.50
  -2  -1   7    5.70    3.70
  -2  -1   7    3.60    3.30
  -2  -1   7    4.50    3.20
   2   1  -7    4.60    3.60
  -2   1   7    1.50    3.50
   2   1  -7    5.10    5.20
  -2   1   7    5.40    4.50
  -2   1   7   14.20    4.00
  -1  -1   7   87.79    8.70
  -1  -1   7  109.19   10.10
  -1  -1   7   83.49    7.70
   1  -1  -7   77.69   12.10
  -1   1   7   87.09    9.10
   1   1  -7   79.29   11.30
  -1   1   7   86.89   10.80
  -1   1   7   97.19    8.10
   0  -1   7 1588.94   67.49
   0  -1  -7 1679.63   72.69
   0  -1   7 1601.64   68.19
   0   1   7 1644.44   67.49
   0   1   7 1683.83   70.59
   0   1   7 1572.44   69.19
   0   1  -7 1656.03   72.39
   1  -1   7 2413.26   99.89
   1  -1   7 2662.23  102.29
  -1  -1  -7 2341.57  104.69
   1  -1   7 2373.76   98.39
   1   1   7 2374.96  100.79
  -1   1  -7 2422.66  104.59
   1   1   7 2575.14  103.09
   1   1   7 2374.46   98.29
  -2  -1  -7   72.09   13.40
   2  -1   7   83.89    8.10
   2  -1   7   82.29   10.60
   2  -1   7  125.39   15.40
   2   1   7   94.69    8.20
   2   1   7   87.49   11.30
  -2   1  -7  121.09   19.80
   2   1   7  111.49   16.40
   3  -1   7  427.86   20.70
   3  -1   7  418.16   24.30
   3  -1   7  485.15   30.10
   3   1   7  414.46   24.50
   3   1   7  396.26   20.10
   3   1   7  407.36   31.20
   4  -1   7  666.53   34.50
   4  -1   7  671.13   29.60
  -4  -1  -7  610.64   32.20
  -4   1  -7  640.54   31.20
   4   1   7  666.43   29.20
   4   1   7  683.93   35.60
   5  -1   7  154.38   11.90
  -5  -1  -7  171.28   16.00
   5  -1   7  150.38   20.30
   5   1   7  166.48   11.80
   5   1   7  143.49   21.00
  -5   1  -7  158.78   15.50
 -10  -2   7   -5.30    9.70
 -10  -2   7    0.50    5.30
  10  -2  -7   10.40   11.90
 -10   2   7    3.70    9.70
 -10   2   7    5.10   12.50
 -10   2   7    2.60    5.60
  10   2  -7   24.60   10.90
   9  -2  -7  257.27   24.10
  -9  -2   7  269.07   17.20
  -9  -2   7  262.47   19.30
   9   2  -7  265.17   22.70
  -9   2   7  281.37   18.30
  -9   2   7  261.67   19.10
  -9   2   7  298.07   23.80
   8  -2  -7  332.37   23.90
  -8  -2   7  356.76   20.10
  -8  -2   7  323.57   17.40
  -8  -2   7  312.27   18.90
   8   2  -7  301.77   24.50
  -8   2   7  309.27   19.50
  -8   2   7  352.56   19.70
  -8   2   7  330.07   23.60
   7  -2  -7  147.59   15.30
  -7  -2   7  135.29   11.20
  -7  -2   7  137.49    9.50
  -7  -2   7  127.69   11.40
  -7   2   7  149.09   12.10
   7   2  -7  152.48   14.10
  -7   2   7  153.28   12.10
  -7   2   7  125.79   14.40
   7   2  -7  158.78   14.30
   6  -2  -7  215.38   16.50
  -6  -2   7  207.18   11.40
  -6  -2   7  197.98   12.90
  -6  -2   7  202.68   13.70
   6  -2  -7  201.38   16.10
  -6   2   7  210.68   14.00
   6   2  -7  225.58   15.50
   6   2  -7  204.58   15.20
  -6   2   7  200.78   15.80
  -6   2   7  212.28   13.60
  -5  -2   7 1551.54   62.99
   5  -2  -7 1470.45   66.29
  -5  -2   7 1479.05   64.39
  -5  -2   7 1596.64   61.59
   5  -2  -7 1463.55   65.99
   5   2  -7 1549.94   65.69
   5   2  -7 1447.56   64.99
  -5   2   7 1622.94   64.39
  -5   2   7 1548.65   66.19
  -5   2   7 1495.45   64.89
   4  -2  -7  869.01   41.90
  -4  -2   7  931.71   38.80
  -4  -2   7  884.31   40.30
   4  -2  -7  915.71   42.60
  -4  -2   7  917.71   37.80
   4   2  -7  918.41   41.10
  -4   2   7  855.31   40.30
  -4   2   7  875.61   41.50
   4   2  -7  954.40   41.70
  -3  -2   7   29.60    5.00
   3  -2  -7   26.90    6.20
  -3  -2   7   29.40    5.30
  -3  -2   7   37.60    5.80
   3  -2  -7   32.10    6.60
   3   2  -7   28.30    6.20
  -3   2   7   28.70    5.70
   3   2  -7   32.00    5.40
  -3   2   7   20.00    4.50
  -2  -2   7  243.18   14.80
   2  -2  -7  271.07   16.90
  -2  -2   7  261.97   14.30
   2  -2  -7  291.07   19.20
  -2  -2   7  276.77   14.60
   2   2  -7  259.27   17.40
   2   2  -7  257.47   15.60
  -2   2   7  258.37   15.00
  -2   2   7  266.87   16.60
  -2   2   7  261.67   16.80
   1  -2  -7 1078.29   51.19
  -1  -2   7 1054.69   46.70
  -1  -2   7 1054.79   47.30
  -1  -2   7 1090.19   47.50
  -1   2   7 1183.08   50.09
  -1   2   7 1123.69   49.30
  -1   2   7 1086.29   47.20
   1   2  -7 1157.58   50.79
   0  -2   7  368.26   18.90
   0  -2  -7  377.06   24.60
   0  -2   7  361.56   19.00
   0  -2   7  345.57   20.40
   0   2   7  348.17   18.40
   0   2  -7  384.56   23.60
   0   2   7  374.16   22.30
   0   2   7  374.66   21.00
   1  -2   7  156.68   11.70
  -1  -2  -7  113.59   17.30
   1  -2   7  149.88   10.40
   1  -2   7  163.28   14.30
   1   2   7  154.68   10.30
  -1   2  -7  167.68   17.80
   1   2   7  145.89   16.50
   1   2   7  148.09   13.10
   2  -2   7  620.44   31.50
   2  -2   7  539.55   26.20
  -2  -2  -7  587.84   35.60
   2  -2   7  554.04   28.30
  -2   2  -7  568.74   34.90
   2   2   7  542.35   25.80
   2   2   7  560.34   29.70
   2   2   7  558.94   33.20
   3  -2   7  128.29   13.30
   3  -2   7  152.78   19.50
   3  -2   7  152.38   10.50
   3   2   7  169.88   23.10
   3   2   7  148.09   10.10
   3   2   7  150.48   15.60
   4  -2   7   41.30   16.10
  -4  -2  -7   30.30    8.00
   4  -2   7   24.80    8.70
   4  -2   7   33.00    4.90
   4   2   7   33.70    5.40
  -4   2  -7   27.80    6.30
   4   2   7   34.20    9.90
   5  -2   7  225.08   14.00
  -5  -2  -7  218.28   17.90
   5  -2   7  239.28   23.00
   5   2   7  200.58   23.40
 -10  -3   7  320.27   22.00
  10  -3  -7  233.78   28.70
 -10  -3   7  268.27   17.90
  10   3  -7  337.57   29.00
 -10   3   7  302.17   20.10
 -10   3   7  368.26   30.60
  -9  -3   7  209.98   15.40
   9  -3  -7  219.48   22.60
  -9  -3   7  199.28   14.80
  -9  -3   7  223.58   16.40
   9   3  -7  229.78   21.20
  -9   3   7  200.98   17.90
  -9   3   7  248.18   22.90
  -8  -3   7   -2.50    4.90
  -8  -3   7   13.70    4.50
  -8  -3   7    5.60    4.40
   8  -3  -7   13.10    7.60
  -8   3   7   -3.00    7.70
   8   3  -7    2.30    8.20
  -8   3   7   -1.80    5.80
  -7  -3   7  189.18   12.70
  -7  -3   7  205.58   13.80
   7  -3  -7  193.58   17.70
  -7  -3   7  200.08   11.20
   7  -3  -7  194.38   17.40
   7   3  -7  217.58   16.60
   7   3  -7  222.98   16.80
  -7   3   7  215.68   17.70
  -7   3   7  225.78   15.10
  -6  -3   7  291.87   16.50
   6  -3  -7  251.07   19.00
  -6  -3   7  267.77   14.20
   6  -3  -7  280.77   18.90
  -6  -3   7  273.57   12.90
   6   3  -7  270.97   17.20
   6   3  -7  269.87   17.50
  -6   3   7  274.97   19.10
  -6   3   7  285.07   16.60
  -6   3   7  250.77   16.70
  -5  -3   7   43.40    4.20
   5  -3  -7   35.30    7.30
  -5  -3   7   43.90    5.20
  -5  -3   7   28.80    5.50
   5   3  -7   47.70    8.10
  -5   3   7   52.59    9.00
   5   3  -7   27.70    6.60
  -5   3   7   43.20    6.80
  -5   3   7   45.50    6.90
   4  -3  -7  182.68   13.70
  -4  -3   7  163.58   11.70
  -4  -3   7  174.38    8.80
   4  -3  -7  190.68   15.10
  -4  -3   7  172.58    9.50
  -4   3   7  166.88   13.50
  -4   3   7  174.38   12.90
  -4   3   7  158.38   11.80
   4   3  -7  166.28   13.40
   4   3  -7  176.58   12.50
  -3  -3   7  345.47   15.70
  -3  -3   7  328.27   18.10
  -3  -3   7  344.87   16.10
   3  -3  -7  354.06   21.70
   3  -3  -7  348.67   20.30
  -3   3   7  354.16   20.20
   3   3  -7  344.37   20.10
   3   3  -7  325.47   18.60
  -3   3   7  344.07   19.70
  -3   3   7  339.27   18.40
  -2  -3   7  483.45   22.40
   2  -3  -7  512.05   28.10
   2  -3  -7  497.45   26.00
  -2  -3   7  490.25   22.30
  -2  -3   7  485.15   24.10
  -2   3   7  510.85   26.20
   2   3  -7  490.15   24.70
  -2   3   7  505.85   26.40
  -2   3   7  479.35   24.00
   2   3  -7  514.25   26.30
  -1  -3   7  120.89    9.60
  -1  -3   7  126.99    8.70
   1  -3  -7  131.49   14.60
  -1  -3   7  113.99    9.20
  -1   3   7  136.49    9.80
   1   3  -7  122.19   12.70
  -1   3   7  141.09   13.20
  -1   3   7  111.59   11.40
   0  -3   7  473.95   22.70
   0  -3   7  403.96   20.70
   0  -3   7  402.46   21.20
   0  -3  -7  408.46   26.80
   0   3  -7  461.35   26.10
   0   3   7  434.16   21.20
   0   3   7  411.66   23.70
   0   3   7  465.85   25.70
   1  -3   7  225.08   13.50
   1  -3   7  228.08   14.30
  -1  -3  -7  230.78   20.50
  -1   3  -7  249.78   19.90
   1   3   7  229.98   17.30
   1   3   7  251.47   13.60
   1   3   7  198.98   18.60
  -2  -3  -7   83.59   14.80
   2  -3   7   84.39   10.10
   2  -3   7  104.39   14.30
   2  -3   7   96.79    8.30
   2   3   7  100.29    8.10
   2   3   7  108.59   15.10
  -2   3  -7  115.19   18.30
   2   3   7   92.09   12.20
   3  -3   7  168.28   14.70
   3  -3   7  184.78   19.60
   3  -3   7  153.78   11.40
   3   3   7  186.38   11.10
   3   3   7  204.38   16.90
   4  -3   7  130.59   18.90
   4  -3   7  135.69   16.10
   4  -3   7  125.89    9.90
  -4  -3  -7  140.19   13.70
   4   3   7  134.19   16.90
  -4   3  -7  122.49   10.70
   4   3   7  120.49    9.30
   5  -3   7   35.70   12.10
   5  -3   7   32.60    6.30
  -5  -3  -7   26.40    9.70
   5   3   7   24.30   12.10
 -10  -4   7  168.58   13.20
  10  -4  -7  179.38   23.00
  10   4  -7  204.98   23.60
 -10   4   7  157.68   25.70
   9  -4  -7  202.38   22.10
  -9  -4   7  190.88   13.90
  -9  -4   7  178.98   13.20
  -9   4   7  166.38   17.90
   9   4  -7  195.88   20.20
  -9   4   7  232.48   24.70
  -8  -4   7 1246.48   54.59
  -8  -4   7 1277.67   50.69
   8  -4  -7 1182.08   59.39
  -8   4   7 1294.07   60.59
  -8   4   7 1239.08   55.49
   8   4  -7 1261.47   58.29
   8   4  -7 1269.77   57.99
   7  -4  -7  715.53   38.00
  -7  -4   7  729.23   34.10
   7  -4  -7  682.13   36.60
  -7   4   7  694.93   38.10
   7   4  -7  749.03   35.40
  -7   4   7  783.32   35.20
   7   4  -7  709.73   35.90
  -6  -4   7  204.88   13.40
   6  -4  -7  187.68   16.10
   6  -4  -7  218.48   17.10
  -6   4   7  218.28   15.10
   6   4  -7  192.88   14.60
   6   4  -7  237.98   15.50
  -6   4   7  191.18   16.50
   5  -4  -7 2775.82  119.89
  -5  -4   7 2784.92  117.29
   5  -4  -7 2911.91  119.79
   5   4  -7 2858.11  117.79
  -5   4   7 2861.71  120.39
  -5   4   7 3045.70  118.39
   5   4  -7 3068.79  118.39
   4  -4  -7 1594.04   70.29
  -4  -4   7 1573.14   67.89
   4  -4  -7 1717.83   71.09
  -4   4   7 1599.44   70.49
  -4   4   7 1531.95   68.19
   4   4  -7 1666.53   68.49
  -4   4   7 1673.53   69.29
   3  -4  -7   -4.40    3.50
   3  -4  -7   15.20    6.70
  -3  -4   7    5.10    3.10
  -3   4   7    2.00    3.00
  -3   4   7   -7.20    3.80
  -3   4   7   -4.50    4.10
   3   4  -7    5.80    3.20
  -2  -4   7  277.97   12.60
  -2  -4   7  271.77   12.70
  -2  -4   7  275.87   15.30
   2  -4  -7  305.37   19.60
   2  -4  -7  266.77   17.10
   2   4  -7  223.58   15.10
  -2   4   7  269.57   17.90
   2   4  -7  273.37   17.30
  -2   4   7  310.07   18.70
  -2   4   7  271.67   15.60
  -1  -4   7  704.23   30.00
   1  -4  -7  711.83   36.20
  -1  -4   7  664.73   29.10
  -1  -4   7  655.63   31.30
  -1   4   7  688.53   34.40
  -1   4   7  667.43   34.00
  -1   4   7  684.63   31.30
   1   4  -7  705.43   34.30
   0  -4   7  430.56   21.50
   0  -4   7  418.66   20.00
   0  -4  -7  409.96   26.70
   0  -4   7  425.56   21.40
   0   4   7  444.26   21.10
   0   4   7  398.06   24.10
   0   4   7  420.46   25.40
   0   4  -7  442.26   25.50
   1  -4   7  647.54   30.20
   1  -4   7  614.64   28.10
   1  -4   7  605.24   28.40
  -1  -4  -7  641.24   36.20
   1   4   7  609.44   27.90
   1   4   7  609.34   32.50
  -1   4  -7  577.94   33.40
   1   4   7  579.44   33.50
  -2  -4  -7 2038.00   94.59
   2  -4   7 2102.19   86.39
   2  -4   7 2127.89   88.99
   2  -4   7 2147.29   86.99
   2   4   7 2133.99   90.49
   2   4   7 2193.08   93.49
   2   4   7 2138.59   85.29
  -2   4  -7 2047.60   93.19
   3  -4   7  402.76   20.90
   3  -4   7  435.66   27.60
   3  -4   7  368.96   24.70
   3   4   7  432.16   19.80
   3   4   7  427.66   26.30
   4  -4   7   52.99    7.20
   4  -4   7   99.49   16.70
  -4  -4  -7   50.29    9.80
   4  -4   7   51.69   10.60
  -4   4  -7   63.09    8.40
   4   4   7   48.30    6.10
   4   4   7   54.19   11.70
  -5  -4  -7  435.16   28.00
   5  -4   7  480.95   23.60
   5  -4   7  537.65   31.90
   5   4   7  464.05   32.70
 -10  -5   7   99.39   10.80
  10  -5  -7   86.89   18.10
  10   5  -7  119.19   20.90
 -10   5   7   93.49   19.40
   9  -5  -7  112.39   19.40
  -9  -5   7  135.49   11.30
   9   5  -7  138.59   18.20
  -8  -5   7   83.09    9.70
   8  -5  -7   64.89   11.70
  -8   5   7  108.39   14.60
  -8   5   7  103.09   17.70
   7  -5  -7  180.88   16.60
   7  -5  -7  176.48   17.50
  -7  -5   7  171.18   12.70
   7   5  -7  189.78   17.00
  -7   5   7  204.58   15.70
  -7   5   7  173.18   17.80
   7   5  -7  191.08   15.50
   7   5  -7  184.48   15.30
  -6  -5   7  355.56   19.60
   6   5  -7  380.36   21.10
  -6   5   7  364.76   21.30
  -6   5   7  337.77   23.50
   6   5  -7  393.86   21.00
   5  -5  -7    2.30    4.70
  -5  -5   7    2.00    3.40
   5  -5  -7    2.90    6.20
   5   5  -7   -1.30    3.70
  -5   5   7    4.60    5.40
   5   5  -7    5.40    4.70
  -5   5   7    6.60    5.10
   4  -5  -7   13.00    6.80
   4  -5  -7   13.20    5.00
  -4  -5   7   14.10    5.10
  -4   5   7   15.00    6.40
  -4   5   7   19.10    5.60
   4   5  -7   16.80    5.00
   4   5  -7   15.30    4.40
   3  -5  -7   95.39   13.10
   3  -5  -7  118.49   11.40
  -3  -5   7  104.49    8.90
  -3   5   7  114.29   12.20
  -3   5   7  109.59   12.00
  -3   5   7  108.19    9.20
   3   5  -7  114.09    9.60
   3   5  -7  111.19   11.20
   2  -5  -7    6.60    5.80
  -2  -5   7   -0.60    3.10
   2   5  -7   -5.40    4.90
  -2   5   7   13.70    6.10
   2   5  -7    2.70    3.20
  -2   5   7   13.60    5.30
  -2   5   7    9.40    4.00
   1  -5  -7  124.19   15.20
  -1  -5   7  119.09    9.40
  -1  -5   7  130.19    7.50
  -1  -5   7  134.69    7.00
  -1   5   7  103.99   12.00
  -1   5   7  119.39   13.90
   1   5  -7  133.59   12.90
  -1   5   7  128.09    9.60
   0  -5  -7  354.76   24.30
   0  -5   7  324.17   16.50
   0  -5   7  331.27   15.50
   0  -5   7  320.27   17.40
   0   5   7  308.67   16.90
   0   5   7  319.57   22.40
   0   5   7  296.77   20.40
   0   5  -7  314.07   21.10
   1  -5   7  144.09   10.50
   1  -5   7  157.38   10.50
   1  -5   7  156.68   12.30
  -1  -5  -7  168.28   19.60
   1   5   7  138.89   14.10
   1   5   7  148.59   10.00
  -1   5  -7  135.49   16.60
   1   5   7  128.59   17.80
   2  -5   7   11.80    5.10
   2  -5   7    9.40    9.00
  -2  -5  -7    5.50    6.20
   2  -5   7    7.30    3.80
  -2  -5  -7    9.00   11.60
   2   5   7    3.40    6.20
   2   5   7   10.60    9.80
   2   5   7    8.00    4.00
  -2   5  -7   17.90   10.20
   3  -5   7   30.10    5.30
  -3  -5  -7   17.60    8.20
   3  -5   7   29.60    7.40
   3  -5   7   48.70   10.50
   3   5   7   30.30    5.30
   3   5   7   33.30    9.50
   4  -5   7   13.80    4.80
   4  -5   7   25.10    9.00
  -4  -5  -7   20.10    8.10
   4  -5   7    8.20   14.10
   4   5   7   25.70   10.20
  -4   5  -7   21.40    5.00
 -10  -6   7  123.09   11.90
  10  -6  -7  171.28   26.50
 -10   6   7  155.58   24.20
  10   6  -7  185.48   24.60
  -9  -6   7  106.69    9.70
   9  -6  -7   89.59   16.00
  -9   6   7  111.49   17.60
   9   6  -7   79.09   13.10
   8  -6  -7  450.35   30.30
  -8  -6   7  459.55   23.70
  -8   6   7  467.75   26.80
  -8   6   7  464.05   31.80
   8   6  -7  449.46   27.00
  -7  -6   7  320.97   18.70
   7  -6  -7  338.47   23.70
   7  -6  -7  323.97   24.00
   7   6  -7  369.46   21.10
  -7   6   7  348.57   22.00
   7   6  -7  356.66   20.50
  -7   6   7  343.17   25.00
   7   6  -7  357.96   23.20
  -6  -6   7   24.00    4.70
   6  -6  -7   19.00    6.80
   6  -6  -7   37.00    8.60
   6   6  -7   24.40    5.80
   6   6  -7   18.90    5.60
  -6   6   7   12.80    5.70
   5  -6  -7 1581.14   68.89
  -5  -6   7 1525.55   66.09
   5  -6  -7 1523.85   69.39
  -5   6   7 1627.64   68.19
  -5   6   7 1509.05   69.99
   5   6  -7 1641.04   66.49
   4  -6  -7 1144.49   52.79
   4  -6  -7 1140.59   53.09
  -4  -6   7 1099.49   49.70
  -4   6   7 1194.18   52.29
  -4   6   7 1106.69   53.19
   4   6  -7 1140.09   49.90
   4   6  -7 1230.98   50.09
   3  -6  -7  109.49   11.50
  -3  -6   7  108.59    9.20
   3   6  -7  107.59   10.80
   3   6  -7  107.19    9.10
  -3   6   7  113.49   12.00
  -3   6   7   94.39   12.60
  -3   6   7  110.29   10.00
   2  -6  -7  850.71   41.60
  -2  -6   7  764.52   37.00
  -2   6   7  892.71   41.20
  -2   6   7  828.42   40.60
  -2   6   7  833.52   37.50
  -1  -6   7  617.44   30.10
   1  -6  -7  657.63   35.10
  -1   6   7  654.43   34.20
   1   6  -7  661.83   32.50
  -1   6   7  631.44   33.30
  -1   6   7  666.23   30.10
   0  -6  -7  209.68   20.60
   0  -6   7  227.38   13.90
   0  -6   7  223.28   11.40
   0  -6   7  227.48   10.90
   0   6   7  224.18   13.30
   0   6   7  203.08   25.00
   0   6  -7  231.88   17.90
   0   6   7  225.18   19.60
   1  -6   7  206.08   13.30
   1  -6   7  188.78   11.30
   1  -6   7  182.38   12.40
  -1  -6  -7  230.08   22.60
   1   6   7  208.98   16.90
   1   6   7  194.58   12.20
  -1   6  -7  193.98   18.50
   1   6   7  197.68   21.30
   2  -6   7 1071.49   49.10
   2  -6   7 1121.49   50.29
   2  -6   7 1166.48   48.80
   2   6   7 1131.99   53.69
  -2   6  -7 1043.20   55.79
   2   6   7 1159.88   47.90
   2   6   7 1329.57   62.49
   3  -6   7  578.04   28.90
   3  -6   7  589.54   32.10
   3  -6   7  547.35   27.30
   3   6   7  563.24   32.90
   3   6   7  591.94   25.70
   4  -6   7    6.10    4.10
  -4  -6  -7    1.70    7.60
   4  -6   7   -1.20    8.80
   4   6   7  -14.80    9.20
  10  -7  -7  585.14   44.90
 -10  -7   7  683.33   31.10
 -10   7   7  673.43   48.60
  10   7  -7  662.73   41.20
   9  -7  -7  232.98   26.40
  -9  -7   7  251.57   15.80
  -9   7   7  271.77   29.60
   9   7  -7  250.47   22.80
  -8  -7   7    6.30    4.30
   8  -7  -7    0.60    8.70
   8   7  -7   14.30    7.00
  -8   7   7   15.40   10.50
   7  -7  -7  582.34   31.80
   7  -7  -7  536.85   32.50
  -7  -7   7  522.95   26.90
   7   7  -7  562.44   28.60
   7   7  -7  577.44   28.30
   7   7  -7  521.25   30.80
  -7   7   7  588.04   34.20
  -7   7   7  525.25   29.50
   6  -7  -7 1047.40   51.49
  -6  -7   7 1051.79   47.30
   6  -7  -7 1112.29   50.79
  -6   7   7 1113.29   53.09
   6   7  -7 1058.59   50.19
  -6   7   7 1089.09   49.60
   6   7  -7 1105.59   47.60
   6   7  -7 1054.39   47.60
  -5  -7   7    5.10    3.40
   5  -7  -7    9.30   10.80
   5  -7  -7   -0.50    6.10
   5   7  -7   -4.40    4.30
  -5   7   7   -6.10    6.70
   5   7  -7   -1.40    3.70
  -5   7   7    7.40    6.10
   4  -7  -7  637.94   32.90
  -4  -7   7  622.44   29.80
   4  -7  -7  631.54   33.40
   4   7  -7  638.04   29.80
  -4   7   7  626.54   33.70
   4   7  -7  645.74   29.50
  -4   7   7  609.14   32.60
   3  -7  -7 1309.77   59.49
  -3  -7   7 1262.87   55.59
   3  -7  -7 1300.97   58.29
  -3   7   7 1354.46   59.09
   3   7  -7 1304.17   55.89
   3   7  -7 1344.47   55.19
  -3   7   7 1240.18   59.09
   2  -7  -7  951.90   45.40
  -2  -7   7  840.52   40.30
   2   7  -7  921.61   42.30
  -2   7   7  956.70   44.70
  -2   7   7  905.31   44.20
  -2   7   7  920.31   40.80
  -1  -7   7   21.20    5.00
   1  -7  -7   27.50    8.00
  -1   7   7   29.60    5.80
   1   7  -7   22.30    6.80
  -1   7   7   20.70    7.60
  -1   7   7   13.60    7.30
   0  -7  -7  950.00   47.50
   0  -7   7  886.11   41.00
   0   7   7  902.51   44.70
   0   7   7  966.80   46.80
   0   7  -7  971.30   44.60
   0   7   7  899.01   40.40
   1  -7   7  919.91   41.80
   1  -7   7  957.70   39.30
   1  -7   7  954.20   38.80
  -1  -7  -7  998.60   50.29
   1   7   7  910.01   45.70
   1   7   7  936.21   40.60
   1   7   7 1019.60   49.50
  -1   7  -7  862.51   45.80
   2  -7   7   65.09    8.60
   2  -7   7   63.79   11.00
   2  -7   7   72.59    8.10
   2   7   7   83.79    7.80
   2   7   7   55.69   10.20
  -2   7  -7   82.79   14.40
   3  -7   7  359.76   19.90
   3  -7   7  331.57   18.60
   3   7   7  350.26   16.90
   3   7   7  308.97   23.50
   4  -7   7  369.36   20.20
  -4  -7  -7  337.57   23.80
   4   7   7  430.76   29.20
 -10  -8   7   -6.90    5.90
  10  -8  -7  -15.80   20.00
  10   8  -7    0.30   13.30
 -10   8   7  -18.90   18.40
   9  -8  -7  160.08   22.60
  -9  -8   7  116.29   10.70
  -9   8   7  130.49   20.10
   9   8  -7  112.59   19.30
  -8  -8   7  152.28   11.80
   8  -8  -7  133.09   18.00
   8   8  -7  137.29   15.60
  -8   8   7  195.78   24.10
  -7  -8   7   68.49    8.60
   7  -8  -7   90.09   13.20
  -7   8   7   91.19   15.70
   7   8  -7   98.49   11.70
   7   8  -7   71.39   11.40
   6  -8  -7   66.19   10.60
   6  -8  -7   57.89    9.90
  -6  -8   7   48.20    7.20
   6   8  -7   65.09   11.00
   6   8  -7   49.00    7.30
  -6   8   7   61.99   10.10
  -6   8   7   55.99   11.40
   6   8  -7   63.29    9.10
   5  -8  -7   -0.10    5.80
   5  -8  -7   -5.50    6.00
  -5  -8   7    4.40    4.30
   5   8  -7   -0.50    3.80
  -5   8   7   -0.10    6.70
  -5   8   7    0.00    6.70
   5   8  -7   -6.20    4.50
   5   8  -7    2.30    6.80
  -4  -8   7   25.60    5.40
   4  -8  -7   23.90    8.00
  -4   8   7   17.20    7.80
   4   8  -7   22.70    5.60
   4   8  -7   18.30    4.40
  -3  -8   7    2.90    3.40
   3  -8  -7    6.10    5.10
   3  -8  -7    5.10    7.10
  -3   8   7    6.40    6.60
   3   8  -7   -0.80    4.40
  -3   8   7   -3.60    6.20
   3   8  -7    2.00    3.30
   2  -8  -7  104.59   13.40
  -2  -8   7   76.49    8.50
   2   8  -7   89.09   10.10
  -2   8   7   90.89   13.00
  -2   8   7   82.69    9.00
   1  -8  -7  272.37   21.20
  -1  -8   7  264.87   15.60
  -1   8   7  261.87   19.30
  -1   8   7  266.87   15.50
  -1   8   7  241.68   20.70
   1   8  -7  262.87   17.50
   0  -8  -7   42.50   11.10
   0  -8   7   46.40    6.80
   0   8   7   35.10   10.40
   0   8   7   32.40    7.90
   0   8   7   43.20    6.40
   0   8  -7   44.50    9.00
  -1  -8  -7   33.40   13.50
   1  -8   7   36.60    6.20
   1   8   7   40.30    8.40
  -1   8  -7   46.70   10.90
   1   8   7   39.50   12.50
   1   8   7   38.50    6.00
   2  -8   7   26.50    4.60
   2  -8   7   26.90    5.80
   2  -8   7   28.50    5.60
   2   8   7   21.00    5.10
   2   8   7   13.40    8.20
   3  -8   7    3.70    6.30
  -3  -8  -7   -0.80    8.10
   3  -8   7    3.60    3.40
  -3   8  -7   -6.20    3.80
   3   8   7    9.90    9.30
   3   8   7   -1.10    4.80
   4  -8   7   22.50   14.40
  -4  -8  -7   12.30    9.10
   4   8   7   -3.70   10.50
   9  -9  -7  418.26   35.30
  -9  -9   7  519.55   25.30
  -9   9   7  518.25   40.50
   9   9  -7  525.25   32.00
  -8  -9   7   14.50    5.80
   8  -9  -7   16.20   10.40
   8   9  -7    9.20    8.30
  -8   9   7   24.60   12.60
  -7  -9   7  580.74   28.50
   7  -9  -7  531.75   33.60
   7   9  -7  617.34   30.10
  -7   9   7  607.44   36.90
   6  -9  -7 1444.96   63.19
   6  -9  -7 1390.16   64.09
  -6  -9   7 1340.67   58.79
  -6   9   7 1418.76   65.89
   6   9  -7 1364.66   62.39
   6   9  -7 1372.66   58.99
  -6   9   7 1345.27   62.49
   6   9  -7 1372.86   58.59
   5  -9  -7  190.68   16.50
  -5  -9   7  185.48   12.30
   5  -9  -7  181.38   16.80
   5   9  -7  157.78   12.90
  -5   9   7  196.78   17.90
  -5   9   7  161.38   17.10
   5   9  -7  176.78   16.10
   5   9  -7  154.08   11.90
   4  -9  -7  658.23   35.20
   4  -9  -7  688.73   36.00
  -4  -9   7  646.54   31.90
   4   9  -7  711.13   31.20
   4   9  -7  658.43   33.90
  -4   9   7  727.23   37.40
   4   9  -7  696.33   31.60
  -4   9   7  700.43   36.30
   3  -9  -7 1815.82   80.39
   3  -9  -7 2011.70   81.99
  -3  -9   7 1826.02   77.49
  -3   9   7 1857.41   81.49
  -3   9   7 1820.52   81.99
   3   9  -7 1920.91   76.99
   3   9  -7 1781.02   75.79
  -2  -9   7  561.54   28.80
   2  -9  -7  627.44   34.10
  -2   9   7  623.74   34.30
  -2   9   7  590.24   33.10
   2   9  -7  618.24   29.40
  -1  -9   7    9.90    4.70
   1  -9  -7   13.70    9.30
  -1   9   7   -1.50    7.40
   1   9  -7   17.70    6.50
  -1   9   7   16.80    5.00
  -1   9   7   10.60    7.00
   0  -9  -7  523.55   33.10
   0  -9   7  506.75   26.20
   0   9  -7  576.14   29.80
   0   9   7  519.15   25.70
   0   9   7  563.84   31.10
   0   9   7  554.44   33.60
  -1  -9  -7  960.90   49.80
   1  -9   7  920.81   41.60
  -1   9  -7  882.51   45.90
   1   9   7  894.61   46.30
   1   9   7  976.80   40.40
  -2  -9  -7   10.00    7.90
   2  -9   7   22.00    5.20
  -2   9  -7   -5.30   12.10
  -2   9  -7   11.30    5.60
   2   9   7   26.50    8.90
  -3  -9  -7  853.01   43.10
   3  -9   7  809.42   38.60
   3   9   7  880.31   45.40
  -4  -9  -7  664.53   36.70
   4  -9   7  695.03   32.90
   4   9   7  696.23   42.60
   9 -10  -7   21.50   14.00
   9  10  -7   30.60   11.60
  -9  10   7    7.30   16.80
  -8 -10   7  187.68   13.10
   8 -10  -7  157.78   22.70
  -8  10   7  167.88   27.50
   8  10  -7  193.08   17.90
   7 -10  -7  185.98   21.00
  -7 -10   7  205.58   13.70
   7  10  -7  202.48   15.90
  -7  10   7  208.88   23.10
  -6 -10   7  137.49   11.20
   6 -10  -7  157.68   18.10
   6 -10  -7  131.79   16.60
  -6  10   7  155.18   18.90
   6  10  -7  157.88   12.30
  -6  10   7  105.59   18.40
   6  10  -7  141.99   19.20
   6  10  -7  132.69   17.30
   5 -10  -7  518.25   30.20
  -5 -10   7  495.25   25.90
   5 -10  -7  591.14   31.20
  -5  10   7  556.54   31.60
   5  10  -7  540.55   25.80
  -5  10   7  475.45   31.50
   5  10  -7  511.65   25.20
   5  10  -7  538.05   29.90
  -4 -10   7  111.99    9.80
   4 -10  -7  139.79   14.30
   4 -10  -7  143.29   16.10
   4  10  -7  125.89   10.60
  -4  10   7  100.99   14.20
  -4  10   7   87.89   13.40
   4  10  -7  105.69    9.30
   4  10  -7  111.79   13.30
   3 -10  -7   14.80    9.30
  -3 -10   7    6.80    3.60
   3 -10  -7   13.50    5.60
   3  10  -7   14.20    5.40
  -3  10   7   20.00    9.00
  -3  10   7   18.70    7.00
   3  10  -7   16.10    4.20
   3  10  -7   13.50    7.00
   2 -10  -7   57.29   11.20
  -2 -10   7   60.19    7.40
   2  10  -7   58.29    9.50
  -2  10   7   55.09   11.40
   2  10  -7   59.59    9.70
  -2  10   7   73.89   12.20
  -1 -10   7  127.29   10.10
   1 -10  -7  143.49   18.30
   1  10  -7   97.39   11.60
  -1  10   7  132.39   15.70
  -1  10   7  111.19   10.30
   1  10  -7  128.29   12.90
  -1  10   7  137.09   19.50
   0 -10  -7   30.20    9.90
   0 -10   7    8.00    4.40
   0  10   7    1.70    4.80
   0  10   7   -0.60    7.30
   0  10   7    9.00   12.50
   0  10  -7    5.90    5.60
   0  10  -7   14.90    7.50
  -1 -10  -7  152.08   23.50
   1 -10   7  137.39   11.20
   1  10   7  123.29   17.40
  -1  10  -7  113.39   18.90
  -1  10  -7  142.69   12.10
   1  10   7  140.99   10.70
   2 -10   7  262.17   16.20
  -2  10  -7  191.28   25.60
   2  10   7  280.77   14.60
  -2  10  -7  266.47   15.10
   2  10   7  235.68   22.40
  -3 -10  -7  186.38   19.00
   3 -10   7  174.08   13.10
   3  10   7  196.38   22.70
  -9 -11   7  196.58   13.50
   9 -11  -7  182.58   29.90
  -9  11   7  168.88   26.10
   9  11  -7  231.28   23.20
   8 -11  -7   11.70   11.20
  -8 -11   7   14.00    5.30
  -8  11   7   30.10   14.90
   8  11  -7   11.00    8.90
   7 -11  -7  275.37   25.20
  -7 -11   7  262.77   16.20
   7  11  -7  252.77   17.90
  -7  11   7  284.27   26.70
  -6 -11   7  520.85   26.60
   6 -11  -7  531.65   32.90
   6  11  -7  543.35   26.60
  -6  11   7  574.04   35.40
   5 -11  -7   54.49   10.60
  -5 -11   7   58.69    7.50
   5 -11  -7   75.89   12.30
   5  11  -7   60.59    8.30
  -5  11   7   57.19   13.30
   5  11  -7   41.50   10.10
  -5  11   7   44.80   10.70
   5  11  -7   46.50    7.20
   4 -11  -7  172.38   18.00
  -4 -11   7  140.89   11.20
   4 -11  -7  128.99   15.40
   4  11  -7  185.48   11.10
  -4  11   7  124.19   18.60
   4  11  -7  163.18   15.40
   4  11  -7  146.09   11.70
  -4  11   7  147.39   18.20
  -3 -11   7  572.04   28.40
   3 -11  -7  620.74   33.70
   3  11  -7  562.94   26.40
  -3  11   7  581.54   35.00
   3  11  -7  602.24   30.80
   3  11  -7  590.24   27.90
  -3  11   7  569.64   33.90
   2 -11  -7  337.27   24.40
  -2 -11   7  282.07   17.20
  -2  11   7  289.07   24.90
  -2  11   7  292.67   22.90
   2  11  -7  312.47   19.40
   2  11  -7  311.57   18.10
   1 -11  -7   30.80   11.90
  -1 -11   7   33.30    6.10
   1  11  -7   46.80    8.30
   1  11  -7   41.20    7.80
  -1  11   7   39.80   10.10
  -1  11   7   50.69   12.60
   0 -11   7  343.37   20.10
   0 -11  -7  380.36   29.70
   0  11   7  386.76   26.50
   0  11  -7  364.16   20.80
   0  11   7  373.96   19.90
   0  11  -7  357.76   23.90
   1 -11   7  271.37   16.80
   1  11   7  299.67   16.40
  -1  11  -7  291.47   23.90
   1  11   7  275.47   23.80
  -1  11  -7  278.17   17.30
  -2 -11  -7    8.60    9.50
   2 -11   7    4.30    3.80
   2  11   7   -8.50    5.00
   2  11   7    5.80    9.50
   3 -11   7  257.47   20.10
  -3 -11  -7  254.97   22.60
   3  11   7  245.88   25.80
   8 -12  -7  862.71   50.29
  -8 -12   7  886.51   40.20
   8  12  -7  856.21   43.40
  -8  12   7  990.40   55.09
  -7 -12   7  468.35   24.10
   7 -12  -7  477.25   32.00
  -7  12   7  485.35   35.10
   7  12  -7  456.55   25.40
  -6 -12   7  159.68   12.40
   6 -12  -7  184.48   20.00
   6  12  -7  192.68   13.80
  -6  12   7  163.78   21.00
   6  12  -7  151.38   13.10
   5 -12  -7  850.01   44.20
   5 -12  -7  868.91   44.10
  -5 -12   7  816.22   38.90
   5  12  -7  859.61   45.70
   5  12  -7  856.01   37.40
  -5  12   7  891.81   46.90
   5  12  -7  861.01   37.60
  -4 -12   7  413.16   22.20
   4 -12  -7  409.46   26.10
   4 -12  -7  392.26   27.10
   4  12  -7  422.56   20.20
   4  12  -7  460.75   26.70
   4  12  -7  412.16   21.00
  -4  12   7  424.66   29.90
  -3 -12   7    8.90    4.40
   3 -12  -7   29.40   10.90
  -3  12   7   32.00   10.60
   3  12  -7    8.60    8.00
   3  12  -7   17.50    5.80
   2 -12  -7  575.34   34.60
  -2 -12   7  516.15   27.70
   2  12  -7  539.85   29.70
   2  12  -7  594.04   27.90
  -2  12   7  632.54   34.60
   1 -12  -7 1322.57   62.29
  -1 -12   7 1208.08   55.79
  -1  12   7 1343.27   61.99
   1  12  -7 1305.97   56.29
   1  12  -7 1267.27   56.49
   0 -12  -7  253.97   26.30
   0 -12   7  200.38   14.40
   0  12   7  189.78   20.80
   0  12  -7  217.68   19.40
   0  12   7  234.48   14.50
   0  12  -7  229.78   16.20
   1 -12   7  180.48   13.60
   1  12   7  195.38   13.10
  -1  12  -7  203.78   14.30
  -1  12  -7  229.98   22.20
   1  12   7  176.08   20.90
   2 -12   7  779.72   37.80
  -2 -12  -7  766.42   42.20
   2  12   7  829.12   44.80
   2  12   7  824.82   35.00
   3 -12   7  222.08   15.50
  -3 -12  -7  244.58   23.20
   3  12   7  216.28   26.70
  -8 -13   7    3.90    5.20
   8 -13  -7   50.89   15.60
  -8  13   7   19.20   16.80
   8  13  -7   -1.70    9.70
   7 -13  -7   -6.00   11.40
  -7 -13   7   10.60    4.80
   7  13  -7   15.70    7.50
  -7  13   7    8.50   12.50
   6 -13  -7   16.80   10.10
  -6 -13   7    6.50    4.40
   6  13  -7    5.50    5.70
  -6  13   7    2.70   11.00
   5 -13  -7   32.90    9.30
  -5 -13   7   18.40    4.90
   5  13  -7   21.60    5.60
   5  13  -7   20.30    5.80
  -5  13   7   27.10   11.00
   4 -13  -7   35.70    9.90
   4 -13  -7   11.50    8.20
  -4 -13   7    9.00    3.80
  -4  13   7   14.10    9.50
   4  13  -7   13.50    5.60
   4  13  -7    6.80    4.40
   4  13  -7   15.00    9.20
   3 -13  -7    8.00    9.80
  -3 -13   7   16.40    5.50
   3  13  -7   10.10    7.90
   3  13  -7   20.00    5.90
  -3  13   7   14.10   10.50
   2 -13  -7    5.10   10.90
  -2 -13   7    6.50    4.40
   2  13  -7   11.90    6.50
  -2  13   7   15.90    8.90
   2  13  -7   15.10    7.80
   1 -13  -7   49.00   12.90
  -1  13   7   23.70    9.70
   1  13  -7   31.40    8.20
   1  13  -7   39.00    8.50
   0 -13  -7   33.80   16.00
   0 -13  -7   -7.40    8.60
   0 -13   7    7.50    4.80
   0  13  -7    9.30    7.20
   0  13   7   10.80    8.80
   0  13   7    7.60    5.30
   0  13  -7   25.60    9.90
   1 -13   7    9.90    4.30
  -1 -13  -7    0.00    9.60
   1  13   7    4.70    9.40
  -1  13  -7    6.50   12.10
   1  13   7   14.40    5.80
   2 -13   7    0.60    4.50
  -2 -13  -7   22.00   10.40
   2  13   7   11.50    6.40
   2  13   7    0.20   11.00
  -8 -14   7  511.85   25.80
   8 -14  -7  515.05   38.50
   7 -14  -7  256.77   27.20
  -7 -14   7  278.27   16.70
   7  14  -7  251.27   23.90
  -7  14   7  288.87   32.90
  -6 -14   7    6.10    5.00
   6 -14  -7   12.30   10.30
   6  14  -7    5.00    5.90
  -6  14   7   -4.40   13.00
   5 -14  -7  652.73   36.80
  -5 -14   7  658.53   32.00
  -5  14   7  719.53   41.70
   5  14  -7  657.73   29.60
   5  14  -7  644.54   29.50
  -4 -14   7  847.82   40.70
   4  14  -7  892.81   37.40
  -4  14   7  921.61   49.30
   4  14  -7  899.61   38.20
   3 -14  -7   -6.50    9.80
  -3 -14   7    1.90    4.00
  -3  14   7   13.80   10.90
   3  14  -7    2.00    5.80
   3  14  -7   -2.30    8.90
  -2 -14   7  915.11   42.60
   2 -14  -7  996.90   48.70
   2  14  -7  949.80   41.60
  -2  14   7  937.41   49.60
   2  14  -7  873.51   44.30
   1 -14  -7  810.72   45.70
  -1 -14   7  800.62   38.30
   1  14  -7  838.12   38.90
  -1  14   7  851.71   45.50
   1  14  -7  794.92   39.60
   0 -14   7  179.38   14.40
   0  14  -7  213.88   17.40
   0  14   7  217.88   22.90
   0  14  -7  258.27   21.10
   0  14   7  224.38   14.90
   1 -14   7   38.70    8.40
  -1 -14  -7   26.00   11.40
  -1  14  -7   15.70   14.40
   1  14   7   32.40    7.10
   1  14   7   24.20   12.70
  -2 -14  -7  760.22   41.20
   2 -14   7  704.23   35.80
   2  14   7  739.43   44.90
  -7 -15   7  224.68   14.70
   7 -15  -7  241.88   27.30
  -7  15   7  157.08   25.30
   6 -15  -7  369.76   28.50
  -6 -15   7  340.77   20.10
  -6  15   7  375.36   33.70
  -5 -15   7    4.10    5.10
   5 -15  -7   12.60    9.60
   5  15  -7    5.50    5.20
  -5  15   7    7.40   12.20
  -4 -15   7  267.17   17.00
  -4  15   7  292.97   27.60
  -3 -15   7  480.55   26.10
   3  15  -7  453.65   30.60
   3  15  -7  546.15   24.70
  -3  15   7  525.15   35.70
  -2 -15   7  183.58   13.80
   2 -15  -7  168.78   26.10
   2  15  -7  214.58   15.90
  -2  15   7  204.98   23.30
   2  15  -7  192.08   19.70
  -1 -15   7   31.80    6.70
  -1  15   7   22.90   12.50
   1  15  -7   42.90   10.20
   1  15  -7   36.40    9.90
   0 -15  -7  250.57   24.80
   0 -15   7  283.37   21.80
   0  15   7  376.36   29.00
   0  15   7  375.86   19.60
  -1 -15  -7  204.38   21.60
   1 -15   7  161.08   13.60
   1  15   7  171.98   25.30
   1  15   7  196.38   14.50
   6 -16  -7   -3.30   11.40
  -6 -16   7   -0.20    4.70
  -6  16   7   21.60   16.70
   5 -16  -7   56.89   12.80
  -5 -16   7   72.79    8.90
  -5  16   7   36.40   14.70
  -4 -16   7   86.99   10.00
  -4  16   7  146.29   24.10
  -3 -16   7   46.10    8.00
  -3  16   7   50.09   14.20
  -2 -16   7   98.89   11.10
   2  16  -7   89.59   14.30
  -2  16   7  114.99   18.40
  -1 -16   7  151.28   12.70
   1 -16  -7  120.79   20.90
   1  16  -7  180.98   25.30
  -1  16   7  177.28   22.10
   0 -16  -7  -16.90   10.60
   0 -16   7   -3.60    3.40
   0  16   7   -1.30    6.00
   0  16   7    2.20   11.50
  -5 -17   7  142.09   12.70
  -5  17   7  173.48   30.00
  -4 -17   7  159.58   17.10
  -4  17   7  191.88   27.70
  -3 -17   7  662.93   37.90
  -3  17   7  857.91   48.40
  -2 -17   7  320.67   19.90
  -2  17   7  356.76   32.60
   2  17  -7  346.67   28.00
  -1 -17   7   22.90    5.50
   1 -17  -7   30.70   13.60
  -1  17   7    1.80   13.30
   3 -18  -7   16.70   15.00
  -3  18   7    7.40   16.60
   2 -18  -7    2.00   15.10
  -2 -18   7   10.80    5.00
  -2  18   7    3.70   15.90
 -10   0   8  601.44   31.00
  10   0  -8  578.84   39.50
 -10   0   8  557.84   35.50
  -9   0   8  758.32   37.60
  -9   0   8  739.33   39.60
  -9   0   8  787.32   36.20
   9   0  -8  758.82   43.30
  -8   0   8  128.59   11.70
   8   0  -8  147.09   22.50
  -8   0   8  132.69   14.50
   8   0  -8   91.59   14.20
  -8   0   8  106.99   11.30
   7   0  -8    4.10    6.70
  -7   0   8   14.10    4.90
   7   0  -8   14.40    8.00
  -7   0   8   14.10    6.70
  -7   0   8   15.50    6.40
  -6   0   8  738.33   35.30
  -6   0   8  705.13   35.10
  -6   0   8  763.82   33.30
   6   0  -8  754.12   37.60
   6   0  -8  714.53   37.10
  -5   0   8 1261.27   57.19
   5   0  -8 1303.27   59.09
  -5   0   8 1372.76   55.29
   5   0  -8 1262.47   58.59
  -5   0   8 1351.96   57.19
  -4   0   8   11.10    4.10
  -4   0   8    8.60    4.80
   4   0  -8   10.40    6.60
  -4   0   8    1.10    3.40
   4   0  -8    2.30    4.40
  -3   0   8 2304.27   98.29
   3   0  -8 2394.96   99.89
   3   0  -8 2488.95  101.49
  -3   0   8 2459.85   97.99
  -3   0   8 2341.57   98.29
  -2   0   8 2217.18   96.69
  -2   0   8 2385.76   97.19
  -2   0   8 2350.36   97.79
   2   0  -8 2507.95  101.19
  -1   0   8   -0.30    3.40
  -1   0   8    0.10    4.70
  -1   0   8    9.40    6.20
   1   0  -8    4.50    7.90
   0   0   8  783.92   36.70
   0   0   8  829.22   38.50
   0   0  -8  771.52   43.30
   0   0   8  880.61   40.60
   1   0   8  781.82   41.60
  -1   0  -8  819.82   49.70
   1   0   8  814.62   36.20
   1   0   8  804.92   41.60
   2   0   8  712.23   32.90
   2   0   8  744.73   36.20
   2   0   8  721.63   41.10
   3   0   8   23.80    9.00
  -3   0  -8   -4.00    7.60
   3   0   8   13.60    4.80
   4   0   8 1090.19   46.40
   4   0   8 1111.29   52.99
  -4   0  -8 1059.29   49.30
 -10  -1   8  234.38   21.60
 -10  -1   8  192.28   16.10
  10  -1  -8  201.98   27.80
 -10   1   8  176.48   24.00
  10   1  -8  200.08   26.20
 -10   1   8  221.98   17.40
  -9  -1   8   10.50    6.90
  -9  -1   8    5.90    5.60
  -9  -1   8   17.50    8.40
   9  -1  -8   19.20   10.20
   9   1  -8   18.90   10.60
  -9   1   8    0.90    5.20
  -9   1   8    3.10    7.50
  -9   1   8   17.00    9.50
  -8  -1   8   41.70    8.40
   8  -1  -8   36.50   10.90
  -8  -1   8   46.80    9.40
  -8  -1   8   52.89    8.40
  -8   1   8   57.69   10.30
   8   1  -8   61.39   10.90
  -8   1   8   40.10    8.00
  -8   1   8   50.99    8.00
   8   1  -8   40.40   10.50
  -7  -1   8  101.39    9.40
  -7  -1   8  105.49   11.70
  -7  -1   8  105.29   10.20
   7  -1  -8  104.19   14.50
   7  -1  -8   99.09   14.30
  -7   1   8   98.79   11.00
  -7   1   8  108.09   10.60
   7   1  -8   89.89   14.10
  -7   1   8  111.89   12.80
   6  -1  -8  100.29   14.80
  -6  -1   8   99.79    8.30
  -6  -1   8   86.19    9.80
  -6  -1   8   87.29   10.00
   6  -1  -8   92.59   13.00
   6   1  -8  120.29   14.20
  -6   1   8  111.39   10.30
   6   1  -8   98.69   12.80
  -6   1   8  109.29   12.00
  -6   1   8   80.89    9.80
   5  -1  -8   73.19   10.90
  -5  -1   8   61.19    8.10
  -5  -1   8   67.09    8.60
  -5  -1   8   66.69    7.20
   5  -1  -8   63.19    9.40
   5   1  -8   70.79   10.30
   5   1  -8   78.19   10.90
  -5   1   8   67.49    8.30
  -5   1   8   64.09   10.10
  -5   1   8   74.39    8.90
  -4  -1   8  368.86   20.60
  -4  -1   8  385.36   19.00
   4  -1  -8  382.76   22.40
   4  -1  -8  383.96   24.00
  -4  -1   8  373.76   19.80
  -4   1   8  367.86   20.70
  -4   1   8  411.56   21.90
  -4   1   8  387.06   20.90
   4   1  -8  350.66   21.60
   4   1  -8  379.66   23.50
  -3  -1   8    6.40    4.00
   3  -1  -8    2.60    6.40
  -3  -1   8    8.10    4.60
  -3  -1   8    2.40    4.10
   3  -1  -8   -2.40    4.20
   3   1  -8    0.60    6.50
  -3   1   8    0.50    4.50
   3   1  -8   12.20    4.70
  -3   1   8   -2.80    5.00
  -3   1   8    1.80    3.20
   2  -1  -8  156.58   16.60
  -2  -1   8  131.99   10.80
  -2  -1   8  119.99   10.00
  -2  -1   8  135.29   11.70
  -2   1   8  116.79   10.20
   2   1  -8  147.29   15.30
  -2   1   8  128.99   11.80
  -2   1   8  113.59   12.70
  -1  -1   8   66.79    8.10
  -1  -1   8   65.69    9.10
  -1  -1   8   72.39   11.20
   1  -1  -8   79.79   13.50
  -1   1   8   80.69   10.00
   1   1  -8   69.79   12.40
  -1   1   8   77.09   12.40
  -1   1   8   67.99    7.60
   0  -1   8   34.50    6.30
   0  -1  -8   15.20   10.50
   0  -1   8   36.30    6.40
   0  -1   8   53.09    9.70
   0   1   8   28.80    9.20
   0   1  -8   34.80   11.20
   0   1   8   35.90    5.80
   0   1   8   31.00    6.80
   1  -1   8    0.50    3.60
   1  -1   8   -3.10    8.90
   1  -1   8    3.40    5.10
   1   1   8   -3.70    9.40
  -1   1  -8    6.90   11.90
   1   1   8    0.90    3.90
   1   1   8   14.30    6.40
   2  -1   8  174.88   15.20
   2  -1   8  146.29   11.20
   2  -1   8  197.18   22.10
   2   1   8  169.98   16.40
   2   1   8  160.98   11.50
   2   1   8  140.19   23.50
   3  -1   8  195.78   12.80
   3  -1   8  185.58   18.30
   3   1   8  185.28   12.70
   3   1   8  219.68   19.10
  -4  -1  -8   24.40    9.30
   4  -1   8   35.10    6.50
   4  -1   8   50.99   11.50
   4   1   8   52.89   12.30
   4   1   8   34.80    6.10
  -4   1  -8   29.20    8.40
 -10  -2   8  395.16   34.00
  10  -2  -8  343.07   32.20
 -10  -2   8  353.26   21.80
 -10   2   8  367.96   22.60
 -10   2   8  353.76   29.90
  10   2  -8  322.87   31.50
   9  -2  -8  804.52   45.70
  -9  -2   8  854.01   39.60
  -9  -2   8  823.22   39.70
  -9   2   8  864.11   39.80
  -9   2   8  804.22   43.80
  -9   2   8  795.12   40.30
   9   2  -8  832.62   45.00
   8  -2  -8   99.89   14.80
  -8  -2   8  106.49   11.10
  -8  -2   8  104.69   12.20
  -8  -2   8  112.39    9.70
   8   2  -8  112.99   15.40
   8   2  -8   99.39   16.80
  -8   2   8   70.49   11.70
  -8   2   8   94.69   11.70
  -7  -2   8   77.39    9.60
   7  -2  -8   86.99   12.60
   7  -2  -8   85.49   14.30
  -7  -2   8   85.29    9.90
  -7  -2   8   75.89    7.80
   7   2  -8   51.19    9.80
  -7   2   8   68.39   10.80
  -7   2   8   67.19   10.00
   7   2  -8   77.89   13.40
  -7   2   8   98.59   13.00
  -6  -2   8  823.22   36.00
   6  -2  -8  705.23   43.60
  -6  -2   8  802.32   34.20
   6  -2  -8  837.62   40.70
  -6  -2   8  785.82   37.90
   6   2  -8  816.82   39.60
  -6   2   8  825.92   40.00
  -6   2   8  773.32   38.20
  -6   2   8  856.61   37.30
   6   2  -8  830.72   39.90
  -5  -2   8  804.62   35.60
   5  -2  -8  847.82   40.60
  -5  -2   8  807.52   37.90
  -5  -2   8  815.52   34.40
   5  -2  -8  845.12   40.80
  -5   2   8  775.12   38.10
  -5   2   8  835.82   37.50
  -5   2   8  797.12   39.10
   5   2  -8  814.22   39.00
   5   2  -8  777.92   39.20
  -4  -2   8    7.50    3.10
   4  -2  -8   16.70    5.80
  -4  -2   8    8.50    3.70
   4  -2  -8   13.20    6.70
  -4  -2   8    4.40    3.80
  -4   2   8   11.30    5.00
   4   2  -8   11.20    5.10
   4   2  -8   15.70    6.90
  -4   2   8   17.20    5.50
  -4   2   8   11.20    5.50
   3  -2  -8  862.51   39.80
   3  -2  -8  797.72   40.90
  -3  -2   8  810.42   37.70
  -3  -2   8  819.02   35.60
  -3  -2   8  826.72   35.90
  -3   2   8  828.52   38.70
  -3   2   8  798.22   38.80
   3   2  -8  841.92   38.70
  -3   2   8  776.52   37.50
   3   2  -8  826.22   40.40
  -2  -2   8 1188.28   49.90
  -2  -2   8 1131.59   50.69
   2  -2  -8 1161.48   55.29
  -2  -2   8 1147.39   49.40
   2   2  -8 1131.79   53.79
  -2   2   8 1217.68   52.89
  -2   2   8 1150.38   50.69
  -2   2   8 1189.58   52.49
  -1  -2   8  179.38   13.70
  -1  -2   8  170.78   12.20
   1  -2  -8  192.68   20.50
  -1  -2   8  157.58   11.70
  -1   2   8  183.58   14.60
  -1   2   8  176.28   16.50
  -1   2   8  177.78   12.10
   1   2  -8  160.28   17.00
   0  -2   8  264.87   16.30
   0  -2  -8  296.87   25.10
   0  -2   8  275.17   19.40
   0  -2   8  274.87   16.70
   0   2   8  339.77   22.90
   0   2  -8  329.67   24.50
   0   2   8  281.97   16.50
   1  -2   8  478.55   24.70
   1  -2   8  506.75   28.00
   1  -2   8  441.16   23.20
   1   2   8  448.46   22.90
  -1   2  -8  429.96   32.10
   1   2   8  532.25   31.40
   1   2   8  447.56   26.40
   2  -2   8  104.59   12.80
   2  -2   8  171.88   21.50
   2  -2   8  121.19   10.10
   2   2   8   76.19   17.50
   2   2   8   91.49   14.90
   2   2   8  128.89    9.80
   3  -2   8   45.10   10.00
   3  -2   8   45.50    6.80
  -3  -2  -8   21.40    8.60
   3  -2   8   15.50   15.70
   3   2   8   42.60    6.10
   3   2   8   58.69   11.20
  -4  -2  -8  457.65   26.90
   4  -2   8  421.76   22.30
   4  -2   8  469.95   30.00
   4   2   8  446.76   21.90
   4   2   8  461.55   31.00
 -10  -3   8  651.63   32.80
  10  -3  -8  630.24   43.30
 -10   3   8  684.13   42.20
 -10   3   8  649.64   34.30
  10   3  -8  631.04   40.20
   9  -3  -8  -15.50   11.30
  -9  -3   8   10.20    5.30
  -9  -3   8   -1.20    6.10
  -9   3   8   -0.20    5.20
  -9   3   8   10.00   10.80
  -9   3   8   12.80    8.70
   9   3  -8   -3.60    9.90
   8  -3  -8  706.43   39.60
  -8  -3   8  716.53   31.40
  -8  -3   8  706.13   30.30
  -8  -3   8  674.63   34.20
   8   3  -8  691.63   37.00
  -8   3   8  709.83   38.60
   8   3  -8  718.93   38.20
  -8   3   8  722.63   34.40
  -8   3   8  675.23   35.20
  -7  -3   8  785.62   32.70
  -7  -3   8  750.82   36.20
  -7  -3   8  747.83   31.60
   7  -3  -8  743.93   39.10
   7  -3  -8  787.42   40.20
  -7   3   8  810.62   36.40
  -7   3   8  729.53   36.70
   7   3  -8  696.93   37.40
  -7   3   8  755.82   40.10
   7   3  -8  740.83   38.10
   6  -3  -8   99.49   15.40
  -6  -3   8  130.39    8.70
  -6  -3   8  113.99    7.20
   6  -3  -8  131.89   14.20
  -6  -3   8  120.39   10.90
   6   3  -8  110.39   12.80
  -6   3   8  107.19   10.80
   6   3  -8  136.49   15.00
  -6   3   8  123.09   14.10
  -6   3   8  127.99   12.00
  -5  -3   8  484.75   25.60
   5  -3  -8  520.85   29.50
  -5  -3   8  513.95   22.20
   5  -3  -8  458.65   36.00
  -5  -3   8  500.95   21.20
  -5   3   8  513.55   28.00
   5   3  -8  521.95   27.80
  -5   3   8  471.15   25.90
  -5   3   8  488.55   25.90
   5   3  -8  502.35   26.90
  -4  -3   8 2134.29   91.29
  -4  -3   8 2219.88   87.79
   4  -3  -8 2272.37   94.79
  -4  -3   8 2256.67   87.29
   4  -3  -8 2133.59   93.59
   4   3  -8 2199.38   92.69
  -4   3   8 2305.17   92.29
   4   3  -8 2218.18   92.29
  -4   3   8 2112.89   91.59
  -4   3   8 2226.28   93.39
   3  -3  -8  759.82   38.10
  -3  -3   8  712.73   31.00
  -3  -3   8  679.43   33.50
   3  -3  -8  681.13   35.70
  -3  -3   8  731.03   30.80
   3   3  -8  720.73   34.60
   3   3  -8  757.72   36.60
  -3   3   8  782.42   36.20
  -3   3   8  667.33   33.70
  -3   3   8  742.23   35.90
  -2  -3   8  237.78   15.40
  -2  -3   8  270.27   14.50
   2  -3  -8  267.27   21.40
  -2  -3   8  273.27   14.00
  -2   3   8  243.08   15.60
  -2   3   8  271.57   18.20
  -2   3   8  266.07   19.30
   2   3  -8  265.87   19.60
  -1  -3   8 1053.89   43.90
  -1  -3   8 1045.20   44.90
  -1  -3   8 1011.80   45.50
   1  -3  -8 1074.99   51.79
   1   3  -8 1005.30   49.60
  -1   3   8  998.30   47.70
  -1   3   8 1052.09   49.20
  -1   3   8 1006.80   45.20
   0  -3   8  330.67   19.40
   0  -3   8  301.77   17.00
   0  -3   8  286.67   16.90
   0  -3  -8  288.97   25.50
   0   3   8  306.37   24.00
   0   3  -8  328.77   24.80
   0   3   8  295.17   16.70
   0   3   8  310.47   20.40
   1  -3   8    9.30    4.10
   1  -3   8    6.10    5.00
   1  -3   8   -0.50    7.70
   1   3   8   18.00   11.50
  -1   3  -8    3.10   11.60
   1   3   8   11.70    4.80
   1   3   8    6.50    6.20
   2  -3   8  458.45   22.90
   2  -3   8  443.46   29.30
   2   3   8  447.56   27.80
   2   3   8  460.95   22.30
   3  -3   8  748.43   36.60
   3  -3   8  704.93   43.10
   3  -3   8  687.93   33.10
   3   3   8  694.33   32.10
   3   3   8  795.92   39.50
  10  -4  -8   10.30   15.50
 -10  -4   8   25.00    7.10
 -10   4   8    0.50   14.40
  10   4  -8   19.80   12.70
 -10   4   8   36.60   11.10
  -9  -4   8   70.99    9.70
   9  -4  -8   26.40   12.40
  -9   4   8   52.89   13.60
   9   4  -8   59.99   12.30
  -9   4   8   56.49   10.80
  -9   4   8   36.80    8.90
  -8  -4   8   14.10    5.70
   8  -4  -8   19.50   10.40
   8   4  -8   18.20    9.00
  -8   4   8   27.50    7.40
   8   4  -8   20.00    8.20
  -8   4   8   40.60    9.10
  -8   4   8   14.00    9.50
   7  -4  -8   50.19   10.40
   7  -4  -8   44.70   11.40
  -7  -4   8   28.50    6.30
  -7   4   8   29.70    7.60
   7   4  -8   37.50    8.70
  -7   4   8   30.40    9.10
  -7   4   8   27.10    6.90
   7   4  -8   22.70    8.40
   6  -4  -8   51.79   10.30
  -6  -4   8   51.79    7.50
   6  -4  -8   53.49   10.40
  -6   4   8   64.69   10.90
  -6   4   8   30.90    6.90
  -6   4   8   54.39    9.40
   6   4  -8   51.49    8.90
   6   4  -8   41.90    8.30
  -5  -4   8   48.40    6.90
   5  -4  -8   45.80   10.10
   5  -4  -8   41.90    8.40
  -5   4   8   73.49   12.00
   5   4  -8   44.60    8.80
  -5   4   8   57.79    8.70
  -5   4   8   43.90    7.50
   5   4  -8   56.39    9.50
  -4  -4   8   31.30    6.00
   4  -4  -8   52.99    9.90
  -4   4   8   50.09    8.00
  -4   4   8   33.80    8.00
   4   4  -8   37.80    6.70
  -4   4   8   34.00    7.90
   4   4  -8   46.00    8.50
   3  -4  -8    9.90    8.10
  -3  -4   8    2.50    3.70
  -3   4   8    2.80    4.60
   3   4  -8    7.50    4.10
  -3   4   8    6.60    5.70
   3   4  -8   -0.40    6.30
  -3   4   8   -1.80    6.50
  -2  -4   8    9.60    4.30
  -2  -4   8   13.20    3.20
   2  -4  -8   13.70    8.80
  -2  -4   8   19.30    3.30
  -2   4   8   11.10    7.70
   2   4  -8   18.20    7.50
  -2   4   8   12.80    4.00
  -2   4   8   16.10    6.20
  -1  -4   8    8.90    4.40
   1  -4  -8   -2.10    8.90
  -1  -4   8    0.40    3.10
  -1  -4   8    0.60    4.00
   1   4  -8    8.70    8.30
  -1   4   8    0.10    8.00
  -1   4   8    6.70    4.00
   0  -4   8   21.90    5.40
   0  -4  -8   24.50   11.00
   0  -4   8   20.80    4.70
   0  -4   8   14.30    6.20
   0   4   8   16.00    4.50
   0   4   8   16.40    6.80
   0   4   8   16.90   10.10
   0   4  -8    8.60    9.10
   1  -4   8   17.70    5.10
   1  -4   8   19.50    5.50
   1  -4   8   40.00    9.00
   1   4   8   17.30    4.90
  -1   4  -8   28.20   12.40
   1   4   8   29.30   12.10
   1   4   8   10.80    7.10
   2  -4   8    0.50   10.20
   2  -4   8    5.20    4.50
   2  -4   8    1.00    5.70
   2   4   8    6.00    4.30
   2   4   8   -0.60    7.80
   3  -4   8   -1.10    7.90
   3  -4   8    2.10    4.20
  -3  -4  -8    2.70    9.40
   3   4   8   -1.90    9.70
   3   4   8    4.40    4.80
  -3   4  -8   -8.20    6.20
 -10  -5   8  450.35   23.90
  10  -5  -8  455.45   37.20
 -10   5   8  420.16   27.00
 -10   5   8  400.46   37.40
  10   5  -8  388.56   33.20
   9  -5  -8   29.60   12.50
  -9  -5   8   35.50    7.30
   9   5  -8   31.70   10.80
  -9   5   8   49.00   13.60
   8  -5  -8  581.84   35.80
  -8  -5   8  564.34   29.00
  -8   5   8  587.94   31.90
   8   5  -8  562.84   32.20
  -8   5   8  562.24   35.90
   8   5  -8  576.94   32.20
  -7  -5   8  563.24   29.00
   7  -5  -8  529.45   33.20
   7   5  -8  586.34   30.90
   7   5  -8  589.94   31.00
  -7   5   8  611.44   34.50
  -7   5   8  582.74   30.80
   6  -5  -8   96.79   13.70
   6  -5  -8   75.49   12.00
  -6  -5   8   82.99    8.90
   6   5  -8   83.19   12.60
   6   5  -8  101.39   11.80
  -6   5   8  118.49   14.80
  -6   5   8   97.59   12.70
  -6   5   8   82.69   10.50
  -5  -5   8  388.16   21.90
   5  -5  -8  419.06   26.90
   5  -5  -8  416.56   25.60
   5   5  -8  432.56   23.40
   5   5  -8  431.26   24.30
  -5   5   8  409.76   28.10
  -5   5   8  389.76   22.80
  -5   5   8  436.86   24.70
  -4  -5   8 1892.61   82.79
   4  -5  -8 2023.10   86.69
   4  -5  -8 1916.81   85.49
   4   5  -8 2049.70   83.49
   4   5  -8 1995.00   83.79
  -4   5   8 2020.50   86.19
  -4   5   8 2036.30   84.99
  -4   5   8 1954.50   83.39
  -3  -5   8  772.22   36.40
   3  -5  -8  775.22   38.80
   3  -5  -8  787.72   41.20
  -3   5   8  791.42   39.50
  -3   5   8  814.62   39.80
   3   5  -8  805.52   36.90
  -3   5   8  783.22   36.90
   3   5  -8  793.92   38.70
  -2  -5   8  392.96   22.00
   2  -5  -8  436.26   27.90
   2   5  -8  430.06   25.30
  -2   5   8  407.06   22.20
  -2   5   8  470.85   27.00
   1  -5  -8 1798.12   80.79
  -1  -5   8 1767.32   70.29
  -1  -5   8 1697.63   74.09
  -1  -5   8 1803.82   70.79
  -1   5   8 1820.72   78.69
  -1   5   8 1760.72   77.49
  -1   5   8 1737.53   73.99
   1   5  -8 1812.42   78.09
   0  -5   8  517.55   25.10
   0  -5   8  543.65   24.00
   0  -5  -8  525.15   35.10
   0  -5   8  491.75   25.90
   0   5  -8  516.65   32.30
   0   5   8  557.84   34.40
   0   5   8  534.25   29.70
   0   5   8  541.25   25.80
   1  -5   8   -0.30    3.30
   1  -5   8    9.40    6.80
   1  -5   8    2.20    4.50
   1   5   8   -1.70   14.70
   1   5   8   -1.50    4.10
   1   5   8   -2.40    6.40
  -1   5  -8   17.10   12.30
   2  -5   8  518.85   26.30
   2  -5   8  531.25   30.20
   2  -5   8  502.75   25.30
   2   5   8  474.85   30.00
   2   5   8  504.15   24.10
   3  -5   8 1069.59   47.80
   3  -5   8 1102.79   50.09
   3   5   8 1113.89   46.20
   3   5   8 1094.59   53.99
 -10  -6   8  108.39   11.80
  10  -6  -8  160.28   27.40
  10   6  -8   89.19   16.90
 -10   6   8   76.79   20.10
  -9  -6   8  690.73   33.00
   9  -6  -8  635.74   41.30
  -9   6   8  710.03   43.70
   9   6  -8  656.33   38.50
  -8  -6   8  179.78   13.30
   8  -6  -8  171.98   21.10
   8   6  -8  189.28   27.00
  -8   6   8  206.38   22.60
   8   6  -8  139.09   18.40
  -7  -6   8   67.99    8.60
   7  -6  -8   68.79   12.90
  -7   6   8   73.19   13.40
   7   6  -8   88.89   12.20
   7   6  -8   68.89   10.00
  -7   6   8   88.09   14.20
   6  -6  -8  215.28   19.20
  -6  -6   8  218.38   14.90
   6  -6  -8  175.28   19.60
   6   6  -8  246.78   17.70
  -6   6   8  219.98   17.50
  -6   6   8  210.88   19.70
   6   6  -8  214.08   16.00
   5  -6  -8  228.78   18.90
   5  -6  -8  286.67   21.70
  -5  -6   8  237.98   15.70
   5   6  -8  242.88   16.20
  -5   6   8  250.97   20.10
   5   6  -8  249.88   17.80
  -5   6   8  268.67   19.70
  -5   6   8  227.18   16.40
   4  -6  -8   10.60    6.20
  -4  -6   8    5.00    3.90
  -4   6   8   -3.80    6.40
   4   6  -8    3.00    5.90
   4   6  -8    3.80    4.60
  -4   6   8   13.00    7.10
  -4   6   8   10.10    5.50
   3  -6  -8  785.92   40.00
   3  -6  -8  865.31   42.70
  -3  -6   8  759.42   37.20
  -3   6   8  844.22   41.00
  -3   6   8  782.22   41.50
  -3   6   8  816.32   37.80
   3   6  -8  828.12   39.20
   3   6  -8  787.22   37.20
   2  -6  -8  648.34   36.20
  -2  -6   8  598.24   29.90
  -2   6   8  611.44   30.20
   2   6  -8  624.34   32.80
  -2   6   8  638.14   33.80
  -2   6   8  651.43   35.00
   1  -6  -8   52.49   12.90
  -1  -6   8   53.59    7.80
  -1   6   8   67.09   11.20
  -1   6   8   69.39    8.70
   1   6  -8   70.89   11.30
  -1   6   8   76.29   11.60
   0  -6   8   54.79    5.70
   0  -6   8   51.39    7.70
   0   6   8   57.09   10.30
   0   6  -8   49.99   12.00
   0   6   8   57.59   13.80
   0   6   8   51.89    7.50
   1  -6   8  336.37   18.80
   1  -6   8  299.27   17.80
   1  -6   8  317.67   16.70
   1   6   8  309.27   23.20
   1   6   8  319.27   17.50
  -1   6  -8  311.27   27.80
   2  -6   8   12.20    4.20
  -2  -6  -8    2.80    8.40
   2  -6   8   26.70    7.20
   2   6   8   26.70    9.60
   2   6   8   19.10    5.40
   3  -6   8  118.59   10.80
   3  -6   8  142.99   16.20
   3   6   8   91.89   15.70
   3   6   8  134.69   10.30
  -9  -7   8   64.19    9.60
   9  -7  -8   46.40   14.80
   9   7  -8   62.89   13.70
  -9   7   8   78.79   17.40
  -8  -7   8  209.58   15.10
   8  -7  -8  212.78   23.10
  -8   7   8  235.68   24.80
   8   7  -8  175.88   29.30
  -7  -7   8  202.88   14.00
   7  -7  -8  201.58   21.00
  -7   7   8  171.58   20.50
   7   7  -8  196.28   16.50
   7   7  -8  187.78   17.50
  -7   7   8  146.79   18.10
   6  -7  -8   94.59   14.90
  -6  -7   8   82.29    9.30
   6   7  -8   94.59   13.30
  -6   7   8  103.69   15.10
   6   7  -8  104.59   11.40
  -6   7   8   93.39   16.00
   5  -7  -8  258.57   21.60
   5  -7  -8  226.28   19.30
  -5  -7   8  238.68   15.30
  -5   7   8  224.28   19.40
   5   7  -8  232.18   15.80
  -5   7   8  237.58   20.00
   5   7  -8  226.88   17.20
   4  -7  -8  675.73   35.70
   4  -7  -8  736.43   37.80
  -4  -7   8  649.74   32.20
  -4   7   8  644.84   36.30
   4   7  -8  660.83   33.20
  -4   7   8  655.73   33.00
   4   7  -8  696.03   32.30
  -4   7   8  676.03   35.80
   3  -7  -8   99.49   12.90
  -3  -7   8   89.19    9.20
   3  -7  -8   64.99   11.30
  -3   7   8   92.49   15.20
  -3   7   8   95.99   14.20
   3   7  -8   83.99    9.50
  -3   7   8   78.89    9.30
   3   7  -8   87.09   12.50
   2  -7  -8   38.20   11.30
  -2  -7   8   17.70    5.00
   2   7  -8   16.50    7.80
  -2   7   8   28.50    8.50
  -2   7   8   23.00    5.60
  -1  -7   8  229.98   15.00
   1  -7  -8  263.37   23.90
  -1   7   8  269.97   23.40
  -1   7   8  247.08   20.00
  -1   7   8  244.38   15.20
   1   7  -8  225.58   19.90
   0  -7   8  306.97   18.20
   0   7   8  321.67   18.00
   0   7   8  359.46   32.20
   0   7  -8  342.27   25.10
   0   7   8  295.27   22.70
   1  -7   8   -0.60    3.80
   1   7   8   -5.40    7.80
   1   7   8    4.90    4.50
  -1   7  -8  -13.30   11.20
   2  -7   8  274.07   17.40
   2  -7   8  287.87   16.90
   2   7   8  321.37   25.80
   2   7   8  307.27   16.50
   3  -7   8  312.77   18.80
  -3  -7  -8  320.87   25.10
   3   7   8  349.67   19.70
   3   7   8  351.26   28.20
  -9  -8   8 1052.19   46.10
   9  -8  -8 1037.70   56.09
   9   8  -8  972.40   51.09
  -9   8   8  965.70   58.19
  -8  -8   8  441.46   24.30
   8  -8  -8  431.96   32.60
   8   8  -8  498.25   29.20
  -8   8   8  457.45   34.20
  -7  -8   8   42.90    7.50
   7  -8  -8   40.10   11.70
   7   8  -8   26.40    7.70
  -7   8   8   34.30   11.80
   7   8  -8   36.10    9.00
   6  -8  -8  822.12   41.90
  -6  -8   8  736.63   36.40
   6   8  -8  798.22   37.40
  -6   8   8  751.82   40.20
  -6   8   8  763.92   42.60
   6   8  -8  787.72   37.00
  -5  -8   8 1050.89   48.30
   5  -8  -8 1102.99   52.89
   5  -8  -8 1063.79   52.29
   5   8  -8 1122.99   48.80
   5   8  -8 1016.80   47.90
  -5   8   8 1106.69   54.09
  -5   8   8 1131.89   52.29
   4  -8  -8  -14.00    8.60
   4  -8  -8    0.40    5.50
  -4  -8   8    2.30    3.80
   4   8  -8   -2.10    4.30
   4   8  -8  -10.80    6.40
  -4   8   8   -5.00    6.60
  -4   8   8   -4.10    8.80
  -3  -8   8 1721.63   76.19
   3  -8  -8 1847.92   81.59
  -3   8   8 1817.52   81.19
   3   8  -8 1783.92   76.99
   3   8  -8 1877.71   75.79
  -3   8   8 1875.21   80.99
  -3   8   8 1787.22   76.79
   2  -8  -8 1035.40   51.09
  -2  -8   8  919.21   44.30
  -2   8   8  943.41   44.40
   2   8  -8 1002.40   46.20
  -2   8   8 1067.39   50.79
  -2   8   8  993.10   49.10
  -1  -8   8   15.60    5.00
   1  -8  -8   18.50   11.20
   1   8  -8   23.40    9.00
  -1   8   8   26.20   11.60
  -1   8   8   25.60    8.60
  -1   8   8   23.60    6.00
   0  -8   8  271.37   17.50
   0   8  -8  323.87   24.50
   0   8   8  301.77   17.20
   0   8   8  322.37   23.70
   1  -8   8  668.23   33.70
  -1   8  -8  741.13   44.40
   1   8   8  719.13   32.60
   1   8   8  745.13   39.40
   2  -8   8  386.86   21.60
   2   8   8  414.06   30.10
   2   8   8  416.96   20.90
  -3  -8  -8   69.99   12.80
   3  -8   8   41.80    7.80
   3   8   8   50.49   15.40
  -9  -9   8    7.60    6.00
   9   9  -8   15.00   11.50
  -9   9   8   16.90   17.40
  -8  -9   8   -1.10    5.30
   8  -9  -8   -3.00   11.30
   8   9  -8   14.90    8.60
  -8   9   8   -5.50   13.10
  -7  -9   8   10.30    5.10
   7  -9  -8   24.40    9.90
   7   9  -8    6.90    7.10
   7   9  -8    5.00    8.40
  -7   9   8    6.90   10.60
  -6  -9   8    5.10    4.60
   6  -9  -8  -12.10    7.40
  -6   9   8    3.30   10.10
   6   9  -8   10.50    7.20
   6   9  -8    3.60    5.60
  -5  -9   8    8.70    4.50
   5  -9  -8   -6.20    7.50
   5   9  -8    8.50    6.70
  -5   9   8    1.90    7.70
   5   9  -8    5.20    5.10
  -5   9   8   -2.10    9.60
   5   9  -8    3.10    8.60
  -4  -9   8   32.20    6.00
   4  -9  -8   44.70    8.70
   4  -9  -8   30.00   11.00
   4   9  -8   39.10    8.70
  -4   9   8   52.09   11.50
   4   9  -8   49.10    7.20
  -4   9   8   57.69   12.20
   3  -9  -8    6.30   10.60
  -3  -9   8   17.40    4.80
   3   9  -8   18.20    7.60
  -3   9   8   11.30    8.10
  -3   9   8    6.20    5.20
  -3   9   8    6.10   10.20
   2  -9  -8  133.99   20.60
  -2  -9   8  137.59   11.50
   2   9  -8  137.29   15.20
  -2   9   8  147.59   12.10
  -2   9   8  158.78   17.20
  -2   9   8  165.38   21.40
  -1  -9   8   76.09    9.10
   1   9  -8   95.89   15.80
  -1   9   8   88.69    9.50
   0  -9   8    3.30    3.80
   0   9   8   -9.90    7.60
   0   9   8   -4.30    4.40
   0   9  -8   -0.20    9.60
   1  -9   8    9.30    5.10
  -1  -9  -8   -1.80    9.20
   1   9   8    2.50    8.90
   1   9   8    1.80    4.90
  -2  -9  -8   14.40   10.70
   2  -9   8   35.30    6.80
   2   9   8   22.70   10.50
   2   9   8   43.10    7.10
  -9 -10   8  490.25   25.70
   9  10  -8  508.15   33.00
  -9  10   8  466.05   44.50
   8 -10  -8  122.39   18.80
  -8 -10   8  108.19   10.90
  -8  10   8  115.49   19.40
   8  10  -8  121.99   17.50
  -7 -10   8  254.77   16.60
   7 -10  -8  269.37   24.60
  -7  10   8  275.67   28.50
   7  10  -8  259.87   19.10
   7  10  -8  286.37   20.40
  -6 -10   8  842.02   40.20
   6 -10  -8  827.12   45.20
   6  10  -8  873.51   40.40
   6  10  -8  917.11   40.70
  -6  10   8  904.41   48.70
   5 -10  -8  695.33   37.80
  -5 -10   8  651.33   33.00
   5  10  -8  661.43   32.50
   5  10  -8  722.23   33.80
  -5  10   8  724.83   40.30
   4 -10  -8   41.70    9.20
  -4 -10   8   43.00    7.60
   4  10  -8   54.19   11.80
  -4  10   8   52.09   11.10
   4  10  -8   53.29    8.80
   4  10  -8   38.20    8.50
  -3 -10   8  596.94   30.20
   3  10  -8  628.64   31.30
  -3  10   8  599.34   35.60
   3  10  -8  614.14   32.80
  -2 -10   8  733.83   36.90
  -2  10   8  821.22   42.70
   2  10  -8  840.82   39.00
  -2  10   8  812.52   37.50
   2  10  -8  761.02   38.40
  -1 -10   8    3.60    3.70
   1  10  -8   10.70    8.90
  -1  10   8   19.70    9.10
   1  10  -8    9.40    7.50
  -1  10   8   15.80    6.20
   0 -10   8  365.76   20.30
   0  10  -8  292.47   26.80
   0  10   8  338.37   26.40
   0  10  -8  345.37   21.80
   0  10   8  388.16   19.80
   1 -10   8  964.80   46.70
   1  10   8 1043.90   53.19
  -1  10  -8 1055.59   50.79
   1  10   8 1100.69   45.50
   2  10   8  431.86   22.10
   2  10   8  470.35   31.50
   8 -11  -8  639.64   41.30
  -8 -11   8  564.74   29.40
  -8  11   8  590.84   44.00
   8  11  -8  598.74   33.70
   7 -11  -8  416.96   31.60
  -7 -11   8  409.46   22.90
   7  11  -8  436.66   25.00
  -7  11   8  456.25   35.50
   7  11  -8  398.86   25.00
  -6 -11   8   -2.30    4.60
   6 -11  -8    5.50    9.20
   6  11  -8    0.30    7.80
   6  11  -8  -10.20    6.10
  -6  11   8  -10.00   10.50
   5 -11  -8  380.46   26.20
  -5 -11   8  325.87   20.10
   5  11  -8  358.46   21.80
   5  11  -8  369.66   20.10
  -5  11   8  384.56   28.20
   4 -11  -8 1151.38   55.89
  -4 -11   8 1129.99   51.79
   4  11  -8 1132.99   54.59
   4  11  -8 1240.38   50.29
   4  11  -8 1150.38   51.79
  -4  11   8 1190.08   58.69
  -3 -11   8  493.65   26.70
   3  11  -8  539.05   28.40
  -3  11   8  538.25   33.40
   3  11  -8  520.65   30.10
  -2 -11   8    5.30    4.60
  -2  11   8    1.80    5.30
   2  11  -8   17.40    8.20
   2  11  -8    6.20    8.40
  -2  11   8   -5.10    8.10
  -1 -11   8  309.07   19.80
   1  11  -8  354.86   22.90
   1  11  -8  364.66   25.30
  -1  11   8  365.26   20.40
  -1  11   8  360.66   26.30
   0 -11   8  274.27   17.60
   0  11   8  315.37   25.40
   0  11  -8  308.87   20.10
   0  11  -8  235.98   26.10
   0  11   8  292.67   17.30
   1 -11   8   26.80    7.10
   1  11   8   37.70   13.10
   1  11   8   31.80    7.00
   2 -11   8  529.35   27.10
  -2 -11  -8  424.66   33.70
   2  11   8  524.85   39.40
   2  11   8  550.14   24.80
  -8 -12   8    8.20    5.50
   8 -12  -8   28.30   15.80
  -8  12   8   38.30   19.90
   8  12  -8   14.80   11.50
   7 -12  -8   32.30   13.70
  -7 -12   8   22.80    6.10
  -7  12   8   -0.60   14.00
   7  12  -8   31.40    8.60
   6 -12  -8   60.99   14.10
  -6 -12   8   43.30    7.10
  -6  12   8   43.10   14.30
   6  12  -8   50.19    8.50
   6  12  -8   32.20    9.00
  -5 -12   8   45.20    7.60
   5 -12  -8   41.40   10.90
  -5  12   8   48.70   12.40
   5  12  -8   42.20   10.20
   5  12  -8   71.69   10.00
  -4 -12   8   12.00    4.80
   4  12  -8    2.10    5.00
  -4  12   8   20.30   10.40
  -3 -12   8   57.69    8.00
   3  12  -8   49.70   10.00
   3  12  -8   60.79   12.50
  -3  12   8   64.79   12.60
  -2 -12   8   26.30    6.30
   2  12  -8   17.90    9.60
   2  12  -8   26.90   10.10
  -2  12   8   21.10   10.00
  -2  12   8   15.40    6.30
  -1 -12   8   37.40    7.30
   1  12  -8   56.19   12.00
  -1  12   8   49.50   12.80
  -1  12   8   34.00    7.60
   1  12  -8   28.80   10.10
   0 -12   8   13.80    5.50
   0 -12  -8    4.20   11.10
   0  12  -8   13.70    9.10
   0  12   8   15.60    6.10
   0  12   8   20.20   12.10
   0  12  -8   19.50   12.80
   1 -12   8  356.36   22.60
   1  12   8  449.16   22.00
   1  12   8  417.56   32.70
   7 -13  -8  886.51   49.20
  -7 -13   8  861.61   40.50
  -7  13   8  869.21   53.49
   6 -13  -8   83.29   14.80
  -6 -13   8   68.69    9.30
  -6  13   8  101.69   18.30
   6  13  -8  107.99   12.60
   5 -13  -8  366.66   27.10
  -5 -13   8  368.96   21.10
   5  13  -8  387.46   20.40
  -5  13   8  364.86   30.80
  -4 -13   8 1260.17   57.49
   4  13  -8 1246.68   58.49
  -4  13   8 1438.46   66.99
  -3 -13   8  388.96   22.50
   3  13  -8  378.36   27.30
   3  13  -8  416.76   24.60
  -3  13   8  453.85   31.70
  -2 -13   8  174.38   13.60
   2  13  -8  172.28   18.30
   2  13  -8  182.08   19.80
  -2  13   8  121.59   22.00
  -1 -13   8  478.55   29.20
   1  13  -8  571.54   33.00
  -1  13   8  571.44   28.30
  -1  13   8  557.54   36.00
   1  13  -8  523.45   30.20
   0 -13   8  207.68   15.10
   0  13   8  232.58   16.00
   0  13  -8  251.67   27.00
   0  13   8  240.38   27.50
   1 -13   8    5.00    4.50
  -1 -13  -8    6.70   13.40
   1  13   8   33.30   19.60
   1  13   8    1.50    6.30
   7 -14  -8   36.40   15.40
  -6 -14   8   83.99    9.50
   6 -14  -8   93.79   15.20
  -6  14   8   77.19   17.00
   5 -14  -8   34.40   12.10
  -5 -14   8   26.30    6.40
  -5  14   8   54.29   14.20
  -4  14   8   22.90   13.50
  -3 -14   8   37.80    7.50
  -3  14   8   22.10   13.90
  -2  14   8   77.99   15.30
   2  14  -8   72.49   13.40
  -1 -14   8    7.50    4.80
   1 -14  -8   24.70   11.60
  -1  14   8    6.90    6.20
  -1  14   8    4.90   12.20
   0 -14   8  333.47   22.00
   0  14   8  427.76   22.20
   0  14   8  428.46   34.30
  -6  15   8   86.89   29.20
  -5  15   8  120.79   20.60
  -4 -15   8  339.57   28.60
  -4  15   8  479.55   35.80
  -3 -15   8   65.09    9.20
  -3  15   8   87.19   18.70
  -2 -15   8  121.79   11.50
  -2  15   8  149.39   21.10
   2  15  -8  107.59   17.90
  -1 -15   8  337.17   21.00
  -1  15   8  374.76   21.70
  -1  15   8  362.76   32.80
  -5 -16   8  353.96   21.40
  -4  16   8   42.00   16.00
  -3 -16   8  371.16   22.90
  -3  16   8  493.75   37.50
  -2 -16   8  432.16   25.50
  -2  16   8  575.04   47.30
 -10   0   9    5.50    7.30
  -9   0   9   -3.50    9.50
   9   0  -9   -2.20   12.10
  -9   0   9    9.00    6.10
  -8   0   9   -9.50    7.80
  -8   0   9    9.00    6.20
  -8   0   9    5.40    6.30
   8   0  -9   -0.70    8.90
  -7   0   9   -9.60    6.50
  -7   0   9    4.30    5.10
   7   0  -9    3.70    7.70
  -7   0   9    6.40    5.40
   6   0  -9  -16.10    9.30
  -6   0   9    2.80    5.70
  -6   0   9    0.30    4.50
   6   0  -9   12.30    7.80
  -6   0   9    9.50    5.80
  -5   0   9    6.00    5.60
   5   0  -9    1.10    9.00
   5   0  -9    5.30    5.90
  -5   0   9    4.50    5.50
  -5   0   9    1.70    4.50
   4   0  -9    2.50    5.90
   4   0  -9  -10.40    8.00
  -4   0   9    7.10    4.60
  -4   0   9    1.20    5.10
  -3   0   9    0.40    4.10
   3   0  -9    8.80    9.10
  -3   0   9   11.60    5.30
   3   0  -9    5.70    6.10
  -3   0   9   -2.90    5.30
  -2   0   9   -6.30    6.00
   2   0  -9  -13.60    9.80
  -2   0   9    2.70    5.10
  -2   0   9   -2.80    4.30
   1   0  -9   -2.40   14.40
  -1   0   9    3.40    3.90
  -1   0   9   -0.60    5.50
  -1   0   9   -6.30    7.70
   0   0   9    0.50    4.30
   0   0   9   -7.30    6.00
   0   0   9    2.00   11.00
   1   0   9    1.90    4.70
   1   0   9   -6.60    7.00
   1   0   9    1.40   13.60
   2   0   9    9.10    9.10
   2   0   9   -0.90    4.30
  10  -1  -9   77.79   18.70
 -10  -1   9  101.59   18.90
 -10   1   9   70.09   11.10
 -10   1   9   96.09   16.30
  10   1  -9   79.39   19.40
  -9  -1   9  666.03   35.10
  -9  -1   9  674.43   35.30
   9  -1  -9  693.83   41.60
   9   1  -9  694.43   41.60
  -9   1   9  692.33   38.70
  -9   1   9  678.43   35.60
  -8  -1   9  821.12   41.80
   8  -1  -9  883.51   46.80
  -8  -1   9  854.41   38.50
  -8  -1   9  865.11   40.90
  -8   1   9  825.02   42.10
  -8   1   9  891.11   40.00
   8   1  -9  867.81   45.50
  -8   1   9  931.71   44.50
  -7  -1   9   43.30    6.50
  -7  -1   9   34.80    7.20
  -7  -1   9   60.49    8.80
   7  -1  -9   34.70   11.30
   7   1  -9   54.09   10.80
  -7   1   9   39.70    9.80
  -7   1   9   50.19    9.40
   7   1  -9   39.90   12.10
  -7   1   9   50.69    8.20
  -6  -1   9  684.53   34.70
  -6  -1   9  730.93   33.30
   6  -1  -9  668.43   38.00
   6  -1  -9  720.93   37.50
  -6  -1   9  687.03   31.00
  -6   1   9  742.53   35.50
  -6   1   9  709.03   32.90
  -6   1   9  649.83   34.60
   6   1  -9  674.53   36.50
   6   1  -9  679.13   37.90
  -5  -1   9  890.01   39.00
  -5  -1   9  962.00   40.80
   5  -1  -9  910.71   44.50
   5  -1  -9  848.52   45.20
  -5  -1   9  839.72   41.80
   5   1  -9  902.31   53.79
   5   1  -9  902.01   45.10
  -5   1   9  968.90   41.10
  -5   1   9  899.21   42.30
  -5   1   9  843.02   42.00
  -4  -1   9  196.98   14.60
  -4  -1   9  204.28   13.40
  -4  -1   9  215.18   14.40
   4  -1  -9  250.97   21.60
   4  -1  -9  220.18   17.60
  -4   1   9  211.58   15.90
   4   1  -9  202.58   20.00
  -4   1   9  229.38   16.10
  -4   1   9  187.68   14.50
   3  -1  -9  141.59   14.90
   3  -1  -9  156.68   19.90
  -3  -1   9  167.68   12.60
  -3  -1   9  170.28   13.10
  -3  -1   9  176.48   13.00
  -3   1   9  180.18   14.80
   3   1  -9  143.59   19.30
  -3   1   9  165.28   12.60
   3   1  -9  163.48   15.10
  -3   1   9  157.58   14.10
   2  -1  -9 1569.34   74.09
  -2  -1   9 1619.24   67.59
  -2  -1   9 1672.23   68.39
  -2  -1   9 1523.45   67.99
  -2   1   9 1712.93   70.29
  -2   1   9 1545.35   68.09
   2   1  -9 1602.44   73.39
  -2   1   9 1522.85   68.69
  -1  -1   9  697.93   35.00
  -1  -1   9  676.53   32.70
  -1  -1   9  654.73   32.50
  -1   1   9  661.13   32.50
   1   1  -9  705.33   41.00
  -1   1   9  686.93   36.60
   0  -1   9   53.89   10.00
   0  -1   9   62.49   11.90
   0  -1   9   44.20    6.70
   0   1   9   46.30    7.80
   0   1   9   69.59   13.00
   0   1   9   52.59    9.00
   1  -1   9  616.34   31.60
   1  -1   9  583.34   36.70
   1  -1   9  623.44   29.30
   1   1   9  600.64   29.00
   1   1   9  630.44   33.00
   1   1   9  532.15   38.90
   2  -1   9  730.53   63.09
   2  -1   9  735.03   37.00
   2  -1   9  662.73   32.90
   2   1   9  736.63   37.90
   2   1   9  701.83   32.90
  10  -2  -9  188.68   31.20
 -10   2   9  226.38   18.90
  10   2  -9  267.37   30.00
  -9  -2   9   71.69   10.70
   9  -2  -9   97.39   17.00
  -9   2   9   76.19   13.90
  -9   2   9   81.89   12.00
  -8  -2   9  114.19   12.00
  -8  -2   9   91.79   11.80
   8  -2  -9  120.79   19.30
  -8   2   9   90.69   11.80
   8   2  -9   83.49   13.30
  -8   2   9   98.99   14.00
  -8   2   9   85.69   13.60
   7  -2  -9  534.55   32.60
  -7  -2   9  586.14   26.40
  -7  -2   9  534.45   24.40
  -7  -2   9  538.05   29.10
   7   2  -9  536.25   31.70
  -7   2   9  524.85   35.40
  -7   2   9  567.74   28.60
   7   2  -9  536.15   32.10
  -7   2   9  506.75   29.00
  -6  -2   9  194.98   12.60
  -6  -2   9  181.88   10.80
  -6  -2   9  166.58   14.10
   6  -2  -9  178.08   17.90
   6  -2  -9  172.98   21.50
  -6   2   9  184.08   14.40
  -6   2   9  179.38   17.00
   6   2  -9  183.58   17.30
   6   2  -9  219.08   20.60
  -6   2   9  173.98   14.00
   5  -2  -9   30.20    8.00
   5  -2  -9   55.19   12.20
  -5  -2   9   30.50    5.60
  -5  -2   9   31.80    5.00
  -5  -2   9   26.10    5.80
  -5   2   9   26.80    7.00
   5   2  -9   30.80    8.00
   5   2  -9   32.80   10.20
  -5   2   9   33.90    7.80
  -5   2   9   35.90    7.40
   4  -2  -9  481.45   30.90
   4  -2  -9  474.05   27.60
  -4  -2   9  450.05   25.10
  -4  -2   9  479.65   22.40
  -4  -2   9  492.15   23.00
  -4   2   9  477.75   26.40
  -4   2   9  458.45   26.40
  -4   2   9  435.06   25.20
   4   2  -9  506.95   27.20
   4   2  -9  478.15   29.30
  -3  -2   9  757.52   33.10
  -3  -2   9  703.93   35.00
   3  -2  -9  713.83   37.20
  -3  -2   9  733.83   33.10
   3  -2  -9  739.13   40.80
  -3   2   9  746.73   36.80
   3   2  -9  759.72   39.90
  -3   2   9  734.03   35.40
  -3   2   9  711.83   36.60
  -2  -2   9  144.49   11.50
  -2  -2   9  125.59   11.40
  -2  -2   9  151.88   12.70
   2  -2  -9  134.09   21.30
  -2   2   9  139.39   17.30
  -2   2   9  122.09   16.20
   2   2  -9  149.29   19.90
  -2   2   9  135.69   11.60
  -1  -2   9   40.00    8.80
  -1  -2   9   48.40    7.60
  -1  -2   9   48.10    7.60
   1   2  -9   54.39   14.00
  -1   2   9   51.99    7.60
  -1   2   9   42.80    9.00
  -1   2   9   49.30   11.30
   0  -2   9  240.58   20.40
   0  -2   9  212.48   15.80
   0  -2   9  192.58   13.90
   0   2   9  208.48   14.20
   0   2   9  208.38   18.10
   1  -2   9   31.10    6.30
   1  -2   9   38.30   12.60
   1  -2   9    9.20    6.80
   1   2   9   22.70    9.50
   1   2   9   21.30    5.40
   2  -2   9  405.06   21.50
   2  -2   9  415.86   26.00
   2   2   9  378.56   27.00
   2   2   9  403.36   21.10
   9  -3  -9  123.69   20.20
  -9  -3   9  160.38   13.90
  -9   3   9  152.38   19.50
   9   3  -9  135.99   22.00
  -9   3   9  150.38   22.40
  -9   3   9  135.69   16.50
  -8  -3   9  281.47   18.60
   8  -3  -9  275.07   24.70
  -8   3   9  254.97   18.90
  -8   3   9  235.98   20.10
   8   3  -9  237.28   22.10
  -8   3   9  289.17   23.60
   7  -3  -9    8.40    9.10
  -7  -3   9   -2.60    4.90
   7   3  -9    2.40    9.40
   7   3  -9   13.90    8.50
  -7   3   9    1.20    7.10
  -7   3   9    3.90    8.00
  -7   3   9    2.60    5.20
  -6  -3   9  156.38   13.10
   6  -3  -9  166.58   17.80
  -6   3   9  174.58   14.90
  -6   3   9  142.19   13.20
   6   3  -9  157.28   19.00
  -6   3   9  140.59   21.20
   5  -3  -9   37.10    8.50
  -5  -3   9   34.80    4.30
  -5  -3   9   36.90    6.90
   5  -3  -9   30.10   11.30
   5   3  -9   23.80    7.10
  -5   3   9   43.20    9.00
  -5   3   9   42.60    7.70
  -5   3   9   15.80    7.90
   5   3  -9   31.70    9.80
   4  -3  -9   49.00   11.40
  -4  -3   9   65.09    6.60
  -4  -3   9   62.39    8.30
   4  -3  -9   93.79   12.90
  -4  -3   9   81.89    6.40
   4   3  -9   84.59   11.50
  -4   3   9   95.99   13.40
   4   3  -9   63.59   11.30
  -4   3   9   65.49   10.30
  -4   3   9   64.39    8.80
  -3  -3   9   21.70    6.20
  -3  -3   9   29.50    4.70
  -3  -3   9   25.10    4.40
   3  -3  -9   20.80   10.60
  -3   3   9   21.20    5.90
  -3   3   9   19.50    8.60
   3   3  -9   46.60   12.00
  -2  -3   9  600.64   27.20
   2  -3  -9  611.04   44.00
  -2  -3   9  568.04   29.60
  -2  -3   9  632.14   28.30
  -2   3   9  605.74   32.40
  -2   3   9  580.44   29.70
   2   3  -9  622.14   35.80
  -2   3   9  607.84   34.10
  -1  -3   9  122.19   10.60
  -1  -3   9  114.69   10.60
  -1  -3   9  108.59   12.80
  -1   3   9  121.19   14.80
   1   3  -9  102.69   16.10
  -1   3   9  150.58   19.90
  -1   3   9  109.09   10.30
   0  -3   9    5.80    5.50
   0  -3   9   10.90    8.80
   0  -3   9    3.20    4.60
   0   3   9    6.40    8.40
   0   3   9   19.70    5.40
   0   3   9   20.80   12.60
   1  -3   9  148.19   21.40
   1  -3   9  135.19   15.00
   1  -3   9  122.99   11.20
   1   3   9  126.09   11.10
   1   3   9  126.69   17.00
   2  -3   9  351.46   23.20
   2  -3   9  318.57   19.30
   2   3   9  363.26   26.60
   2   3   9  345.97   19.10
   9  -4  -9   51.19   15.80
  -9  -4   9   56.39    8.60
  -9   4   9   35.80   14.70
   9   4  -9   32.00   13.40
  -9   4   9   21.50   15.10
  -8  -4   9  449.56   25.20
   8  -4  -9  484.45   32.60
  -8   4   9  422.16   26.30
  -8   4   9  420.46   27.10
   8   4  -9  445.96   29.40
  -8   4   9  443.46   30.50
  -7  -4   9 1102.19   52.69
   7  -4  -9 1239.08   58.09
  -7   4   9 1107.39   53.69
   7   4  -9 1164.48   54.79
  -7   4   9 1180.98   56.49
  -7   4   9 1145.19   52.89
   7   4  -9 1208.28   55.29
   6  -4  -9  329.17   23.10
  -6  -4   9  283.87   18.90
  -6   4   9  284.57   20.40
   6   4  -9  323.17   23.20
  -6   4   9  318.47   23.30
  -6   4   9  289.97   19.50
   6   4  -9  288.27   21.00
   5  -4  -9  129.39   15.30
  -5  -4   9   86.79    9.50
  -5   4   9   88.09   12.10
   5   4  -9  102.79   15.80
   5   4  -9  109.69   12.80
  -5   4   9   86.39   10.70
  -5   4   9   89.49   14.80
   4  -4  -9  810.32   42.30
   4  -4  -9  836.12   44.90
  -4  -4   9  828.02   39.70
   4   4  -9  841.62   40.60
  -4   4   9  889.61   42.70
  -4   4   9  821.72   39.90
   4   4  -9  865.31   42.60
  -4   4   9  851.81   41.70
   3  -4  -9 1464.45   70.49
  -3  -4   9 1402.76   64.19
  -3   4   9 1459.05   67.09
   3   4  -9 1562.04   68.29
  -3   4   9 1471.55   64.79
  -3   4   9 1615.34   67.89
  -2  -4   9  298.27   14.60
  -2  -4   9  297.67   14.30
  -2  -4   9  276.27   17.80
  -2   4   9  301.47   23.90
  -2   4   9  293.67   17.80
   2   4  -9  286.57   24.70
  -2   4   9  278.57   21.30
  -1  -4   9  774.82   33.10
  -1  -4   9  749.82   32.00
  -1  -4   9  678.33   34.30
  -1   4   9  725.23   37.90
  -1   4   9  716.23   34.40
  -1   4   9  786.72   41.60
   1   4  -9  670.33   41.00
   0  -4   9 1406.46   59.89
   0  -4   9 1442.36   58.09
   0  -4   9 1343.27   59.69
   0   4   9 1382.06   63.49
   0   4   9 1330.97   59.19
   1  -4   9  102.79   12.90
   1  -4   9   80.99    9.40
   1   4   9   98.49   14.40
   1   4   9   76.59    9.40
   2  -4   9  261.67   16.60
   2  -4   9  241.88   20.00
   2   4   9  248.98   24.80
   2   4   9  270.97   15.90
   9  -5  -9   29.70   13.80
  -9  -5   9   35.10    7.90
  -9   5   9   33.10    8.60
  -9   5   9   35.90   14.20
   9   5  -9   31.40   13.60
  -8  -5   9   47.70    8.80
   8  -5  -9   55.49   13.40
   8   5  -9   45.80   12.00
  -8   5   9   48.40    9.00
  -8   5   9   52.49   13.20
   7  -5  -9   14.20    9.90
  -7  -5   9    1.60    4.60
  -7   5   9    3.90    9.30
  -7   5   9    2.30    8.50
   7   5  -9   15.70   10.40
  -7   5   9    9.10    6.20
   7   5  -9    1.30    7.50
   6  -5  -9   58.49   11.20
  -6  -5   9   46.60    7.80
   6   5  -9   53.99    9.40
  -6   5   9   43.90   10.80
  -6   5   9   46.10   10.10
  -6   5   9   53.19    9.20
   6   5  -9   60.19   11.10
  -5  -5   9   40.80    7.20
   5  -5  -9   36.60    9.20
   5   5  -9   38.40   10.50
   5   5  -9   46.10    8.40
  -5   5   9   42.20    9.40
  -5   5   9   32.60    9.50
  -5   5   9   24.20    6.90
  -4  -5   9    7.40    4.10
   4  -5  -9    1.10    6.00
  -4   5   9   11.80    7.20
  -4   5   9   13.90    5.70
   4   5  -9   11.10    5.60
  -4   5   9   24.80    8.70
   4   5  -9    5.20    8.20
  -3  -5   9   57.09    8.40
  -3   5   9   48.30   10.30
  -3   5   9   60.59    8.80
   3   5  -9   43.40   11.10
  -3   5   9   51.59   11.30
  -2  -5   9   56.49    8.00
  -2   5   9   46.20   10.00
  -2   5   9   74.29   14.60
   2   5  -9   80.59   13.10
  -2   5   9   71.59    9.00
  -1  -5   9  158.08   12.20
  -1   5   9  167.08   12.60
  -1   5   9  156.48   17.70
  -1   5   9  147.89   24.00
   1   5  -9  129.89   22.20
   0  -5   9    4.00    4.80
   0  -5   9    1.40    9.50
   0  -5   9    0.00    4.30
   0   5   9   -1.70    8.30
   0   5   9    1.50    4.40
   1  -5   9  196.68   14.10
   1  -5   9  229.38   15.30
   1   5   9  199.98   21.20
   1   5   9  204.48   14.10
   2  -5   9   54.59    8.10
   2   5   9   54.59    7.80
   2   5   9   86.69   14.40
  -9  -6   9   83.89   11.60
   9  -6  -9   78.89   17.30
   9   6  -9  152.38   22.40
  -9   6   9  118.09   14.30
  -9   6   9   96.39   18.60
  -8  -6   9  187.28   14.10
   8  -6  -9  155.18   23.80
  -8   6   9  140.59   14.60
   8   6  -9  144.79   19.60
  -8   6   9  205.58   23.90
   7  -6  -9  930.61   49.00
  -7  -6   9  917.11   43.90
  -7   6   9  903.61   49.50
  -7   6   9  900.01   45.20
  -7   6   9  966.70   50.39
   7   6  -9  972.30   46.50
   6  -6  -9  609.64   35.70
  -6  -6   9  607.24   31.50
   6   6  -9  626.44   34.20
  -6   6   9  618.44   36.60
  -6   6   9  663.13   34.30
  -6   6   9  552.54   31.90
   6   6  -9  645.74   33.00
   5  -6  -9   -7.20    7.30
  -5  -6   9    1.70    5.10
   5   6  -9   -1.40    9.00
  -5   6   9   -7.00    7.40
  -5   6   9    9.20    9.10
  -5   6   9    2.00    5.20
   5   6  -9   11.60    6.00
   4  -6  -9  550.54   32.60
  -4  -6   9  586.04   29.80
  -4   6   9  559.44   30.30
   4   6  -9  602.94   32.70
  -4   6   9  603.14   34.00
   4   6  -9  619.84   30.20
  -4   6   9  566.14   33.50
  -3  -6   9  652.63   34.10
  -3   6   9  698.93   34.60
   3   6  -9  754.52   38.10
  -3   6   9  738.83   38.50
  -3   6   9  710.83   39.60
  -2  -6   9    6.20    4.90
  -2   6   9   19.10    8.60
  -2   6   9  -23.10   10.90
  -2   6   9   -7.20    4.20
   2   6  -9   16.00    9.90
  -1  -6   9  490.25   26.50
  -1   6   9  517.95   26.30
  -1   6   9  563.84   31.90
   1   6  -9  469.65   33.60
   0  -6   9  484.95   26.30
   0   6   9  490.35   31.30
   0   6   9  548.05   25.90
   1  -6   9  226.68   15.20
   1   6   9  228.48   14.70
   1   6   9  200.48   23.20
  -2  -6  -9  -11.10   11.00
   2  -6   9    0.40    5.40
   2   6   9   13.10    6.30
   2   6   9   14.00   11.80
   9  -7  -9  717.73   46.80
  -9  -7   9  687.73   35.60
  -9   7   9  684.73   47.20
   9   7  -9  808.42   42.70
  -8  -7   9  710.83   35.00
   8  -7  -9  676.33   43.00
   8   7  -9  681.63   38.70
   8   7  -9  771.22   52.99
  -8   7   9  699.63   44.70
  -7  -7   9   48.90    8.10
   7  -7  -9   75.19   13.60
   7   7  -9   60.79   11.50
   7   7  -9   42.20   11.80
  -7   7   9   61.49   13.40
  -7   7   9   61.29   10.30
   6  -7  -9  155.38   18.60
  -6  -7   9  133.19   12.60
   6   7  -9  160.68   15.50
   6   7  -9  175.48   19.20
  -6   7   9  127.09   13.60
  -6   7   9  190.98   21.40
   5  -7  -9  496.95   31.40
  -5  -7   9  509.65   27.20
   5   7  -9  521.45   27.90
   5   7  -9  544.95   30.30
  -5   7   9  480.15   27.60
  -5   7   9  516.45   32.60
  -5   7   9  511.75   31.80
  -4  -7   9   96.69   10.70
   4  -7  -9  101.89   15.10
  -4   7   9  117.79   12.10
  -4   7   9  105.79   15.40
   4   7  -9  109.19   14.20
  -4   7   9  119.09   16.50
   4   7  -9  104.59   11.90
  -3  -7   9  157.98   12.80
   3   7  -9  214.88   20.00
  -3   7   9  179.58   18.70
  -3   7   9  169.18   22.20
  -3   7   9  150.08   13.30
  -2  -7   9  462.25   25.50
  -2   7   9  499.85   25.90
   2   7  -9  471.45   31.00
  -2   7   9  515.45   31.10
  -1  -7   9  392.76   22.70
  -1   7   9  415.06   28.70
  -1   7   9  443.56   23.00
   1   7  -9  411.56   30.90
   0  -7   9    8.40    5.00
   0   7   9   31.00   10.10
   0   7   9   12.00    5.80
   1  -7   9  798.62   38.80
   1   7   9  848.72   45.50
   1   7   9  847.62   37.70
  -9  -8   9  112.69   12.90
   8  -8  -9  -16.30   12.30
  -8  -8   9    0.30    5.10
   8   8  -9   24.40   14.60
   8   8  -9   -7.30    9.50
  -8   8   9   20.00   14.60
  -7  -8   9   13.70    6.00
   7  -8  -9   18.90   12.00
   7   8  -9   21.90    9.00
   7   8  -9    4.80   10.50
  -7   8   9   13.40   11.60
  -6  -8   9    1.90    5.50
   6  -8  -9   -6.10    9.10
  -6   8   9    1.60    9.90
   6   8  -9  -13.70    9.70
  -6   8   9   -2.50    5.80
   6   8  -9   -4.90    7.50
  -5  -8   9    4.70    4.70
   5  -8  -9   19.00    8.20
   5   8  -9    7.20    9.10
  -5   8   9   10.00    9.80
  -5   8   9    2.80    5.20
   5   8  -9    0.20    6.30
   4  -8  -9   26.70    9.70
  -4  -8   9   28.30    6.20
  -4   8   9   34.60    7.60
   4   8  -9   27.00   10.40
  -4   8   9   20.20   10.50
   4   8  -9   28.10    6.80
  -3  -8   9   98.69   10.20
  -3   8   9  113.19   18.20
   3   8  -9  149.19   18.90
  -3   8   9  100.59   11.50
  -2  -8   9   29.60    6.10
  -2   8   9   51.09   11.20
   2   8  -9   23.40   11.60
  -2   8   9   48.50    8.20
  -1  -8   9  159.18   13.10
  -1   8   9  186.48   13.90
  -1   8   9  182.68   20.80
   1   8  -9  143.19   23.80
   0  -8   9   28.50    6.50
   0   8   9   27.90    6.10
   0   8   9   18.70   11.10
   1   8   9   98.09   16.00
   1   8   9  111.89   10.90
  -8  -9   9  450.65   25.30
   8  -9  -9  486.75   34.20
  -8   9   9  449.66   38.30
   8   9  -9  429.16   29.50
   7  -9  -9  -20.70   10.50
  -7  -9   9    5.70    5.20
   7   9  -9   15.80    9.20
   7   9  -9   -0.50   10.00
  -7   9   9   -8.30   12.70
   6  -9  -9  280.57   24.70
  -6  -9   9  286.17   18.30
  -6   9   9  322.77   27.50
   6   9  -9  285.37   23.50
   6   9  -9  243.98   19.80
   5  -9  -9  897.71   45.40
  -5  -9   9  824.32   40.50
  -5   9   9  896.31   47.70
   5   9  -9  880.31   42.70
  -5   9   9  809.02   42.10
   5   9  -9  885.71   40.90
   4  -9  -9  249.48   20.50
  -4  -9   9  203.48   14.70
   4   9  -9  168.28   20.90
  -4   9   9  199.78   15.80
   4   9  -9  204.78   15.80
  -4   9   9  186.78   22.60
  -3  -9   9  281.17   17.80
  -3   9   9  279.77   24.70
  -3   9   9  247.38   17.80
   3   9  -9  283.47   23.60
  -2  -9   9 1262.97   56.79
  -2   9   9 1275.17   56.69
  -2   9   9 1266.27   62.39
   2   9  -9 1322.07   60.69
  -1  -9   9  881.21   41.50
  -1   9   9  841.82   47.50
  -1   9   9  903.01   41.10
   1   9  -9  909.01   48.30
   0  -9   9    4.70    7.90
   0   9   9    6.00   11.10
   0   9   9   10.90    5.70
   1  -9   9  602.74   31.60
   1   9   9  613.94   39.90
   1   9   9  695.03   31.00
  -8 -10   9   36.10    8.80
   8 -10  -9   33.80   15.30
   8  10  -9   14.40   12.10
  -8  10   9   68.29   19.70
   7 -10  -9  269.07   27.40
  -7 -10   9  282.77   18.10
  -7  10   9  239.88   30.60
   7  10  -9  311.17   22.00
   6 -10  -9  123.69   20.00
  -6 -10   9  108.39   11.60
   6  10  -9  128.09   15.20
  -6  10   9  178.78   24.10
   6  10  -9  113.29   19.10
   5 -10  -9   39.30   11.40
  -5 -10   9   46.30    7.80
   5  10  -9   76.19   11.90
  -5  10   9   37.70   12.60
   5  10  -9   44.10    8.60
  -4 -10   9  337.77   20.70
  -4  10   9  343.67   22.00
  -4  10   9  337.97   29.40
   4  10  -9  348.47   25.90
   4  10  -9  373.06   20.90
  -3 -10   9  109.19   11.20
  -3  10   9  115.09   12.40
   3  10  -9  125.19   15.70
  -3  10   9  151.68   20.60
  -2 -10   9    5.50    4.90
  -2  10   9   18.50   11.40
   2  10  -9   -4.50   11.50
  -2  10   9    3.40    5.70
  -1 -10   9   32.20    9.80
  -1  10   9   39.30    7.30
   1  10  -9   32.80   15.00
  -1  10   9   27.90   12.00
   0 -10   9  251.57   17.20
   0  10   9  258.87   26.90
   0  10   9  248.48   16.50
   7 -11  -9   21.00   12.60
  -7 -11   9   12.60    6.40
  -7  11   9   13.90   14.80
   7  11  -9   21.40    9.80
   6 -11  -9  265.57   25.50
  -6 -11   9  239.78   17.30
   6  11  -9  271.37   19.60
  -6  11   9  278.77   29.60
  -5 -11   9  560.44   30.80
   5 -11  -9  612.24   36.70
  -5  11   9  651.43   41.70
   5  11  -9  619.74   30.70
   5  11  -9  601.04   33.60
  -4 -11   9  228.88   15.80
  -4  11   9  229.68   17.90
   4  11  -9  195.48   22.00
  -4  11   9  250.27   26.40
  -3 -11   9  113.29   11.60
  -3  11   9  122.99   20.80
   3  11  -9  128.69   20.00
  -3  11   9  127.99   13.00
   2  11  -9  494.45   31.90
  -2  11   9  496.55   27.30
   2  11  -9  489.95   33.10
  -2  11   9  540.45   34.90
  -1 -11   9  137.09   12.50
   1  11  -9  127.49   20.20
   1  11  -9  165.28   21.90
  -1  11   9  172.48   24.30
  -1  11   9  169.68   13.80
   0 -11  -9    4.30   12.20
   0 -11   9   -0.80    4.80
   0  11   9   -1.50    5.90
   0  11   9   -4.10   13.40
  -7 -12   9  401.46   25.30
   7 -12  -9  446.96   37.50
  -7  12   9  546.35   42.10
   6 -12  -9  215.58   24.50
   6  12  -9  191.98   17.70
  -6  12   9  144.99   22.20
   5 -12  -9   16.20   10.70
  -5  12   9   24.80   14.80
   5  12  -9   22.70    7.50
  -4  12   9  598.74   39.80
  -3 -12   9  473.55   29.30
  -3  12   9  524.45   29.40
  -3  12   9  636.24   37.60
  -2 -12   9   18.60    6.70
   2  12  -9   12.90   18.20
  -2  12   9   24.60   12.80
  -2  12   9   17.40    7.30
  -1 -12   9  391.66   23.40
  -1  12   9  435.06   33.60
  -1  12   9  421.26   23.60
   6 -13  -9  -25.20   11.90
  -6 -13   9   -1.60    4.80
  -6  13   9    4.40   16.90
  -5 -13   9   34.30    7.30
  -5  13   9   53.39   15.40
  -4 -13   9   26.90    6.10
  -4  13   9   71.29   16.20
  -3 -13   9    7.40    4.80
  -3  13   9   -9.20    6.10
  -3  13   9  -24.10   11.20
  -2 -13   9   18.10    6.20
  -2  13   9   -5.30   13.40
  -2  13   9   24.30    8.20
  -1 -13   9   91.89   11.20
  -1  13   9  107.19   12.40
  -5 -14   9    3.20    5.20
  -4 -14   9  491.15   28.20
  -4  14   9  617.54   49.90
  -3 -14   9  460.35   25.80
  -3  14   9  453.95   35.70
   9   0 -10  933.41   52.19
  -9   0  10  894.21   45.40
  -8   0  10 2321.07   96.19
   8   0 -10 2250.97  101.39
   7   0 -10  403.56   28.80
  -7   0  10  431.46   25.30
  -7   0  10  408.66   25.10
  -6   0  10   42.00    8.40
  -6   0  10   80.19   11.50
  -6   0  10   53.29    9.80
   6   0 -10   62.39   11.30
  -5   0  10  618.04   29.00
  -5   0  10  544.55   30.60
  -5   0  10  594.64   30.30
   5   0 -10  576.74   33.20
  -4   0  10  831.22   41.60
   4   0 -10  917.21   44.40
  -4   0  10  900.51   40.50
  -4   0  10  843.12   40.60
  -3   0  10   -8.90    8.40
  -3   0  10    6.70    7.00
  -3   0  10    8.60    5.30
  -2   0  10  828.52   40.60
  -2   0  10  896.31   42.90
  -1   0  10  882.01   45.90
  -1   0  10  902.11   42.10
  -1   0  10  846.12   40.80
   0   0  10  450.95   27.10
   0   0  10  424.56   23.50
   1   0  10   62.99   13.00
   1   0  10   50.19    8.10
  -9  -1  10   27.70    8.50
   9  -1 -10   55.79   15.80
   9   1 -10   44.20   14.00
  -9   1  10   36.10    9.20
  -9   1  10   45.50   13.90
   8  -1 -10   -8.40   11.00
  -8  -1  10   17.20   12.80
  -8   1  10   23.90   10.80
  -8   1  10    2.80   11.50
   8   1 -10    5.00   11.00
  -7  -1  10   74.49   12.60
   7  -1 -10   69.69   13.10
  -7  -1  10   84.89   10.70
  -7   1  10   91.79   13.00
  -7   1  10   62.29   11.50
   7   1 -10   68.99   13.60
  -7   1  10   72.59   11.20
  -6  -1  10  236.58   17.60
  -6  -1  10  246.38   15.70
  -6  -1  10  234.98   16.80
   6  -1 -10  266.57   22.20
  -6   1  10  216.88   17.60
  -6   1  10  231.28   17.80
  -6   1  10  245.38   19.20
   6   1 -10  257.97   21.20
  -5  -1  10   -2.40    5.40
  -5  -1  10    3.20    4.40
  -5  -1  10    7.50    5.70
   5  -1 -10   14.50    8.70
   5   1 -10    0.50    7.20
  -5   1  10   -3.60    7.40
  -5   1  10    6.40    7.00
  -5   1  10    7.30    5.70
  -4  -1  10  228.48   16.20
  -4  -1  10  228.78   18.70
  -4  -1  10  215.48   16.20
   4  -1 -10  209.98   19.60
   4   1 -10  248.18   19.70
  -4   1  10  256.27   18.50
  -4   1  10  217.28   16.40
  -4   1  10  212.38   18.20
  -3  -1  10  272.47   18.40
  -3  -1  10  232.28   16.90
  -3  -1  10  236.88   17.50
  -3   1  10  250.27   20.40
  -3   1  10  263.67   17.50
  -2  -1  10   18.20    8.80
  -2  -1  10   22.10    7.50
  -2  -1  10   21.60    6.60
  -2   1  10   27.60    7.00
  -2   1  10   21.10    8.20
  -2   1  10   33.50   11.70
  -1  -1  10   28.00   13.80
  -1  -1  10   24.90    6.70
  -1   1  10   42.00   13.60
  -1   1  10   25.20    6.50
  -1   1  10   12.30    8.20
   0  -1  10   54.29   10.40
   0  -1  10   45.00    7.60
   0   1  10   35.40    7.30
   0   1  10   41.80   10.80
   1  -1  10   68.99   10.00
   1  -1  10   75.79   12.70
   1   1  10   67.49   10.30
   1   1  10   96.69   14.10
   9  -2 -10  130.79   21.10
  -9  -2  10  160.88   16.10
  -9   2  10  174.08   24.00
  -9   2  10  155.48   15.80
   9   2 -10  184.88   25.90
   8  -2 -10  795.02   46.40
  -8   2  10  830.02   42.00
  -8   2  10  811.12   43.20
   8   2 -10  753.42   44.30
  -7  -2  10  181.48   15.90
   7  -2 -10  202.58   21.80
  -7   2  10  213.18   19.00
  -7   2  10  166.48   15.30
   7   2 -10  196.58   20.90
  -7   2  10  202.38   20.30
   6  -2 -10   36.90    9.80
  -6  -2  10   51.79    9.40
  -6  -2  10   40.50    6.30
  -6   2  10   67.69   11.30
  -6   2  10   31.70    8.70
   6   2 -10   53.29   11.00
  -6   2  10   34.10    7.20
  -5  -2  10  277.27   15.50
   5  -2 -10  249.18   21.80
  -5  -2  10  245.78   17.70
   5   2 -10  253.97   21.30
  -5   2  10  236.78   18.20
  -5   2  10  308.37   21.70
  -5   2  10  286.77   19.90
  -4  -2  10  407.56   20.20
   4  -2 -10  374.76   25.90
  -4  -2  10  388.46   22.80
  -4  -2  10  417.16   19.90
   4   2 -10  424.76   25.80
  -4   2  10  361.16   25.20
  -4   2  10  369.56   24.70
  -4   2  10  349.77   22.60
  -3  -2  10   -4.50    6.00
  -3  -2  10   -4.20    5.20
  -3  -2  10   -9.80    4.60
  -3   2  10    6.80    9.40
  -3   2  10    6.30    7.40
  -3   2  10    3.90    4.70
  -2  -2  10  642.24   30.10
  -2  -2  10  609.24   31.60
  -2   2  10  594.24   31.20
  -2   2  10  643.14   33.80
  -2   2  10  642.54   36.60
  -1  -2  10  536.45   26.40
  -1  -2  10  474.95   26.00
  -1   2  10  474.95   29.10
  -1   2  10  445.56   34.50
  -1   2  10  487.55   25.80
   0  -2  10   28.60    9.10
   0  -2  10   47.20    7.90
   0   2  10   31.90   10.80
   0   2  10   38.60    7.80
   1  -2  10  110.79   12.10
   1   2  10  120.49   11.50
  -9  -3  10  682.13   36.30
   9  -3 -10  649.04   45.50
  -9   3  10  684.53   37.20
   9   3 -10  758.52   45.00
   8  -3 -10   -7.80   12.30
   8   3 -10   -8.50   10.50
  -8   3  10    3.50    5.60
  -8   3  10   -0.60   11.80
  -7  -3  10  479.25   27.60
   7  -3 -10  529.35   33.40
  -7   3  10  531.55   31.90
   7   3 -10  466.05   31.30
  -7   3  10  482.95   29.00
  -7   3  10  486.15   28.80
   6  -3 -10  506.65   32.70
  -6  -3  10  501.15   28.60
  -6   3  10  582.54   32.30
   6   3 -10  513.95   30.70
  -6   3  10  496.95   28.90
  -6   3  10  520.45   29.40
   5  -3 -10   42.20   10.50
  -5  -3  10   35.40    7.50
  -5   3  10   59.39   10.90
  -5   3  10   31.90    9.90
   5   3 -10   42.70    9.50
  -5   3  10   41.40    9.00
   4  -3 -10  336.67   24.80
  -4  -3  10  327.57   20.70
  -4   3  10  334.67   23.30
   4   3 -10  301.47   22.40
  -4   3  10  331.77   20.70
  -4   3  10  337.07   25.20
  -3  -3  10 1015.90   41.20
  -3  -3  10  927.91   45.30
  -3   3  10  982.40   45.80
  -3   3  10  992.00   47.90
  -3   3  10  982.90   48.80
  -2  -3  10  156.28   13.60
  -2  -3  10  177.28   12.50
  -2   3  10  149.09   18.90
  -2   3  10  149.29   13.00
  -2   3  10  153.58   17.60
  -1  -3  10  233.98   15.70
  -1  -3  10  220.88   15.30
  -1   3  10  198.28   21.20
  -1   3  10  206.78   15.50
   0  -3  10  678.33   32.80
   0  -3  10  636.34   32.40
   0   3  10  662.93   37.40
   0   3  10  658.03   32.30
  -8  -4  10   16.10    7.80
   8  -4 -10   -3.80   12.50
  -8   4  10    7.20    6.70
  -8   4  10    1.80   11.80
   8   4 -10    2.90   11.20
   7  -4 -10   11.60   10.90
  -7  -4  10    0.90    5.30
  -7   4  10   -7.50    9.90
   7   4 -10    3.30    9.70
  -7   4  10    0.80    6.70
  -7   4  10  -11.00   10.70
  -6  -4  10   67.29   10.00
   6  -4 -10   74.59   14.50
  -6   4  10   76.19   12.40
  -6   4  10   85.09   11.10
  -6   4  10   83.89   13.70
   6   4 -10   89.89   15.20
  -5  -4  10   78.99   10.30
   5  -4 -10  102.29   17.30
  -5   4  10   64.59   10.30
   5   4 -10   69.99   10.90
  -5   4  10   72.79   12.80
   5   4 -10   58.79   15.80
  -4  -4  10   49.00    8.30
   4  -4 -10   82.19   12.70
   4   4 -10   60.39   10.20
  -4   4  10   44.80    9.10
   4   4 -10   64.59   15.20
  -4   4  10   81.99   12.50
  -4   4  10   52.69   11.90
  -3  -4  10    0.00    5.60
  -3   4  10    3.10    5.40
  -3   4  10   -4.60    8.50
  -3   4  10  -19.00   10.40
  -2  -4  10   14.60    5.70
  -2   4  10   15.70    5.80
  -2   4  10    9.00   15.70
  -2   4  10   25.60    9.20
  -1  -4  10   -2.60    4.70
  -1   4  10    7.90    9.10
  -1   4  10    1.60    4.70
   0  -4  10    4.60    5.10
   0   4  10    0.80    5.30
   0   4  10  -13.50    9.40
   8  -5 -10   84.09   17.90
  -8  -5  10   47.60    9.20
  -8   5  10   60.49   11.90
  -8   5  10   73.69   15.60
   8   5 -10   54.89   14.10
   7  -5 -10 1092.09   55.29
  -7  -5  10 1030.50   50.89
  -7   5  10 1125.39   55.19
  -7   5  10  896.31   56.19
   7   5 -10 1104.59   52.59
  -6  -5  10  708.33   35.90
   6  -5 -10  697.33   41.00
   6   5 -10  700.33   37.80
  -6   5  10  724.63   39.20
  -6   5  10  716.73   40.40
  -5  -5  10  149.49   13.60
   5  -5 -10  146.09   19.00
  -5   5  10  127.29   19.60
   5   5 -10  188.88   17.60
  -5   5  10  150.38   14.20
  -5   5  10  179.38   20.10
   5   5 -10  195.88   24.00
  -4  -5  10  134.29   12.50
   4  -5 -10  130.19   18.00
  -4   5  10  147.99   20.90
  -4   5  10  135.79   13.10
  -4   5  10  100.09   17.90
   4   5 -10  173.28   22.70
  -3  -5  10  975.10   46.10
  -3   5  10 1013.60   46.60
  -3   5  10  976.40   49.60
  -2  -5  10  433.76   24.30
  -2   5  10  439.16   24.60
  -2   5  10  447.36   29.40
  -1  -5  10   28.30    7.00
  -1   5  10   31.50    6.80
  -1   5  10   22.60   10.80
   0  -5  10  481.55   33.30
   0   5  10  610.94   29.20
   0   5  10  610.74   36.50
   8  -6 -10  279.57   30.00
  -8  -6  10  221.68   18.10
  -8   6  10  221.68   19.30
   8   6 -10  242.68   25.80
  -8   6  10  264.77   29.40
   7  -6 -10  198.58   24.40
   7   6 -10  182.28   21.90
  -7   6  10  139.39   15.90
  -7   6  10  173.88   24.00
  -6  -6  10    6.00    5.50
   6  -6 -10   14.00   10.10
   6   6 -10   22.70   15.40
  -6   6  10   12.90    7.50
  -6   6  10    0.00   10.70
   6   6 -10   24.30    9.40
   5  -6 -10  371.46   27.60
  -5  -6  10  371.56   22.70
  -5   6  10  422.46   29.20
   5   6 -10  401.36   24.40
  -5   6  10  359.86   23.30
   5   6 -10  329.37   29.30
  -4  -6  10  137.49   12.90
  -4   6  10  139.59   20.40
   4   6 -10  177.48   23.70
  -4   6  10  127.79   13.30
  -3  -6  10    9.70    5.20
  -3   6  10    3.20    5.70
  -3   6  10   24.40   10.90
  -2  -6  10  300.87   19.90
  -2   6  10  347.47   27.00
  -2   6  10  321.67   20.10
  -1   6  10  321.97   19.40
  -1   6  10  272.97   26.40
   0  -6  10   -5.70    4.90
   0   6  10   27.60   12.90
   0   6  10    7.40    5.60
   8  -7 -10    7.20   18.00
  -8  -7  10    3.90    6.20
  -8   7  10  -14.60   14.20
   8   7 -10   18.90   12.70
  -8   7  10    5.70    6.80
  -7  -7  10  276.97   22.20
   7  -7 -10  346.37   29.20
  -7   7  10  396.86   31.30
   7   7 -10  276.67   24.80
  -7   7  10  315.77   22.90
   6  -7 -10  460.55   31.60
  -6  -7  10  392.96   31.20
   6   7 -10  411.06   27.20
  -6   7  10  452.05   33.20
   6   7 -10  478.15   33.30
  -5  -7  10   43.20    8.60
   5   7 -10   73.79   14.80
  -5   7  10   58.19   10.50
  -5   7  10   69.09   14.10
   5   7 -10   59.39   10.40
  -4  -7  10   66.79   10.20
  -4   7  10   52.39    8.80
   4   7 -10   62.39   15.30
  -4   7  10   68.09   13.40
  -3  -7  10  318.27   21.30
  -3   7  10  370.56   28.50
  -3   7  10  348.97   21.50
  -2   7  10  227.68   16.60
  -2   7  10  236.78   25.20
  -1  -7  10    4.80    4.90
  -1   7  10   -1.80    5.20
  -1   7  10   -2.10   11.70
   0  -7  10  130.39   12.00
   0   7  10  146.29   13.20
   7  -8 -10  264.57   28.40
  -7  -8  10  258.37   19.40
  -7   8  10  264.57   31.10
   7   8 -10  327.77   24.70
   6  -8 -10  198.68   24.00
  -6  -8  10  130.69   14.90
  -6   8  10  123.69   14.10
  -6   8  10  147.49   25.50
   6   8 -10  150.28   17.90
   5  -8 -10 1148.09   57.89
   5   8 -10 1221.48   57.19
  -5   8  10 1079.89   56.49
  -5   8  10 1221.68   60.09
   5   8 -10 1112.09   53.49
  -4   8  10  499.05   28.70
  -4   8  10  551.44   35.60
   4   8 -10  485.55   35.40
  -3  -8  10   20.40    7.30
  -3   8  10   27.40    6.90
  -3   8  10   24.00   11.70
   3   8 -10   12.20   18.50
  -2  -8  10  574.24   30.80
  -2   8  10  626.44   31.30
  -2   8  10  583.34   38.70
  -1  -8  10  656.93   35.00
  -1   8  10  753.12   43.70
  -1   8  10  737.73   35.20
   7  -9 -10   -5.40   16.60
  -7  -9  10   11.90    6.30
  -7   9  10  -25.10   15.90
  -7   9  10   17.20    7.60
   7   9 -10   30.60   11.40
  -6  -9  10   76.79   10.40
   6  -9 -10  120.49   20.80
  -6   9  10   63.29   17.50
  -6   9  10   50.19   10.20
   6   9 -10   74.59   12.20
  -5  -9  10   29.50    7.20
   5  -9 -10   30.80   12.30
   5   9 -10   29.20   14.90
  -5   9  10   39.30   13.60
  -5   9  10   17.30    9.80
  -4  -9  10   27.30    7.50
  -4   9  10   28.60   13.40
   4   9 -10    2.20   14.60
  -4   9  10   16.20    8.10
  -3  -9  10    7.70    6.20
  -3   9  10   11.40    6.20
   3   9 -10    1.50   18.10
  -3   9  10   10.60   13.10
  -2  -9  10   -5.00    4.00
  -2   9  10    4.60   13.10
  -2   9  10    9.60    6.00
  -1  -9  10   -7.20    4.20
  -1   9  10    5.20   14.10
  -1   9  10   -6.30    6.10
  -6 -10  10   56.09    9.60
   6 -10 -10   45.20   14.80
  -6  10  10   74.29   17.50
   6  10 -10   59.79   14.70
  -6  10  10   68.89   11.70
  -5 -10  10  308.37   20.40
   5 -10 -10  365.86   29.00
  -5  10  10  349.87   33.20
  -5  10  10  294.97   21.40
  -4 -10  10  239.58   17.10
  -4  10  10  239.38   28.70
  -3 -10  10   15.70    5.90
  -3  10  10   23.50    6.60
  -3  10  10   28.30   13.80
  -2 -10  10  356.16   22.20
  -2  10  10  408.16   33.70
  -2  10  10  371.76   23.30
  -5 -11  10   35.00    6.90
  -5  11  10   26.80   16.50
  -5  11  10   31.00    9.30
  -4 -11  10  159.88   13.80
  -4  11  10  138.89   15.20
  -3 -11  10  379.56   22.90
  -3  11  10  347.77   30.70
   7   0 -11   -8.20   11.50
  -7   0  11   -1.00    6.20
   6   0 -11   -0.40   10.90
  -6   0  11    3.00    8.70
  -6   0  11   -4.80    5.80
  -5   0  11    4.60    5.80
   5   0 -11    1.20    9.20
  -5   0  11  -11.80    7.80
  -4   0  11   -0.60    4.80
  -4   0  11   11.40    8.80
  -3   0  11   -0.50    6.10
  -3   0  11   -4.20    8.20
  -2   0  11   -3.20    8.90
  -2   0  11    8.40    6.20
   7  -1 -11  915.21   50.09
  -7  -1  11  869.71   45.20
   7   1 -11  930.31   49.30
  -7   1  11  958.30   47.00
  -7   1  11  881.61   45.60
   6  -1 -11   46.80   12.80
  -6  -1  11   43.00    8.80
  -6   1  11   47.80    9.80
  -6   1  11   57.99   11.70
   6   1 -11   31.20   12.00
  -5  -1  11  538.55   30.10
   5  -1 -11  545.55   34.00
   5   1 -11  566.84   34.10
  -5   1  11  496.45   29.80
  -5   1  11  591.14   31.70
  -4  -1  11  633.74   30.80
  -4  -1  11  568.44   32.10
  -4   1  11  534.15   32.50
  -4   1  11  676.73   33.90
  -3  -1  11   61.49    9.70
  -3  -1  11   57.39    9.20
  -3   1  11   61.59   11.50
  -3   1  11   49.30   10.50
  -2  -1  11  116.99   13.10
  -2   1  11  134.59   13.90
  -2   1  11  160.08   18.90
  -7  -2  11  214.88   18.00
   7  -2 -11  190.48   26.10
   7   2 -11  240.88   24.50
  -7   2  11  228.18   23.70
  -7   2  11  195.18   17.70
  -6  -2  11  685.73   36.80
   6  -2 -11  733.53   42.10
   6   2 -11  719.83   40.40
  -6   2  11  733.33   39.30
  -6   2  11  682.43   37.20
   5  -2 -11  406.36   30.40
  -5  -2  11  409.46   25.70
  -5   2  11  474.15   28.80
   5   2 -11  449.46   29.50
  -5   2  11  430.46   26.00
  -4  -2  11    1.10    5.50
  -4   2  11    2.60    6.20
  -4   2  11  -15.50    9.60
  -3  -2  11  188.28   15.70
  -3   2  11  202.88   20.90
  -3   2  11  158.18   17.50
  -2  -2  11  363.66   22.40
  -2   2  11  395.66   27.60
  -2   2  11  338.07   24.30
  -7  -3  11   51.19    9.10
   7  -3 -11   56.49   15.50
   7   3 -11   63.79   14.20
  -7   3  11   70.39   15.60
  -7   3  11   41.40   10.80
   6  -3 -11   51.59   13.80
  -6  -3  11   39.80    9.20
   6   3 -11   42.10   12.60
  -6   3  11   28.90    8.60
  -6   3  11   71.49   13.70
  -5  -3  11   40.50    9.40
   5  -3 -11   61.59   13.20
  -5   3  11   51.59    9.90
  -5   3  11   40.20   11.90
   5   3 -11   39.10   10.80
  -4  -3  11  303.77   20.10
  -4   3  11  372.56   26.20
  -4   3  11  280.37   20.80
  -3  -3  11   80.49   11.90
  -3   3  11  123.79   15.50
  -3   3  11   85.09   12.80
  -2  -3  11    1.40    5.20
  -2   3  11   -0.30   11.90
  -2   3  11   -5.20    6.70
  -7  -4  11  217.08   18.10
   7  -4 -11  214.88   28.10
  -7   4  11  236.98   19.30
  -7   4  11  247.98   28.60
   7   4 -11  227.48   25.50
  -6  -4  11 1219.58   60.09
   6  -4 -11 1393.76   65.69
   6   4 -11 1315.67   62.99
  -6   4  11 1218.38   60.49
  -6   4  11 1416.26   64.19
  -5  -4  11  496.35   29.30
   5  -4 -11  554.84   36.40
   5   4 -11  578.54   33.80
  -5   4  11  488.15   29.70
  -5   4  11  563.54   34.80
  -4  -4  11    3.30    5.20
  -4   4  11   -4.30    4.90
  -4   4  11   35.10   12.30
  -3  -4  11  371.66   23.20
  -3   4  11  362.66   24.00
  -3   4  11  446.56   29.50
  -2  -4  11  778.42   39.00
  -2   4  11  762.32   40.10
  -2   4  11  848.12   44.40
  -6  -5  11   -0.30    5.30
   6  -5 -11    9.00   11.50
  -6   5  11    5.10    6.50
  -6   5  11   24.00   13.40
  -5  -5  11    8.70    6.70
   5  -5 -11    8.50   11.70
  -5   5  11   -0.50    6.70
   5   5 -11   -8.80   10.20
  -5   5  11   14.60   12.30
  -4  -5  11   22.60    7.30
  -4   5  11   41.20   13.40
  -4   5  11   28.20    8.30
  -3  -5  11   39.80    8.30
  -3   5  11   29.90    8.20
  -3   5  11   36.70   13.20
  -6  -6  11  542.75   31.20
   6  -6 -11  569.44   46.20
  -6   6  11  524.45   31.80
   6   6 -11  566.84   34.60
  -6   6  11  621.64   40.00
  -5  -6  11  144.99   14.80
   5  -6 -11  179.78   24.00
   5   6 -11  209.58   21.60
  -5   6  11  171.98   16.10
  -4  -6  11  118.39   12.60
  -4   6  11  127.79   18.20
  -4   6  11  102.19   13.80
  -3  -6  11  465.75   27.10
  -3   6  11  471.25   27.30
  -3   6  11  500.05   34.60
  -5  -7  11  328.97   21.80
  -5   7  11  357.46   23.40
  -4  -7  11  529.45   29.40
  -4   7  11  513.45   29.50
   0   0   0    0.00    0.00

_computing_structure_solution     'SHELXT 2014/5 (Sheldrick, 2014)'
;
_shelx_hkl_checksum              89001
loop_
_space_group_symop_operation_xyz
'x, y, z'
'-x, y+1/2, -z+1/2'
'-x, -y, -z'
'x, -y-1/2, z-1/2'
loop_
_atom_site_label
_atom_site_type_symbol
_atom_site_fract_x
_atom_site_fract_y
_atom_site_fract_z
_atom_site_U_iso_or_equiv
_atom_site_adp_type
_atom_site_occupancy
_atom_site_site_symmetry_order
_atom_site_calc_flag
_atom_site_refinement_flags_posn
_atom_site_refinement_flags_adp
_atom_site_refinement_flags_occupancy
_atom_site_disorder_assembly
_atom_site_disorder_group
Cd1 Cd 0.64904(2) 0.55791(2) 0.91934(2) 0.00812(5) Uani 1 1 d . . . . .
O3 O 0.79883(19) 0.54433(9) 0.73718(18) 0.0123(3) Uani 1 1 d . . . . .
O4 O 0.79591(19) 0.58055(9) 0.46983(18) 0.0133(3) Uani 1 1 d . . . . .
C6 C 0.5205(2) 0.60616(11) 0.5121(2) 0.0075(3) Uani 1 1 d . . . . .
C5 C 0.7214(2) 0.57479(11) 0.5767(2) 0.0085(3) Uani 1 1 d . . . . .
C8 C 0.4206(2) 0.63584(11) 0.3351(2) 0.0084(3) Uani 1 1 d . . . . .
C7 C 0.5035(2) 0.64006(11) 0.1976(2) 0.0090(3) Uani 1 1 d . . . . .
C9 C 0.2367(2) 0.66400(12) 0.2844(2) 0.0115(3) Uani 1 1 d . . . . .
H9 H 0.164793 0.684182 0.164645 0.014 Uiso 1 1 calc R U . . .
C10 C 0.1606(2) 0.66211(12) 0.4109(2) 0.0119(3) Uani 1 1 d . . . . .
H10 H 0.036713 0.681663 0.379610 0.014 Uiso 1 1 calc R U . . .
C11 C 0.2687(2) 0.63114(11) 0.5842(2) 0.0112(3) Uani 1 1 d . . . . .
H11 H 0.216584 0.629769 0.670898 0.013 Uiso 1 1 calc R U . . .
N12 N 0.4443(2) 0.60310(9) 0.63303(19) 0.0085(3) Uani 1 1 d . . . . .
O13 O 0.5812(2) 0.70669(8) 0.18772(18) 0.0144(3) Uani 1 1 d . . . . .
O14 O 0.47691(18) 0.57736(8) 0.09163(17) 0.0091(2) Uani 1 1 d . . . . .
O1 O 0.8579(2) 0.51190(9) 1.18738(18) 0.0135(3) Uani 1 1 d . . . . .
H1A H 0.847(4) 0.5289(19) 1.274(4) 0.025(7) Uiso 1 1 d . . . . .
H1B H 0.960(5) 0.494(2) 1.209(4) 0.038(9) Uiso 1 1 d . . . . .
O2 O 0.7739(2) 0.69338(9) 0.9851(2) 0.0147(3) Uani 1 1 d . . . . .
H2A H 0.726(4) 0.701(2) 1.052(4) 0.040(9) Uiso 1 1 d . . . . .
H2B H 0.722(5) 0.722(2) 0.891(5) 0.041(9) Uiso 1 1 d . . . . .
loop_
_atom_site_aniso_label
_atom_site_aniso_U_11
_atom_site_aniso_U_22
_atom_site_aniso_U_33
_atom_site_aniso_U_23
_atom_site_aniso_U_13
_atom_site_aniso_U_12
Cd1 0.00878(7) 0.00970(7) 0.00648(6) 0.00128(4) 0.00381(5) 0.00035(4)
O3 0.0105(6) 0.0173(7) 0.0099(6) 0.0041(5) 0.0051(5) 0.0050(5)
O4 0.0116(6) 0.0206(7) 0.0101(6) 0.0008(5) 0.0071(5) 0.0014(5)
C6 0.0079(7) 0.0068(7) 0.0081(7) -0.0015(6) 0.0036(6) -0.0003(6)
C5 0.0087(8) 0.0075(7) 0.0089(7) -0.0012(6) 0.0033(6) 0.0000(6)
C8 0.0095(8) 0.0071(7) 0.0088(7) 0.0000(6) 0.0040(6) -0.0002(6)
C7 0.0091(8) 0.0102(8) 0.0067(7) 0.0015(6) 0.0025(6) 0.0021(6)
C9 0.0107(8) 0.0126(8) 0.0098(7) -0.0002(6) 0.0031(6) 0.0008(6)
C10 0.0083(8) 0.0132(8) 0.0148(8) 0.0001(6) 0.0053(6) 0.0014(6)
C11 0.0111(8) 0.0118(8) 0.0132(8) -0.0006(6) 0.0076(7) -0.0008(6)
N12 0.0091(7) 0.0081(7) 0.0092(6) -0.0002(5) 0.0047(5) -0.0007(5)
O13 0.0242(7) 0.0095(6) 0.0136(6) -0.0016(5) 0.0119(5) -0.0044(5)
O14 0.0096(6) 0.0095(6) 0.0087(5) -0.0018(4) 0.0043(5) -0.0002(5)
O1 0.0102(6) 0.0213(7) 0.0083(6) 0.0011(5) 0.0032(5) 0.0050(5)
O2 0.0170(7) 0.0129(6) 0.0145(6) 0.0017(5) 0.0069(5) -0.0004(5)
loop_
_atom_type_symbol
_atom_type_description
_atom_type_scat_dispersion_real
_atom_type_scat_dispersion_imag
_atom_type_scat_source
C C 0.0033 0.0016 'International Tables Vol C Tables 4.2.6.8 and 6.1.1.4'
H H 0.0000 0.0000 'International Tables Vol C Tables 4.2.6.8 and 6.1.1.4'
N N 0.0061 0.0033 'International Tables Vol C Tables 4.2.6.8 and 6.1.1.4'
O O 0.0106 0.0060 'International Tables Vol C Tables 4.2.6.8 and 6.1.1.4'
Cd Cd -0.8075 1.2024 'International Tables Vol C Tables 4.2.6.8 and 6.1.1.4'
loop_
_geom_angle_atom_site_label_1
_geom_angle_atom_site_label_2
_geom_angle_atom_site_label_3
_geom_angle
_geom_angle_site_symmetry_1
_geom_angle_site_symmetry_3
_geom_angle_publ_flag
O1 Cd1 O3 103.48(5) . . ?
O1 Cd1 N12 176.48(5) . . ?
O3 Cd1 N12 73.03(5) . . ?
O1 Cd1 O2 90.84(5) . . ?
O3 Cd1 O2 87.30(5) . . ?
N12 Cd1 O2 89.42(5) . . ?
O1 Cd1 O14 80.56(5) . 1_556 ?
O3 Cd1 O14 175.90(4) . 1_556 ?
N12 Cd1 O14 102.94(5) . 1_556 ?
O2 Cd1 O14 91.99(5) . 1_556 ?
O1 Cd1 O14 82.05(5) . 3_666 ?
O3 Cd1 O14 102.39(5) . 3_666 ?
N12 Cd1 O14 98.18(5) . 3_666 ?
O2 Cd1 O14 169.07(5) . 3_666 ?
O14 Cd1 O14 78.70(5) 1_556 3_666 ?
C5 O3 Cd1 118.26(11) . . ?
N12 C6 C8 121.96(15) . . ?
N12 C6 C5 116.82(14) . . ?
C8 C6 C5 121.22(15) . . ?
O4 C5 O3 125.28(17) . . ?
O4 C5 C6 117.56(15) . . ?
O3 C5 C6 117.16(15) . . ?
C6 C8 C9 118.39(15) . . ?
C6 C8 C7 122.81(15) . . ?
C9 C8 C7 118.79(15) . . ?
O13 C7 O14 124.80(16) . . ?
O13 C7 C8 117.47(15) . . ?
O14 C7 C8 117.54(15) . . ?
C10 C9 C8 119.26(16) . . ?
C10 C9 H9 120.4 . . ?
C8 C9 H9 120.4 . . ?
C9 C10 C11 118.92(16) . . ?
C9 C10 H10 120.5 . . ?
C11 C10 H10 120.5 . . ?
N12 C11 C10 122.10(16) . . ?
N12 C11 H11 118.9 . . ?
C10 C11 H11 118.9 . . ?
C6 N12 C11 119.35(15) . . ?
C6 N12 Cd1 113.95(11) . . ?
C11 N12 Cd1 126.50(12) . . ?
C7 O14 Cd1 122.24(11) . 1_554 ?
C7 O14 Cd1 133.50(11) . 3_666 ?
Cd1 O14 Cd1 101.30(5) 1_554 3_666 ?
Cd1 O1 H1A 116(2) . . ?
Cd1 O1 H1B 126(2) . . ?
H1A O1 H1B 113(3) . . ?
Cd1 O2 H2A 91(2) . . ?
Cd1 O2 H2B 107(2) . . ?
H2A O2 H2B 111(3) . . ?
loop_
_geom_bond_atom_site_label_1
_geom_bond_atom_site_label_2
_geom_bond_distance
_geom_bond_site_symmetry_2
_geom_bond_publ_flag
Cd1 O1 2.2245(13) . ?
Cd1 O3 2.2513(13) . ?
Cd1 N12 2.3123(15) . ?
Cd1 O2 2.3368(14) . ?
Cd1 O14 2.3365(12) 1_556 ?
Cd1 O14 2.3566(13) 3_666 ?
O3 C5 1.276(2) . ?
O4 C5 1.236(2) . ?
C6 N12 1.347(2) . ?
C6 C8 1.395(2) . ?
C6 C5 1.524(2) . ?
C8 C9 1.400(2) . ?
C8 C7 1.509(2) . ?
C7 O13 1.243(2) . ?
C7 O14 1.275(2) . ?
C9 C10 1.386(2) . ?
C9 H9 0.9500 . ?
C10 C11 1.390(2) . ?
C10 H10 0.9500 . ?
C11 N12 1.342(2) . ?
C11 H11 0.9500 . ?
O1 H1A 0.79(3) . ?
O1 H1B 0.80(3) . ?
O2 H2A 0.79(3) . ?
O2 H2B 0.83(3) . ?
