#------------------------------------------------------------------------------
#$Date: 2020-09-25 00:31:20 +0300 (Fri, 25 Sep 2020) $
#$Revision: 256731 $
#$URL: file:///home/coder/svn-repositories/cod/cif/4/51/80/4518080.cif $
#------------------------------------------------------------------------------
#
# This file is available in the Crystallography Open Database (COD),
# http://www.crystallography.net/
#
# All data on this site have been placed in the public domain by the
# contributors.
#
data_4518080
loop_
_publ_author_name
'Chen, Yongwei'
'Zhang, Xuan'
'Chen, Haoyuan'
'Drout, Riki J.'
'Chen, Zhijie'
'Mian, Mohammad Rasel'
'Maldonado, Rodrigo R.'
'Ma, Kaikai'
'Wang, Xingjie'
'Xia, Qibin'
'Li, Zhong'
'Islamoglu, Timur'
'Snurr, Randall Q.'
'Farha, Omar K.'
_publ_section_title
;
 Tuning the Atrazine Binding Sites in an Indium-Based Flexible
 Metal-Organic Framework.
;
_journal_name_full               'ACS applied materials &amp; interfaces'
_journal_paper_doi               10.1021/acsami.0c13022
_journal_year                    2020
_chemical_formula_moiety         '0.25(C176 H88 In4 O32)'
_chemical_formula_sum            'C44 H22 In O8'
_chemical_formula_weight         793.43
_space_group_crystal_system      orthorhombic
_space_group_IT_number           66
_space_group_name_Hall           '-C 2 2c'
_space_group_name_H-M_alt        'C c c m'
_atom_sites_solution_hydrogens   geom
_atom_sites_solution_primary     dual
_audit_creation_date             2019-03-14
_audit_creation_method
;
Olex2 1.2
(compiled 2018.05.29 svn.r3508 for OlexSys, GUI svn.r5506)
;
_cell_angle_alpha                90
_cell_angle_beta                 90
_cell_angle_gamma                90
_cell_formula_units_Z            8
_cell_length_a                   13.8385(16)
_cell_length_b                   29.320(3)
_cell_length_c                   30.758(4)
_cell_measurement_reflns_used    9911
_cell_measurement_temperature    100(2)
_cell_measurement_theta_max      58.81
_cell_measurement_theta_min      3.01
_cell_volume                     12480(3)
_computing_cell_refinement       'SAINT V8.38A (?, 2016)'
_computing_data_reduction        'SAINT V8.38A (?, 2016)'
_computing_molecular_graphics    'Olex2 (Dolomanov et al., 2009)'
_computing_publication_material  'Olex2 (Dolomanov et al., 2009)'
_computing_structure_refinement  'ShelXL (Sheldrick, 2015)'
_computing_structure_solution    'ShelXT (Sheldrick, 2015)'
_diffrn_ambient_temperature      100.0
_diffrn_detector                 'Bruker APEX2 area detector'
_diffrn_detector_area_resol_mean 7.9
_diffrn_detector_type            'CCD area detector'
_diffrn_measured_fraction_theta_full 0.786
_diffrn_measured_fraction_theta_max 0.990
_diffrn_measurement_device       'three-circle diffractometer'
_diffrn_measurement_device_type  'Bruker SMART APEX2 area detector'
_diffrn_measurement_method       '\w and \f scans'
_diffrn_radiation_monochromator  'mirror optics'
_diffrn_radiation_probe          x-ray
_diffrn_radiation_type           CuK\a
_diffrn_radiation_wavelength     1.54178
_diffrn_reflns_av_R_equivalents  0.0479
_diffrn_reflns_av_unetI/netI     0.0295
_diffrn_reflns_Laue_measured_fraction_full 0.786
_diffrn_reflns_Laue_measured_fraction_max 0.990
_diffrn_reflns_limit_h_max       14
_diffrn_reflns_limit_h_min       -15
_diffrn_reflns_limit_k_max       32
_diffrn_reflns_limit_k_min       -27
_diffrn_reflns_limit_l_max       22
_diffrn_reflns_limit_l_min       -34
_diffrn_reflns_number            26036
_diffrn_reflns_point_group_measured_fraction_full 0.786
_diffrn_reflns_point_group_measured_fraction_max 0.990
_diffrn_reflns_theta_full        67.679
_diffrn_reflns_theta_max         58.959
_diffrn_reflns_theta_min         2.873
_diffrn_source                   'microfocus sealed X-ray tube'
_diffrn_source_type              'Incoatec I\ms'
_diffrn_standards_number         0
_exptl_absorpt_coefficient_mu    3.295
_exptl_absorpt_correction_T_max  0.7516
_exptl_absorpt_correction_T_min  0.5816
_exptl_absorpt_correction_type   multi-scan
_exptl_absorpt_process_details
'SADABS-2012/1 (Bruker,2012) was used for absorption correction. wR2(int) was 0.1273 before and 0.0663 after correction. The Ratio of minimum to maximum transmission is 0.7738. The \l/2 correction factor is 0.0015.'
_exptl_crystal_density_diffrn    0.845
_exptl_crystal_description       block
_exptl_crystal_F_000             3192
_exptl_crystal_size_max          0.18
_exptl_crystal_size_mid          0.11
_exptl_crystal_size_min          0.08
_refine_diff_density_max         1.017
_refine_diff_density_min         -1.323
_refine_diff_density_rms         0.121
_refine_ls_extinction_method     none
_refine_ls_goodness_of_fit_ref   1.095
_refine_ls_hydrogen_treatment    constr
_refine_ls_matrix_type           full
_refine_ls_number_parameters     409
_refine_ls_number_reflns         4548
_refine_ls_number_restraints     435
_refine_ls_restrained_S_all      1.052
_refine_ls_R_factor_all          0.0894
_refine_ls_R_factor_gt           0.0830
_refine_ls_shift/su_max          0.001
_refine_ls_shift/su_mean         0.000
_refine_ls_structure_factor_coef Fsqd
_refine_ls_weighting_details
'w=1/[\s^2^(Fo^2^)+(0.1412P)^2^+72.9869P] where P=(Fo^2^+2Fc^2^)/3'
_refine_ls_weighting_scheme      calc
_refine_ls_wR_factor_gt          0.2502
_refine_ls_wR_factor_ref         0.2591
_reflns_Friedel_coverage         0.000
_reflns_number_gt                3831
_reflns_number_total             4548
_reflns_threshold_expression     'I > 2\s(I)'
_iucr_refine_instructions_details
;
TITL Cccm_a.res in Cccm
REM Old TITL Cccm in Cccm
REM SHELXT solution in Cccm
REM R1 0.360, Rweak 0.008, Alpha 0.098, Orientation as input
REM Formula found by SHELXT: C66 In O17
CELL 1.54178 13.8385 29.3197 30.7577 90 90 90
ZERR 8 0.0016 0.0033 0.0035 0 0 0
LATT 7
SYMM -X,-Y,+Z
SYMM -X,+Y,0.5-Z
SYMM +X,-Y,0.5-Z
SFAC C H In O
UNIT 352 176 8 64
RIGU
EADP C24A C22
 
L.S. 10
PLAN  5
SIZE 0.08 0.11 0.18
TEMP -173.15
LIST 6
ABIN
fmap 2
acta
REM <olex2.extras>
REM <HklSrc "%.\\Cccm_a.hkl">
REM </olex2.extras>
 
WGHT    0.141200   72.986900
FVAR       0.09509
IN1   3    1.000000    0.695509    0.250000    10.50000    0.09411    0.04366 =
         0.03792    0.00000   -0.00103    0.00000
O2    4    0.879891    0.656552    0.283344    11.00000    0.10643    0.07658 =
         0.07652    0.03091    0.01126   -0.01596
O3    4    0.618715    0.238794    0.278793    11.00000    0.11217    0.06051 =
         0.05733   -0.02018   -0.00750   -0.00467
PART 1
O1    4    1.020563    0.641453    0.304652    10.63000    0.10613    0.04290 =
         0.07066    0.01144    0.01283    0.00138
C1    1    0.935124    0.634503    0.304078    10.63000    0.10566    0.04692 =
         0.03137   -0.00654    0.02114    0.00254
C2    1    0.800731    0.578806    0.325267    10.63000    0.11398    0.07120 =
         0.07628    0.01855   -0.00111   -0.01039
AFIX  43
H2    2    0.758751    0.592176    0.304416    10.63000   -1.20000
AFIX   0
C3    1    0.772641    0.544088    0.350317    10.63000    0.12325    0.07268 =
         0.07153    0.01776   -0.00954   -0.01727
AFIX  43
H3    2    0.709241    0.532558    0.345899    10.63000   -1.20000
AFIX   0
O4    4    0.478652    0.248490    0.303639    10.63000    0.10244    0.05633 =
         0.04590   -0.00305   -0.01148    0.00628
C4    1    0.825697    0.524352    0.380816    10.63000    0.10905    0.05109 =
         0.03787   -0.00423    0.01013   -0.00331
C5    1    0.914067    0.540280    0.388523    10.63000    0.10621    0.05322 =
         0.05718    0.01898    0.00437   -0.00380
AFIX  43
H5    2    0.950164    0.528494    0.412272    10.63000   -1.20000
AFIX   0
C6    1    0.955325    0.574722    0.361708    10.63000    0.10375    0.06249 =
         0.06295    0.01457    0.00926   -0.00215
AFIX  43
H6    2    1.021092    0.583438    0.364771    10.63000   -1.20000
AFIX   0
C7    1    0.897089    0.594776    0.331452    10.63000    0.10554    0.04769 =
         0.04128    0.00033    0.00870   -0.00056
AFIX  66
C11   1    0.713195    0.409011    0.453152    10.63000    0.08472    0.04355 =
         0.04234   -0.00721   -0.00501    0.00461
C10   1    0.713693    0.408717    0.407962    10.63000    0.09416    0.04745 =
         0.04144   -0.00529    0.00191   -0.00117
C9    1    0.749639    0.446010    0.385225    10.63000    0.11836    0.05333 =
         0.04909   -0.00214   -0.00090   -0.00987
AFIX  43
H9    2    0.749979    0.445809    0.354340    10.63000   -1.20000
AFIX  65
C8    1    0.785087    0.483597    0.407679    10.63000    0.10607    0.04710 =
         0.03899   -0.00154    0.00322   -0.00859
C13   1    0.784589    0.483892    0.452869    10.63000    0.10778    0.04336 =
         0.03773   -0.00329    0.00356   -0.00235
C12   1    0.748644    0.446599    0.475606    10.63000    0.09186    0.04506 =
         0.03854   -0.00598   -0.00023   -0.00390
AFIX   0
C14   1    0.683770    0.369311    0.476677    10.63000    0.11988    0.05028 =
         0.04116   -0.00637   -0.00449   -0.01409
AFIX  43
H14   2    0.664098    0.342771    0.461328    10.63000   -1.20000
AFIX   0
C15   1    0.816462    0.524875    0.475884    10.63000    0.11600    0.04043 =
         0.05522   -0.00440   -0.00522   -0.00360
AFIX  43
H15   2    0.836838    0.551075    0.460194    10.63000   -1.20000
AFIX   0
C16   1    0.677296    0.369756    0.381609    10.63000    0.09419    0.04911 =
         0.03445   -0.00530   -0.00199   -0.00314
C17   1    0.734744    0.350273    0.348415    10.63000    0.09554    0.05732 =
         0.04102   -0.00992   -0.00148   -0.00410
AFIX  43
H17   2    0.797313    0.361622    0.341747    10.63000   -1.20000
AFIX   0
C18   1    0.694522    0.313405    0.325929    10.63000    0.09931    0.05826 =
         0.04114   -0.01669   -0.00356   -0.00120
AFIX  43
H18   2    0.733610    0.299051    0.304541    10.63000   -1.20000
AFIX   0
C19   1    0.604856    0.296525    0.332074    10.63000    0.09633    0.04188 =
         0.03043   -0.00391   -0.00864    0.00352
C20   1    0.545877    0.316399    0.362791    10.63000    0.09700    0.05361 =
         0.03478   -0.00679   -0.00402   -0.00016
AFIX  43
H20   2    0.481365    0.306031    0.366515    10.63000   -1.20000
AFIX   0
C21   1    0.582470    0.352670    0.388956    10.63000    0.09429    0.06634 =
         0.05788   -0.01526    0.00789   -0.00812
AFIX  43
H21   2    0.543506    0.365418    0.411294    10.63000   -1.20000
AFIX   0
C22   1    0.565601    0.258931    0.301210    10.63000    0.09820    0.04049 =
         0.02805    0.00374   -0.02160    0.00808
PART 0
PART 2
O1A   4    1.041911    0.649243    0.303993    10.37000    0.09872    0.06040 =
         0.07135    0.03959    0.00322   -0.00489
C1A   1    0.948654    0.641646    0.315813    10.37000    0.10101    0.10407 =
         0.08624    0.04482    0.00827   -0.01325
O4A   4    0.470675    0.239587    0.313999    10.37000    0.10884    0.05367 =
         0.06687   -0.01348   -0.01008    0.00543
AFIX  66
C5A   1    0.875856    0.555469    0.420035    10.37000    0.10244    0.03638 =
         0.03749   -0.00674   -0.00096   -0.01345
C6A   1    0.971257    0.568941    0.414117    10.37000    0.09725    0.03646 =
         0.04775   -0.00154    0.00032   -0.00490
AFIX  43
H6A   2    1.019469    0.559617    0.434228    10.37000   -1.20000
AFIX  65
C7A   1    0.996116    0.596055    0.378774    10.37000    0.09102    0.04616 =
         0.04776   -0.00127   -0.00195   -0.00700
AFIX  43
H7A   2    1.061319    0.605262    0.374729    10.37000   -1.20000
AFIX  65
C2A   1    0.925575    0.609697    0.349348    10.37000    0.08462    0.04767 =
         0.04568    0.00326    0.00545   -0.01131
C3A   1    0.830174    0.596226    0.355265    10.37000    0.08741    0.07264 =
         0.04508    0.01528   -0.00118   -0.01422
AFIX  43
H3A   2    0.781962    0.605550    0.335154    10.37000   -1.20000
AFIX  65
C4A   1    0.805313    0.569112    0.390609    10.37000    0.09298    0.04919 =
         0.03635    0.00331    0.00410   -0.01792
AFIX  43
H4A   2    0.740111    0.559905    0.394653    10.37000   -1.20000
AFIX   0
C8A   1    0.853207    0.531621    0.457827    10.37000    0.11714    0.04994 =
         0.04248   -0.00040    0.00494   -0.00944
C9A   1    0.879215    0.549017    0.500000    10.18500    0.12034    0.04946 =
         0.04129    0.00000    0.00000   -0.01152
AFIX  43
H9A   2    0.918792    0.575492    0.500001    10.18500   -1.20000
AFIX  66
C15A  1    0.776087    0.466076    0.500000    10.18500    0.10119    0.05206 =
         0.03551    0.00000    0.00000   -0.00248
C14A  1    0.734049    0.423021    0.499962    10.18500    0.13268    0.05555 =
         0.02205    0.00000    0.00000   -0.01644
C13A  1    0.712816    0.402015    0.460317    10.37000    0.14037    0.04209 =
         0.01393    0.00663   -0.00353   -0.02377
C12A  1    0.733618    0.424062    0.421419    10.37000    0.22211    0.06590 =
         0.02165    0.00456    0.00312   -0.05786
AFIX  43
H12A  2    0.719105    0.409704    0.394511    10.37000   -1.20000
AFIX  65
C11A  1    0.775655    0.467116    0.421892    10.37000    0.18233    0.05644 =
         0.02514    0.00791    0.00360   -0.03812
AFIX  43
H11A  2    0.789872    0.482184    0.395307    10.37000   -1.20000
AFIX  65
C10A  1    0.796890    0.488123    0.461262    10.37000    0.12694    0.04880 =
         0.03509   -0.00054    0.00072   -0.01302
AFIX   0
C16A  1    0.660923    0.359664    0.460051    10.37000    0.16646    0.05581 =
         0.02442    0.00262   -0.00130   -0.04051
C17A  1    0.636136    0.338940    0.500000    10.18500    0.21016    0.06566 =
         0.02157    0.00000    0.00000   -0.06840
AFIX  43
H17A  2    0.602387    0.310724    0.500000    10.18500   -1.20000
AFIX  66
C21A  1    0.582604    0.279768    0.348932    10.37000    0.12381    0.04690 =
         0.02394    0.00751   -0.01182   -0.00520
C22A  1    0.515617    0.291660    0.380641    10.37000    0.13369    0.08559 =
         0.05232   -0.02661    0.00302   -0.02576
AFIX  43
H22A  2    0.450507    0.281716    0.378196    10.37000   -1.20000
AFIX  65
C23A  1    0.543897    0.318100    0.415928    10.37000    0.14842    0.08198 =
         0.04068   -0.01663    0.00732   -0.03786
AFIX  43
H23A  2    0.498114    0.326227    0.437600    10.37000   -1.20000
AFIX  65
C18A  1    0.639163    0.332649    0.419506    10.37000    0.14246    0.04287 =
         0.02270    0.00779   -0.00248   -0.02749
C19A  1    0.706150    0.320758    0.387797    10.37000    0.13853    0.11500 =
         0.04195   -0.02286   -0.00010   -0.03542
AFIX  43
H19A  2    0.771260    0.330701    0.390243    10.37000   -1.20000
AFIX  65
C20A  1    0.677872    0.294318    0.352510    10.37000    0.12623    0.06311 =
         0.01744    0.00915   -0.00909   -0.01442
AFIX  43
H20A  2    0.723654    0.286191    0.330838    10.37000   -1.20000
AFIX   0
C24A  1    0.556068    0.251321    0.313239    10.37000    0.09820    0.04049 =
         0.02805    0.00374   -0.02160    0.00808
HKLF 4
 
REM  Cccm_a.res in Cccm
REM R1 =  0.0830 for    3831 Fo > 4sig(Fo)  and  0.0894 for all    4548 data
REM    409 parameters refined using    435 restraints
 
END  
     
WGHT      0.1412     72.9606 

REM Highest difference peak  1.017,  deepest hole -1.323,  1-sigma level  0.121
Q1    1   0.9111  0.6961  0.2521  11.00000  0.05    1.02
Q2    1   0.9392  0.6787  0.2617  11.00000  0.05    0.99
Q3    1   1.0000  0.7385  0.2500  10.50000  0.05    0.96
Q4    1   0.9571  0.5663  0.3978  11.00000  0.05    0.31
Q5    1   0.9278  0.5496  0.4256  11.00000  0.05    0.30

  REM The information below was added by Olex2.
  REM
  REM R1 = 0.0830 for 3831 Fo > 4sig(Fo) and 0.0894 for all 27149 data
  REM n/a parameters refined using n/a restraints
  REM Highest difference peak 1.02, deepest hole -1.32
  REM Mean Shift 0, Max Shift -0.001.

  REM +++ Tabular Listing of Refinement Information +++
  REM R1_all = 0.0894
  REM R1_gt = 0.0830
  REM wR_ref = 0.2591
  REM GOOF = 1.095
  REM Shift_max = -0.001
  REM Shift_mean = 0
  REM Reflections_all = 27149
  REM Reflections_gt = 3831
  REM Parameters = n/a
  REM Hole = -1.32
  REM Peak = 1.02
  REM Flack = n/a

  
;
_cod_data_source_file            am0c13022_si_002.cif
_cod_data_source_block           cccm_a
_cod_original_cell_volume        12480(2)
_cod_database_code               4518080
_shelxl_version_number           2014/6
_shelx_space_group_comment
;
The symmetry employed for this shelxl refinement is uniquely defined
by the following loop, which should always be used as a source of
symmetry information in preference to the above space-group names.
They are only intended as comments.
;
_shelx_estimated_absorpt_t_max   0.778
_shelx_estimated_absorpt_t_min   0.588
_olex2_refinement_description
;
1. Fixed Uiso
 At 1.2 times of:
  All C(H) groups
2. Uiso/Uaniso restraints and constraints
Uanis(C24A) = Uanis(C22)
3. Rigid body (RIGU) restrains
 All non-hydrogen atoms
 with sigma for 1-2 distances of 0.004 and sigma for 1-3 distances of 0.004
4. Others
 Fixed Sof: O1(0.63) C1(0.63) C2(0.63) H2(0.63) C3(0.63) H3(0.63) O4(0.63)
 C4(0.63) C5(0.63) H5(0.63) C6(0.63) H6(0.63) C7(0.63) C11(0.63) C10(0.63)
 C9(0.63) H9(0.63) C8(0.63) C13(0.63) C12(0.63) C14(0.63) H14(0.63) C15(0.63)
 H15(0.63) C16(0.63) C17(0.63) H17(0.63) C18(0.63) H18(0.63) C19(0.63)
 C20(0.63) H20(0.63) C21(0.63) H21(0.63) C22(0.63) O1A(0.37) C1A(0.37)
 O4A(0.37) C5A(0.37) C6A(0.37) H6A(0.37) C7A(0.37) H7A(0.37) C2A(0.37)
 C3A(0.37) H3A(0.37) C4A(0.37) H4A(0.37) C8A(0.37) C9A(0.185) H9A(0.185)
 C15A(0.185) C14A(0.185) C13A(0.37) C12A(0.37) H12A(0.37) C11A(0.37) H11A(0.37)
 C10A(0.37) C16A(0.37) C17A(0.185) H17A(0.185) C21A(0.37) C22A(0.37) H22A(0.37)
 C23A(0.37) H23A(0.37) C18A(0.37) C19A(0.37) H19A(0.37) C20A(0.37) H20A(0.37)
 C24A(0.37)
5.a Aromatic/amide H refined with riding coordinates:
 C2(H2), C3(H3), C5(H5), C6(H6), C9(H9), C14(H14), C15(H15), C17(H17),
 C18(H18), C20(H20), C21(H21), C6A(H6A), C7A(H7A), C3A(H3A), C4A(H4A), C9A(H9A),
  C12A(H12A), C11A(H11A), C17A(H17A), C22A(H22A), C23A(H23A), C19A(H19A),
 C20A(H20A)
5.b Fitted hexagon refined as free rotating group:
 C11(C10,C9,C8,C13,C12), C5A(C6A,C7A,C2A,C3A,C4A), C15A(C14A,C13A,C12A,C11A,
 C10A), C21A(C22A,C23A,C18A,C19A,C20A)
;
_shelx_fab_file
;
0 0 2 61.3003 19.1797
0 0 4 -175.0151 -21.0579
0 0 6 -100.2405 24.6372
0 0 10 112.4018 23.2928
0 0 12 -4.0973 -22.3198
0 0 14 72.3082 22.0119
0 0 16 18.3516 -21.2906
0 0 18 -6.7610 20.8007
0 0 20 2.4359 -19.3589
0 0 22 11.2997 17.8302
0 0 24 -16.3358 -16.7339
0 0 26 -2.7261 15.1896
0 0 28 -12.9731 -14.3085
0 0 30 -2.2150 12.8618
0 0 32 6.8246 -10.3119
0 0 34 1.2006 9.5673
0 2 0 -108.0267 21.7682
0 2 2 -201.8562 -18.7435
0 2 4 -0.8957 13.3037
0 2 6 -3.4543 -12.0966
0 2 8 24.7089 11.7485
0 2 10 7.3150 -11.6471
0 2 12 -12.5151 11.6116
0 2 14 -15.5106 -10.8907
0 2 16 -12.4741 10.3537
0 2 18 3.0630 -9.7125
0 2 20 4.6267 9.0286
0 2 22 -11.1404 -8.3038
0 2 24 -2.5509 7.6851
0 2 26 -0.8566 -6.9776
0 2 28 8.5632 6.1154
0 2 30 -4.7031 -5.4391
0 2 32 -0.4336 4.4796
0 2 34 0.8873 -5.3874
0 4 0 202.1884 -4.9689
0 4 2 -36.1109 6.0644
0 4 4 -83.6880 -5.7671
0 4 6 -36.6776 5.3917
0 4 8 12.6441 -5.0086
0 4 10 2.9349 4.4296
0 4 12 11.7057 -4.0005
0 4 14 -19.1806 3.5764
0 4 16 22.6615 -3.3252
0 4 18 -32.4001 2.9558
0 4 20 14.3392 -2.6462
0 4 22 -8.0551 2.2322
0 4 24 16.0234 -1.9699
0 4 26 -9.2144 1.7421
0 4 28 10.6533 -1.4125
0 4 30 -11.3702 0.6879
0 4 32 13.3174 -0.2976
0 6 0 165.0010 -4.4047
0 6 2 116.5524 4.7202
0 6 4 80.6349 -4.5058
0 6 6 -88.5855 4.4240
0 6 8 84.5476 -4.6400
0 6 10 -37.8888 4.2317
0 6 12 24.7686 -3.8905
0 6 14 -22.1103 3.7742
0 6 16 -5.1982 -3.6984
0 6 18 1.5884 3.6549
0 6 20 10.1502 -3.4242
0 6 22 -5.7351 3.2797
0 6 24 13.3037 -3.2836
0 6 26 -7.1518 3.2380
0 6 28 14.4171 -2.8384
0 6 30 -19.5738 2.3866
0 6 32 9.8253 -3.1782
0 8 0 61.1188 11.6372
0 8 2 -41.7342 -12.0728
0 8 4 133.2443 12.0664
0 8 6 16.3618 -11.8927
0 8 8 99.8575 12.4730
0 8 10 -5.6849 -12.5872
0 8 12 27.9488 12.3035
0 8 14 -4.6026 -11.6733
0 8 16 22.4151 11.4242
0 8 18 2.5120 -10.8797
0 8 20 19.5018 10.2237
0 8 22 -12.1156 -9.5262
0 8 24 -4.6038 8.9854
0 8 26 -0.7579 -8.5036
0 8 28 0.0169 7.3764
0 8 30 9.2488 -5.8310
0 8 32 -3.2336 7.0329
0 10 0 -34.5152 -13.9301
0 10 2 -46.8466 14.2647
0 10 4 -84.5009 -14.4959
0 10 6 -53.8223 14.1627
0 10 8 -22.1325 -13.9380
0 10 10 -13.3767 14.1281
0 10 12 -9.1455 -13.2490
0 10 14 2.5229 12.6807
0 10 16 4.5701 -12.0960
0 10 18 -4.7733 11.4130
0 10 20 13.4516 -10.7481
0 10 22 -12.7506 9.8868
0 10 24 -11.6888 -9.4116
0 10 26 7.9180 9.0586
0 10 28 -8.4487 -7.7339
0 10 30 -2.1732 7.0020
0 10 32 -0.5043 -7.6044
0 12 0 -32.0838 8.2045
0 12 2 43.0240 -7.8920
0 12 4 -6.6020 7.9224
0 12 6 14.6355 -7.8712
0 12 8 -20.1893 7.8185
0 12 10 -14.4790 -7.5181
0 12 12 -15.5738 6.9915
0 12 14 -14.3317 -6.5620
0 12 16 -7.6909 6.0283
0 12 18 -4.3694 -5.5331
0 12 20 8.4323 5.0607
0 12 22 -0.1912 -4.8498
0 12 24 4.5863 4.3033
0 12 26 -4.5734 -3.6544
0 12 28 1.6566 2.6085
0 12 30 3.8719 -2.7695
0 14 0 -5.7859 1.7577
0 14 2 18.7866 -1.7594
0 14 4 3.2692 1.8824
0 14 6 26.6842 -2.0234
0 14 8 -10.7750 2.0922
0 14 10 -3.7764 -2.2955
0 14 12 -5.9964 2.2309
0 14 14 15.8062 -2.0355
0 14 16 3.2715 1.9252
0 14 18 18.3158 -1.8194
0 14 20 39.9278 1.7724
0 14 22 2.1225 -1.8041
0 14 24 -0.8770 1.8710
0 14 26 -2.6666 -1.8769
0 14 28 -5.0978 2.4098
0 14 30 11.6646 -1.2567
0 16 0 -15.1345 -9.6337
0 16 2 16.8840 9.7037
0 16 4 -9.5686 -9.6530
0 16 6 5.1944 9.6795
0 16 8 10.5427 -9.4222
0 16 10 2.7304 9.2120
0 16 12 6.1715 -9.1658
0 16 14 5.4739 8.6361
0 16 16 1.5183 -8.3202
0 16 18 -7.9105 8.1118
0 16 20 3.5670 -7.4371
0 16 22 -5.1559 6.8641
0 16 24 13.8167 -6.2494
0 18 0 22.9374 12.7568
0 18 2 -15.2314 -12.5930
0 18 4 -2.8271 12.4142
0 18 6 -15.6554 -12.1557
0 18 8 -4.3859 11.7626
0 18 10 0.9880 -11.2958
0 18 12 6.0259 11.1968
0 18 14 -9.8436 -11.0249
0 18 16 7.3006 10.3749
0 18 18 -13.2764 -9.9634
0 18 20 6.9156 9.0747
0 18 22 -17.2006 -8.6138
0 18 28 -0.0303 7.7702
0 20 0 6.9781 -9.4920
0 20 2 2.0169 9.4007
0 20 4 -1.2441 -9.1210
0 20 6 -5.0536 8.8189
0 20 8 -1.3334 -8.6485
0 20 10 -4.0404 8.2898
0 20 12 -0.0693 -7.8673
0 20 14 -1.7181 7.7744
0 20 16 -2.7856 -7.0355
0 20 18 -3.9005 6.7650
0 20 20 2.0635 -6.4315
0 20 22 6.2933 5.9524
0 20 24 1.5196 -4.8149
0 20 26 1.6616 4.8115
0 22 0 -6.7583 2.2624
0 22 2 3.3053 -2.3343
0 22 4 -19.2121 2.2525
0 22 6 8.5039 -2.1073
0 22 8 -9.1848 2.0241
0 22 10 9.3601 -1.9503
0 22 12 -4.2275 1.6937
0 22 14 11.4627 -1.6002
0 22 16 0.9256 1.3955
0 22 18 10.0392 -1.0860
0 22 20 -4.9996 0.8256
0 22 22 4.7971 -0.3433
0 22 24 -8.3859 0.6186
0 24 0 -14.7371 4.6216
0 24 2 15.0768 -4.5200
0 24 4 -5.6070 4.4325
0 24 6 15.2656 -4.4175
0 24 8 -5.7236 4.3489
0 24 10 6.4018 -4.1982
0 24 12 -12.1199 3.8754
0 24 14 3.9851 -3.9935
0 24 16 -10.9328 3.7656
0 24 18 2.1779 -3.2851
0 24 20 -5.1319 3.8812
0 24 22 0.2104 -3.5509
0 26 0 -4.4049 -7.8640
0 26 2 1.9700 8.1291
0 26 4 0.7318 -7.9872
0 26 6 -1.4411 7.9120
0 26 8 -2.1254 -7.6809
0 26 10 -0.0680 7.4811
0 26 12 -0.7507 -7.2755
0 26 14 1.8233 6.9366
0 26 16 -2.1297 -7.5469
0 26 18 0.7756 6.1297
0 26 20 -0.6594 -7.3581
0 28 0 15.9655 7.6219
0 28 2 -6.8273 -7.4863
0 28 4 8.8490 7.4095
0 28 6 -7.1603 -7.3337
0 28 8 7.8188 7.2835
0 28 10 -7.2644 -7.3370
0 28 12 4.2104 7.6029
0 28 14 -4.7940 -6.0803
0 28 16 1.4128 6.6976
0 30 0 1.0194 -3.4071
0 30 2 1.2272 3.4307
0 30 4 1.1422 -3.5683
0 30 6 1.6360 3.5807
0 30 8 -0.5785 -3.2126
0 30 10 -4.3061 2.4515
0 30 12 1.0128 -2.5006
0 32 0 -15.8835 -2.8271
0 32 2 5.8555 2.9213
0 32 4 -7.3856 -3.0595
0 32 6 6.7560 3.0319
1 1 0 182.5515 17.7145
1 1 1 156.1650 2.8376
1 1 2 -71.3540 -7.5661
1 1 3 -66.7974 -2.7102
1 1 4 -93.9531 7.7841
1 1 5 3.0350 0.3449
1 1 6 -15.9210 -9.2937
1 1 7 -12.7610 0.1431
1 1 8 -28.1581 8.5411
1 1 9 -15.8518 0.0153
1 1 10 9.4788 -7.1527
1 1 11 13.6006 -0.4619
1 1 12 16.2760 6.6406
1 1 13 13.4048 0.3390
1 1 14 4.9501 -6.2678
1 1 15 28.9124 -0.2410
1 1 16 -0.3616 5.9001
1 1 17 13.2932 -0.0247
1 1 18 8.6352 -5.4340
1 1 19 -6.6092 -0.0303
1 1 20 -4.8732 4.8801
1 1 21 14.8787 0.2422
1 1 22 6.2635 -4.2104
1 1 23 -6.3746 -0.0692
1 1 24 -8.7098 4.2098
1 1 25 -4.7342 -0.1155
1 1 26 6.2098 -4.0656
1 1 27 -7.9592 0.1317
1 1 28 -11.0562 3.5605
1 1 29 3.9388 -0.4224
1 1 30 9.2719 -3.2560
1 1 31 7.1359 0.2453
1 1 32 -4.6771 2.0973
1 1 33 6.3430 0.3180
1 1 34 4.6495 -2.2453
1 3 0 199.1883 -11.5212
1 3 1 -35.0950 -2.6361
1 3 2 133.2862 -2.2135
1 3 3 117.3653 3.1236
1 3 4 -137.3027 5.0525
1 3 5 -47.1242 0.1234
1 3 6 -54.6002 -1.8805
1 3 7 21.4956 -0.1554
1 3 8 -42.9218 1.5053
1 3 9 -18.2798 -0.0732
1 3 10 17.0585 -2.7857
1 3 11 0.8793 0.2131
1 3 12 17.6340 3.2232
1 3 13 28.4985 -0.2861
1 3 14 -6.4969 -2.9068
1 3 15 -28.4901 0.2594
1 3 16 -3.7118 2.6213
1 3 17 14.2850 -0.2092
1 3 18 -3.4090 -2.5385
1 3 19 3.8492 0.3854
1 3 20 -0.4129 2.8165
1 3 21 -8.2551 -0.5794
1 3 22 -3.6510 -2.4637
1 3 23 -0.1885 0.5327
1 3 24 4.6066 1.6118
1 3 25 -2.6434 -0.6158
1 3 26 0.5766 -1.1212
1 3 27 -3.3813 0.9744
1 3 28 -4.4121 2.2420
1 3 29 1.0462 -1.1652
1 3 30 0.8957 -3.1488
1 3 31 -10.1479 1.3003
1 3 32 -5.0205 -1.1067
1 3 33 0.4761 0.2610
1 5 0 -182.8765 9.9320
1 5 1 -69.2833 -3.2422
1 5 2 81.8860 6.6540
1 5 3 -83.2063 2.5787
1 5 4 -66.6382 -9.1532
1 5 5 -92.8384 -1.0359
1 5 6 135.4297 5.9862
1 5 7 28.8349 -0.5645
1 5 8 45.9856 -5.0200
1 5 9 -53.3890 1.6227
1 5 10 33.3189 6.4759
1 5 11 38.6808 -1.0609
1 5 12 -14.2589 -7.4651
1 5 13 -26.1452 0.7995
1 5 14 -3.0215 6.8439
1 5 15 15.7174 -0.8918
1 5 16 -4.7361 -5.8993
1 5 17 -14.3356 1.0585
1 5 18 1.8806 5.6778
1 5 19 2.6418 -1.4537
1 5 20 5.3995 -6.0556
1 5 21 -18.1541 1.3611
1 5 22 -2.9867 6.0754
1 5 23 1.0710 -1.4015
1 5 24 1.0645 -4.9140
1 5 25 -4.8378 1.6424
1 5 26 -1.1152 3.5157
1 5 27 0.4069 -1.7690
1 5 28 7.0127 -3.9857
1 5 29 2.7164 2.0555
1 5 30 -4.7871 4.6263
1 5 31 1.8025 -1.3125
1 5 32 10.4294 1.5940
1 5 33 3.4644 0.7898
1 7 0 41.8903 -8.4386
1 7 1 32.3795 1.2288
1 7 2 114.1150 -3.0426
1 7 3 88.0726 -3.1631
1 7 4 -56.5480 4.3754
1 7 5 -12.0692 1.7297
1 7 6 -40.0421 -2.6241
1 7 7 40.6470 -0.7912
1 7 8 -24.3010 1.1903
1 7 9 -27.7796 -0.4600
1 7 10 4.2022 -1.6267
1 7 11 -1.9609 0.1527
1 7 12 -5.3967 2.4929
1 7 13 -16.5731 -0.4301
1 7 14 13.4917 -1.8040
1 7 15 -8.8958 1.1546
1 7 16 -11.2514 1.3203
1 7 17 -10.3635 -1.8956
1 7 18 8.3320 -1.3126
1 7 19 1.8469 1.9456
1 7 20 -5.9775 1.9131
1 7 21 4.2942 -1.6972
1 7 22 2.8372 -2.0318
1 7 23 6.5816 1.6927
1 7 24 -4.9722 1.2441
1 7 25 8.6342 -1.8461
1 7 26 6.4406 -0.6249
1 7 27 -0.0066 2.2628
1 7 28 -8.5538 1.3319
1 7 29 -0.0152 -2.0350
1 7 30 2.6706 -1.1196
1 7 31 -2.0978 2.1858
1 7 32 -1.5723 -1.7244
1 7 33 2.5001 -3.0594
1 9 0 9.1224 0.7439
1 9 1 41.9806 0.1666
1 9 2 29.0764 0.1471
1 9 3 40.6199 1.3769
1 9 4 -3.1018 -0.4053
1 9 5 -7.0777 -0.9414
1 9 6 12.9741 0.3937
1 9 7 12.6960 -0.7818
1 9 8 5.6764 -0.2991
1 9 9 -4.3293 0.9861
1 9 10 21.3272 0.1918
1 9 11 42.6418 -0.1484
1 9 12 -14.7673 -0.0130
1 9 13 -9.6873 0.2571
1 9 14 10.1810 -0.0310
1 9 15 10.6702 -0.8359
1 9 16 -0.1630 -0.0523
1 9 17 9.4564 1.6039
1 9 18 11.8287 0.1294
1 9 19 -2.3547 -1.7518
1 9 20 7.0895 -0.3567
1 9 21 10.6054 1.4743
1 9 22 -2.0663 0.0297
1 9 23 -7.3675 -1.4030
1 9 24 -21.4191 0.2181
1 9 25 8.9458 1.6719
1 9 26 20.7085 -0.2587
1 9 27 -8.5680 -2.4195
1 9 28 -14.3662 0.6499
1 9 29 3.1468 2.5373
1 9 30 10.1867 -1.4266
1 9 31 -1.6515 -3.4240
1 9 32 -10.9659 -0.2944
1 11 0 -28.3302 7.2359
1 11 1 -30.7129 -0.3208
1 11 2 8.8385 1.2873
1 11 3 -15.4045 -1.4957
1 11 4 8.4769 -2.3096
1 11 5 -19.7221 1.3532
1 11 6 32.3886 1.0524
1 11 7 39.5117 0.5458
1 11 8 -13.2581 0.2637
1 11 9 -9.7029 -0.9415
1 11 10 -11.2402 0.1555
1 11 11 12.1740 0.2263
1 11 12 -22.0500 -1.2136
1 11 13 -13.7443 -0.0017
1 11 14 -1.8499 0.9340
1 11 15 4.3692 0.4547
1 11 16 -3.4407 0.3726
1 11 17 2.1805 -1.2344
1 11 18 7.6418 -0.3757
1 11 19 -7.1925 1.4796
1 11 20 10.2845 -0.2400
1 11 21 0.5807 -1.2305
1 11 22 10.6917 0.2054
1 11 23 -21.2254 1.0941
1 11 24 -11.3061 -0.3016
1 11 25 3.6507 -1.4908
1 11 26 8.5733 -0.4881
1 11 27 5.4416 1.6803
1 11 28 -8.1316 0.2607
1 11 29 0.1653 -2.1721
1 11 30 10.2586 -0.8281
1 11 31 2.7241 2.8147
1 11 32 0.5780 -0.2420
1 13 0 19.3409 -10.1507
1 13 1 -12.5405 1.3218
1 13 2 -18.5619 -3.2520
1 13 3 10.3221 0.4567
1 13 4 -1.5618 5.3327
1 13 5 -29.6709 -0.5070
1 13 6 -4.8878 -3.5003
1 13 7 -3.6278 0.1243
1 13 8 5.9761 1.8835
1 13 9 -1.0771 -0.5279
1 13 10 12.6581 -1.8233
1 13 11 -6.1151 0.9942
1 13 12 3.3982 3.4154
1 13 13 10.5865 -1.2026
1 13 14 13.5138 -3.5927
1 13 15 -14.3982 0.7144
1 13 16 -7.6378 1.9426
1 13 17 10.3010 -0.3980
1 13 18 5.3763 -1.6235
1 13 19 -14.0575 0.1469
1 13 20 3.9605 1.8348
1 13 21 7.7382 0.2243
1 13 22 9.2626 -1.7807
1 13 23 7.0151 0.0525
1 13 24 -5.3427 0.8742
1 13 25 1.9161 0.4374
1 13 26 6.0965 -1.4616
1 13 27 -1.6504 -0.1606
1 13 28 -6.9790 0.8962
1 13 29 -3.9503 0.7932
1 13 30 5.8709 0.3407
1 13 31 1.4183 -0.3505
1 15 0 1.8653 9.0346
1 15 1 14.5435 -0.8372
1 15 2 -13.6120 3.6527
1 15 3 5.2670 0.9299
1 15 4 1.0776 -5.2348
1 15 5 13.2938 -0.6036
1 15 6 -11.8755 3.3421
1 15 7 2.2831 -0.0339
1 15 8 -18.4595 -1.9708
1 15 9 8.5338 0.3398
1 15 10 -14.4918 1.8442
1 15 11 -6.1670 -0.5885
1 15 12 -14.4706 -2.8977
1 15 13 -1.4509 0.7912
1 15 14 7.2844 3.0651
1 15 15 -5.3440 -0.8525
1 15 16 -6.6774 -1.8834
1 15 17 3.4307 1.1173
1 15 18 8.8538 1.5726
1 15 19 7.8652 -1.1277
1 15 20 7.3681 -1.8044
1 15 21 5.6456 0.9860
1 15 22 0.6688 1.6182
1 15 23 -7.8180 -0.9549
1 15 24 -7.5282 -1.3610
1 15 25 -6.5858 1.5440
1 15 26 3.9621 1.2957
1 15 27 3.8924 -1.8333
1 15 28 -6.5195 -0.2049
1 15 29 -2.6856 1.0376
1 15 30 6.2271 -2.6044
1 17 0 20.6887 -5.1032
1 17 1 -7.1218 0.4851
1 17 2 -5.2384 -0.7445
1 17 3 4.7097 -1.7182
1 17 4 7.5760 1.4424
1 17 5 -2.2203 0.9006
1 17 6 -5.5106 -0.4679
1 17 7 0.9739 0.2314
1 17 8 5.7429 -0.1429
1 17 9 -4.7788 -0.7449
1 17 10 -2.6435 0.0729
1 17 11 -1.3035 0.5699
1 17 12 8.4331 0.4262
1 17 13 5.6102 0.0266
1 17 14 -3.8211 -0.3031
1 17 15 5.3928 0.3561
1 17 16 8.8757 -0.1019
1 17 17 8.1766 -0.9386
1 17 18 -6.4706 0.5213
1 17 19 0.4470 1.3300
1 17 20 11.3029 0.0699
1 17 21 1.7095 -1.1086
1 17 22 -1.7465 0.0641
1 17 23 0.3326 1.2562
1 17 24 10.7877 0.3828
1 17 25 -7.8570 -2.2950
1 17 26 -5.5611 0.0748
1 17 27 0.8371 2.9128
1 17 28 6.1550 -0.5438
1 19 0 19.1324 -0.9950
1 19 1 0.2389 -0.5727
1 19 2 -9.9060 -1.7147
1 19 3 -3.2557 1.4067
1 19 4 4.5010 1.9806
1 19 5 6.5499 -0.9314
1 19 6 -11.7822 -1.4694
1 19 7 -1.6169 -0.1662
1 19 8 6.5281 1.1597
1 19 9 -0.7073 0.9524
1 19 10 -5.4209 -0.9047
1 19 11 3.9183 -0.5517
1 19 12 7.0009 0.7520
1 19 13 -6.3913 0.1198
1 19 14 -6.4471 -1.0325
1 19 15 -7.4544 -0.7879
1 19 16 7.4034 1.0350
1 19 17 1.7925 1.7607
1 19 18 -6.7148 -0.8335
1 19 19 -6.7500 -1.7078
1 19 20 8.5889 1.2384
1 19 21 0.2861 1.2583
1 19 22 -9.4164 -0.7844
1 19 23 2.6366 -1.5164
1 19 24 7.7240 1.6349
1 19 25 -1.2215 2.7351
1 19 26 -11.4372 -0.0190
1 19 27 4.7446 -3.0141
1 21 0 3.0501 6.0720
1 21 1 -7.4825 0.2653
1 21 2 5.1124 2.5040
1 21 3 0.7944 -0.7361
1 21 4 -4.5507 -3.8451
1 21 5 -8.9006 0.5108
1 21 6 3.5857 2.4246
1 21 7 0.1419 0.2317
1 21 8 5.2754 -1.2753
1 21 9 -0.2710 -0.8284
1 21 10 2.7251 1.7197
1 21 11 0.8829 0.4086
1 21 12 3.3402 -2.0706
1 21 13 4.8812 0.1378
1 21 14 -0.7861 1.5111
1 21 15 -0.3367 -0.1008
1 21 16 -3.9179 -1.5953
1 21 17 6.7051 -0.6339
1 21 18 -3.1792 1.2425
1 21 19 -0.0441 0.9132
1 21 20 -4.5060 -1.2880
1 21 21 0.7283 -0.5995
1 21 22 -3.3432 1.5864
1 21 23 3.0694 1.6760
1 21 24 -0.8160 -0.7490
1 21 25 -1.3670 -2.7859
1 23 0 -4.5084 -7.4271
1 23 1 5.9976 1.3458
1 23 2 4.3266 -3.0226
1 23 3 -0.5246 -0.8642
1 23 4 -5.6840 4.6674
1 23 5 -3.1486 0.1748
1 23 6 2.8718 -3.0268
1 23 7 0.4392 0.1327
1 23 8 -7.3754 1.6955
1 23 9 -0.9958 -0.3460
1 23 10 0.2075 -1.8790
1 23 11 4.0940 0.3373
1 23 12 -3.6677 2.5445
1 23 13 1.8798 -0.9016
1 23 14 3.1289 -2.3427
1 23 15 -1.2198 0.7503
1 23 16 -1.6437 1.9785
1 23 17 0.5888 -0.4018
1 23 18 1.5582 -1.8779
1 23 19 -1.5812 0.3462
1 23 20 0.0244 -0.2232
1 23 21 -1.3496 0.2956
1 23 22 0.1355 -1.8746
1 23 23 0.0166 -0.1352
1 25 0 -3.1235 5.9893
1 25 1 2.9635 -0.8531
1 25 2 -1.7196 1.4723
1 25 3 4.5307 1.1321
1 25 4 0.0529 -2.1387
1 25 5 2.5567 -0.0978
1 25 6 2.7779 1.1202
1 25 7 7.2280 -0.5196
1 25 8 2.3454 -0.7215
1 25 9 0.6624 0.7350
1 25 10 -2.2766 0.7036
1 25 11 -0.0716 -0.4806
1 25 12 0.1035 -1.1108
1 25 13 -0.5083 0.5493
1 25 14 -1.5016 1.2762
1 25 15 -1.6252 -0.8159
1 25 16 3.2096 0.1121
1 25 17 3.0487 0.3249
1 25 18 -0.2029 1.0296
1 25 19 1.2357 -0.6921
1 25 20 1.2143 1.2502
1 25 21 0.6468 1.1798
1 27 0 11.6989 -2.8784
1 27 1 -7.3661 0.1812
1 27 2 -7.8931 1.3871
1 27 3 -4.2861 -0.8082
1 27 4 11.6593 -1.3740
1 27 5 -1.4875 0.2470
1 27 6 -10.1710 1.5155
1 27 7 0.1118 0.4460
1 27 8 5.7093 -1.3414
1 27 9 2.0678 -0.6783
1 27 10 -12.3979 1.4707
1 27 11 2.0091 0.7779
1 27 12 9.0708 -1.9173
1 27 13 1.5835 -0.8408
1 27 14 -9.4725 0.3744
1 27 15 -1.1254 1.4917
1 27 16 5.6515 -1.9907
1 27 17 -1.5158 -1.1157
1 27 18 -1.6813 3.9623
1 29 0 12.9686 -0.3461
1 29 1 7.1251 -0.5817
1 29 2 -8.7079 -3.4277
1 29 3 2.7802 0.8651
1 29 4 8.1944 3.9429
1 29 5 -1.9228 -0.3117
1 29 6 -5.3147 -3.2326
1 29 7 0.4972 -0.6920
1 29 8 8.8139 1.9317
1 29 9 -0.8349 1.3706
1 29 10 -6.1011 0.1546
1 29 11 3.1806 -1.4638
1 29 12 3.7326 1.3107
1 29 13 -2.9381 1.0176
1 29 14 -6.6127 -1.7521
1 29 15 0.0560 -0.9758
1 31 0 -7.9834 3.5735
1 31 1 1.3373 -0.5467
1 31 2 -0.8120 -0.6158
1 31 3 0.5202 -0.0344
1 31 4 -3.7592 0.8815
1 31 5 -0.3929 0.3683
1 31 6 0.4108 -1.2540
1 31 7 1.3184 0.1143
1 31 8 -0.7359 0.6563
1 31 9 -3.3947 -0.0517
1 31 10 -2.1664 -0.0962
2 0 0 159.9587 -26.8297
2 0 2 130.9323 12.2663
2 0 4 -27.1744 -16.9192
2 0 6 -88.5338 23.6687
2 0 8 1.3149 -22.7518
2 0 10 -16.4284 19.4108
2 0 12 44.9081 -17.9526
2 0 14 -21.5473 18.3553
2 0 16 -11.0462 -19.0533
2 0 18 15.6632 17.4432
2 0 20 -8.3173 -15.3754
2 0 22 9.9900 13.9874
2 0 24 6.2518 -13.5835
2 0 26 4.4339 13.0988
2 0 28 -3.9871 -11.0465
2 0 30 -2.7732 8.5909
2 0 32 -6.3043 -8.8987
2 2 0 196.0389 10.6672
2 2 1 100.2682 -3.0929
2 2 2 -48.7599 10.0318
2 2 3 -2.9754 1.9528
2 2 4 -115.3096 -7.4464
2 2 5 -7.3057 -2.0940
2 2 6 55.6048 0.1942
2 2 7 -58.2963 1.7454
2 2 8 -26.7868 0.5884
2 2 9 -0.7896 -1.5268
2 2 10 19.0446 1.3328
2 2 11 -2.3650 1.2897
2 2 12 -12.2538 -2.1490
2 2 13 22.6624 -1.0946
2 2 14 -0.7864 1.0917
2 2 15 -6.2163 0.7230
2 2 16 3.9238 0.0590
2 2 17 13.0299 -0.4357
2 2 18 -6.9672 0.1032
2 2 19 -7.6701 0.4494
2 2 20 0.9268 -0.7806
2 2 21 2.6741 -0.4885
2 2 22 1.6342 0.8821
2 2 23 -8.5459 0.2623
2 2 24 -1.2749 -0.1362
2 2 25 -0.3607 0.2091
2 2 26 -0.5770 -0.6799
2 2 27 -0.8606 -0.1895
2 2 28 0.2344 -0.2836
2 2 29 -1.7349 0.6386
2 2 30 2.3016 2.6063
2 2 31 -2.8905 -1.1875
2 2 32 -1.7622 1.7468
2 2 33 4.7326 1.6058
2 4 0 -0.4107 -5.0879
2 4 1 -17.8145 6.2940
2 4 2 99.4435 -2.0202
2 4 3 -12.0340 -1.9267
2 4 4 -34.7331 2.5829
2 4 5 -8.1644 2.0921
2 4 6 -20.3994 -1.2473
2 4 7 -12.2131 -1.3620
2 4 8 29.9624 0.3858
2 4 9 -5.8866 0.8081
2 4 10 23.6667 -0.6491
2 4 11 -9.9591 -0.4962
2 4 12 23.6172 0.9012
2 4 13 13.2007 0.4180
2 4 14 8.8246 -0.5428
2 4 15 -3.8898 -0.1291
2 4 16 -1.3949 0.1259
2 4 17 -3.5988 -0.1832
2 4 18 0.8166 -0.1850
2 4 19 7.7395 0.1970
2 4 20 5.5594 0.5175
2 4 21 -7.3776 -0.1666
2 4 22 -10.7644 -0.4618
2 4 23 9.5636 0.1612
2 4 24 13.5439 0.0272
2 4 25 -7.9599 -0.5675
2 4 26 -16.8242 0.3054
2 4 27 0.1349 0.6705
2 4 28 14.3544 0.1936
2 4 29 3.4263 -0.5270
2 4 30 -12.1609 -0.7815
2 4 31 -4.1288 1.0101
2 4 32 11.1862 -0.9574
2 4 33 4.3347 -1.5981
2 6 0 74.2000 -6.3065
2 6 1 25.1296 -5.0156
2 6 2 22.8846 -5.5453
2 6 3 -3.2637 1.8180
2 6 4 -50.6976 7.4885
2 6 5 2.6932 -1.5122
2 6 6 -35.0052 -4.3590
2 6 7 -30.7149 1.0209
2 6 8 -28.3592 3.0146
2 6 9 17.1588 -0.7419
2 6 10 -2.4757 -4.3941
2 6 11 -15.0526 0.3668
2 6 12 -3.8081 5.7283
2 6 13 -7.4103 -0.0183
2 6 14 -6.6776 -5.1028
2 6 15 -6.4608 -0.4681
2 6 16 12.7100 4.2080
2 6 17 -7.4168 0.9545
2 6 18 -4.0148 -4.0066
2 6 19 5.4038 -1.1174
2 6 20 11.4053 4.1999
2 6 21 -6.5511 1.0147
2 6 22 -12.0911 -4.2930
2 6 23 3.9927 -0.9410
2 6 24 4.2337 3.4296
2 6 25 -2.4346 1.1531
2 6 26 -12.9091 -2.8032
2 6 27 4.3863 -1.3713
2 6 28 12.6871 3.0350
2 6 29 -7.6202 1.3674
2 6 30 -15.0514 -3.4403
2 6 31 -2.1969 -2.0880
2 6 32 7.2451 -0.5395
2 6 33 4.9600 1.3890
2 8 0 -4.6950 18.4384
2 8 1 10.9485 3.2324
2 8 2 -14.3194 3.7543
2 8 3 -24.2275 -1.2425
2 8 4 48.8172 -8.0689
2 8 5 45.4323 0.1618
2 8 6 27.0052 2.9057
2 8 7 -41.5737 0.3584
2 8 8 47.9498 0.8422
2 8 9 64.6830 -0.5768
2 8 10 -2.1259 1.0992
2 8 11 -10.1857 0.4819
2 8 12 -14.4817 -3.8630
2 8 13 20.9630 -0.7273
2 8 14 3.3298 3.5206
2 8 15 -12.8820 0.7186
2 8 16 -13.9275 -2.2490
2 8 17 -0.8116 -0.7493
2 8 18 5.0004 2.4235
2 8 19 -10.5562 0.8021
2 8 20 -3.5234 -3.4781
2 8 21 -4.2478 -0.5372
2 8 22 0.5085 3.5998
2 8 23 -1.2414 0.9303
2 8 24 -7.6450 -2.2574
2 8 25 1.2379 -0.9366
2 8 26 8.1527 1.4865
2 8 27 3.2388 0.9620
2 8 28 0.8672 -2.9269
2 8 29 2.3762 -1.2928
2 8 30 0.9765 2.8232
2 8 31 4.8992 1.6732
2 8 32 4.4102 0.5053
2 10 0 38.1827 -18.0833
2 10 1 36.3994 0.3948
2 10 2 36.0310 -3.3146
2 10 3 -2.3862 0.1664
2 10 4 -3.1071 8.0495
2 10 5 26.3314 0.5089
2 10 6 -29.4811 -3.1660
2 10 7 -29.2359 -0.5291
2 10 8 -17.8658 -0.6928
2 10 9 11.2360 0.6057
2 10 10 9.0290 -0.8809
2 10 11 4.7717 -0.3575
2 10 12 6.1248 3.5555
2 10 13 -15.6351 0.9629
2 10 14 2.1801 -3.0573
2 10 15 21.9983 -0.6248
2 10 16 0.8349 1.1283
2 10 17 -4.8523 0.5738
2 10 18 3.4201 -0.8703
2 10 19 10.5320 -0.2779
2 10 20 1.8222 2.3517
2 10 21 3.4337 0.3391
2 10 22 8.8978 -2.8118
2 10 23 -5.8492 -0.2584
2 10 24 -3.8493 1.3705
2 10 25 1.0071 -0.2943
2 10 26 3.1807 -1.0198
2 10 27 5.9872 0.7759
2 10 28 -7.6948 2.1455
2 10 29 -5.5388 -0.4170
2 10 30 2.9649 -0.6984
2 10 31 -0.0312 0.3493
2 10 32 -6.1018 -1.7160
2 12 0 -19.2997 9.1098
2 12 1 -0.4765 -4.4368
2 12 2 1.9344 2.8533
2 12 3 -1.2561 1.3860
2 12 4 -18.1582 -5.8431
2 12 5 -6.7071 -1.0328
2 12 6 28.2501 3.5837
2 12 7 13.0010 0.6399
2 12 8 -15.0361 -1.5730
2 12 9 11.8905 -0.0284
2 12 10 -4.9030 2.2582
2 12 11 6.9779 0.1298
2 12 12 -16.6249 -3.7851
2 12 13 -18.2234 -0.4047
2 12 14 7.3056 3.9032
2 12 15 -0.1719 -0.0082
2 12 16 -6.7152 -2.4858
2 12 17 -2.4421 0.2171
2 12 18 12.4205 2.3303
2 12 19 -1.4095 -0.3136
2 12 20 0.5651 -2.5245
2 12 21 -0.6840 -0.0669
2 12 22 0.2265 2.2459
2 12 23 -5.4676 0.1317
2 12 24 -15.7383 -1.3749
2 12 25 1.5912 0.2893
2 12 26 6.2750 1.5762
2 12 27 2.2485 -0.0968
2 12 28 -0.2458 -2.3932
2 12 29 -3.1075 0.5995
2 12 30 2.2262 1.6652
2 12 31 0.6300 -1.0778
2 14 0 -24.2833 1.0400
2 14 1 -1.4084 4.7475
2 14 2 14.7490 0.7026
2 14 3 -1.6245 -1.5279
2 14 4 -14.6275 -1.2373
2 14 5 -0.7904 1.2463
2 14 6 12.5546 0.8127
2 14 7 -2.6903 -1.1254
2 14 8 -14.5286 -0.6225
2 14 9 9.2756 0.2987
2 14 10 7.0477 0.9020
2 14 11 -10.1181 -0.7171
2 14 12 -17.5552 -1.2117
2 14 13 2.7217 0.5949
2 14 14 22.4628 0.9417
2 14 15 -1.3999 -0.0213
2 14 16 -15.2109 -0.4994
2 14 17 6.3442 -0.1583
2 14 18 15.7308 0.4549
2 14 19 0.6758 0.0876
2 14 20 -5.6133 -0.6264
2 14 21 5.0212 0.0434
2 14 22 24.9292 0.5667
2 14 23 -7.2183 -0.0644
2 14 24 4.4882 -0.2741
2 14 25 -5.0961 -0.3269
2 14 26 14.7586 -0.0353
2 14 27 -4.1105 0.1479
2 14 28 -4.9174 0.2676
2 14 29 0.9163 0.3450
2 14 30 10.8946 0.3482
2 16 0 10.2134 -9.8025
2 16 1 -14.1660 -3.6431
2 16 2 5.9976 -4.0573
2 16 3 1.0394 1.3770
2 16 4 -6.9755 7.4703
2 16 5 2.1371 -1.3477
2 16 6 15.5100 -4.9134
2 16 7 1.2546 0.5357
2 16 8 -8.1269 2.7316
2 16 9 3.1383 -0.0290
2 16 10 15.6895 -2.9287
2 16 11 1.3399 0.1512
2 16 12 -7.3734 4.8023
2 16 13 3.0262 -0.1106
2 16 14 2.4300 -4.7219
2 16 15 -1.3799 -0.1087
2 16 16 -5.1884 2.9524
2 16 17 -7.7507 0.2591
2 16 18 -0.8091 -2.5003
2 16 19 5.5994 -0.2519
2 16 20 1.6884 3.3883
2 16 21 8.0648 -0.1447
2 16 22 0.6625 -3.7375
2 16 23 -1.1740 -0.0838
2 16 24 -10.6852 3.5482
2 16 25 3.6825 -0.2891
2 16 26 2.2606 -3.5892
2 16 27 -1.5416 -1.0751
2 16 28 -6.2014 1.2459
2 16 29 -1.0124 -0.4284
2 18 0 15.2804 14.5391
2 18 1 -0.5431 2.1310
2 18 2 -2.0210 3.8490
2 18 3 1.4388 -1.1608
2 18 4 3.6504 -8.0772
2 18 5 -6.1034 1.1983
2 18 6 -11.5564 4.3465
2 18 7 -3.3354 -0.5764
2 18 8 3.8268 -1.2410
2 18 9 -9.6802 -0.2608
2 18 10 -8.2409 1.7646
2 18 11 0.9095 0.4948
2 18 12 9.8580 -3.6693
2 18 13 -1.8713 -0.4199
2 18 14 -0.4303 3.6774
2 18 15 8.2228 0.6273
2 18 16 7.7293 -2.5863
2 18 17 12.3484 -0.7884
2 18 18 -4.5297 1.8367
2 18 19 0.5882 0.6027
2 18 20 1.0794 -2.9763
2 18 21 -0.0183 -0.1469
2 18 22 -6.7861 3.5358
2 18 23 -2.6058 -0.3283
2 18 24 -1.9611 -3.7820
2 18 25 -1.0828 -0.3065
2 18 26 -4.6336 1.8509
2 18 27 -0.9774 -0.1806
2 18 28 -0.2504 2.3579
2 20 0 8.7632 -11.4942
2 20 1 2.9873 0.5831
2 20 2 -2.2224 -2.4718
2 20 3 9.4304 0.4735
2 20 4 -1.6177 5.7534
2 20 5 2.5149 -0.1943
2 20 6 -1.6161 -2.7966
2 20 7 4.2228 0.3826
2 20 8 -3.5420 0.8255
2 20 9 -0.6365 0.0551
2 20 10 -0.6851 -1.6953
2 20 11 7.8265 0.0626
2 20 12 -2.3200 2.7874
2 20 13 -5.2472 -0.3528
2 20 14 -4.0714 -2.8537
2 20 15 -1.5710 0.1781
2 20 16 -3.2522 2.6430
2 20 17 -3.6362 -0.0583
2 20 18 4.8082 -1.5923
2 20 19 0.3154 0.1040
2 20 20 -2.3513 1.9293
2 20 21 -2.7209 -0.1265
2 20 22 7.0846 -3.0798
2 20 23 0.3441 0.2686
2 20 24 -2.2149 3.2119
2 20 25 -1.0105 0.5177
2 20 26 0.7316 0.0597
2 22 0 -19.9942 3.0643
2 22 1 2.4136 -3.2009
2 22 2 9.5780 1.8689
2 22 3 3.6593 0.7584
2 22 4 -8.8195 -3.2170
2 22 5 -1.7447 -0.6816
2 22 6 9.3003 2.0246
2 22 7 4.5551 0.2941
2 22 8 -6.5381 -1.1492
2 22 9 -3.4444 0.0924
2 22 10 3.2237 1.5084
2 22 11 4.8625 -0.1963
2 22 12 -12.8943 -2.1707
2 22 13 -0.1086 0.3632
2 22 14 9.5888 2.1544
2 22 15 1.6795 -0.5012
2 22 16 -8.1866 -1.9136
2 22 17 3.7135 0.8049
2 22 18 10.0467 1.5151
2 22 19 1.1509 -1.1932
2 22 20 -10.6713 -0.9932
2 22 21 2.3086 0.8502
2 22 22 7.1177 2.9631
2 22 23 -1.2084 0.4989
2 22 24 -4.1659 -0.8935
2 24 0 -2.8919 4.9894
2 24 1 -5.5652 3.2357
2 24 2 8.6489 0.8510
2 24 3 -8.3032 -0.9573
2 24 4 -9.5316 -2.1668
2 24 5 -5.8775 0.7241
2 24 6 10.8305 0.8669
2 24 7 2.6061 -0.6443
2 24 8 -11.5072 0.0839
2 24 9 1.9467 0.3185
2 24 10 15.3269 0.3003
2 24 11 6.6538 -0.1477
2 24 12 -9.1489 -0.8402
2 24 13 -0.4530 -0.0216
2 24 14 9.9290 0.7184
2 24 15 -1.7801 0.0374
2 24 16 -7.9748 -0.8344
2 24 17 1.7171 -0.3449
2 24 18 4.2818 0.9058
2 24 19 -6.5166 1.0005
2 24 20 -4.8500 0.5737
2 24 21 1.1282 -0.0290
2 24 22 3.8061 0.5381
2 26 0 -0.7457 -8.7006
2 26 1 0.4310 -1.8764
2 26 2 4.0975 -2.8284
2 26 3 -0.9501 0.8913
2 26 4 -2.4933 4.9192
2 26 5 -4.9734 -0.6180
2 26 6 2.2787 -2.8782
2 26 7 1.1097 0.4489
2 26 8 -2.0525 2.0154
2 26 9 -1.3183 -0.5153
2 26 10 -1.5330 -2.5154
2 26 11 0.1315 0.0366
2 26 12 -1.9807 3.5557
2 26 13 0.9063 -0.3239
2 26 14 -3.3968 -2.7406
2 26 15 -0.8562 -0.1990
2 26 16 1.9721 0.9562
2 26 17 -0.0295 -0.7050
2 26 18 3.3113 0.2281
2 26 19 -1.8686 -0.5035
2 28 0 2.4169 7.8937
2 28 1 3.0594 1.2340
2 28 2 -8.3693 3.9068
2 28 3 6.4205 -1.0239
2 28 4 8.1600 -5.5615
2 28 5 2.8701 0.4857
2 28 6 -2.2805 3.5115
2 28 7 3.0481 -0.2206
2 28 8 3.1682 -1.5683
2 28 9 1.7097 0.2246
2 28 10 -6.2051 0.5452
2 28 11 -1.0273 -0.4312
2 28 12 4.7783 -0.2210
2 28 13 -0.5911 0.9920
2 28 14 -2.8318 -0.0277
2 28 15 -2.5729 -0.5819
2 28 16 2.5906 1.9902
2 30 0 0.4098 -3.3158
2 30 1 4.1079 -0.6453
2 30 2 0.6688 -0.6726
2 30 3 0.1864 1.0962
2 30 4 -1.0121 0.9727
2 30 5 -0.3201 -0.7845
2 30 6 -0.8347 -0.2243
2 30 7 1.1836 0.5067
2 30 8 1.5294 -0.3921
2 30 9 1.7397 0.1198
2 30 10 2.4107 0.5841
2 30 11 1.6394 1.3273
2 30 12 -1.1442 -1.6354
2 32 0 -5.1038 0.4044
2 32 1 0.9887 -0.4550
2 32 2 8.1017 -0.5112
2 32 3 1.5286 -0.3640
2 32 4 -6.1279 0.1820
3 1 0 49.0938 7.8110
3 1 1 -51.4191 -1.5037
3 1 2 -36.7769 5.5974
3 1 3 66.6114 2.6932
3 1 4 -62.3186 -3.9245
3 1 5 -5.1761 -0.8931
3 1 6 4.9740 0.6889
3 1 7 -8.3616 -0.6538
3 1 8 13.4038 0.0781
3 1 9 14.8880 0.2098
3 1 10 18.2566 1.0693
3 1 11 -10.6985 0.0763
3 1 12 -2.6204 -1.4334
3 1 13 13.2199 -0.0812
3 1 14 1.2069 0.9569
3 1 15 -23.7366 -0.1058
3 1 16 -14.8971 -0.4109
3 1 17 -1.5981 0.2359
3 1 18 8.5047 0.3006
3 1 19 2.9572 -0.3527
3 1 20 -13.9343 -0.8175
3 1 21 12.5822 0.4013
3 1 22 7.1593 0.7194
3 1 23 15.6855 -0.7959
3 1 24 -2.6908 -0.1381
3 1 25 1.5327 0.6653
3 1 26 8.2730 -0.1199
3 1 27 -5.9633 -0.4664
3 1 28 -4.9447 -0.1146
3 1 29 -8.3008 0.5198
3 1 30 4.4210 1.2736
3 1 31 -4.8957 -0.5987
3 1 32 -5.0636 -0.0987
3 1 33 -0.7234 0.4718
3 3 0 302.2286 -9.5197
3 3 1 155.4627 1.7843
3 3 2 121.1528 -8.9928
3 3 3 -32.8363 -1.5203
3 3 4 7.3047 11.3379
3 3 5 50.7828 0.4342
3 3 6 -31.8929 -4.9804
3 3 7 -27.8444 0.8542
3 3 8 -32.1679 3.0258
3 3 9 -20.2900 -0.9189
3 3 10 14.8667 -5.7669
3 3 11 7.5737 1.0193
3 3 12 -2.7929 6.4325
3 3 13 -9.8879 -0.9805
3 3 14 12.9961 -4.9557
3 3 15 14.5869 0.7215
3 3 16 -1.8963 3.2315
3 3 17 -3.4119 -0.6001
3 3 18 6.4062 -3.3398
3 3 19 4.1966 0.3247
3 3 20 8.2732 4.3971
3 3 21 -10.4583 -0.2014
3 3 22 4.1030 -3.9706
3 3 23 -7.2221 0.6933
3 3 24 2.9164 2.8596
3 3 25 -0.6987 -0.4468
3 3 26 -2.5819 -1.9123
3 3 27 0.8189 0.4497
3 3 28 -3.4388 3.1435
3 3 29 2.8800 -0.8337
3 3 30 -2.2174 -4.1975
3 3 31 1.5815 -0.3007
3 3 32 0.8372 -1.5629
3 3 33 1.6063 -0.9582
3 5 0 13.1527 20.1934
3 5 1 14.4231 0.4257
3 5 2 14.5245 5.3181
3 5 3 55.2606 -0.1354
3 5 4 9.7525 -10.3924
3 5 5 -64.9171 0.9700
3 5 6 2.7329 2.6949
3 5 7 25.4254 -0.9344
3 5 8 42.8797 -0.0090
3 5 9 0.0021 0.8505
3 5 10 -10.0503 3.8707
3 5 11 26.7356 -0.5113
3 5 12 17.5511 -6.1220
3 5 13 0.9078 0.5058
3 5 14 -6.4279 4.6157
3 5 15 -3.7192 -0.1788
3 5 16 6.7449 -2.4195
3 5 17 -10.8929 0.3792
3 5 18 -2.5242 2.1133
3 5 19 5.0195 0.1405
3 5 20 5.2729 -3.6909
3 5 21 -5.7304 -0.2989
3 5 22 -11.2128 3.7935
3 5 23 11.1901 0.6140
3 5 24 3.8565 -2.3538
3 5 25 7.0422 -0.7031
3 5 26 -10.1348 1.1413
3 5 27 -2.8704 0.7342
3 5 28 10.5904 -2.3905
3 5 29 1.3509 -0.7779
3 5 30 -3.1011 2.6655
3 5 31 -4.2160 0.7818
3 5 32 -0.8372 1.4359
3 5 33 2.8652 -0.2415
3 7 0 -35.0768 -17.7530
3 7 1 -19.2704 -0.5376
3 7 2 -9.5698 0.3948
3 7 3 6.3548 1.4917
3 7 4 -58.3836 3.0541
3 7 5 -16.0625 -1.2589
3 7 6 -12.1233 2.2791
3 7 7 -0.2537 0.0585
3 7 8 -16.5178 -4.6767
3 7 9 -34.3594 -0.3325
3 7 10 4.6551 2.2222
3 7 11 12.4471 0.4741
3 7 12 -12.7530 0.1411
3 7 13 -10.2366 -0.3692
3 7 14 -7.0490 0.2320
3 7 15 0.5185 -0.0664
3 7 16 -2.8338 -1.7034
3 7 17 5.9154 0.4654
3 7 18 -4.7676 1.4539
3 7 19 -4.9393 -0.4485
3 7 20 -4.0247 -0.0468
3 7 21 7.7197 0.7470
3 7 22 0.9684 -0.3999
3 7 23 -7.3982 -0.6489
3 7 24 -8.1548 -1.0068
3 7 25 -2.0779 0.7929
3 7 26 8.7902 1.0658
3 7 27 -2.9873 -0.8432
3 7 28 -9.7694 0.3337
3 7 29 -0.5960 1.5244
3 7 30 2.6233 0.0150
3 7 31 4.2611 -1.1386
3 7 32 0.0118 -2.8958
3 9 0 9.9448 0.1519
3 9 1 14.1826 -0.6924
3 9 2 36.9592 0.9755
3 9 3 -8.5298 -2.2325
3 9 4 -2.0483 -1.4181
3 9 5 -14.8138 1.0930
3 9 6 5.4191 0.8098
3 9 7 5.8685 0.5795
3 9 8 -25.3414 -0.5225
3 9 9 11.6270 -0.5735
3 9 10 6.7676 0.5078
3 9 11 5.8266 0.2569
3 9 12 2.3535 -0.8201
3 9 13 -7.3594 0.0929
3 9 14 14.0412 0.9311
3 9 15 -7.9018 0.0590
3 9 16 -5.5225 -0.4724
3 9 17 5.0541 -0.4274
3 9 18 14.3728 0.6667
3 9 19 -7.6857 0.8174
3 9 20 -2.2913 -0.7903
3 9 21 1.3687 -1.1547
3 9 22 15.2552 0.6998
3 9 23 -12.3774 0.8241
3 9 24 -11.5323 -0.3578
3 9 25 6.4096 -0.6181
3 9 26 12.7022 0.4180
3 9 27 0.4561 0.8172
3 9 28 -12.8139 -0.7112
3 9 29 -5.0159 -1.4075
3 9 30 16.7214 0.7048
3 9 31 1.0581 2.1260
3 9 32 -12.7384 -0.9229
3 11 0 2.8563 14.0521
3 11 1 -1.9984 -0.0177
3 11 2 14.2445 -1.5018
3 11 3 17.9318 2.0374
3 11 4 -5.6976 -1.7008
3 11 5 -12.6698 -1.0611
3 11 6 15.0348 -2.0174
3 11 7 10.8729 -0.2915
3 11 8 -1.5326 5.0345
3 11 9 8.5644 0.9186
3 11 10 2.3215 -3.4826
3 11 11 23.9819 -0.5708
3 11 12 0.7771 1.2098
3 11 13 -14.5162 0.1959
3 11 14 -5.1137 -1.5664
3 11 15 6.5507 -0.3039
3 11 16 2.1500 3.3507
3 11 17 -0.6868 0.6908
3 11 18 -3.2309 -3.4618
3 11 19 -0.8478 -1.1940
3 11 20 -2.7596 2.2544
3 11 21 2.6835 1.2415
3 11 22 1.1877 -1.1829
3 11 23 -8.6091 -1.4077
3 11 24 -5.2701 1.9743
3 11 25 2.2706 1.1899
3 11 26 11.0667 -1.8080
3 11 27 0.4375 -1.7049
3 11 28 -5.0454 0.5972
3 11 29 1.6273 1.5629
3 11 30 5.6423 -2.5738
3 11 31 3.0431 -2.7197
3 13 0 8.7811 -19.3723
3 13 1 15.4796 1.0080
3 13 2 8.5887 -0.1590
3 13 3 -0.3627 -1.0065
3 13 4 1.8973 6.2729
3 13 5 6.4117 0.9730
3 13 6 5.8386 -0.9947
3 13 7 -2.4961 -0.2518
3 13 8 -1.4989 -3.7975
3 13 9 2.4394 -0.5283
3 13 10 -10.5641 1.7221
3 13 11 -1.5938 0.3608
3 13 12 -1.8314 2.2285
3 13 13 -4.5975 -0.4055
3 13 14 3.6100 -2.2312
3 13 15 -0.3880 0.1394
3 13 16 -5.1891 -0.8227
3 13 17 2.3675 -0.1495
3 13 18 1.7841 1.7331
3 13 19 0.5800 0.6011
3 13 20 -4.3165 0.3013
3 13 21 6.9572 -0.7252
3 13 22 3.4715 -0.4986
3 13 23 -7.7141 0.7621
3 13 24 0.4825 -0.2869
3 13 25 0.5648 -1.1014
3 13 26 4.2992 0.6947
3 13 27 1.2222 1.1330
3 13 28 -2.5651 -0.5439
3 13 29 -1.8580 -0.6184
3 13 30 3.4470 1.4589
3 15 0 14.0043 18.1442
3 15 1 -2.5025 -0.5481
3 15 2 -2.6698 -0.0563
3 15 3 1.5506 -0.2679
3 15 4 -0.0702 -5.6302
3 15 5 5.7199 -0.0572
3 15 6 2.2688 0.8536
3 15 7 -1.9502 0.7429
3 15 8 5.4507 3.3867
3 15 9 11.3734 -0.7008
3 15 10 0.1902 -1.8154
3 15 11 -11.0880 0.4099
3 15 12 -2.4543 -1.7577
3 15 13 0.2018 -0.0675
3 15 14 -0.0535 1.9046
3 15 15 3.7360 0.3449
3 15 16 0.5577 0.7210
3 15 17 -1.2142 -0.0150
3 15 18 -0.6179 -1.5271
3 15 19 7.8667 0.0089
3 15 20 1.0464 -0.2152
3 15 21 2.6291 -0.0348
3 15 22 -4.1771 0.8699
3 15 23 4.1351 0.4517
3 15 24 2.2245 -1.1465
3 15 25 -0.4841 -0.5208
3 15 26 -4.0642 2.0205
3 15 27 -2.9002 0.8241
3 15 28 0.7201 0.1823
3 15 29 -2.8714 0.0988
3 17 0 17.4527 -9.3220
3 17 1 -4.5839 -0.1341
3 17 2 -7.5663 0.9501
3 17 3 -6.0257 1.6518
3 17 4 3.8415 1.5843
3 17 5 7.4304 -1.1795
3 17 6 -8.8372 0.6442
3 17 7 -4.5471 -0.4881
3 17 8 4.1878 -2.6619
3 17 9 1.1627 1.1517
3 17 10 -6.9643 2.2278
3 17 11 7.8794 -0.9291
3 17 12 8.9596 -0.8981
3 17 13 -6.1324 0.7519
3 17 14 -2.9238 0.7328
3 17 15 4.4330 -0.5317
3 17 16 6.0739 -1.3878
3 17 17 -1.4801 0.1163
3 17 18 -8.9961 1.5981
3 17 19 -1.6839 -0.5555
3 17 20 19.9368 -1.2015
3 17 21 4.0224 0.4424
3 17 22 -8.9128 0.7562
3 17 23 -1.7716 -0.7177
3 17 24 13.5092 -0.4559
3 17 25 -0.4313 0.9988
3 17 26 -6.7233 -0.0358
3 17 27 3.0123 -1.9358
3 17 28 5.7105 -2.5467
3 19 0 3.8700 -4.1845
3 19 1 -7.1736 -0.0342
3 19 2 -13.6746 0.1060
3 19 3 3.4763 -1.7831
3 19 4 7.2526 0.6277
3 19 5 1.5967 1.1894
3 19 6 -7.0508 0.6083
3 19 7 -3.8937 0.2057
3 19 8 5.2620 -1.4456
3 19 9 -1.0831 -0.5361
3 19 10 -12.7495 1.3093
3 19 11 0.4922 0.5038
3 19 12 6.6369 -0.5211
3 19 13 4.2596 -0.1001
3 19 14 -9.6199 0.2586
3 19 15 2.4743 0.3814
3 19 16 10.5300 -0.9043
3 19 17 -1.1921 -0.7424
3 19 18 -9.2183 0.7476
3 19 19 -3.7482 0.8181
3 19 20 6.2917 -0.1987
3 19 21 -2.0179 -0.7062
3 19 22 -13.0123 -0.0040
3 19 23 -5.5408 0.1587
3 19 24 6.4531 -1.2063
3 19 25 -2.1860 -1.5173
3 19 26 -7.1234 0.5570
3 21 0 -0.3346 13.5395
3 21 1 3.2067 -0.0933
3 21 2 5.8644 -1.2724
3 21 3 -8.1751 1.1899
3 21 4 -0.2916 -1.5985
3 21 5 -4.5862 -0.7340
3 21 6 -4.0273 -1.9397
3 21 7 -12.1006 -0.3661
3 21 8 -0.0098 4.3638
3 21 9 1.3774 0.3555
3 21 10 -4.4764 -3.1613
3 21 11 2.6272 -0.7284
3 21 12 0.8008 1.5679
3 21 13 -2.1353 0.4061
3 21 14 -6.0748 -0.7165
3 21 15 3.2734 -0.6520
3 21 16 1.1684 1.6180
3 21 17 4.1799 0.2619
3 21 18 -2.2977 -2.1776
3 21 19 4.2187 -0.2362
3 21 20 -1.2256 1.5977
3 21 21 4.1335 -0.2022
3 21 22 -3.1486 -0.9636
3 21 23 0.0024 -0.6740
3 21 24 4.0227 0.5762
3 21 25 2.7720 2.0455
3 23 0 5.0045 -14.5630
3 23 1 0.0030 0.0711
3 23 2 5.9674 0.2109
3 23 3 1.9148 -0.0426
3 23 4 5.9158 3.5509
3 23 5 6.5348 0.4046
3 23 6 5.3123 0.6233
3 23 7 -0.2096 -0.3499
3 23 8 3.4122 -3.1928
3 23 9 5.1975 0.2149
3 23 10 1.1618 1.6016
3 23 11 -6.2299 -0.4398
3 23 12 -3.2677 0.1465
3 23 13 0.7580 -0.2469
3 23 14 3.3169 -0.7767
3 23 15 -4.3678 0.4376
3 23 16 -1.2860 0.9993
3 23 17 4.4443 0.1937
3 23 18 7.4161 0.1620
3 23 19 -6.5606 -0.2448
3 23 20 3.4483 -0.9364
3 23 21 2.8615 -0.5506
3 23 22 1.6552 0.4517
3 23 23 -4.3471 1.4758
3 25 0 1.5237 10.2901
3 25 1 4.5163 -0.3853
3 25 2 -6.8081 -0.2791
3 25 3 -1.8420 -0.4418
3 25 4 3.9531 -2.3611
3 25 5 4.3510 -0.0835
3 25 6 -3.5559 -0.0972
3 25 7 -0.1635 1.1512
3 25 8 1.3345 1.2446
3 25 9 3.6711 -0.9186
3 25 10 -4.0847 -0.2469
3 25 11 4.3214 1.3349
3 25 12 1.3881 -1.1203
3 25 13 0.6423 -0.8638
3 25 14 -2.8822 0.7300
3 25 15 -1.4679 0.4994
3 25 16 1.3177 0.2994
3 25 17 -2.7617 -0.6910
3 25 18 -2.0639 -0.5340
3 25 19 -2.1868 0.3501
3 25 20 -2.4497 2.3711
3 27 0 5.7614 -2.5271
3 27 1 5.1381 0.1495
3 27 2 -10.0005 0.0063
3 27 3 5.0309 0.5856
3 27 4 5.2846 0.6086
3 27 5 -5.5668 0.1481
3 27 6 -9.6274 -0.0646
3 27 7 8.5975 -1.3227
3 27 8 10.2040 -0.7475
3 27 9 3.9445 1.1877
3 27 10 -12.0441 1.0661
3 27 11 1.7689 -0.5731
3 27 12 12.1741 -0.8105
3 27 13 -2.6324 0.7313
3 27 14 -9.3650 -0.6320
3 27 15 1.4164 -1.5137
3 27 16 6.2816 -0.7922
3 27 17 -1.9298 0.2420
3 29 0 7.0587 -4.6322
3 29 1 -4.8310 -0.0274
3 29 2 -8.7502 -0.1478
3 29 3 0.6717 -0.8427
3 29 4 5.8578 0.8374
3 29 5 -2.0916 0.3850
3 29 6 -7.6302 0.6134
3 29 7 -0.4071 0.6341
3 29 8 6.4584 -2.3881
3 29 9 -2.1630 -1.4362
3 29 10 -7.0808 1.6244
3 29 11 0.3004 1.3138
3 29 12 8.5503 -2.3102
3 29 13 0.8416 -0.4112
3 31 0 3.3769 7.9247
3 31 1 -2.2293 0.4952
3 31 2 2.5944 -3.3072
3 31 3 0.6439 0.1610
3 31 4 0.8132 2.1516
3 31 5 -0.8192 -0.4924
3 31 6 -0.6113 -2.4065
3 31 7 0.3513 -0.2096
4 0 0 142.2237 -21.7565
4 0 2 -0.1317 9.7748
4 0 4 -69.7870 -13.7616
4 0 6 31.9104 22.5931
4 0 8 -34.9277 -21.8686
4 0 10 14.3211 18.0667
4 0 12 0.3470 -16.2834
4 0 14 12.7624 17.5300
4 0 16 2.0198 -18.4254
4 0 18 1.5073 17.0932
4 0 20 -4.7243 -14.6121
4 0 22 -4.9530 13.1150
4 0 24 -0.5119 -13.2960
4 0 26 4.6880 12.7356
4 0 28 -8.0941 -10.5932
4 0 30 6.0218 8.3738
4 0 32 -7.0128 -7.9612
4 2 0 0.7930 10.6285
4 2 1 9.8165 0.6759
4 2 2 55.3911 4.2336
4 2 3 -4.3155 -1.3043
4 2 4 -7.9817 -2.7513
4 2 5 3.4041 1.1585
4 2 6 -32.0972 -4.7317
4 2 7 -6.7782 -0.6282
4 2 8 32.9858 4.9697
4 2 9 12.6999 0.2425
4 2 10 -0.8611 -1.5336
4 2 11 -10.1627 -0.6833
4 2 12 4.6656 0.2275
4 2 13 9.1625 1.0134
4 2 14 -9.3048 -1.8277
4 2 15 -5.7233 -0.5158
4 2 16 -6.1953 2.9088
4 2 17 11.7485 0.2168
4 2 18 2.6662 -2.6381
4 2 19 -2.1445 0.1959
4 2 20 1.9695 1.1799
4 2 21 -8.2701 -0.1479
4 2 22 -4.3033 -0.7423
4 2 23 2.9625 0.3476
4 2 24 4.4891 1.9700
4 2 25 2.6506 -0.1265
4 2 26 -6.1518 -2.2012
4 2 27 5.0802 0.4118
4 2 28 0.0154 1.0635
4 2 29 -0.7742 -0.7496
4 2 30 0.4453 0.2001
4 2 31 1.4767 -0.1931
4 2 32 -0.5144 1.1948
4 4 0 161.1222 -3.1700
4 4 1 110.0182 -2.5059
4 4 2 10.6704 -1.6771
4 4 3 16.6766 2.7065
4 4 4 9.9252 0.5175
4 4 5 23.8402 -2.4654
4 4 6 15.0473 1.1574
4 4 7 -22.9132 0.7756
4 4 8 6.5483 -1.6543
4 4 9 3.1663 -0.1629
4 4 10 -1.2417 0.2363
4 4 11 5.0995 0.9201
4 4 12 12.1482 0.5915
4 4 13 1.6793 -0.7921
4 4 14 -15.8862 -0.2796
4 4 15 -9.9222 0.2632
4 4 16 11.2127 0.0708
4 4 17 -14.2890 0.1785
4 4 18 -8.4223 0.2042
4 4 19 -1.6132 -0.4605
4 4 20 11.7801 0.2108
4 4 21 7.2131 0.5760
4 4 22 -10.2799 -0.4352
4 4 23 9.2046 -0.6916
4 4 24 10.6250 0.0885
4 4 25 5.0429 0.6614
4 4 26 -6.3715 0.1242
4 4 27 -8.9554 -1.0242
4 4 28 10.4105 0.2853
4 4 29 -4.4217 1.2552
4 4 30 -9.3561 -0.0103
4 4 31 -1.2861 -0.7549
4 4 32 6.6830 -0.8680
4 6 0 11.9441 -9.7044
4 6 1 24.2962 2.7890
4 6 2 61.9678 -0.4206
4 6 3 32.7808 -2.7442
4 6 4 -21.7775 2.7032
4 6 5 -27.9316 2.1788
4 6 6 -35.9064 0.5131
4 6 7 3.2285 -0.4046
4 6 8 11.2022 -2.3089
4 6 9 1.7311 -0.1555
4 6 10 -30.3349 0.7076
4 6 11 3.0399 -0.8234
4 6 12 22.8471 0.9021
4 6 13 11.4998 0.8907
4 6 14 -8.2918 -0.0585
4 6 15 -0.3536 -0.4340
4 6 16 10.1931 -1.3442
4 6 17 10.4284 -0.2133
4 6 18 -0.3777 1.2011
4 6 19 6.1519 0.6143
4 6 20 7.8541 -0.3862
4 6 21 -4.8554 -0.9665
4 6 22 1.4374 -0.1325
4 6 23 -2.1375 0.6768
4 6 24 10.0870 -0.6770
4 6 25 -3.7794 -0.2147
4 6 26 -12.4466 1.1006
4 6 27 -1.9068 0.3381
4 6 28 11.3201 -0.6261
4 6 29 4.5258 -1.0853
4 6 30 -9.0749 1.1409
4 6 31 2.2180 1.1572
4 6 32 4.9265 -1.7576
4 8 0 -0.5224 19.6208
4 8 1 11.6816 -1.3939
4 8 2 7.3329 -1.9875
4 8 3 -14.5162 1.1577
4 8 4 2.9558 -2.0859
4 8 5 5.4990 -1.0800
4 8 6 8.2753 -4.5078
4 8 7 -9.9890 -0.1699
4 8 8 -21.6791 9.3018
4 8 9 12.1286 0.3342
4 8 10 10.6744 -6.2782
4 8 11 -3.6240 0.1675
4 8 12 -10.9635 2.3199
4 8 13 -11.7254 -0.4261
4 8 14 -1.2137 -3.4719
4 8 15 -7.3074 0.1303
4 8 16 -6.7756 6.0292
4 8 17 -2.2753 0.0191
4 8 18 -0.8279 -6.0107
4 8 19 -10.0883 -0.0505
4 8 20 -5.8181 4.0204
4 8 21 -0.0639 0.1417
4 8 22 5.4192 -2.7496
4 8 23 -4.4573 -0.2810
4 8 24 -3.9200 4.0636
4 8 25 3.5291 -0.0258
4 8 26 4.4292 -4.2143
4 8 27 2.5135 -0.2063
4 8 28 0.0136 2.2703
4 8 29 -5.3447 0.4116
4 8 30 1.1607 -4.2023
4 8 31 4.2753 -0.9949
4 10 0 32.0567 -17.4966
4 10 1 -11.0344 -0.5946
4 10 2 -34.1722 0.1438
4 10 3 -10.5402 0.5002
4 10 4 6.5329 4.6336
4 10 5 14.1356 -0.0681
4 10 6 -4.4822 2.8218
4 10 7 -18.9050 0.2462
4 10 8 -1.6885 -8.6481
4 10 9 14.5062 0.5112
4 10 10 2.6845 5.9624
4 10 11 -5.0857 -0.2757
4 10 12 -4.2197 -1.7773
4 10 13 8.2778 0.2832
4 10 14 12.1613 2.4184
4 10 15 -5.0189 -0.2357
4 10 16 -5.6552 -5.6213
4 10 17 6.1796 0.5509
4 10 18 4.3610 5.7851
4 10 19 8.8495 -0.3916
4 10 20 -8.1653 -3.4393
4 10 21 5.4433 0.0360
4 10 22 2.6226 2.6860
4 10 23 -2.8848 -0.1931
4 10 24 -8.1123 -3.6793
4 10 25 -2.1704 0.0584
4 10 26 2.6215 3.9401
4 10 27 -0.9708 -0.3508
4 10 28 -7.2749 -2.9416
4 10 29 -0.0668 0.1693
4 10 30 5.5867 3.4018
4 10 31 2.1025 0.1582
4 12 0 2.5474 8.9173
4 12 1 14.4355 1.7212
4 12 2 0.6600 1.1163
4 12 3 -0.7659 -1.5744
4 12 4 10.3745 -4.4070
4 12 5 -8.7895 1.3810
4 12 6 -5.3157 0.7054
4 12 7 -4.8897 -0.0103
4 12 8 -0.2904 2.7210
4 12 9 21.2166 -0.5909
4 12 10 7.3221 -1.3796
4 12 11 6.0888 0.1242
4 12 12 1.1323 -1.2269
4 12 13 -2.9753 -0.1410
4 12 14 8.1058 0.7435
4 12 15 -3.7062 0.5842
4 12 16 -3.6434 1.4798
4 12 17 1.2213 -1.0903
4 12 18 -0.8864 -1.9366
4 12 19 2.5667 1.1795
4 12 20 -1.5971 0.8610
4 12 21 -3.9190 -0.3547
4 12 22 6.0194 -0.2456
4 12 23 -2.4822 0.1823
4 12 24 -3.1759 0.7935
4 12 25 -4.0611 -0.2579
4 12 26 8.6602 -0.7419
4 12 27 2.4625 0.6439
4 12 28 -1.8218 1.0499
4 12 29 -4.0482 -1.2963
4 12 30 6.1368 -1.9430
4 14 0 19.8450 0.8149
4 14 1 -15.2942 -1.6784
4 14 2 11.0031 0.5410
4 14 3 -7.6528 1.8665
4 14 4 -15.5783 -0.9549
4 14 5 0.1487 -1.8869
4 14 6 9.5041 0.2105
4 14 7 -6.9598 0.1810
4 14 8 -10.3180 0.0166
4 14 9 6.1391 0.3180
4 14 10 9.9776 0.1131
4 14 11 -11.7925 0.2670
4 14 12 -13.2436 -0.3397
4 14 13 7.4747 -0.5340
4 14 14 3.9529 0.4062
4 14 15 0.5624 0.0524
4 14 16 2.3604 -0.1946
4 14 17 -1.5335 0.7397
4 14 18 3.3819 0.0760
4 14 19 2.4171 -0.8591
4 14 20 -11.1440 -0.5182
4 14 21 -0.5796 0.5003
4 14 22 6.8664 0.4773
4 14 23 3.1763 0.0461
4 14 24 -13.6337 -0.1784
4 14 25 3.9304 0.7858
4 14 26 10.8685 0.5685
4 14 27 0.3401 -0.8549
4 14 28 -8.4693 0.5557
4 14 29 2.6442 1.9759
4 16 0 -3.3221 -10.4664
4 16 1 4.2215 1.2314
4 16 2 8.7506 -0.8155
4 16 3 9.3566 -1.4624
4 16 4 -3.1126 4.1652
4 16 5 4.6895 1.4952
4 16 6 3.7880 -0.4707
4 16 7 -1.7165 -0.5329
4 16 8 -7.7872 -2.8594
4 16 9 0.5252 -0.2775
4 16 10 -5.7840 1.7773
4 16 11 -3.6637 -0.2664
4 16 12 -10.9709 1.0393
4 16 13 -3.9924 0.5175
4 16 14 5.8782 -1.0477
4 16 15 -2.1957 -0.2310
4 16 16 -12.1981 -0.9293
4 16 17 -2.3715 -0.5314
4 16 18 2.3034 1.5982
4 16 19 -3.9251 0.6235
4 16 20 -2.6739 -0.2834
4 16 21 -2.1432 -0.0221
4 16 22 6.8555 -0.5083
4 16 23 -0.2086 -0.1754
4 16 24 -3.0407 -0.1339
4 16 25 0.3904 0.5575
4 16 26 5.2680 1.0260
4 16 27 -1.8879 0.7878
4 16 28 -1.3269 -2.4229
4 18 0 18.7650 14.9935
4 18 1 5.5695 -0.4531
4 18 2 -6.7008 -0.5582
4 18 3 4.9555 0.0915
4 18 4 9.2959 -3.6905
4 18 5 1.7049 -0.2188
4 18 6 1.2358 -1.2978
4 18 7 -1.5069 0.3081
4 18 8 1.1090 5.8836
4 18 9 -0.0118 -0.0043
4 18 10 4.1669 -4.6461
4 18 11 -2.5406 0.1036
4 18 12 -2.6603 1.3500
4 18 13 6.4771 -0.2322
4 18 14 0.4213 -0.7458
4 18 15 0.6794 -0.0068
4 18 16 0.6325 3.5622
4 18 17 5.6971 0.1013
4 18 18 2.0412 -4.4077
4 18 19 1.8739 -0.5674
4 18 20 -1.2119 3.1545
4 18 21 9.3194 -0.4371
4 18 22 0.4100 -1.2131
4 18 23 0.2060 1.0473
4 18 24 -2.4133 1.2656
4 18 25 -2.0556 -0.8100
4 18 26 0.5682 -3.1393
4 20 0 -6.2305 -11.1486
4 20 1 -7.6459 -0.4923
4 20 2 0.0485 -0.0718
4 20 3 -4.6482 0.9749
4 20 4 3.7585 3.2014
4 20 5 -0.4854 -0.6925
4 20 6 0.4202 0.8534
4 20 7 -2.7131 0.1105
4 20 8 4.2945 -4.2597
4 20 9 5.6699 0.1147
4 20 10 -1.3709 3.0943
4 20 11 1.6353 0.4506
4 20 12 1.2487 -1.0032
4 20 13 1.4674 -0.3250
4 20 14 5.6682 0.3762
4 20 15 1.1176 -0.0590
4 20 16 -0.1502 -2.4030
4 20 17 -6.5770 0.7312
4 20 18 3.7456 3.0782
4 20 19 -1.4869 -0.9371
4 20 20 -2.2160 -2.3174
4 20 21 -8.0051 0.9625
4 20 22 1.7543 1.0677
4 20 23 -0.1332 -1.4987
4 20 24 0.5128 -1.2633
4 20 25 0.5514 -1.1174
4 22 0 -5.6958 3.2278
4 22 1 -2.1610 1.5723
4 22 2 9.6625 0.7876
4 22 3 1.8751 -1.6414
4 22 4 -6.9479 -1.7410
4 22 5 -1.5403 1.3934
4 22 6 6.0585 0.5050
4 22 7 -5.8916 -0.2512
4 22 8 -10.6981 0.2922
4 22 9 -4.5227 -0.7067
4 22 10 6.4893 -0.3066
4 22 11 1.5148 0.0900
4 22 12 -9.8975 -0.2376
4 22 13 -1.5582 -0.0421
4 22 14 2.1202 0.7098
4 22 15 4.3783 0.2694
4 22 16 -10.4264 -0.7225
4 22 17 -1.5668 -0.8410
4 22 18 9.0360 -0.3053
4 22 19 3.5339 0.8291
4 22 20 -7.5788 -0.3890
4 22 21 -3.4035 -1.6798
4 22 22 4.5293 -0.0729
4 22 23 1.1336 0.2138
4 24 0 -13.1597 3.5504
4 24 1 7.9262 -1.0383
4 24 2 3.3070 0.5294
4 24 3 -1.7872 1.3627
4 24 4 -7.4480 -1.4490
4 24 5 3.0447 -1.3404
4 24 6 4.4307 -0.0391
4 24 7 1.5276 0.1415
4 24 8 -6.3950 0.5817
4 24 9 4.5541 0.5477
4 24 10 5.6136 0.0950
4 24 11 -2.0497 0.0118
4 24 12 -11.0269 -0.7984
4 24 13 -2.8702 -0.3187
4 24 14 12.9880 0.9765
4 24 15 -2.8885 0.5798
4 24 16 -7.3774 -0.0302
4 24 17 1.8301 0.7699
4 24 18 10.7982 -1.1927
4 24 19 -1.3208 -1.4046
4 24 20 -6.1281 0.0377
4 24 21 0.7736 1.3901
4 26 0 -0.3879 -7.6945
4 26 1 0.7653 -0.2095
4 26 2 4.5318 -1.2598
4 26 3 -1.4901 -0.3665
4 26 4 -0.1805 3.2962
4 26 5 0.6154 0.6868
4 26 6 4.1718 -0.5076
4 26 7 0.9972 -0.4974
4 26 8 -4.8246 -0.9469
4 26 9 1.2682 0.7650
4 26 10 0.9462 0.0115
4 26 11 1.3595 -1.1705
4 26 12 -2.2227 0.1825
4 26 13 -1.1403 0.3068
4 26 14 1.0172 0.8611
4 26 15 -1.0825 0.6420
4 26 16 -4.8942 0.0906
4 26 17 3.8524 -1.1100
4 26 18 2.0525 3.2642
4 28 0 4.6043 7.5231
4 28 1 -1.5015 -0.7824
4 28 2 2.6559 0.4245
4 28 3 -0.9486 0.1859
4 28 4 2.3690 -1.8254
4 28 5 -2.6108 -0.0378
4 28 6 -2.3352 -0.9952
4 28 7 -1.4039 -0.5478
4 28 8 8.3625 4.3187
4 28 9 -1.1066 0.4553
4 28 10 -2.8387 -3.1129
4 28 11 -3.0203 -0.1032
4 28 12 5.0677 2.1988
4 28 13 -1.8685 0.6910
4 28 14 -3.9123 -2.7245
4 30 0 0.0242 -4.3833
4 30 1 1.1129 -0.2907
4 30 2 -3.0758 1.0961
4 30 3 0.0047 0.7512
4 30 4 -1.5308 -0.6482
4 30 5 6.3275 -0.4021
4 30 6 -4.3286 0.6365
4 30 7 2.8347 0.2536
4 30 8 -1.5202 -1.9694
4 30 9 -1.2884 -0.4975
5 1 0 61.7948 7.4275
5 1 1 -2.1684 1.4205
5 1 2 24.9840 3.8156
5 1 3 -62.7046 -1.5796
5 1 4 -16.1254 -1.8967
5 1 5 11.9678 0.8778
5 1 6 1.1061 -1.1888
5 1 7 -0.8648 -0.7676
5 1 8 5.3794 2.0664
5 1 9 -12.4870 0.3518
5 1 10 8.7939 -1.3402
5 1 11 25.2506 0.3777
5 1 12 -1.8873 0.6609
5 1 13 7.4844 -0.5610
5 1 14 0.4002 -1.0329
5 1 15 8.3836 0.0135
5 1 16 -6.0027 1.7625
5 1 17 -5.6133 -0.1158
5 1 18 9.1017 -1.4736
5 1 19 -9.9219 0.2980
5 1 20 -5.8665 0.9235
5 1 21 -3.6770 -0.5151
5 1 22 4.8721 -0.9221
5 1 23 1.7089 0.6695
5 1 24 -9.1523 1.0318
5 1 25 2.1398 -0.6458
5 1 26 7.0401 -0.8869
5 1 27 3.2172 0.5893
5 1 28 -4.4239 0.0954
5 1 29 -2.8156 -0.4028
5 1 30 9.3508 1.2133
5 1 31 -0.8014 -0.6737
5 1 32 -5.2462 0.9142
5 3 0 -6.4081 -6.3942
5 3 1 -0.3388 -1.7170
5 3 2 -16.3105 -9.2157
5 3 3 30.5493 1.5089
5 3 4 -2.9663 9.0995
5 3 5 -43.5175 -1.1160
5 3 6 -21.5464 -4.0371
5 3 7 3.5651 0.2298
5 3 8 4.8641 2.1265
5 3 9 -3.9693 0.4416
5 3 10 -10.2817 -4.7901
5 3 11 5.0523 -0.8483
5 3 12 -2.6001 6.1783
5 3 13 -7.9910 0.7015
5 3 14 5.9156 -4.6592
5 3 15 -2.5670 -0.1758
5 3 16 -0.5089 2.6151
5 3 17 0.9902 0.2022
5 3 18 6.1304 -2.3043
5 3 19 -5.5871 -0.4195
5 3 20 -2.8823 3.9691
5 3 21 -4.1554 0.4719
5 3 22 -0.2448 -4.1718
5 3 23 1.5733 -0.5976
5 3 24 -1.0914 2.9771
5 3 25 -6.4958 0.2801
5 3 26 -1.8672 -2.3435
5 3 27 -7.1875 -0.5318
5 3 28 -3.8123 2.8323
5 3 29 -2.2593 0.9607
5 3 30 -1.5261 -1.2583
5 3 31 -1.2257 0.1718
5 3 32 -1.4813 0.4937
5 5 0 123.8442 12.8608
5 5 1 103.2314 0.9488
5 5 2 36.1952 6.3765
5 5 3 13.8373 -1.0217
5 5 4 6.1065 -9.4737
5 5 5 36.3949 0.8366
5 5 6 6.4965 3.9761
5 5 7 -6.5852 -0.0620
5 5 8 -4.6878 -1.2102
5 5 9 2.0338 -0.2061
5 5 10 6.7068 4.7410
5 5 11 14.0827 0.0425
5 5 12 -3.1922 -7.1998
5 5 13 -9.4863 0.3218
5 5 14 -10.4748 5.5458
5 5 15 11.2019 -0.2574
5 5 16 0.0575 -2.5577
5 5 17 -1.6837 -0.0755
5 5 18 -4.9922 2.1390
5 5 19 3.7575 -0.0167
5 5 20 1.2220 -4.2045
5 5 21 3.0230 -0.0917
5 5 22 -2.1173 4.7891
5 5 23 3.5397 -0.4760
5 5 24 2.4127 -3.0133
5 5 25 6.7497 0.2700
5 5 26 0.4356 2.1736
5 5 27 1.9206 0.1055
5 5 28 0.4670 -3.0645
5 5 29 3.5261 -0.2179
5 5 30 -2.0743 1.4675
5 5 31 3.3928 0.6057
5 7 0 -9.3994 -11.4972
5 7 1 13.6491 -0.4803
5 7 2 39.0428 -1.7220
5 7 3 17.7546 0.1571
5 7 4 -16.8643 3.2493
5 7 5 -19.2678 -0.9892
5 7 6 -2.6288 0.5649
5 7 7 14.0222 0.3361
5 7 8 -4.0809 -2.4576
5 7 9 3.1286 0.1059
5 7 10 0.7058 0.1213
5 7 11 -2.6994 0.2537
5 7 12 5.8613 2.2877
5 7 13 -1.1501 -0.7879
5 7 14 -1.4695 -1.2243
5 7 15 -7.9720 0.7014
5 7 16 -5.2884 -1.1850
5 7 17 -2.4033 -0.1488
5 7 18 5.0211 1.2663
5 7 19 -2.0756 0.3705
5 7 20 -0.2179 0.1025
5 7 21 3.4417 -0.4688
5 7 22 11.2589 -0.7637
5 7 23 -2.0578 0.9010
5 7 24 0.3979 0.0043
5 7 25 -0.1511 -0.4825
5 7 26 2.3807 0.5499
5 7 27 -9.0813 0.1728
5 7 28 0.0530 -0.3569
5 7 29 0.0338 -1.0911
5 7 30 3.4587 1.1012
5 7 31 -1.3905 0.0997
5 9 0 3.5265 0.7525
5 9 1 -18.8695 1.0547
5 9 2 -3.1059 0.4907
5 9 3 -20.0720 -0.2511
5 9 4 -3.8021 0.0635
5 9 5 -8.9078 0.4511
5 9 6 14.3147 -0.6129
5 9 7 -24.8981 0.1867
5 9 8 -22.6766 0.6280
5 9 9 -2.9211 -0.3727
5 9 10 9.7772 -0.2521
5 9 11 4.7430 -0.5197
5 9 12 -5.1142 -0.2980
5 9 13 -9.7380 1.0468
5 9 14 15.7323 0.0164
5 9 15 6.7065 -0.6057
5 9 16 -0.0881 0.3703
5 9 17 4.4706 0.0879
5 9 18 5.1402 -0.5548
5 9 19 6.2314 -0.0009
5 9 20 -10.9235 0.4568
5 9 21 10.6405 0.7005
5 9 22 10.8261 -0.3425
5 9 23 -5.4382 -1.1302
5 9 24 -11.2104 0.2184
5 9 25 5.6774 0.9880
5 9 26 7.8809 -0.1447
5 9 27 0.7867 -0.3719
5 9 28 -9.1807 1.1197
5 9 29 -1.0175 0.5909
5 9 30 9.7272 -1.5953
5 11 0 8.6498 7.3101
5 11 1 4.2486 -0.6314
5 11 2 -2.3974 1.9626
5 11 3 -8.3936 0.1447
5 11 4 -2.9712 -4.1125
5 11 5 0.6683 -0.0514
5 11 6 -3.8165 1.1322
5 11 7 3.5900 -0.3315
5 11 8 -1.9012 1.5591
5 11 9 5.6564 0.5244
5 11 10 -4.2289 -0.4853
5 11 11 4.8039 0.5932
5 11 12 -3.1702 -2.0635
5 11 13 -0.3623 -1.2872
5 11 14 1.5783 1.6227
5 11 15 -3.2314 0.8300
5 11 16 -5.9786 0.2556
5 11 17 -3.2990 -0.2194
5 11 18 1.6408 -0.3505
5 11 19 -5.6564 0.0890
5 11 20 -2.0787 -1.1304
5 11 21 -3.9372 -0.5972
5 11 22 -0.3919 1.7217
5 11 23 -2.4652 1.1879
5 11 24 -1.2796 -0.8267
5 11 25 -3.3021 -1.0893
5 11 26 0.0727 -0.0331
5 11 27 3.3035 0.5650
5 11 28 -5.1733 0.6578
5 11 29 -2.5928 -0.0247
5 11 30 2.4093 -1.0123
5 13 0 4.1451 -11.3298
5 13 1 0.4049 -0.4552
5 13 2 18.1132 -3.8523
5 13 3 15.4785 0.3048
5 13 4 -8.5836 7.7088
5 13 5 5.4693 -0.1693
5 13 6 8.3989 -3.9115
5 13 7 1.2871 0.3205
5 13 8 -5.7568 -0.4232
5 13 9 5.8462 -0.3430
5 13 10 8.5049 -1.4089
5 13 11 1.6107 -0.2993
5 13 12 -2.3854 5.5562
5 13 13 0.8050 0.5348
5 13 14 -7.9054 -4.8213
5 13 15 -1.8664 -0.6703
5 13 16 3.2261 1.4046
5 13 17 2.5768 -0.2214
5 13 18 -6.2018 -0.6609
5 13 19 10.2967 0.0104
5 13 20 2.5093 2.5082
5 13 21 1.5827 0.0846
5 13 22 -6.1843 -3.6877
5 13 23 5.4448 -0.4659
5 13 24 -3.1645 3.0832
5 13 25 -1.0901 0.6996
5 13 26 0.9935 -2.3194
5 13 27 5.7166 -0.7905
5 13 28 0.5402 -0.0273
5 13 29 -2.2662 -0.1634
5 15 0 -2.5482 11.7733
5 15 1 1.3640 1.2238
5 15 2 0.0739 2.3702
5 15 3 -12.2002 -0.5812
5 15 4 -10.5442 -5.9484
5 15 5 5.6713 0.3679
5 15 6 5.0668 2.6178
5 15 7 -8.0324 -0.2130
5 15 8 -6.5125 1.2830
5 15 9 3.1302 0.3700
5 15 10 -0.1251 0.1218
5 15 11 2.6954 -0.5516
5 15 12 2.9983 -4.0417
5 15 13 -5.1652 0.8439
5 15 14 3.7240 3.8325
5 15 15 4.5109 -0.8492
5 15 16 7.4936 -1.2994
5 15 17 -0.8232 0.6943
5 15 18 -6.4531 0.3834
5 15 19 -7.9849 -0.7014
5 15 20 7.6683 -2.1293
5 15 21 -1.4919 0.6014
5 15 22 -1.5906 3.1124
5 15 23 0.4605 -0.3131
5 15 24 3.9350 -2.2496
5 15 25 -2.9032 -0.0639
5 15 26 1.1766 0.2375
5 15 27 -4.3280 0.5830
5 15 28 1.1641 2.5176
5 17 0 12.9709 -5.8396
5 17 1 -3.8593 -0.7896
5 17 2 -2.5338 -0.5723
5 17 3 -1.4306 0.2453
5 17 4 6.4407 2.0291
5 17 5 -4.9359 -0.5092
5 17 6 -3.2397 -0.2669
5 17 7 2.4521 0.2785
5 17 8 4.5459 -1.6211
5 17 9 -3.5429 -0.3295
5 17 10 -5.8692 0.9974
5 17 11 0.3195 0.9106
5 17 12 1.1875 0.8374
5 17 13 -0.7543 -1.3931
5 17 14 -9.7409 -0.9859
5 17 15 -0.4462 1.3979
5 17 16 9.9296 -0.1747
5 17 17 -3.9447 -0.6872
5 17 18 -8.4716 0.5378
5 17 19 -1.5347 0.6850
5 17 20 6.8427 -0.0467
5 17 21 -2.8191 -1.0318
5 17 22 -14.8761 -0.8447
5 17 23 4.0005 1.2370
5 17 24 7.4281 0.8790
5 17 25 1.4423 0.2755
5 17 26 -6.7321 0.9748
5 19 0 9.6494 -2.9465
5 19 1 3.6750 0.7176
5 19 2 -1.4810 0.2959
5 19 3 -1.2931 -0.2719
5 19 4 10.3209 0.3142
5 19 5 1.2161 0.5097
5 19 6 -1.0357 0.6946
5 19 7 -9.1217 0.0247
5 19 8 3.2735 -1.1182
5 19 9 -7.3635 -0.2489
5 19 10 -9.1266 0.5621
5 19 11 1.0651 -0.4433
5 19 12 9.1644 -0.0259
5 19 13 0.8449 1.0478
5 19 14 -8.8782 -0.0596
5 19 15 0.3618 -0.8225
5 19 16 6.9490 -0.3174
5 19 17 -2.0151 0.2472
5 19 18 -9.9345 0.5389
5 19 19 -2.2264 -0.2629
5 19 20 11.0885 -0.3776
5 19 21 -2.1348 1.6095
5 19 22 -4.0246 0.5217
5 19 23 -3.5930 -0.6754
5 19 24 7.6490 0.7160
5 19 25 -4.4531 0.3338
5 21 0 -7.4349 7.5097
5 21 1 -1.3966 -1.0103
5 21 2 2.1791 1.6096
5 21 3 7.7139 0.4717
5 21 4 -4.4045 -3.2951
5 21 5 -0.3256 -0.5696
5 21 6 -0.0674 0.2732
5 21 7 5.3653 0.0324
5 21 8 -1.0651 1.7345
5 21 9 -1.6760 0.5120
5 21 10 -4.5569 -0.5640
5 21 11 -5.7141 -0.3216
5 21 12 -0.1240 -1.3424
5 21 13 0.9451 -0.6033
5 21 14 -3.7557 1.9396
5 21 15 6.8570 0.7755
5 21 16 2.6044 -0.7424
5 21 17 -1.6472 -0.1258
5 21 18 -2.1833 -0.9323
5 21 19 5.6048 0.8955
5 21 20 -0.1059 0.7861
5 21 21 1.9458 -0.8612
5 21 22 -2.6637 1.4990
5 21 23 2.2320 -0.5013
5 23 0 -6.5886 -8.3101
5 23 1 0.8619 0.2222
5 23 2 1.8784 -2.8097
5 23 3 -2.6334 -0.4066
5 23 4 -0.2883 4.6902
5 23 5 -4.0429 0.1273
5 23 6 1.0897 -1.8498
5 23 7 -1.1526 -0.1441
5 23 8 0.2935 -0.2204
5 23 9 3.2605 0.1365
5 23 10 2.2679 -1.1548
5 23 11 1.1401 0.0088
5 23 12 -0.2213 3.6575
5 23 13 -4.0481 0.9151
5 23 14 3.4115 -3.2528
5 23 15 -5.8576 -1.1377
5 23 16 -2.5505 2.0691
5 23 17 0.5685 0.0182
5 23 18 5.5308 -0.4436
5 23 19 -0.7834 0.1182
5 23 20 -2.8691 0.9636
5 23 21 -2.4508 -1.7748
5 25 0 4.4543 6.1958
5 25 1 -0.0865 1.4059
5 25 2 -3.1264 2.0956
5 25 3 -0.1253 -0.0107
5 25 4 5.5041 -3.1624
5 25 5 -3.1351 0.0493
5 25 6 -1.9787 1.3159
5 25 7 -2.8551 0.3803
5 25 8 2.8704 0.0124
5 25 9 2.5852 -0.8476
5 25 10 -3.0270 -0.0191
5 25 11 -6.4452 -0.0680
5 25 12 0.7986 -1.4573
5 25 13 2.6726 0.6394
5 25 14 -0.2330 0.7766
5 25 15 -3.5893 -0.1485
5 25 16 -1.6728 -0.6669
5 25 17 1.2833 1.2859
5 25 18 0.3098 -1.5569
5 27 0 6.5301 -1.9368
5 27 1 -0.1340 -0.2091
5 27 2 -5.0012 -0.4015
5 27 3 3.7732 -0.1486
5 27 4 2.6842 0.0748
5 27 5 1.7883 -0.7152
5 27 6 -7.5350 0.6246
5 27 7 4.6492 1.0181
5 27 8 6.1604 -1.0003
5 27 9 2.0145 -0.6885
5 27 10 -9.2934 0.4163
5 27 11 -1.6278 0.4387
5 27 12 9.8232 -0.9711
5 27 13 0.0283 -0.9862
5 27 14 -7.3701 0.7304
5 27 15 -0.1980 0.8207
5 29 0 5.3972 -3.3625
5 29 1 0.9171 0.5322
5 29 2 2.0821 1.3085
5 29 3 3.5116 -0.6398
5 29 4 2.8137 -1.2468
5 29 5 -0.0415 0.4664
5 29 6 -6.8451 1.8301
5 29 7 2.7197 -0.1915
5 29 8 6.2884 -1.8114
5 29 9 -1.8415 -0.1565
5 29 10 -2.7681 1.2038
6 0 0 0.8349 -19.1534
6 0 2 44.5651 8.8388
6 0 4 3.4699 -12.2320
6 0 6 -13.5462 18.0086
6 0 8 14.0151 -16.6865
6 0 10 -9.5187 14.4690
6 0 12 6.9216 -13.0036
6 0 14 -10.1369 13.8555
6 0 16 7.4458 -14.4011
6 0 18 3.4172 12.8961
6 0 20 8.7916 -10.9024
6 0 22 7.5705 9.8795
6 0 24 -3.5007 -10.4727
6 0 26 0.0989 10.1448
6 0 28 0.0109 -7.8319
6 0 30 4.9974 6.1485
6 2 0 41.1059 7.7627
6 2 1 43.4726 1.2249
6 2 2 -22.5774 5.6842
6 2 3 11.8094 -0.2593
6 2 4 -11.8025 -4.1489
6 2 5 -1.3599 -0.5368
6 2 6 16.7165 -0.3599
6 2 7 9.1428 0.7341
6 2 8 -12.9298 0.2206
6 2 9 -11.6984 -1.0856
6 2 10 4.7476 1.0255
6 2 11 12.4206 1.0002
6 2 12 -9.2924 -2.0253
6 2 13 -5.0341 -0.4754
6 2 14 -2.7325 1.0223
6 2 15 4.6187 0.3811
6 2 16 -0.0823 0.2512
6 2 17 2.2452 -0.6428
6 2 18 -1.4803 0.1904
6 2 19 -3.1114 0.3501
6 2 20 0.1177 -1.1515
6 2 21 6.1111 0.1089
6 2 22 -6.0386 1.6784
6 2 23 -0.4787 -0.3375
6 2 24 -4.4831 -0.4749
6 2 25 3.1885 0.3195
6 2 26 2.4987 0.0857
6 2 27 -5.6631 -0.2170
6 2 28 0.3682 -0.1826
6 2 29 5.5051 0.7767
6 2 30 0.7498 -0.4041
6 2 31 -0.2617 0.8079
6 4 0 3.2574 -2.1514
6 4 1 -6.0704 0.0303
6 4 2 22.4721 -2.9584
6 4 3 11.2698 -1.4067
6 4 4 -3.1537 2.4486
6 4 5 -18.2717 1.4375
6 4 6 -22.5121 -2.1248
6 4 7 5.5654 -0.6682
6 4 8 17.2932 1.8413
6 4 9 6.2547 0.8809
6 4 10 -3.1596 -2.0865
6 4 11 13.7850 -0.7436
6 4 12 6.6016 2.2502
6 4 13 -0.5628 0.0995
6 4 14 -0.7164 -1.9957
6 4 15 10.0937 -0.2876
6 4 16 3.5311 1.4417
6 4 17 -7.2537 0.4820
6 4 18 -2.9004 -1.3324
6 4 19 -2.6348 0.0197
6 4 20 5.0542 1.5564
6 4 21 -11.3936 -0.5204
6 4 22 -11.3972 -1.4188
6 4 23 -0.7205 0.7678
6 4 24 12.4222 1.5270
6 4 25 0.7396 -0.8098
6 4 26 -8.5766 -1.2103
6 4 27 -3.4098 0.3006
6 4 28 6.9226 0.7158
6 4 29 2.6189 -0.6975
6 4 30 -5.5227 0.3024
6 4 31 3.5804 0.7897
6 6 0 44.4398 -7.8393
6 6 1 25.1581 -1.3244
6 6 2 -10.8022 -1.3088
6 6 3 -24.4583 1.5132
6 6 4 1.8079 1.8528
6 6 5 -7.1795 -1.2842
6 6 6 -6.1373 0.8019
6 6 7 -9.5188 0.5604
6 6 8 -11.4458 -1.5983
6 6 9 -10.2441 -0.6677
6 6 10 -0.9924 0.1457
6 6 11 -6.0663 0.4151
6 6 12 0.5021 1.4269
6 6 13 -12.5749 -0.1556
6 6 14 -4.7594 -0.8310
6 6 15 1.5054 0.6592
6 6 16 5.5489 -0.2988
6 6 17 3.7143 -0.5307
6 6 18 -10.9786 0.5433
6 6 19 8.3181 0.1905
6 6 20 13.4453 0.4921
6 6 21 5.7619 0.3675
6 6 22 -9.0209 -1.1366
6 6 23 2.3774 -0.9751
6 6 24 8.9184 0.1367
6 6 25 2.4306 0.9020
6 6 26 -11.0893 0.1116
6 6 27 -8.3484 -0.7331
6 6 28 3.0061 -0.0034
6 6 29 -1.3960 -0.5332
6 6 30 -4.5721 0.4761
6 8 0 4.9983 14.4682
6 8 1 4.4897 -0.0480
6 8 2 22.6292 0.1962
6 8 3 11.5679 -0.5714
6 8 4 -11.3609 -1.9049
6 8 5 -27.6474 0.4330
6 8 6 -2.5717 -2.1417
6 8 7 8.1428 -0.0155
6 8 8 9.9706 4.8319
6 8 9 -4.5613 -0.0062
6 8 10 -6.3454 -2.6063
6 8 11 5.7399 -0.1094
6 8 12 1.8098 -0.5131
6 8 13 3.3249 0.1689
6 8 14 2.5541 -0.2000
6 8 15 -5.0924 -0.4869
6 8 16 -3.5335 2.6433
6 8 17 -5.8899 0.3722
6 8 18 3.3939 -2.7465
6 8 19 -2.0816 -0.3484
6 8 20 -6.0420 0.4378
6 8 21 -2.6779 0.0800
6 8 22 5.1618 0.2376
6 8 23 3.9289 0.2823
6 8 24 0.5445 0.4135
6 8 25 4.1955 -0.2679
6 8 26 -0.9822 -1.6028
6 8 27 -2.5615 -0.0270
6 8 28 1.4822 2.1581
6 8 29 5.6926 0.3676
6 8 30 2.2874 -1.7518
6 10 0 13.7035 -12.9487
6 10 1 4.7420 1.1316
6 10 2 -3.6470 -0.8090
6 10 3 1.7393 -0.8166
6 10 4 5.2327 3.4268
6 10 5 10.8625 0.4543
6 10 6 -8.8635 0.9115
6 10 7 1.9970 -0.2753
6 10 8 -9.4990 -4.1068
6 10 9 -4.2254 0.5256
6 10 10 4.0403 2.2984
6 10 11 5.4958 -0.3186
6 10 12 -3.5295 0.9794
6 10 13 -7.8115 0.0733
6 10 14 3.0049 -0.2613
6 10 15 3.4442 -0.0070
6 10 16 -4.6364 -2.4891
6 10 17 2.5828 -0.1953
6 10 18 3.8724 2.5269
6 10 19 8.3455 -0.0188
6 10 20 -2.9428 -0.3979
6 10 21 -0.7637 -0.4933
6 10 22 5.5176 -0.8872
6 10 23 -0.0735 0.6762
6 10 24 -7.6262 0.3940
6 10 25 0.6462 -0.2413
6 10 26 2.8268 0.9475
6 10 27 2.4247 0.9157
6 10 28 -4.1049 -2.0482
6 10 29 -2.2872 0.2662
6 12 0 17.2519 7.1054
6 12 1 -5.4717 -1.1188
6 12 2 -2.9585 1.2300
6 12 3 2.3444 1.7185
6 12 4 10.6135 -3.0285
6 12 5 0.6422 -1.3157
6 12 6 3.6062 0.8013
6 12 7 5.3831 0.4086
6 12 8 1.9182 0.9058
6 12 9 4.5082 -0.5155
6 12 10 -4.4987 0.0043
6 12 11 -0.5563 0.3526
6 12 12 2.3143 -1.8993
6 12 13 12.4931 0.2154
6 12 14 3.1492 1.2293
6 12 15 -1.4299 -0.3248
6 12 16 2.9333 0.4058
6 12 17 -1.9369 -0.0005
6 12 18 0.6929 -0.7952
6 12 19 1.4343 -0.0260
6 12 20 1.9715 -0.8810
6 12 21 -1.1836 0.8861
6 12 22 5.3227 2.0191
6 12 23 4.6611 -1.1281
6 12 24 -4.5128 -1.6113
6 12 25 -3.4761 0.6951
6 12 26 0.3734 0.0500
6 12 27 -1.9605 -0.4142
6 12 28 -4.4792 2.4056
6 14 0 6.4504 0.9323
6 14 1 -1.5225 1.0438
6 14 2 12.2904 0.2873
6 14 3 -2.5862 -1.4842
6 14 4 -5.5388 -0.5979
6 14 5 1.3201 1.3105
6 14 6 6.6133 0.4268
6 14 7 -4.0030 -0.4108
6 14 8 -2.1256 -0.1516
6 14 9 6.1085 0.3384
6 14 10 14.7772 0.0394
6 14 11 0.8892 -0.3215
6 14 12 -3.9924 -0.2890
6 14 13 -5.6687 -0.3942
6 14 14 5.6701 0.5241
6 14 15 -4.2273 0.2290
6 14 16 -3.1587 -0.5310
6 14 17 2.2206 0.1274
6 14 18 9.7484 0.1905
6 14 19 -2.1151 0.1871
6 14 20 -4.7191 -0.0823
6 14 21 -2.0060 -1.0828
6 14 22 4.6218 -0.1710
6 14 23 0.3140 1.8368
6 14 24 -11.1665 0.0639
6 14 25 3.1073 -0.7251
6 14 26 12.9502 -0.0254
6 14 27 -2.9362 -0.0186
6 16 0 -3.9715 -9.0977
6 16 1 6.0522 -0.8889
6 16 2 -3.5462 -0.0868
6 16 3 2.5586 0.8948
6 16 4 -1.5870 1.9593
6 16 5 -2.2153 -1.0173
6 16 6 4.3244 -0.0523
6 16 7 -2.3242 0.3950
6 16 8 -9.8924 -1.8679
6 16 9 -5.2069 -0.3272
6 16 10 2.8360 0.9053
6 16 11 -3.1723 0.3086
6 16 12 -8.3080 1.2011
6 16 13 0.3828 0.3400
6 16 14 0.4662 -1.2823
6 16 15 -3.0531 0.0191
6 16 16 -3.7123 -0.2146
6 16 17 0.8064 -0.6144
6 16 18 0.5833 0.5825
6 16 19 -4.7669 0.2637
6 16 20 -4.9568 0.2989
6 16 21 2.5875 0.6697
6 16 22 6.6135 -1.3527
6 16 23 -1.7678 -1.2993
6 16 24 -7.2380 0.4699
6 16 25 3.0410 0.1606
6 16 26 4.8874 1.0182
6 18 0 -5.1299 12.1896
6 18 1 -7.7859 -0.4420
6 18 2 -4.0722 -0.6944
6 18 3 -1.3703 0.2402
6 18 4 -3.0802 -1.6672
6 18 5 -2.1563 0.0471
6 18 6 -9.6925 -1.2299
6 18 7 -1.2444 -0.0379
6 18 8 0.4448 3.5806
6 18 9 -2.6695 0.5904
6 18 10 -7.9073 -2.4473
6 18 11 -3.8394 -0.4926
6 18 12 0.4349 0.0463
6 18 13 4.7459 0.1931
6 18 14 1.0999 0.4607
6 18 15 3.2655 -0.2827
6 18 16 -2.3783 1.4409
6 18 17 1.8684 0.4220
6 18 18 0.6927 -2.5037
6 18 19 0.8212 -0.2978
6 18 20 -1.7535 0.9103
6 18 21 -0.4794 -0.6945
6 18 22 -2.0438 0.5581
6 18 23 1.1932 0.0740
6 18 24 1.3942 0.8471
6 18 25 -2.9953 0.3366
6 20 0 10.9560 -8.7291
6 20 1 2.3208 1.3732
6 20 2 -0.7559 -0.7609
6 20 3 -5.3953 -1.2740
6 20 4 6.1798 2.5179
6 20 5 1.5049 0.8130
6 20 6 1.0188 0.3207
6 20 7 -2.8786 -0.1088
6 20 8 -0.0974 -2.0801
6 20 9 2.4132 -0.2045
6 20 10 0.0391 1.1905
6 20 11 -4.6639 0.1391
6 20 12 1.4451 0.3181
6 20 13 -0.4709 0.0753
6 20 14 0.2984 -0.9486
6 20 15 -4.2029 -0.2540
6 20 16 1.5877 -0.7821
6 20 17 -4.0748 0.7718
6 20 18 3.4450 2.1640
6 20 19 -3.9707 -0.1993
6 20 20 -1.2626 -0.6814
6 20 21 -1.7943 0.7854
6 20 22 2.1596 -0.1482
6 20 23 -3.9955 1.1228
6 22 0 -11.9743 2.8299
6 22 1 7.2744 -1.3548
6 22 2 2.5433 0.5859
6 22 3 2.4285 1.6607
6 22 4 -1.1169 -0.9660
6 22 5 2.2813 -1.3222
6 22 6 3.7085 -0.1178
6 22 7 -4.0291 0.5892
6 22 8 1.4938 0.6071
6 22 9 -3.7371 -0.4538
6 22 10 0.5612 -0.3181
6 22 11 -1.3928 -0.1010
6 22 12 -2.6011 -0.2601
6 22 13 0.5704 -0.0928
6 22 14 7.9642 0.2328
6 22 15 1.9257 0.0981
6 22 16 -7.4914 -0.4148
6 22 17 -0.1445 0.0154
6 22 18 0.6415 -0.3592
6 22 19 1.6920 0.6270
6 22 20 -2.7491 0.6230
6 22 21 1.4271 1.0391
6 24 0 0.0731 2.6139
6 24 1 -0.0909 1.1697
6 24 2 11.2996 1.1184
6 24 3 -6.5814 -1.3096
6 24 4 -2.9142 -1.5136
6 24 5 -0.0698 0.9131
6 24 6 6.4480 1.2557
6 24 7 1.3782 -0.2629
6 24 8 -6.6777 -0.9438
6 24 9 2.5424 -0.0822
6 24 10 5.3886 0.8527
6 24 11 -3.3801 0.8446
6 24 12 -5.9659 -0.9116
6 24 13 -3.2356 -0.5590
6 24 14 3.8567 0.4973
6 24 15 -1.9024 -0.0355
6 24 16 -3.7880 -1.2572
6 24 17 4.5910 -0.0769
6 24 18 5.5746 0.3666
6 26 0 -1.6882 -6.8126
6 26 1 1.7972 0.2875
6 26 2 1.1571 -1.3970
6 26 3 2.3682 -0.2495
6 26 4 -5.5692 1.8279
6 26 5 2.7439 -0.2767
6 26 6 -0.8617 -0.4832
6 26 7 0.6947 0.1966
6 26 8 -1.1626 -0.5817
6 26 9 2.5166 -0.4569
6 26 10 -0.6136 1.6609
6 26 11 0.4696 0.4119
6 26 12 0.3189 1.1337
6 26 13 -2.4343 -0.1379
6 26 14 -1.1525 0.5431
6 26 15 -1.7107 0.7776
6 28 0 -0.1607 5.9416
6 28 1 -3.5206 -1.0582
6 28 2 -0.1867 -1.8303
6 28 3 -7.0951 0.8236
6 28 4 1.7569 2.4134
6 28 5 -2.0464 0.0653
6 28 6 -0.0795 -3.5464
6 28 7 -2.8467 -0.2692
6 28 8 3.1329 3.3542
6 28 9 -4.7371 0.7019
6 28 10 0.3179 -3.3127
6 28 11 -0.1130 -0.9674
7 1 0 8.3624 4.2743
7 1 1 -11.1879 -0.4265
7 1 2 5.6571 3.3999
7 1 3 11.4265 0.9987
7 1 4 2.2501 -0.8779
7 1 5 -25.1173 -0.5351
7 1 6 -0.0678 -1.2908
7 1 7 11.7321 0.9116
7 1 8 5.2039 1.1394
7 1 9 8.1070 -0.6999
7 1 10 -3.4055 -0.0050
7 1 11 6.4620 0.0716
7 1 12 -6.0195 -0.6601
7 1 13 5.0084 -0.1016
7 1 14 -2.3940 0.5171
7 1 15 -3.4144 0.1037
7 1 16 -4.0436 -0.0625
7 1 17 3.3397 -0.0695
7 1 18 6.4801 0.2332
7 1 19 -5.6188 0.2914
7 1 20 -0.8973 -0.6448
7 1 21 -1.1674 -0.2060
7 1 22 3.2797 0.8332
7 1 23 0.3654 0.0485
7 1 24 -5.9438 -0.2284
7 1 25 3.4270 0.0913
7 1 26 6.1473 -0.0554
7 1 27 -0.4753 -0.2843
7 1 28 -2.9717 -0.2534
7 1 29 6.2114 1.4062
7 1 30 4.7525 -0.3418
7 3 0 16.1947 -5.4383
7 3 1 20.5178 0.3008
7 3 2 1.9426 -6.0768
7 3 3 -10.7334 -0.6858
7 3 4 -13.3934 5.7824
7 3 5 7.4283 0.2247
7 3 6 8.0390 -2.1421
7 3 7 -17.2697 -0.9483
7 3 8 -8.4249 1.4450
7 3 9 -8.9060 0.8156
7 3 10 0.6111 -3.4849
7 3 11 -3.8250 -0.0948
7 3 12 2.4436 3.9949
7 3 13 -9.6276 -0.3499
7 3 14 3.4268 -3.5777
7 3 15 9.4245 0.3725
7 3 16 -1.0002 2.2267
7 3 17 -1.3247 -0.2916
7 3 18 3.5102 -2.2761
7 3 19 6.6784 -0.0861
7 3 20 -0.8525 3.6625
7 3 21 5.3018 -0.1675
7 3 22 2.9216 -3.5614
7 3 23 0.7178 0.3815
7 3 24 -3.1642 2.2761
7 3 25 -1.0672 -0.7073
7 3 26 0.6393 -1.4746
7 3 27 -1.0963 0.7760
7 3 28 -2.1825 0.4644
7 3 29 4.6528 -0.5803
7 3 30 0.6697 0.7096
7 5 0 -16.9426 12.0000
7 5 1 -10.4691 -0.7321
7 5 2 7.7174 2.8029
7 5 3 -0.5933 0.4466
7 5 4 -7.7776 -5.2702
7 5 5 -15.5224 -0.3882
7 5 6 -7.6594 1.5888
7 5 7 -1.8284 0.5468
7 5 8 3.7648 -0.8149
7 5 9 9.9975 -0.5589
7 5 10 -0.9211 3.0738
7 5 11 -0.1037 0.0945
7 5 12 4.0203 -3.9322
7 5 13 3.9659 -0.0785
7 5 14 -4.9546 3.4659
7 5 15 3.3431 0.0249
7 5 16 3.2412 -1.4745
7 5 17 -5.0105 -0.1207
7 5 18 -4.7831 1.2169
7 5 19 -2.7940 -0.0892
7 5 20 0.2235 -2.9302
7 5 21 -7.0976 0.2428
7 5 22 -6.5158 3.1541
7 5 23 8.3014 -0.1283
7 5 24 5.4967 -2.2640
7 5 25 -0.6744 -0.1283
7 5 26 -5.4940 1.2747
7 5 27 -3.7209 -0.2026
7 5 28 3.7678 0.1712
7 5 29 -0.5966 -0.8054
7 7 0 33.5350 -11.5635
7 7 1 20.4702 0.7932
7 7 2 5.2513 0.5859
7 7 3 -20.4979 -0.7515
7 7 4 -14.5889 1.3458
7 7 5 2.5023 1.2156
7 7 6 7.0827 1.4618
7 7 7 -13.9266 -0.5727
7 7 8 -12.3548 -1.8577
7 7 9 5.2648 0.2689
7 7 10 9.6746 0.8098
7 7 11 0.7413 -0.6044
7 7 12 -8.2375 0.0738
7 7 13 -8.3665 0.4543
7 7 14 0.8089 0.1712
7 7 15 4.9790 -0.3531
7 7 16 -1.5269 -1.5245
7 7 17 1.4732 0.4531
7 7 18 0.1204 1.5154
7 7 19 1.6751 -0.5387
7 7 20 -5.4152 -0.3488
7 7 21 -5.0365 0.1934
7 7 22 0.2838 -0.7339
7 7 23 -3.3081 -0.0675
7 7 24 -6.3743 0.1516
7 7 25 1.4118 0.6554
7 7 26 1.4848 0.9832
7 7 27 0.6706 -0.5961
7 7 28 0.8739 -3.1008
7 7 29 2.1940 0.8192
7 9 0 -8.1814 1.3032
7 9 1 -9.3477 -1.0104
7 9 2 15.9089 0.0894
7 9 3 -3.1605 1.2032
7 9 4 -14.1958 0.2133
7 9 5 -2.1704 -1.2523
7 9 6 2.5434 -0.3418
7 9 7 6.4124 0.5116
7 9 8 -6.2262 0.2633
7 9 9 -4.1989 -0.1423
7 9 10 3.8726 -0.4069
7 9 11 0.9756 0.7995
7 9 12 -7.9915 0.2915
7 9 13 0.0540 -0.9486
7 9 14 11.1686 -0.2973
7 9 15 1.2542 0.7617
7 9 16 -8.1398 0.5471
7 9 17 -5.4561 -0.8223
7 9 18 12.9296 -0.5721
7 9 19 3.0814 0.5615
7 9 20 -3.6010 0.3245
7 9 21 3.5146 0.0475
7 9 22 17.8005 0.0463
7 9 23 7.1547 0.3101
7 9 24 -4.0394 -0.2404
7 9 25 0.9504 -0.8003
7 9 26 -5.4087 -0.1319
7 9 27 -1.7308 1.7789
7 9 28 -6.9080 0.5308
7 11 0 9.1081 7.3193
7 11 1 -1.8190 1.0703
7 11 2 -4.7726 0.7221
7 11 3 -11.0040 -0.8357
7 11 4 2.0205 -2.7663
7 11 5 -1.7124 0.7273
7 11 6 -1.7955 0.4028
7 11 7 -10.2469 -0.2077
7 11 8 -8.8888 1.1344
7 11 9 -1.2709 -0.0693
7 11 10 7.9395 -0.4759
7 11 11 3.9857 -0.3360
7 11 12 0.5961 -0.8916
7 11 13 -2.9976 0.7471
7 11 14 5.3622 0.5515
7 11 15 6.6030 -0.4867
7 11 16 0.8770 0.9115
7 11 17 -3.3715 0.5377
7 11 18 3.1079 -0.7445
7 11 19 -5.0679 -0.5692
7 11 20 -0.5964 0.1950
7 11 21 -2.8523 0.1224
7 11 22 -1.9923 0.5794
7 11 23 -2.8102 -0.5474
7 11 24 -1.9545 -0.1494
7 11 25 -0.5607 0.8275
7 11 26 6.3870 -1.7768
7 11 27 1.3975 -1.2290
7 11 28 1.9003 1.6603
7 13 3 9.7757 0.3632
7 13 4 -3.0444 4.7793
7 13 5 10.0285 -0.3169
7 13 6 -0.1940 -2.0925
7 13 7 5.8392 -0.0589
7 13 8 4.6365 -0.5929
7 13 9 0.1929 0.1181
7 13 10 -0.9392 -0.4501
7 13 11 3.3647 0.2281
7 13 12 -0.8074 2.8642
7 13 13 -7.2529 -0.2151
7 13 14 1.5423 -2.2639
7 13 15 0.6756 0.2433
7 13 16 -3.7797 0.1000
7 13 17 -2.3702 -0.0943
7 13 18 -0.2454 -0.2471
7 13 19 2.5413 -0.1129
7 13 20 2.1500 1.3212
7 13 21 2.4309 0.3605
7 13 22 1.6643 -2.4391
7 13 23 -0.3962 -0.4000
7 13 24 -4.2528 2.0954
7 13 25 0.0926 -0.6122
7 13 26 0.6627 2.2351
7 13 27 -2.5507 0.2630
7 15 0 0.2319 10.6973
7 15 1 5.9559 -0.2734
7 15 2 6.5477 -0.3781
7 15 3 -0.0105 0.1766
7 15 4 5.5038 -2.9370
7 15 5 4.1859 -0.2046
7 15 6 6.5487 0.6387
7 15 7 -0.2604 -0.2774
7 15 8 -9.7853 1.2330
7 15 9 -2.7003 0.1117
7 15 10 5.6555 0.0875
7 15 11 5.4573 0.2023
7 15 12 -2.3564 -1.9526
7 15 13 -1.3575 -0.2388
7 15 14 1.0692 1.8573
7 15 15 6.8910 0.1344
7 15 16 0.8679 -0.4081
7 15 17 3.7301 -0.1065
7 15 18 3.4738 -0.1680
7 15 19 0.4595 0.2929
7 15 20 2.0547 -1.3372
7 15 21 3.6596 -0.5908
7 15 22 1.9248 2.0089
7 15 23 0.6957 0.5989
7 15 24 -2.4431 -0.4711
7 15 25 2.0364 0.0648
7 17 0 9.5226 -5.2315
7 17 1 -4.0579 0.7004
7 17 2 0.8878 0.4431
7 17 3 -5.9747 -0.7571
7 17 4 3.2703 1.0477
7 17 5 7.5083 0.9952
7 17 6 -2.6496 0.5580
7 17 7 2.6457 -0.1806
7 17 8 4.5410 -1.2441
7 17 9 3.5301 -0.0227
7 17 10 -5.1980 0.4560
7 17 11 -2.6947 -0.4149
7 17 12 2.9642 0.1567
7 17 13 -4.3221 0.3255
7 17 14 -7.0383 -0.2898
7 17 15 -5.3326 -0.4813
7 17 16 4.6450 -0.3422
7 17 17 0.9344 0.5175
7 17 18 -2.5838 0.4667
7 17 19 -5.1225 -0.6276
7 17 20 5.3720 0.0411
7 17 21 0.5762 0.8673
7 17 22 -4.9469 -1.3524
7 17 23 -0.0532 -1.2820
7 17 24 4.6200 -0.9347
7 19 0 1.1021 -2.4597
7 19 1 4.5425 -0.7183
7 19 2 -11.2383 0.0905
7 19 3 -2.0434 0.8005
7 19 4 9.5830 0.4875
7 19 5 -3.6652 -0.8326
7 19 6 -2.0723 -0.0079
7 19 7 -7.3899 0.5177
7 19 8 5.3515 -0.4016
7 19 9 -4.3981 -0.3021
7 19 10 -1.1379 0.4071
7 19 11 -2.4114 0.7474
7 19 12 8.0995 -0.2430
7 19 13 1.9799 -0.7019
7 19 14 -0.0381 -0.0199
7 19 15 -0.7248 0.8922
7 19 16 5.7255 -0.4402
7 19 17 -2.3729 -0.6743
7 19 18 -4.9347 1.4026
7 19 19 3.9366 0.8670
7 19 20 2.5638 -0.7634
7 19 21 -3.4570 -1.0933
7 19 22 -4.5258 -0.0999
7 21 0 5.8394 7.0765
7 21 1 3.1242 0.9159
7 21 2 -6.5734 0.9872
7 21 3 -3.9556 -1.0683
7 21 4 -1.6317 -2.4477
7 21 5 2.2759 0.9553
7 21 6 -4.0582 0.5867
7 21 7 4.4208 -0.8132
7 21 8 -2.3195 0.3594
7 21 9 -6.7842 0.2631
7 21 10 -5.0541 0.0618
7 21 11 3.7174 0.0153
7 21 12 0.2277 -0.6128
7 21 13 -4.5802 -0.6317
7 21 14 -3.3165 0.2017
7 21 15 5.5843 0.2881
7 21 16 -0.5208 0.4891
7 21 17 1.3831 0.3439
7 21 18 -2.5171 -0.8026
7 21 19 -0.0618 -0.4664
7 21 20 0.7227 0.0528
7 23 0 -6.7467 -7.6633
7 23 1 -3.6279 -1.4986
7 23 2 6.8125 -2.0293
7 23 3 -4.0108 1.0857
7 23 4 -2.7764 3.2645
7 23 5 -5.8750 -0.2623
7 23 6 3.3592 -1.6323
7 23 7 3.7416 0.0358
7 23 8 -3.9102 0.9169
7 23 9 -1.7790 0.3796
7 23 10 -0.0050 -0.4318
7 23 11 -1.0931 -0.3383
7 23 12 -0.5139 1.4382
7 23 13 -0.1031 0.0804
7 23 14 4.7794 -0.5732
7 23 15 -1.3676 0.0827
7 23 16 -2.6127 0.2795
7 23 17 -1.9569 -1.0496
7 23 18 1.1056 2.0801
7 25 0 4.9990 5.3470
7 25 1 2.0892 -0.5544
7 25 2 0.7221 0.4753
7 25 3 -1.8228 0.0835
7 25 4 -1.6504 -1.0528
7 25 5 -1.0645 0.0553
7 25 6 0.9626 -0.1099
7 25 7 -4.9700 -0.6917
7 25 8 1.9837 0.3380
7 25 9 2.7588 1.3624
7 25 10 -0.1600 -0.2648
7 25 11 -5.0735 -0.5382
7 25 12 -2.0387 -0.4320
7 25 13 -1.8324 0.9804
7 25 14 -0.0789 -0.9843
7 25 15 -2.0064 -0.5724
7 27 0 -0.0944 -1.5546
7 27 1 3.5412 0.0951
7 27 2 -1.0009 0.4448
7 27 3 -0.7536 0.1335
7 27 4 4.1217 0.0842
7 27 5 2.4152 0.1152
7 27 6 -5.3812 0.3896
7 27 7 -0.7153 0.1469
7 27 8 3.3299 -0.1355
7 27 9 2.8792 -0.4105
7 27 10 -1.1450 0.1953
7 27 11 -1.1482 -0.4124
8 0 0 24.8201 -14.0914
8 0 2 -6.2876 6.8022
8 0 4 6.1788 -9.0195
8 0 6 9.5864 13.8652
8 0 8 -1.0763 -12.6108
8 0 10 9.7641 11.3461
8 0 12 -11.7497 -10.7667
8 0 14 3.9583 10.5460
8 0 16 0.4771 -10.3762
8 0 18 -0.8471 9.4645
8 0 20 4.0008 -8.4351
8 0 22 -3.1334 8.3215
8 0 24 -3.8599 -8.6397
8 0 26 3.0067 7.0130
8 0 28 -2.0254 -6.1765
8 2 0 -4.3707 6.1068
8 2 1 0.2550 -0.1975
8 2 2 10.5109 3.6283
8 2 3 8.0569 0.8749
8 2 4 -3.2032 -2.1451
8 2 5 -6.6473 -0.4481
8 2 6 -2.9302 -2.2432
8 2 7 -1.7120 -0.0813
8 2 8 8.9358 1.9689
8 2 9 -4.0985 0.6814
8 2 10 -7.0795 -1.4531
8 2 11 5.5588 -0.6530
8 2 12 5.4534 1.2825
8 2 13 -2.2243 0.3558
8 2 14 -1.4473 -1.3487
8 2 15 0.9694 -0.4319
8 2 16 -1.8743 1.5413
8 2 17 0.1960 0.4625
8 2 18 -0.0260 -1.2755
8 2 19 -3.1240 -0.4396
8 2 20 -0.8373 0.6233
8 2 21 7.9563 0.4999
8 2 22 0.5596 -0.5270
8 2 23 0.6915 -0.5338
8 2 24 2.9453 0.8974
8 2 25 -0.0453 0.2927
8 2 26 -1.9785 -1.2571
8 2 27 -1.0626 0.4078
8 2 28 0.4584 2.9409
8 2 29 2.9764 -0.0136
8 4 0 13.4473 -1.8780
8 4 1 0.0782 -0.7571
8 4 2 -8.8362 -1.2555
8 4 3 -21.7716 0.2419
8 4 4 -0.8620 0.7687
8 4 5 -0.8125 -0.2901
8 4 6 1.2420 -0.4161
8 4 7 -4.5516 0.4504
8 4 8 -2.5100 -0.3041
8 4 9 1.0302 -0.9408
8 4 10 -2.3383 0.5286
8 4 11 3.0751 0.4256
8 4 12 1.4781 -0.5303
8 4 13 -7.2091 0.2191
8 4 14 -5.6704 0.3401
8 4 15 4.2420 0.1951
8 4 16 3.8619 -0.2550
8 4 17 4.1919 -0.1961
8 4 18 -6.9485 0.3382
8 4 19 -10.0032 -0.1126
8 4 20 5.9288 -0.1552
8 4 21 2.0126 -0.1120
8 4 22 -7.0295 0.2349
8 4 23 -4.3860 0.0434
8 4 24 -1.8673 -0.0925
8 4 25 3.0539 0.3202
8 4 26 -2.9179 0.1335
8 4 27 0.3776 -0.9643
8 4 28 4.9075 -1.2133
8 6 0 -0.0509 -6.3501
8 6 1 1.0821 0.7723
8 6 2 12.6500 -0.4749
8 6 3 5.3334 -0.5713
8 6 4 -6.0350 1.2666
8 6 5 -8.4514 0.6718
8 6 6 -13.9538 0.7990
8 6 7 -8.9487 -0.5479
8 6 8 3.2180 -0.7315
8 6 9 -3.0623 0.7375
8 6 10 -8.6242 -0.5818
8 6 11 5.7062 0.0100
8 6 12 4.6371 1.2527
8 6 13 0.0096 -0.5979
8 6 14 -2.4975 -0.5300
8 6 15 3.6664 0.0129
8 6 16 5.2177 -0.0023
8 6 17 3.8657 0.0229
8 6 18 -0.2186 0.2011
8 6 19 4.9213 -0.2526
8 6 20 3.8389 0.3801
8 6 21 -0.4516 0.1676
8 6 22 1.8751 -0.7485
8 6 23 6.5301 0.1688
8 6 24 6.2542 0.0518
8 6 25 1.2658 -0.7679
8 6 26 -4.7963 1.2271
8 6 27 -1.0771 1.2757
8 6 28 1.3571 -0.7163
8 8 0 17.3723 12.1481
8 8 1 -0.5271 -0.9942
8 8 2 -1.3423 -0.7553
8 8 3 -11.5454 0.5832
8 8 4 -6.1069 -0.4543
8 8 5 2.4396 -0.1498
8 8 6 0.9181 -2.5097
8 8 7 1.6839 0.0775
8 8 8 -0.1703 4.0327
8 8 9 -2.4253 -0.2155
8 8 10 6.8230 -2.3447
8 8 11 -3.1006 -0.2720
8 8 12 -5.1154 0.7963
8 8 13 -8.7432 0.6978
8 8 14 0.4200 -1.4557
8 8 15 3.6493 -0.3177
8 8 16 1.3075 2.2426
8 8 17 -13.8677 -0.0274
8 8 18 2.9827 -2.2515
8 8 19 -2.7081 0.2887
8 8 20 -0.4349 1.4162
8 8 21 -7.5165 -0.4007
8 8 22 3.5977 -0.3832
8 8 23 1.4213 0.4101
8 8 24 -3.7682 1.2763
8 8 25 4.3990 0.5962
8 8 26 0.0935 -3.1279
8 8 27 -1.1758 -0.1718
8 10 0 -2.8706 -10.1121
8 10 1 -0.7834 0.1284
8 10 2 1.7250 -0.2279
8 10 3 2.8843 0.1431
8 10 4 -4.4354 2.4667
8 10 5 -13.1643 -0.1929
8 10 6 -4.1985 1.2264
8 10 7 7.0453 0.0555
8 10 8 0.8730 -3.4278
8 10 9 7.6283 -0.2736
8 10 10 -2.8753 2.2177
8 10 11 -3.1982 0.2333
8 10 12 4.2649 -0.6189
8 10 13 2.8947 -0.3225
8 10 14 2.1433 1.1227
8 10 15 1.9193 0.3799
8 10 16 -3.9888 -2.0994
8 10 17 -1.2767 0.0241
8 10 18 1.7138 1.9233
8 10 19 -0.3461 -0.1140
8 10 20 -2.7888 -0.9182
8 10 21 -6.6482 0.3995
8 10 22 0.2750 -0.0414
8 10 23 -1.9369 -0.5168
8 10 24 0.5519 -0.5141
8 10 25 -3.3807 0.0890
8 10 26 -1.5980 4.6269
8 10 27 -2.5480 -0.8110
8 12 0 6.7692 5.1941
8 12 1 6.7717 1.2208
8 12 2 -1.7761 1.0411
8 12 3 5.7076 -0.8759
8 12 4 -0.8103 -2.8886
8 12 5 3.8147 0.7506
8 12 6 -0.2094 0.7361
8 12 7 -10.3055 -0.7921
8 12 8 -5.6096 0.6267
8 12 9 -0.6338 0.6979
8 12 10 -0.1442 0.0410
8 12 11 0.2639 -0.2967
8 12 12 -0.6554 -0.7163
8 12 13 8.3975 -0.0485
8 12 14 -0.7623 0.5723
8 12 15 1.9464 -0.1157
8 12 16 -0.1332 -0.1140
8 12 17 -1.5213 0.0777
8 12 18 0.5989 -0.0661
8 12 19 2.4956 -0.0582
8 12 20 -1.1180 -0.5464
8 12 21 2.4894 -0.4578
8 12 22 3.8278 1.0502
8 12 23 1.0369 0.5308
8 12 24 -1.6302 -0.5538
8 12 25 1.1000 -1.5888
8 12 26 3.2189 -2.3001
8 14 0 3.7736 0.9389
8 14 1 1.8637 -0.9699
8 14 2 6.9352 -0.1720
8 14 3 2.9452 0.7586
8 14 4 2.6412 -0.1704
8 14 5 -2.6520 -0.8483
8 14 6 2.9065 -0.1391
8 14 7 7.9741 0.9207
8 14 8 -4.4441 0.3976
8 14 9 4.3572 -0.8489
8 14 10 6.8795 -0.5456
8 14 11 -11.0280 0.4210
8 14 12 7.5944 0.2751
8 14 13 -3.0277 0.2064
8 14 14 5.6846 0.0718
8 14 15 -1.3378 0.1075
8 14 16 -3.8086 0.2216
8 14 17 -0.8676 -0.3216
8 14 18 7.5675 -0.3166
8 14 19 -1.2672 0.4254
8 14 20 -0.9046 0.5121
8 14 21 -0.1422 0.3274
8 14 22 3.6408 -1.0116
8 14 23 0.3884 -1.3729
8 14 24 -5.2118 -0.2966
8 14 25 2.1169 1.0352
8 16 0 1.0100 -6.8407
8 16 1 -0.3071 0.7980
8 16 2 0.8178 0.1699
8 16 3 -1.8334 -0.5052
8 16 4 -0.8076 1.8529
8 16 5 5.6106 0.6124
8 16 6 6.1526 -0.0017
8 16 7 -6.7771 -0.4654
8 16 8 -2.1270 -1.3468
8 16 9 7.1261 0.4896
8 16 10 -0.8260 0.6815
8 16 11 0.6097 -0.1239
8 16 12 -1.2866 0.3809
8 16 13 4.6173 -0.2424
8 16 14 -2.5545 -0.4278
8 16 15 -1.8337 0.1460
8 16 16 0.7261 -0.4779
8 16 17 4.7437 0.5506
8 16 18 4.5793 1.1903
8 16 19 1.6548 -0.4066
8 16 20 -3.9372 0.3390
8 16 21 5.3147 -0.5433
8 16 22 0.1444 -0.1284
8 16 23 -0.5757 1.1146
8 18 0 -5.9339 9.0911
8 18 1 9.5275 -0.4776
8 18 2 0.2746 -0.1333
8 18 3 4.3649 0.4311
8 18 4 3.8253 -2.1156
8 18 5 7.3561 -0.5527
8 18 6 -0.1535 -0.5813
8 18 7 2.4690 0.2477
8 18 8 1.8300 2.3432
8 18 9 7.6199 -0.0486
8 18 10 -6.1822 -1.3034
8 18 11 -10.1643 0.1696
8 18 12 4.5532 0.3896
8 18 13 4.3869 -0.0626
8 18 14 -2.0803 -0.0586
8 18 15 -7.5019 0.7232
8 18 16 1.5139 2.1154
8 18 17 2.7651 -0.6748
8 18 18 -0.4222 -1.7969
8 18 19 -1.2587 0.3394
8 18 20 4.1940 1.4755
8 18 21 -1.0837 0.9326
8 18 22 0.6914 -2.1554
8 20 0 0.7480 -6.8883
8 20 1 -6.3635 -0.3851
8 20 2 1.2839 -0.7348
8 20 3 -5.0855 0.3649
8 20 4 1.4602 1.9417
8 20 5 1.0846 -0.1294
8 20 6 -0.9819 0.1940
8 20 7 -2.3444 0.0240
8 20 8 1.5987 -1.0221
8 20 9 -0.4456 0.0678
8 20 10 -0.7516 0.2303
8 20 11 -0.3681 -0.9560
8 20 12 -0.5107 -0.0558
8 20 13 1.5372 1.0211
8 20 14 0.6410 -0.2280
8 20 15 2.0914 -0.9885
8 20 16 -2.6041 -0.9897
8 20 17 1.6611 -0.0397
8 20 18 0.5042 2.2596
8 20 19 0.6303 0.4493
8 20 20 2.9569 -1.3962
8 22 0 -2.1103 2.5392
8 22 1 1.5715 1.0885
8 22 2 9.4287 0.8853
8 22 3 -5.5003 -0.8197
8 22 4 -4.2038 -1.0569
8 22 5 -5.3834 0.4444
8 22 6 5.2663 0.3811
8 22 7 2.2333 -0.3752
8 22 8 -2.0093 -0.2183
8 22 9 -2.4313 0.5586
8 22 10 1.5710 0.9266
8 22 11 -0.9794 0.1065
8 22 12 -0.4634 -0.7923
8 22 13 -0.3061 -0.8850
8 22 14 1.9931 -0.1989
8 22 15 -2.3453 -0.2886
8 22 16 0.5570 0.8540
8 22 17 3.0290 0.0570
8 24 0 -1.9440 2.4712
8 24 1 0.4264 -0.7434
8 24 2 4.1257 0.6017
8 24 3 0.1714 0.5385
8 24 4 -2.6574 -1.1895
8 24 5 -4.8022 -0.2636
8 24 6 3.7465 0.3187
8 24 7 -1.4038 0.2773
8 24 8 0.7161 0.2061
8 24 9 -0.1989 -0.3309
8 24 10 -2.0972 -0.4703
8 24 11 -3.5343 0.1027
8 24 12 1.6848 0.1293
8 24 13 2.8373 0.8049
8 24 14 0.9329 -1.2763
8 26 0 -4.5820 -4.9981
8 26 1 5.6042 0.1139
8 26 2 -5.6363 1.4900
8 26 3 0.8153 0.0487
8 26 4 -2.6702 -1.6436
8 26 5 2.0057 -0.0852
8 26 6 -3.8421 2.6456
8 26 7 3.1836 0.4794
8 26 8 0.7626 -2.3452
8 26 9 1.1913 -0.6460
8 26 10 -0.4051 2.7194
9 1 0 10.3949 4.5795
9 1 1 4.2523 0.5375
9 1 2 -3.3996 1.6915
9 1 3 -6.4368 -0.0798
9 1 4 -0.2219 -0.6588
9 1 5 4.5408 0.0855
9 1 6 5.1490 -0.4866
9 1 7 0.0790 -0.2293
9 1 8 2.8049 0.3228
9 1 9 12.7624 0.2832
9 1 10 2.6882 0.1448
9 1 11 5.0614 -0.3762
9 1 12 -1.0352 -0.1782
9 1 13 -3.5390 0.4389
9 1 14 -0.0951 -0.2382
9 1 15 5.1407 0.1093
9 1 16 2.0273 0.5063
9 1 17 -2.8510 -0.6501
9 1 18 -4.0658 0.0186
9 1 19 -4.5676 0.3135
9 1 20 -2.0153 -0.2829
9 1 21 0.4246 -0.3082
9 1 22 0.3853 0.0294
9 1 23 -1.6240 0.4466
9 1 24 -4.9338 0.1828
9 1 25 -0.1549 0.7492
9 1 26 2.8570 -1.7228
9 1 27 1.3883 0.6478
9 3 0 6.1336 -4.0820
9 3 1 2.9276 -0.2810
9 3 2 9.6066 -4.5958
9 3 3 4.3565 0.0164
9 3 4 0.0802 4.9373
9 3 5 -5.5273 -0.5086
9 3 6 -1.3065 -2.6458
9 3 7 -5.7474 0.4281
9 3 8 4.7533 1.8723
9 3 9 0.7610 -0.2979
9 3 10 -3.2661 -3.2280
9 3 11 -4.2586 0.3102
9 3 12 3.3533 3.0685
9 3 13 1.9340 0.0475
9 3 14 -0.9146 -2.3439
9 3 15 -4.0124 -0.5057
9 3 16 0.7123 1.9837
9 3 17 7.4037 0.6896
9 3 18 0.1441 -1.8842
9 3 19 -2.5896 -0.1395
9 3 20 3.2917 2.7961
9 3 21 2.5727 0.0539
9 3 22 0.6436 -2.6030
9 3 23 2.1229 -0.1362
9 3 24 1.6379 1.2855
9 3 25 0.5715 -0.2631
9 3 26 0.5129 0.5334
9 3 27 3.0724 -1.1881
9 5 0 5.3184 8.2048
9 5 1 -2.6580 0.4269
9 5 2 1.7719 3.1404
9 5 3 -13.2007 -0.4470
9 5 4 -6.0526 -5.0654
9 5 5 13.1114 0.5372
9 5 6 -0.5907 2.2178
9 5 7 -9.6115 -0.6198
9 5 8 -6.0224 -1.0500
9 5 9 5.2258 0.4643
9 5 10 -3.0690 3.0049
9 5 11 5.7858 -0.1939
9 5 12 -4.9846 -3.1740
9 5 13 5.3509 0.0326
9 5 14 2.6224 2.5148
9 5 15 -2.4679 0.4184
9 5 16 -0.6630 -1.8639
9 5 17 -0.0931 0.0103
9 5 18 -3.6810 1.5229
9 5 19 -11.6136 0.0369
9 5 20 4.2685 -2.3809
9 5 21 1.2095 -0.0889
9 5 22 0.5869 2.5817
9 5 23 -1.4991 -0.0426
9 5 24 -0.7051 -0.9823
9 5 25 -0.4237 -0.2044
9 5 26 -1.4087 -1.2528
9 5 27 0.0453 0.3839
9 7 0 -8.5935 -7.3593
9 7 1 -5.7117 -0.0443
9 7 2 6.3197 -0.2401
9 7 3 -3.0794 0.5504
9 7 4 -6.9751 1.5336
9 7 5 -7.2983 -0.3492
9 7 6 -10.1967 0.6523
9 7 7 -4.0311 0.8338
9 7 8 1.1930 -1.5664
9 7 9 -1.8120 -1.0090
9 7 10 5.3952 0.4830
9 7 11 -5.3654 0.7734
9 7 12 -1.0136 0.4739
9 7 13 -2.3532 -0.2251
9 7 14 2.5968 -0.2579
9 7 15 -3.7557 0.1320
9 7 16 -5.2941 0.0729
9 7 17 3.6367 -0.5670
9 7 18 7.7696 -0.1367
9 7 19 -2.2159 0.4177
9 7 20 -3.0384 0.1496
9 7 21 -6.6243 -0.1331
9 7 22 0.6831 -0.1153
9 7 23 3.1249 0.0085
9 7 24 -1.1259 -0.0540
9 7 25 2.3154 0.4086
9 7 26 -3.6514 2.5483
9 9 0 22.6689 0.7513
9 9 1 18.3635 0.7762
9 9 2 6.6903 0.0540
9 9 3 -0.6528 -0.4772
9 9 4 6.9461 0.3472
9 9 5 2.2925 0.7565
9 9 6 -0.0220 -0.3966
9 9 7 -4.2394 -0.8709
9 9 8 1.0923 0.3025
9 9 9 4.5656 1.0936
9 9 10 -2.0018 -0.3842
9 9 11 2.7775 -0.8327
9 9 12 -10.5580 0.2250
9 9 13 -3.7166 0.2940
9 9 14 4.5489 -0.1285
9 9 15 3.2143 -0.5648
9 9 16 -4.8343 -0.2175
9 9 17 -4.0377 1.0763
9 9 18 2.0411 0.3449
9 9 19 -1.0614 -1.1218
9 9 20 0.7612 0.0257
9 9 21 0.2485 0.2961
9 9 22 3.2461 0.0079
9 9 23 -1.3722 0.8400
9 9 24 6.7687 -0.0578
9 9 25 0.1810 -0.2054
9 9 26 5.5291 -1.1456
9 11 0 -1.4695 4.8155
9 11 1 11.8891 -0.5263
9 11 2 4.5752 0.8397
9 11 3 9.0235 0.5322
9 11 4 4.1463 -2.5106
9 11 5 11.7032 -0.7964
9 11 6 -0.6550 0.3348
9 11 7 0.3147 0.6511
9 11 8 5.1707 0.9716
9 11 9 1.9444 -0.8159
9 11 10 0.9968 -0.1882
9 11 11 -9.3412 0.6266
9 11 12 2.7713 -0.8496
9 11 13 0.5306 -0.2380
9 11 14 5.5144 0.0712
9 11 15 0.6332 0.1949
9 11 16 -2.8260 0.6901
9 11 17 -4.0309 -1.1214
9 11 18 1.7731 -0.3755
9 11 19 0.9112 1.3691
9 11 20 -2.7579 -0.1326
9 11 21 -2.5492 -0.2008
9 11 22 0.7894 0.8891
9 11 23 3.7143 -1.0761
9 11 24 -1.7883 0.7781
9 11 25 -0.8156 -0.5360
9 13 0 5.0510 -7.1900
9 13 1 3.7491 -0.4523
9 13 2 -3.1928 -1.6800
9 13 3 -6.1737 0.0516
9 13 4 -1.1029 4.2851
9 13 5 -0.9214 -0.1640
9 13 6 -3.2629 -1.7792
9 13 7 -2.9177 0.0785
9 13 8 -8.7597 -0.5355
9 13 9 7.5998 0.0220
9 13 10 6.7099 -0.5870
9 13 11 0.5077 -0.2893
9 13 12 2.4965 2.5015
9 13 13 0.7438 0.1270
9 13 14 2.4214 -1.5561
9 13 15 4.5778 0.0323
9 13 16 -3.8506 0.5396
9 13 17 -1.9582 1.0464
9 13 18 1.2473 -0.0848
9 13 19 -2.3874 -0.5973
9 13 20 -3.6277 1.1102
9 13 21 -3.0537 -0.3864
9 13 22 -2.4360 0.0275
9 13 23 -0.8284 0.6071
9 13 24 -1.6085 -0.8864
9 15 0 -0.8443 6.9992
9 15 1 -2.5080 0.5966
9 15 2 2.5406 0.8673
9 15 3 1.3551 -0.5191
9 15 4 -4.4849 -3.1757
9 15 5 -9.4804 0.6461
9 15 6 -0.7928 1.2794
9 15 7 -1.3072 -0.4651
9 15 8 -3.5559 0.8760
9 15 9 3.0734 0.2326
9 15 10 -4.5631 0.4194
9 15 11 2.5477 -0.2057
9 15 12 1.1147 -1.9212
9 15 13 0.5071 0.1506
9 15 14 0.4841 1.4517
9 15 15 -0.1837 -0.0754
9 15 16 -0.0632 -0.0505
9 15 17 -6.0180 -0.1195
9 15 18 2.8652 0.4329
9 15 19 2.3226 0.3204
9 15 20 -0.3536 0.0302
9 15 21 2.7412 0.2157
9 15 22 2.0795 -0.5531
9 17 0 -6.6209 -3.4801
9 17 1 0.0609 -0.4534
9 17 2 -1.5506 -0.1747
9 17 3 0.4051 0.4488
9 17 4 3.0979 0.9185
9 17 5 2.7052 -0.3580
9 17 6 1.2263 0.1962
9 17 7 2.3050 0.2511
9 17 8 -2.1994 -0.8776
9 17 9 1.1429 -0.2883
9 17 10 -2.1271 0.3802
9 17 11 -4.0168 0.3668
9 17 12 4.7644 0.3513
9 17 13 -4.3245 0.0252
9 17 14 -4.0216 -0.0647
9 17 15 2.5727 0.0013
9 17 16 2.7954 0.0046
9 17 17 2.1166 -0.0641
9 17 18 -2.0085 1.2100
9 17 19 2.6215 0.0510
9 17 20 3.5934 -0.9122
9 17 21 0.4286 -0.6788
9 19 0 9.2438 -1.5565
9 19 1 -5.8703 0.3201
9 19 2 1.7449 -0.1763
9 19 3 -0.6510 -0.3028
9 19 4 8.0573 0.6815
9 19 5 0.7396 0.5287
9 19 6 1.7800 -0.3404
9 19 7 1.1030 -0.5597
9 19 8 11.0343 -0.0658
9 19 9 0.0885 0.8464
9 19 10 -4.5226 0.2651
9 19 11 -0.0587 -0.7509
9 19 12 3.3898 -0.3468
9 19 13 -0.5364 0.2455
9 19 14 -1.8811 -0.6222
9 19 15 2.4845 -0.3368
9 19 16 2.2031 1.0120
9 19 17 0.0712 0.2741
9 19 18 0.0168 0.2861
9 19 19 2.0645 -0.7240
9 21 0 4.7032 4.7056
9 21 1 6.7253 -0.2475
9 21 2 1.2770 1.1105
9 21 3 -0.4897 0.5954
9 21 4 4.6718 -2.1940
9 21 5 3.0254 -0.9342
9 21 6 1.3138 0.6431
9 21 7 2.9097 1.2149
9 21 8 -2.6880 0.0111
9 21 9 0.9632 -1.0894
9 21 10 1.4743 0.0464
9 21 11 4.1970 0.6295
9 21 12 -0.5977 -0.3320
9 21 13 -0.7824 0.2929
9 21 14 -0.7861 0.6378
9 21 15 -0.0522 -0.8863
9 21 16 -1.3029 1.4978
9 23 0 -1.8227 -4.3495
9 23 1 2.0843 0.6056
9 23 2 1.8784 -1.6409
9 23 3 3.3822 -0.4462
9 23 4 -4.1664 2.3923
9 23 5 -1.9360 0.0717
9 23 6 4.1777 -1.1285
9 23 7 3.6219 -0.0347
9 23 8 1.2723 -0.3553
9 23 9 -2.1822 -0.6905
9 23 10 -0.5831 0.1028
9 23 11 0.2134 1.0761
9 23 12 3.1270 -0.0519
9 23 13 1.3174 -0.7898
9 25 0 -7.5244 4.0548
9 25 1 3.0120 0.7343
9 25 2 2.3094 -1.0852
9 25 3 -6.5352 -0.6439
9 25 4 -4.8983 0.6896
9 25 5 -2.2586 0.3626
9 25 6 -0.1853 -0.5911
9 25 7 -1.4898 -0.0306
9 25 8 -0.5168 1.1140
10 0 2 -1.3118 4.5670
10 0 4 2.1522 -6.2328
10 0 6 0.2329 9.7650
10 0 8 1.2216 -9.0031
10 0 10 -5.7198 7.7800
10 0 12 -1.8015 -6.9527
10 0 14 -0.1160 7.3224
10 0 16 -0.6791 -7.4158
10 0 18 3.9876 6.6698
10 0 20 -3.3163 -6.1017
10 0 22 0.5241 4.8796
10 0 24 -1.2538 -5.1764
10 2 0 12.2656 3.9976
10 2 1 1.8862 0.3589
10 2 2 -3.0282 2.9929
10 2 3 -3.2916 -0.3998
10 2 4 -1.0947 -2.1925
10 2 5 2.6865 0.6371
10 2 6 2.2354 -0.8176
10 2 7 -1.8210 -0.2881
10 2 8 -0.7407 0.8241
10 2 9 8.9485 0.2412
10 2 10 4.3103 0.1707
10 2 11 4.7994 -0.0091
10 2 12 -2.7549 -1.0189
10 2 13 -1.5928 -0.2672
10 2 14 3.6678 0.5871
10 2 15 2.2574 0.3405
10 2 16 2.3590 -0.4436
10 2 17 -1.8830 0.1849
10 2 18 -2.2832 0.5413
10 2 19 -7.1339 -0.1754
10 2 20 0.8540 -0.6615
10 2 21 -4.7550 -0.6419
10 2 22 1.6618 0.7742
10 2 23 -4.8503 1.1978
10 2 24 -2.9009 0.9365
10 2 25 0.8472 -0.3324
10 4 0 -2.3162 -0.8495
10 4 1 1.4312 0.5642
10 4 2 5.6689 -1.1086
10 4 3 2.2657 -0.2521
10 4 4 -5.9346 0.5531
10 4 5 2.5265 -0.0144
10 4 6 -2.2102 -0.4705
10 4 7 2.5958 -0.2695
10 4 8 4.0871 0.2649
10 4 9 2.2856 0.1678
10 4 10 -1.3523 -0.7869
10 4 11 7.4373 0.0626
10 4 12 1.9999 1.2918
10 4 13 -0.1235 0.1842
10 4 14 -0.2064 -1.3006
10 4 15 3.3641 -0.1203
10 4 16 -3.8854 1.3203
10 4 17 -2.1975 -0.4553
10 4 18 -0.8429 -1.1815
10 4 19 -0.1299 0.4260
10 4 20 0.5344 0.9050
10 4 21 -2.6813 0.2714
10 4 22 1.9164 -0.7649
10 4 23 4.8225 -1.3290
10 4 24 2.8843 0.7089
10 4 25 0.6700 -0.1612
10 6 0 10.2398 -4.1602
10 6 1 -4.0475 -1.3535
10 6 2 -0.8783 -0.9539
10 6 3 -7.4935 0.7632
10 6 4 0.5849 1.5257
10 6 5 0.8392 -0.5334
10 6 6 -0.7957 -0.2719
10 6 7 -6.7010 0.5464
10 6 8 -3.7534 -0.3779
10 6 9 -5.3089 -0.2522
10 6 10 0.6214 -0.0400
10 6 11 0.6618 -0.0897
10 6 12 -1.1928 0.5768
10 6 13 -1.9221 0.1783
10 6 14 -1.2618 0.0712
10 6 15 0.0988 -0.2398
10 6 16 1.4225 -0.6710
10 6 17 -0.1487 0.7220
10 6 18 -1.0786 0.3157
10 6 19 -5.7195 -0.6386
10 6 20 0.9457 -0.1743
10 6 21 -1.8566 -0.6404
10 6 22 -1.6626 -0.1334
10 6 23 -2.7492 0.9722
10 6 24 0.4087 -0.6628
10 6 25 2.2359 0.5940
10 8 0 2.7698 7.7619
10 8 1 9.4973 0.3941
10 8 2 5.9198 0.6212
10 8 3 13.2285 -0.0104
10 8 4 6.3726 -1.3723
10 8 5 -1.4052 0.1364
10 8 6 -4.6963 -0.7837
10 8 7 -0.4647 -0.0558
10 8 8 0.3145 2.7107
10 8 9 3.9043 0.1461
10 8 10 -1.4240 -1.5126
10 8 11 3.6573 0.1628
10 8 12 1.4115 0.0390
10 8 13 -0.8190 -0.0961
10 8 14 2.8749 -0.3933
10 8 15 -6.7713 0.1791
10 8 16 -2.9977 1.1431
10 8 17 1.2229 -0.3747
10 8 18 2.4688 -0.7812
10 8 19 -0.9349 0.5545
10 8 20 -0.0657 0.5416
10 8 21 -0.5370 0.6020
10 8 22 0.3761 -1.1143
10 8 23 3.2571 -0.5336
10 8 24 3.2969 2.2157
10 10 0 10.2482 -6.6420
10 10 1 16.6098 0.5615
10 10 2 5.7460 -0.6385
10 10 3 3.1802 -0.5113
10 10 4 2.4414 2.1907
10 10 5 5.1175 0.3167
10 10 6 2.9956 0.3052
10 10 7 -1.0897 -0.4170
10 10 8 1.8316 -2.5025
10 10 9 1.0731 0.2585
10 10 10 2.3397 1.5690
10 10 11 -4.5289 -0.2703
10 10 12 -5.9304 0.2590
10 10 13 -7.7742 0.0929
10 10 14 -3.6913 0.1846
10 10 15 7.2628 -0.1094
10 10 16 1.2888 -1.0946
10 10 17 -8.5436 0.0320
10 10 18 -3.7607 0.8584
10 10 19 3.4859 0.1648
10 10 20 1.3733 0.3190
10 10 21 -5.4983 0.1823
10 10 22 -0.7455 1.1894
10 10 23 2.6288 0.3156
10 12 0 5.3663 3.6251
10 12 1 7.1141 -0.4345
10 12 2 5.6216 0.5745
10 12 3 3.1350 0.2524
10 12 4 1.3841 -2.0496
10 12 5 -0.0149 -0.3462
10 12 6 -1.7969 0.3446
10 12 7 -2.5083 0.3609
10 12 8 -6.2187 0.6723
10 12 9 1.9664 -0.3924
10 12 10 -2.6566 -0.0904
10 12 11 -3.5120 0.3050
10 12 12 -1.1240 -0.8409
10 12 13 -0.9332 -0.3207
10 12 14 -0.3900 0.6481
10 12 15 1.9968 0.2131
10 12 16 -3.4170 0.1280
10 12 17 -7.5921 0.0334
10 12 18 0.2307 0.3229
10 12 19 -0.0609 0.2527
10 12 20 -3.8220 0.8508
10 12 21 -3.6673 -0.3723
10 12 22 1.2403 -1.6391
10 14 0 8.4191 0.2808
10 14 1 0.4905 0.1960
10 14 2 1.2992 -0.0718
10 14 3 -1.4647 -0.3620
10 14 4 1.8980 -0.3246
10 14 5 -1.1934 0.4155
10 14 6 5.7857 0.2295
10 14 7 -0.0748 -0.3679
10 14 8 -8.3250 0.1710
10 14 9 7.8017 0.4438
10 14 10 5.4613 0.0533
10 14 11 1.0689 -0.4151
10 14 12 2.7561 -0.2025
10 14 13 -1.1334 0.2635
10 14 14 4.1006 -0.1295
10 14 15 0.5374 -0.3895
10 14 16 0.1704 0.0893
10 14 17 -3.0354 0.1883
10 14 18 2.8458 0.3609
10 14 19 0.5582 -0.3721
10 14 20 -3.4361 -0.5457
10 14 21 2.0635 0.1581
10 16 0 -1.5557 -4.6738
10 16 1 1.4203 -0.3254
10 16 2 -0.5143 -0.0926
10 16 3 0.5965 0.4124
10 16 4 -3.9216 1.2563
10 16 5 -6.5052 -0.2933
10 16 6 0.3445 0.1570
10 16 7 -0.8224 0.5047
10 16 8 -1.2665 -1.0578
10 16 9 1.3361 -0.4617
10 16 10 1.4565 0.1104
10 16 11 -0.8570 -0.1073
10 16 12 2.0314 0.3552
10 16 13 4.9138 -0.2736
10 16 14 0.7166 -0.2915
10 16 15 1.0564 0.4192
10 16 16 -1.1810 -0.3376
10 16 17 2.0555 -0.4250
10 16 18 0.7190 1.1395
10 16 19 -0.0499 0.0184
10 18 0 3.3083 6.3704
10 18 1 -4.8037 0.1441
10 18 2 -2.7207 0.6784
10 18 3 -2.9995 0.0783
10 18 4 1.2729 -1.5307
10 18 5 0.4840 -0.4767
10 18 6 0.0313 -0.7344
10 18 7 -1.3659 0.6023
10 18 8 0.2816 2.4159
10 18 9 5.1217 -0.5117
10 18 10 -1.8029 -1.5446
10 18 11 0.1108 0.4353
10 18 12 0.9425 -0.0544
10 18 13 -4.1908 0.2256
10 18 14 -2.9213 -0.3504
10 18 15 -1.3335 -0.6241
10 18 16 -1.3311 2.1968
10 18 17 -3.4699 0.6235
10 20 0 -1.3485 -4.2131
10 20 1 -5.5096 0.8624
10 20 2 0.6946 -0.4993
10 20 3 0.2390 -0.5925
10 20 4 3.2656 1.1226
10 20 5 2.2510 0.4265
10 20 6 2.0774 0.1207
10 20 7 0.3281 -0.7013
10 20 8 2.8121 -1.2335
10 20 9 -2.6233 0.6981
10 20 10 -2.5286 1.3184
10 20 11 -3.0612 0.3180
10 20 12 -0.8960 -0.7477
10 20 13 2.0124 -0.3390
10 20 14 -0.3246 1.2260
10 20 15 3.8058 0.7169
10 22 0 2.2408 1.4977
10 22 1 -0.0065 -0.7037
10 22 2 -4.3830 -0.0658
10 22 3 3.2892 0.2469
10 22 4 -0.4756 -0.4986
10 22 5 -4.8045 0.0917
10 22 6 2.0733 -0.3515
10 22 7 3.5606 -0.0117
10 22 8 -1.7346 0.8728
10 22 9 -1.0025 -0.3695
10 22 10 0.5980 0.3628
10 22 11 1.3982 -0.0825
10 24 0 -2.6887 1.8009
10 24 1 5.2741 -0.0799
10 24 2 5.6097 -0.7745
10 24 3 3.1913 0.1999
10 24 4 -0.4939 0.9114
10 24 5 -5.7691 0.1375
10 24 6 -0.9080 -1.1287
11 1 0 2.2047 1.9087
11 1 1 1.4972 0.0281
11 1 2 -6.1364 2.0448
11 1 3 1.0615 0.2433
11 1 4 0.4017 -1.1297
11 1 5 -1.2473 -0.2896
11 1 6 -2.7667 0.0288
11 1 7 -2.4238 0.2614
11 1 8 -1.4309 0.4194
11 1 9 2.3556 -0.0195
11 1 10 -6.2485 -0.3652
11 1 11 -5.0697 0.2509
11 1 12 -0.7378 0.0657
11 1 13 5.4054 -0.4198
11 1 14 -1.9519 -0.1208
11 1 15 -3.6752 0.2445
11 1 16 3.3337 0.5654
11 1 17 6.2687 -0.3076
11 1 18 -1.7891 -0.4898
11 1 19 1.4417 -0.1112
11 1 20 5.1001 -0.1789
11 1 21 1.7832 1.1572
11 1 22 2.7874 -1.2957
11 1 23 0.8078 -0.1605
11 3 0 4.9569 -2.4676
11 3 1 -2.3499 -0.7362
11 3 2 3.4262 -3.3598
11 3 3 -4.8799 0.4606
11 3 4 -6.1725 3.5567
11 3 5 -0.1219 -0.4044
11 3 6 -0.1754 -1.6343
11 3 7 -1.2309 0.0225
11 3 8 0.8707 0.8267
11 3 9 4.3625 0.0643
11 3 10 6.7549 -1.4368
11 3 11 3.0934 -0.3292
11 3 12 -1.7967 1.7720
11 3 13 -0.0901 0.5457
11 3 14 -0.8611 -1.4465
11 3 15 3.9251 0.0667
11 3 16 4.4467 0.4408
11 3 17 -0.9528 -0.0375
11 3 18 -2.3159 -0.6396
11 3 19 -5.3233 0.8474
11 3 20 -0.5523 1.0454
11 3 21 -4.8126 -1.3031
11 3 22 -1.4903 -0.0013
11 3 23 -4.2739 -0.0095
11 5 0 0.5100 6.1862
11 5 1 0.8828 0.7595
11 5 2 7.2961 1.7080
11 5 3 7.0304 -0.8963
11 5 4 0.1683 -3.4935
11 5 5 -0.1171 0.3513
11 5 6 -0.2082 1.3752
11 5 7 9.1649 -0.1769
11 5 8 2.2225 -0.3195
11 5 9 0.8118 0.0425
11 5 10 -0.1737 1.4474
11 5 11 4.8975 0.1287
11 5 12 -0.4694 -2.2160
11 5 13 -1.1576 -0.2764
11 5 14 2.6436 1.8044
11 5 15 1.4539 0.1110
11 5 16 -3.0094 -0.3463
11 5 17 -1.8459 -0.1050
11 5 18 -0.4324 -0.1909
11 5 19 -1.8600 -0.2157
11 5 20 -1.8986 -1.1424
11 5 21 -0.9852 -0.0858
11 5 22 -0.6825 -0.2958
11 5 23 1.8014 0.1162
11 7 0 -0.9293 -5.7094
11 7 1 4.9759 0.0670
11 7 2 -1.0579 0.0265
11 7 3 2.0009 0.1878
11 7 4 4.1562 1.2391
11 7 5 -0.4523 0.2863
11 7 6 2.4512 0.1933
11 7 7 -4.8828 0.0765
11 7 8 0.1604 -0.8791
11 7 9 -2.9383 0.3908
11 7 10 2.0596 0.0421
11 7 11 2.4787 -0.3156
11 7 12 1.3343 0.9287
11 7 13 1.5467 0.1982
11 7 14 6.7078 -0.6123
11 7 15 -8.6048 -0.3120
11 7 16 -0.5940 -0.5629
11 7 17 5.1472 0.1241
11 7 18 -2.5481 0.8773
11 7 19 -8.8810 -0.5227
11 7 20 0.1745 -0.3258
11 7 21 5.2719 0.5613
11 7 22 0.7753 1.7540
11 9 0 -8.1085 0.5492
11 9 1 6.6362 -0.4766
11 9 2 9.7379 0.1712
11 9 3 6.3015 0.5362
11 9 4 0.1374 -0.1934
11 9 5 1.5625 -0.5077
11 9 6 -4.3242 0.1592
11 9 7 -2.8764 0.4348
11 9 8 -0.2857 -0.3556
11 9 9 2.8843 -0.6841
11 9 10 -2.0891 0.2257
11 9 11 -1.2173 0.5269
11 9 12 -6.1841 -0.3796
11 9 13 2.5467 -0.3935
11 9 14 -8.4236 0.1470
11 9 15 -5.8582 0.3726
11 9 16 -3.3453 0.1851
11 9 17 2.2328 -0.5131
11 9 18 -0.9622 0.0066
11 9 19 -2.8406 1.1669
11 9 20 -1.1679 -0.0308
11 9 21 -2.9931 -0.3514
11 11 0 8.3379 3.6206
11 11 1 9.0098 0.6649
11 11 2 7.5242 0.2007
11 11 3 -4.3576 -0.5746
11 11 4 -0.2849 -1.5875
11 11 5 5.3361 0.2436
11 11 6 -2.2703 -0.2290
11 11 7 0.3839 -0.4295
11 11 8 -1.1855 1.0904
11 11 9 4.5383 0.3201
11 11 10 -0.1657 -0.3018
11 11 11 2.3058 -0.2109
11 11 12 -0.0574 -0.6602
11 11 13 -5.6851 0.0163
11 11 14 -0.8302 0.0813
11 11 15 3.2443 -0.3999
11 11 16 4.0634 0.7890
11 11 17 -4.5611 0.8984
11 11 18 -1.7673 -0.7416
11 11 19 2.2887 -0.9838
11 11 20 3.7510 0.0352
11 13 0 4.6736 -5.4782
11 13 1 6.2930 -0.7690
11 13 2 6.4462 -1.0497
11 13 3 2.0468 0.1882
11 13 4 4.1983 3.0926
11 13 5 1.4667 -0.3607
11 13 6 3.5101 -1.0343
11 13 7 -5.6630 0.2287
11 13 8 -4.4024 -0.4560
11 13 9 -1.2466 0.3196
11 13 10 -5.8923 -0.1407
11 13 11 -7.9752 -0.0495
11 13 12 0.8245 1.5476
11 13 13 -1.3851 0.2301
11 13 14 0.3549 -1.1877
11 13 15 -1.8476 0.1104
11 13 16 0.3669 -0.8157
11 13 17 -5.8327 -0.5791
11 13 18 0.5584 1.3536
11 13 19 -2.5646 0.4523
11 15 0 2.7583 5.2239
11 15 1 0.1520 -0.2310
11 15 2 2.4459 0.4798
11 15 3 -5.1374 0.0559
11 15 4 -0.9103 -1.7802
11 15 5 -6.1715 0.3525
11 15 6 1.7357 0.5716
11 15 7 -3.1748 -0.1577
11 15 8 -0.6326 0.7937
11 15 9 4.6770 -0.1050
11 15 10 5.6419 0.0197
11 15 11 1.1764 0.0235
11 15 12 0.3602 -1.3597
11 15 13 -0.3059 -0.2608
11 15 14 -0.8893 -0.0325
11 15 15 -1.4295 0.0379
11 15 16 -0.4189 1.5883
11 15 17 -1.1203 0.3018
11 17 0 1.7234 -2.3756
11 17 1 -3.5817 0.5721
11 17 2 -0.4882 -0.1640
11 17 3 1.7285 -0.4563
11 17 4 -1.0096 0.4967
11 17 5 -1.5795 0.4343
11 17 6 -0.6924 0.1643
11 17 7 1.3145 -0.1331
11 17 8 2.9372 -0.8880
11 17 9 2.9085 0.1076
11 17 10 -0.9268 0.8758
11 17 11 -0.5361 -0.5791
11 17 12 3.7663 -0.4723
11 17 13 3.0938 -0.0055
11 17 14 -1.6790 0.6603
11 17 15 1.1312 0.2465
11 19 0 -3.6554 -1.4534
11 19 1 -2.9672 -0.1805
11 19 2 0.8145 0.1165
11 19 3 0.6560 0.4110
11 19 4 -3.8544 -0.0248
11 19 5 2.8763 -0.6417
11 19 6 -0.4798 -0.2583
11 19 7 -2.8432 0.0477
11 19 8 0.2978 -0.1834
11 19 9 0.3313 -0.3737
11 19 10 0.5146 0.0641
11 19 11 -1.3278 0.8836
11 19 12 -1.4692 -1.2339
11 19 13 0.1267 -0.3405
11 21 0 -3.4579 3.0495
11 21 1 -1.5627 -0.1793
11 21 2 -3.3978 -0.7424
11 21 3 2.4573 -0.3473
11 21 4 0.3472 0.6930
11 21 5 -6.1268 0.8232
11 21 6 0.5531 -1.3641
11 21 7 2.9454 -0.6110
11 21 8 -4.0820 1.6377
11 21 9 -0.0985 0.7468
12 0 0 1.7202 -6.1560
12 0 2 -6.6004 2.9224
12 0 4 1.2421 -3.6792
12 0 6 -4.2190 6.2761
12 0 8 -5.7093 -5.9309
12 0 10 -0.6982 5.0139
12 0 12 -3.2373 -4.3695
12 0 14 0.1966 4.7780
12 0 16 0.0413 -4.9957
12 0 18 -2.6849 4.1259
12 0 20 4.7879 -3.3998
12 2 0 0.5721 2.9692
12 2 1 -0.5690 -0.2336
12 2 2 -0.6689 1.4930
12 2 3 -0.2462 0.4220
12 2 4 -2.3032 -0.9996
12 2 5 3.7616 -0.2675
12 2 6 3.0507 -0.9511
12 2 7 -0.6368 0.6186
12 2 8 -2.0457 0.8919
12 2 9 2.1129 -0.5412
12 2 10 1.0687 -0.4840
12 2 11 -10.4086 0.5049
12 2 12 -4.1460 -0.1097
12 2 13 5.5685 -0.1899
12 2 14 -0.3025 -0.3259
12 2 15 -1.5540 -0.1126
12 2 16 -0.1722 1.6046
12 2 17 3.6093 -0.2189
12 2 18 3.0500 -1.1829
12 2 19 1.2682 0.0632
12 2 20 0.3341 1.4303
12 2 21 0.1948 0.5395
12 4 0 3.0881 -1.0515
12 4 1 2.0229 -0.6355
12 4 2 2.5070 -0.8125
12 4 3 -3.1095 0.3164
12 4 4 -6.7457 0.3953
12 4 5 0.1820 -0.4764
12 4 6 4.2859 -0.1576
12 4 7 0.2924 0.0342
12 4 8 -5.4809 0.0644
12 4 9 4.7692 0.1718
12 4 10 11.1819 -0.1527
12 4 11 5.2111 -0.3007
12 4 12 0.0394 0.2552
12 4 13 -4.1006 -0.0734
12 4 14 4.5789 -0.0986
12 4 15 2.7977 -0.2120
12 4 16 0.9246 -0.6041
12 4 17 -1.6677 1.2649
12 4 18 0.3420 0.5968
12 4 19 -2.4494 -0.5871
12 4 20 -2.0117 -0.7250
12 6 0 -4.2768 -2.8235
12 6 1 2.9592 0.6894
12 6 2 0.4851 -0.1258
12 6 3 3.0374 -0.8921
12 6 4 -0.7796 0.6070
12 6 5 -2.0693 0.8026
12 6 6 6.9204 0.3573
12 6 7 -0.8670 -0.2218
12 6 8 -2.1660 -0.8099
12 6 9 -2.9150 -0.0396
12 6 10 -1.2123 0.3867
12 6 11 0.6550 0.0669
12 6 12 -7.2983 0.3168
12 6 13 -0.3635 -0.1634
12 6 14 3.9682 -0.2006
12 6 15 1.3234 0.5104
12 6 16 -3.3247 -0.2258
12 6 17 1.9296 -1.2783
12 6 18 1.1059 0.2390
12 6 19 -1.0690 0.6412
12 6 20 -4.3565 -0.4148
12 8 0 -1.2728 5.4835
12 8 1 0.2303 -0.8106
12 8 2 2.4679 -0.3686
12 8 3 -3.4442 0.9248
12 8 4 -1.8743 -0.4340
12 8 5 7.7471 -0.6757
12 8 6 1.3116 -0.9216
12 8 7 3.1672 0.3555
12 8 8 -4.9771 2.2962
12 8 9 7.0633 -0.0993
12 8 10 0.5717 -1.7297
12 8 11 5.9396 -0.0838
12 8 12 0.3348 -0.0178
12 8 13 5.9741 0.2301
12 8 14 -3.3845 -0.4160
12 8 15 -3.0785 -0.1820
12 8 16 0.2608 0.8859
12 8 17 2.8439 0.3897
12 8 18 -0.2600 -1.3993
12 8 19 -4.6925 -0.4949
12 10 0 -1.7538 -4.7438
12 10 1 2.7731 0.3295
12 10 2 4.2546 -0.0873
12 10 3 0.5920 -0.6147
12 10 4 4.4503 1.4422
12 10 5 1.1103 0.2999
12 10 6 -4.2832 0.3163
12 10 7 -6.5490 -0.5290
12 10 8 4.0968 -1.8519
12 10 9 -5.1685 0.2635
12 10 10 0.5541 0.7040
12 10 11 0.4555 -0.2530
12 10 12 2.2817 -0.1256
12 10 13 -2.9327 0.2284
12 10 14 -1.9751 0.1765
12 10 15 -6.0908 -0.3933
12 10 16 0.3524 -1.9513
12 10 17 -2.4672 -0.0697
12 10 18 -1.2776 2.1151
12 12 0 11.1318 2.4608
12 12 1 4.3364 0.3356
12 12 2 1.4894 0.5893
12 12 3 -8.9741 -0.0309
12 12 4 1.6449 -2.0552
12 12 5 1.5043 -0.2030
12 12 6 0.4363 0.5708
12 12 7 -2.5534 0.4214
12 12 8 -3.3823 0.3675
12 12 9 0.8637 -0.2076
12 12 10 -0.5025 -0.0893
12 12 11 0.8144 0.3644
12 12 12 -1.7061 -0.1400
12 12 13 -8.8125 -0.3483
12 12 14 -0.9700 -0.3882
12 12 15 0.4816 0.1567
12 12 16 2.8062 1.1098
12 12 17 -2.9091 0.1858
12 14 0 -3.8826 0.2230
12 14 1 -1.4931 -0.2508
12 14 2 -1.5314 -0.0415
12 14 3 -8.6834 0.0270
12 14 4 -2.8588 0.0878
12 14 5 -2.5987 -0.0248
12 14 6 1.1110 -0.0361
12 14 7 -3.8768 0.2574
12 14 8 -1.5588 -0.2048
12 14 9 -2.4256 0.1642
12 14 10 0.0609 0.5480
12 14 11 0.0950 -0.0985
12 14 12 -3.3424 -0.2981
12 14 13 1.5081 0.1414
12 14 14 -0.9684 0.3456
12 14 15 0.6729 0.1249
12 16 0 -0.3130 -3.0324
12 16 1 1.5177 0.3250
12 16 2 -2.3316 -0.2719
12 16 3 2.6394 0.0385
12 16 4 -3.9537 1.2687
12 16 5 5.8087 0.3266
12 16 6 -1.0433 -0.1548
12 16 7 -2.4344 0.0726
12 16 8 -1.9098 -0.3385
12 16 9 0.4807 -0.4670
12 16 10 4.2186 0.5716
12 16 11 0.8067 0.5752
12 16 12 2.6198 -0.2458
12 16 13 -1.4675 -0.1747
12 18 0 3.0297 3.8641
12 18 1 3.8119 -0.5730
12 18 2 4.1285 0.0212
12 18 3 -4.7326 -0.1469
12 18 4 -2.8774 0.1564
12 18 5 5.4366 0.0387
12 18 6 2.3100 -1.1598
12 18 7 -6.0794 -0.6387
12 18 8 0.4449 2.5028
12 18 9 5.4909 0.4887
12 20 0 3.2677 -2.7672
12 20 1 -2.3344 -0.4622
12 20 2 1.7582 0.5683
12 20 3 -1.5604 0.3255
13 1 0 5.2619 1.9595
13 1 1 -2.9885 0.1446
13 1 2 -6.0000 0.6383
13 1 3 1.0334 -0.0089
13 1 4 5.3330 -0.0178
13 1 5 0.8921 -0.0939
13 1 6 -3.3372 -0.6277
13 1 7 0.5695 0.1500
13 1 8 3.6035 0.8484
13 1 9 2.2445 -0.0063
13 1 10 -0.2094 -0.4774
13 1 11 -4.0241 -0.0391
13 1 12 6.2283 0.0339
13 1 13 1.7927 0.0281
13 1 14 -6.5339 0.4525
13 1 15 -2.4683 -0.4085
13 1 16 4.5606 0.2840
13 1 17 -0.9691 -0.0037
13 1 18 -3.0992 -0.1218
13 3 0 0.8968 -1.7361
13 3 1 0.9089 0.1518
13 3 2 -1.0901 -2.0447
13 3 3 -0.2718 -0.2147
13 3 4 -1.7471 2.0085
13 3 5 -1.5247 0.3460
13 3 6 1.5994 -0.5656
13 3 7 -0.1469 -0.1719
13 3 8 -2.7185 0.2467
13 3 9 -2.7556 0.0065
13 3 10 -2.8793 -0.9352
13 3 11 -7.4830 0.1830
13 3 12 1.6103 1.5188
13 3 13 2.5662 -0.4367
13 3 14 0.4325 -1.6602
13 3 15 -2.4365 0.3342
13 3 16 0.3081 -0.0756
13 3 17 2.8091 0.0415
13 5 0 1.7666 3.3977
13 5 1 1.2115 -0.2546
13 5 2 -1.9507 1.4279
13 5 3 -1.4634 -0.0245
13 5 4 -2.7683 -1.8356
13 5 5 -1.1201 -0.0741
13 5 6 4.7417 0.6672
13 5 7 4.1902 -0.1579
13 5 8 -3.9329 -0.0243
13 5 9 6.6429 -0.2023
13 5 10 3.0515 0.7914
13 5 11 5.7784 0.0387
13 5 12 -5.8726 -1.6093
13 5 13 -0.4783 0.1022
13 5 14 -1.4099 0.7672
13 5 15 2.8807 -0.0753
13 5 16 1.1231 0.8267
13 5 17 4.3587 0.2433
13 7 0 -4.7408 -3.0006
13 7 1 -0.9531 -0.4209
13 7 2 -0.1586 -0.8149
13 7 3 0.7338 0.2360
13 7 4 -3.4466 1.0119
13 7 5 1.8678 -0.1763
13 7 6 -0.1932 0.4741
13 7 7 -1.0292 0.1871
13 7 8 -0.1738 -0.9887
13 7 9 1.9218 0.2475
13 7 10 -1.0119 0.4052
13 7 11 -4.2381 -0.2760
13 7 12 -1.2356 -0.5054
13 7 13 5.0179 -0.1326
13 7 14 0.7960 0.3730
13 7 15 1.2020 0.3488
13 7 16 -0.4876 -1.3575
13 9 0 5.7373 -0.0932
13 9 1 1.1239 0.8924
13 9 2 4.6057 0.2539
13 9 3 -1.8364 -0.3678
13 9 4 7.1647 -0.1873
13 9 5 5.7762 0.4347
13 9 6 -0.6759 -0.1130
13 9 7 -1.8662 -0.2065
13 9 8 0.7679 0.3063
13 9 9 -2.6553 -0.3951
13 9 10 -2.9643 -0.7059
13 9 11 0.2156 0.0722
13 9 12 2.4837 0.1331
13 9 13 0.1716 0.5314
13 9 14 -0.8562 -0.1344
13 9 15 -3.7410 -0.7415
13 11 0 -3.6114 2.3001
13 11 1 -7.2086 -0.6438
13 11 2 -3.4551 0.3406
13 11 3 -8.6985 0.3863
13 11 4 -0.5058 -0.8518
13 11 5 -4.1206 -0.4264
13 11 6 -4.2103 -0.0322
13 11 7 -2.3546 0.0547
13 11 8 4.3521 0.1991
13 11 9 3.6919 0.2551
13 11 10 1.3559 -0.4278
13 11 11 3.6406 0.2378
13 11 12 1.3152 0.0761
13 11 13 -3.4064 -0.6680
13 11 14 -1.0922 -0.0628
13 13 0 -1.2668 -3.3635
13 13 1 1.7413 0.1888
13 13 2 -7.1026 -0.5256
13 13 3 -7.2074 -0.1432
13 13 4 -2.6649 1.4156
13 13 5 2.5436 -0.0462
13 13 6 -2.8509 -0.2890
13 13 7 -4.3880 0.2255
13 13 8 -2.6133 -1.0614
13 13 9 -7.5689 -0.2378
13 13 10 4.5691 0.2004
13 13 11 2.9056 0.1236
13 13 12 -0.6242 -0.1322
13 15 1 -0.3846 0.0809
13 15 2 -6.8514 -0.4271
13 15 3 -0.9801 -0.2069
13 15 6 -3.3686 -0.0930
13 15 7 3.2981 -0.4305
13 15 8 0.6729 0.6671
13 15 9 -4.0895 0.7199
14 0 0 3.8477 -4.1392
14 0 2 -5.9531 1.8115
14 0 4 0.5796 -2.3215
14 0 6 -3.9880 3.7101
14 0 8 1.6750 -3.6017
14 0 10 1.7760 3.0606
14 0 12 5.8635 -2.2806
14 0 14 -3.9233 2.5580
14 2 0 -1.2855 1.4845
14 2 1 -0.6781 0.5198
14 2 2 0.6284 1.3814
14 2 3 -1.3542 0.0321
14 2 4 2.3359 -0.7130
14 2 5 1.2945 -0.0521
14 2 6 0.9804 -0.2441
14 2 7 -2.2260 0.2477
14 2 8 -0.5712 0.8138
14 2 9 3.0355 0.1459
14 2 10 1.4381 -0.5127
14 2 11 -1.3279 -0.3086
14 2 12 -0.5086 -0.1262
14 2 13 0.3081 0.3779
14 2 14 0.5172 -0.7293
14 4 0 0.4254 -0.3558
14 4 1 4.0456 0.2770
14 4 2 1.1197 -0.4532
14 4 3 -1.4818 -0.5421
14 4 4 -4.0440 0.0228
14 4 5 3.4792 0.6588
14 4 6 6.6961 0.4017
14 4 7 2.3340 -0.4834
14 4 8 -3.5774 -0.4052
14 4 9 2.8940 -0.0541
14 4 10 1.2638 0.1184
14 4 11 -0.4394 0.1074
14 4 12 -4.1090 0.0125
14 4 13 1.3407 -0.2995
14 6 0 2.3886 -1.4799
14 6 1 0.8150 -0.6189
14 6 2 1.1161 -0.7813
14 6 3 -2.9523 0.5247
14 6 4 -2.8788 0.8832
14 6 5 6.5997 -0.7866
14 6 6 2.5090 0.1141
14 6 7 -4.4830 0.5051
14 6 8 -4.5639 -0.0437
14 6 9 4.1740 -0.2721
14 6 10 4.5145 0.0847
14 6 11 -1.8071 0.1643
14 6 12 -2.2578 0.3894
14 8 0 3.3930 2.5548
14 8 1 -4.0877 0.1313
14 8 2 -0.2068 0.1378
14 8 3 -7.8739 -0.0605
14 8 4 2.5108 0.1371
14 8 5 -1.4578 0.3092
14 8 6 -0.6564 -0.6976
14 8 7 -1.9445 -0.3064
14 8 8 1.3657 1.2063
14 8 9 3.4710 0.3481
14 8 10 -2.7606 -0.8479
14 8 11 -6.3785 -0.4306
14 10 0 -0.4471 -2.5930
14 10 1 -2.7941 0.3604
14 10 2 -4.2805 0.1134
14 10 3 -0.7830 -0.1569
14 10 4 -0.2555 -0.0803
14 10 5 5.4761 0.1199
14 10 6 0.6699 0.8882
14 10 7 -3.5098 -0.1050
14 10 8 -0.4102 -1.3761
14 10 9 -3.6173 -0.3639
14 12 5 -0.1520 -0.0788
14 12 6 -6.0636 -0.6500
15 1 0 2.2273 0.7643
15 1 1 1.4994 0.3308
15 1 2 -1.5097 0.4052
15 1 3 -2.3642 0.1406
15 1 4 0.3971 -0.0632
15 1 5 -1.2827 0.1273
15 1 6 1.9156 -0.5857
15 3 0 -0.5685 -1.4244
15 3 1 -2.6985 -0.9265
15 3 2 0.4458 -0.4056
15 3 3 0.5220 0.6162
15 3 4 -0.9408 -0.0487
15 3 5 1.8871 -0.6480
15 5 0 0.8335 2.3656
15 5 1 5.9510 0.6449
15 5 2 3.0810 0.1836
15 5 3 -2.9939 -0.7223
0 0 0 0.0 0.0
;
_olex2_submission_special_instructions 'No special instructions were received'
loop_
_space_group_symop_operation_xyz
'x, y, z'
'-x, -y, z'
'-x, y, -z+1/2'
'x, -y, -z+1/2'
'x+1/2, y+1/2, z'
'-x+1/2, -y+1/2, z'
'-x+1/2, y+1/2, -z+1/2'
'x+1/2, -y+1/2, -z+1/2'
'-x, -y, -z'
'x, y, -z'
'x, -y, z-1/2'
'-x, y, z-1/2'
'-x+1/2, -y+1/2, -z'
'x+1/2, y+1/2, -z'
'x+1/2, -y+1/2, z-1/2'
'-x+1/2, y+1/2, z-1/2'
loop_
_atom_site_label
_atom_site_type_symbol
_atom_site_fract_x
_atom_site_fract_y
_atom_site_fract_z
_atom_site_U_iso_or_equiv
_atom_site_adp_type
_atom_site_occupancy
_atom_site_site_symmetry_order
_atom_site_calc_flag
_atom_site_refinement_flags_posn
_atom_site_refinement_flags_adp
_atom_site_refinement_flags_occupancy
_atom_site_disorder_assembly
_atom_site_disorder_group
In1 In 1.0000 0.69551(2) 0.2500 0.0586(3) Uani 1 2 d S TU P A .
O2 O 0.8799(4) 0.65655(18) 0.28334(18) 0.0865(15) Uani 1 1 d . U . . .
O3 O 0.6187(4) 0.23879(16) 0.27879(15) 0.0767(14) Uani 1 1 d . U . . .
O1 O 1.0206(13) 0.6415(7) 0.3047(7) 0.073(4) Uani 0.63 1 d . U . A 1
C1 C 0.9351(14) 0.6345(6) 0.3041(4) 0.061(3) Uani 0.63 1 d . U . A 1
C2 C 0.8007(11) 0.5788(4) 0.3253(5) 0.087(3) Uani 0.63 1 d . U . A 1
H2 H 0.7588 0.5922 0.3044 0.105 Uiso 0.63 1 calc R . . A 1
C3 C 0.7726(12) 0.5441(4) 0.3503(4) 0.089(4) Uani 0.63 1 d . U . A 1
H3 H 0.7092 0.5326 0.3459 0.107 Uiso 0.63 1 calc R . . A 1
O4 O 0.4787(16) 0.2485(9) 0.3036(7) 0.068(4) Uani 0.63 1 d . U . A 1
C4 C 0.8257(10) 0.5244(4) 0.3808(3) 0.066(2) Uani 0.63 1 d . U . A 1
C5 C 0.9141(10) 0.5403(4) 0.3885(4) 0.072(3) Uani 0.63 1 d . U . A 1
H5 H 0.9502 0.5285 0.4123 0.087 Uiso 0.63 1 calc R . . A 1
C6 C 0.9553(11) 0.5747(4) 0.3617(4) 0.076(3) Uani 0.63 1 d . U . A 1
H6 H 1.0211 0.5834 0.3648 0.092 Uiso 0.63 1 calc R . . A 1
C7 C 0.8971(10) 0.5948(4) 0.3315(3) 0.065(3) Uani 0.63 1 d . U . A 1
C11 C 0.7132(7) 0.40901(19) 0.4532(2) 0.057(3) Uani 0.63 1 d . U . A 1
C10 C 0.7137(7) 0.4087(2) 0.4080(2) 0.061(3) Uani 0.63 1 d G U . A 1
C9 C 0.7496(6) 0.4460(2) 0.38523(16) 0.074(3) Uani 0.63 1 d G U . A 1
H9 H 0.7500 0.4458 0.3543 0.088 Uiso 0.63 1 calc R . . A 1
C8 C 0.7851(7) 0.4836(2) 0.4077(2) 0.064(3) Uani 0.63 1 d G U . A 1
C13 C 0.7846(7) 0.4839(2) 0.4529(2) 0.063(4) Uani 0.63 1 d G U . A 1
C12 C 0.7486(6) 0.4466(2) 0.47561(16) 0.058(3) Uani 0.63 1 d G U . A 1
C14 C 0.6838(11) 0.3693(4) 0.4767(4) 0.070(3) Uani 0.63 1 d . U . A 1
H14 H 0.6641 0.3428 0.4613 0.085 Uiso 0.63 1 calc R . . A 1
C15 C 0.8165(11) 0.5249(4) 0.4759(4) 0.071(3) Uani 0.63 1 d . U . A 1
H15 H 0.8368 0.5511 0.4602 0.085 Uiso 0.63 1 calc R . . A 1
C16 C 0.6773(8) 0.3698(3) 0.3816(3) 0.059(2) Uani 0.63 1 d . U . A 1
C17 C 0.7347(9) 0.3503(4) 0.3484(3) 0.065(2) Uani 0.63 1 d . U . A 1
H17 H 0.7973 0.3616 0.3417 0.078 Uiso 0.63 1 calc R . . A 1
C18 C 0.6945(9) 0.3134(4) 0.3259(4) 0.066(3) Uani 0.63 1 d . U . A 1
H18 H 0.7336 0.2991 0.3045 0.079 Uiso 0.63 1 calc R . . A 1
C19 C 0.6049(9) 0.2965(3) 0.3321(3) 0.056(2) Uani 0.63 1 d . U . A 1
C20 C 0.5459(10) 0.3164(4) 0.3628(3) 0.062(2) Uani 0.63 1 d . U . A 1
H20 H 0.4814 0.3060 0.3665 0.074 Uiso 0.63 1 calc R . . A 1
C21 C 0.5825(9) 0.3527(4) 0.3890(4) 0.073(3) Uani 0.63 1 d . U . A 1
H21 H 0.5435 0.3654 0.4113 0.087 Uiso 0.63 1 calc R . . A 1
C22 C 0.5656(14) 0.2589(6) 0.3012(4) 0.056(3) Uani 0.63 1 d . U . A 1
O1A O 1.042(2) 0.6492(12) 0.3040(12) 0.077(8) Uani 0.37 1 d . U . A 2
C1A C 0.949(3) 0.6416(14) 0.3158(11) 0.097(11) Uani 0.37 1 d . U . A 2
O4A O 0.471(3) 0.2396(15) 0.3140(12) 0.076(8) Uani 0.37 1 d . U . A 2
C5A C 0.8759(8) 0.5555(3) 0.4200(3) 0.059(3) Uani 0.37 1 d . U . A 2
C6A C 0.9713(8) 0.5689(4) 0.4141(3) 0.060(4) Uani 0.37 1 d G U . A 2
H6A H 1.0195 0.5596 0.4342 0.073 Uiso 0.37 1 calc R . . A 2
C7A C 0.9961(7) 0.5961(4) 0.3788(4) 0.062(4) Uani 0.37 1 d G U . A 2
H7A H 1.0613 0.6053 0.3747 0.074 Uiso 0.37 1 calc R . . A 2
C2A C 0.9256(8) 0.6097(4) 0.3493(3) 0.059(4) Uani 0.37 1 d G U . A 2
C3A C 0.8302(7) 0.5962(4) 0.3553(3) 0.068(4) Uani 0.37 1 d G U . A 2
H3A H 0.7820 0.6055 0.3352 0.082 Uiso 0.37 1 calc R . . A 2
C4A C 0.8053(7) 0.5691(4) 0.3906(3) 0.060(4) Uani 0.37 1 d G U . A 2
H4A H 0.7401 0.5599 0.3947 0.071 Uiso 0.37 1 calc R . . A 2
C8A C 0.853(2) 0.5316(7) 0.4578(7) 0.070(5) Uani 0.37 1 d . U . A 2
C9A C 0.879(2) 0.5490(8) 0.5000 0.070(7) Uani 0.37 2 d S TU P A 2
H9A H 0.9188 0.5755 0.5000 0.084 Uiso 0.37 2 calc RS T P A 2
C15A C 0.7761(15) 0.4661(4) 0.5000 0.063(6) Uani 0.37 2 d S TU P A 2
C14A C 0.7340(15) 0.4230(4) 0.5000(3) 0.070(8) Uani 0.37 2 d GS TU P A 2
C13A C 0.7128(17) 0.4020(4) 0.4603(4) 0.065(8) Uani 0.37 1 d G U . A 2
C12A C 0.7336(15) 0.4241(4) 0.4214(3) 0.103(10) Uani 0.37 1 d G U . A 2
H12A H 0.7191 0.4097 0.3945 0.124 Uiso 0.37 1 calc R . . A 2
C11A C 0.7757(15) 0.4671(4) 0.42189(2) 0.088(8) Uani 0.37 1 d G U . A 2
H11A H 0.7899 0.4822 0.3953 0.106 Uiso 0.37 1 calc R . . A 2
C10A C 0.7969(16) 0.4881(4) 0.46126(14) 0.070(8) Uani 0.37 1 d G U . A 2
C16A C 0.661(2) 0.3597(8) 0.4601(6) 0.082(7) Uani 0.37 1 d . U . A 2
C17A C 0.636(3) 0.3389(10) 0.5000 0.099(12) Uani 0.37 2 d S TU P A 2
H17A H 0.6024 0.3107 0.5000 0.119 Uiso 0.37 2 calc RS T P A 2
C21A C 0.5826(10) 0.2798(4) 0.3489(3) 0.065(4) Uani 0.37 1 d . U . A 2
C22A C 0.5156(8) 0.2917(5) 0.3806(4) 0.091(6) Uani 0.37 1 d G U . A 2
H22A H 0.4505 0.2817 0.3782 0.109 Uiso 0.37 1 calc R . . A 2
C23A C 0.5439(10) 0.3181(5) 0.4159(4) 0.090(5) Uani 0.37 1 d G U . A 2
H23A H 0.4981 0.3262 0.4376 0.108 Uiso 0.37 1 calc R . . A 2
C18A C 0.6392(11) 0.3326(4) 0.4195(3) 0.069(4) Uani 0.37 1 d G U . A 2
C19A C 0.7061(9) 0.3208(5) 0.3878(4) 0.098(6) Uani 0.37 1 d G U . A 2
H19A H 0.7713 0.3307 0.3902 0.118 Uiso 0.37 1 calc R . . A 2
C20A C 0.6779(9) 0.2943(5) 0.3525(3) 0.069(4) Uani 0.37 1 d G U . A 2
H20A H 0.7237 0.2862 0.3308 0.083 Uiso 0.37 1 calc R . . A 2
C24A C 0.556(3) 0.2513(11) 0.3132(8) 0.056(3) Uani 0.37 1 d . U . A 2
loop_
_atom_site_aniso_label
_atom_site_aniso_U_11
_atom_site_aniso_U_22
_atom_site_aniso_U_33
_atom_site_aniso_U_23
_atom_site_aniso_U_13
_atom_site_aniso_U_12
In1 0.0941(6) 0.0437(5) 0.0379(5) 0.000 -0.0010(3) 0.000
O2 0.106(4) 0.077(3) 0.077(3) 0.031(3) 0.011(3) -0.016(3)
O3 0.112(4) 0.061(3) 0.057(3) -0.020(2) -0.008(3) -0.005(2)
O1 0.106(7) 0.043(6) 0.071(7) 0.011(5) 0.013(5) 0.001(5)
C1 0.106(6) 0.047(5) 0.031(5) -0.007(4) 0.021(4) 0.003(4)
C2 0.114(7) 0.071(6) 0.076(7) 0.019(6) -0.001(5) -0.010(5)
C3 0.123(8) 0.073(6) 0.072(6) 0.018(5) -0.010(5) -0.017(5)
O4 0.102(5) 0.056(9) 0.046(7) -0.003(6) -0.011(5) 0.006(5)
C4 0.109(6) 0.051(5) 0.038(4) -0.004(4) 0.010(4) -0.003(4)
C5 0.106(6) 0.053(5) 0.057(6) 0.019(5) 0.004(5) -0.004(5)
C6 0.104(7) 0.062(6) 0.063(6) 0.015(5) 0.009(5) -0.002(5)
C7 0.106(6) 0.048(5) 0.041(5) 0.000(4) 0.009(4) -0.001(4)
C11 0.085(9) 0.044(4) 0.042(5) -0.007(3) -0.005(4) 0.005(5)
C10 0.094(7) 0.047(4) 0.041(4) -0.005(3) 0.002(4) -0.001(4)
C9 0.118(9) 0.053(4) 0.049(5) -0.002(3) -0.001(5) -0.010(5)
C8 0.106(8) 0.047(4) 0.039(4) -0.002(3) 0.003(4) -0.009(5)
C13 0.108(11) 0.043(5) 0.038(4) -0.003(3) 0.004(4) -0.002(6)
C12 0.092(7) 0.045(4) 0.039(5) -0.006(3) 0.000(4) -0.004(4)
C14 0.120(10) 0.050(5) 0.041(5) -0.006(5) -0.004(6) -0.014(5)
C15 0.116(10) 0.040(5) 0.055(6) -0.004(5) -0.005(6) -0.004(5)
C16 0.094(6) 0.049(4) 0.034(4) -0.005(3) -0.002(4) -0.003(4)
C17 0.096(6) 0.057(5) 0.041(4) -0.010(4) -0.001(4) -0.004(4)
C18 0.099(6) 0.058(5) 0.041(5) -0.017(4) -0.004(4) -0.001(4)
C19 0.096(6) 0.042(5) 0.030(4) -0.004(4) -0.009(4) 0.004(4)
C20 0.097(6) 0.054(5) 0.035(4) -0.007(4) -0.004(4) 0.000(5)
C21 0.094(6) 0.066(6) 0.058(6) -0.015(5) 0.008(5) -0.008(5)
C22 0.098(4) 0.040(6) 0.028(6) 0.004(5) -0.022(4) 0.008(4)
O1A 0.099(8) 0.060(15) 0.071(11) 0.040(11) 0.003(7) -0.005(7)
C1A 0.101(8) 0.10(2) 0.086(13) 0.045(16) 0.008(7) -0.013(7)
O4A 0.109(6) 0.054(16) 0.067(17) -0.013(14) -0.010(7) 0.005(6)
C5A 0.102(8) 0.036(7) 0.037(5) -0.007(5) -0.001(5) -0.013(6)
C6A 0.097(8) 0.036(7) 0.048(7) -0.002(6) 0.000(5) -0.005(6)
C7A 0.091(8) 0.046(8) 0.048(7) -0.001(6) -0.002(5) -0.007(6)
C2A 0.085(7) 0.048(8) 0.046(7) 0.003(6) 0.005(5) -0.011(6)
C3A 0.087(8) 0.073(10) 0.045(7) 0.015(7) -0.001(6) -0.014(7)
C4A 0.093(8) 0.049(8) 0.036(6) 0.003(6) 0.004(5) -0.018(6)
C8A 0.117(12) 0.050(7) 0.042(6) 0.000(5) 0.005(5) -0.009(7)
C9A 0.120(19) 0.049(11) 0.041(7) 0.000 0.000 -0.012(12)
C15A 0.101(16) 0.052(8) 0.036(7) 0.000 0.000 -0.002(9)
C14A 0.13(2) 0.056(8) 0.022(7) 0.000 0.000 -0.016(11)
C13A 0.14(2) 0.042(7) 0.014(5) 0.007(4) -0.004(6) -0.024(10)
C12A 0.22(3) 0.066(9) 0.022(7) 0.005(5) 0.003(7) -0.058(13)
C11A 0.18(2) 0.056(8) 0.025(7) 0.008(5) 0.004(7) -0.038(11)
C10A 0.13(2) 0.049(8) 0.035(6) -0.001(5) 0.001(6) -0.013(11)
C16A 0.166(16) 0.056(8) 0.024(6) 0.003(5) -0.001(6) -0.041(9)
C17A 0.21(3) 0.066(13) 0.022(7) 0.000 0.000 -0.068(19)
C21A 0.124(9) 0.047(8) 0.024(6) 0.008(5) -0.012(5) -0.005(6)
C22A 0.134(10) 0.086(14) 0.052(8) -0.027(10) 0.003(7) -0.026(8)
C23A 0.148(11) 0.082(12) 0.041(8) -0.017(8) 0.007(7) -0.038(8)
C18A 0.142(10) 0.043(7) 0.023(5) 0.008(5) -0.002(5) -0.027(7)
C19A 0.139(11) 0.115(14) 0.042(7) -0.023(9) 0.000(7) -0.035(9)
C20A 0.126(9) 0.063(9) 0.017(6) 0.009(6) -0.009(6) -0.014(7)
C24A 0.098(4) 0.040(6) 0.028(6) 0.004(5) -0.022(4) 0.008(4)
loop_
_atom_type_symbol
_atom_type_description
_atom_type_scat_dispersion_real
_atom_type_scat_dispersion_imag
_atom_type_scat_source
C C 0.0181 0.0091 'International Tables Vol C Tables 4.2.6.8 and 6.1.1.4'
H H 0.0000 0.0000 'International Tables Vol C Tables 4.2.6.8 and 6.1.1.4'
In In 0.0822 5.0449 'International Tables Vol C Tables 4.2.6.8 and 6.1.1.4'
O O 0.0492 0.0322 'International Tables Vol C Tables 4.2.6.8 and 6.1.1.4'
loop_
_geom_angle_atom_site_label_1
_geom_angle_atom_site_label_2
_geom_angle_atom_site_label_3
_geom_angle
_geom_angle_site_symmetry_1
_geom_angle_site_symmetry_3
_geom_angle_publ_flag
O2 In1 O2 119.4(3) . 3_755 ?
O2 In1 O1 83.9(5) . 3_755 ?
O2 In1 O1 54.5(4) 3_755 3_755 ?
O2 In1 O1 54.5(4) . . ?
O2 In1 O1 83.9(5) 3_755 . ?
O2 In1 O4 85.5(4) . 5 ?
O2 In1 O4 139.9(6) 3_755 5 ?
O2 In1 O4 139.9(6) . 7_655 ?
O2 In1 O4 85.5(4) 3_755 7_655 ?
O2 In1 O4A 140.5(11) 3_755 5 ?
O2 In1 O4A 77.0(7) . 5 ?
O2 In1 O4A 140.5(11) . 7_655 ?
O2 In1 O4A 77.0(7) 3_755 7_655 ?
O3 In1 O2 85.8(2) 7_655 . ?
O3 In1 O2 129.8(2) 7_655 3_755 ?
O3 In1 O2 129.8(2) 5 . ?
O3 In1 O2 85.8(2) 5 3_755 ?
O3 In1 O3 111.6(3) 5 7_655 ?
O3 In1 O1 139.0(5) 5 3_755 ?
O3 In1 O1 90.6(5) 7_655 3_755 ?
O3 In1 O1 139.0(5) 7_655 . ?
O3 In1 O1 90.6(5) 5 . ?
O3 In1 O4 78.9(7) 5 7_655 ?
O3 In1 O4 78.9(7) 7_655 5 ?
O3 In1 O4 55.1(5) 5 5 ?
O3 In1 O4 55.1(5) 7_655 7_655 ?
O3 In1 O4A 59.7(9) 7_655 7_655 ?
O3 In1 O4A 84.0(12) 7_655 5 ?
O3 In1 O4A 84.0(12) 5 7_655 ?
O3 In1 O4A 59.7(9) 5 5 ?
O1 In1 O1 94.2(11) . 3_755 ?
O4 In1 O1 87.6(8) 7_655 3_755 ?
O4 In1 O1 165.6(7) 7_655 . ?
O4 In1 O1 87.6(8) 5 . ?
O4 In1 O1 165.6(7) 5 3_755 ?
O4 In1 O4 94.4(11) 5 7_655 ?
O1A In1 O2 62.9(7) . . ?
O1A In1 O2 80.7(10) . 3_755 ?
O1A In1 O2 62.9(7) 3_755 3_755 ?
O1A In1 O2 80.7(10) 3_755 . ?
O1A In1 O3 145.8(9) 3_755 5 ?
O1A In1 O3 82.0(8) . 5 ?
O1A In1 O3 82.0(8) 3_755 7_655 ?
O1A In1 O3 145.8(9) . 7_655 ?
O1A In1 O1A 105(2) . 3_755 ?
O1A In1 O4A 76.0(16) . 5 ?
O1A In1 O4A 154.4(13) 3_755 5 ?
O1A In1 O4A 154.4(13) . 7_655 ?
O1A In1 O4A 76.0(16) 3_755 7_655 ?
O4A In1 O4A 114.5(18) 5 7_655 ?
C1 O2 In1 92.6(9) . . ?
C1A O2 In1 89.0(15) . . ?
C22 O3 In1 93.3(9) . 5_445 ?
C24A O3 In1 89.6(13) . 5_445 ?
C1 O1 In1 89.1(13) . . ?
O2 C1 In1 60.3(7) . . ?
O2 C1 O1 123.4(17) . . ?
O2 C1 C7 119.2(15) . . ?
O1 C1 In1 63.4(11) . . ?
O1 C1 C7 117.4(16) . . ?
C7 C1 In1 173.4(10) . . ?
C3 C2 C7 116.5(13) . . ?
C4 C3 C2 125.5(14) . . ?
C22 O4 In1 89.9(14) . 5_445 ?
C3 C4 C5 118.8(11) . . ?
C3 C4 C8 120.7(11) . . ?
C5 C4 C8 120.4(10) . . ?
C4 C5 C6 121.0(12) . . ?
C7 C6 C5 117.7(13) . . ?
C2 C7 C1 119.9(12) . . ?
C6 C7 C1 120.0(13) . . ?
C6 C7 C2 120.1(11) . . ?
C10 C11 C12 120.0 . . ?
C10 C11 C14 120.2(6) . . ?
C12 C11 C14 119.6(6) . . ?
C11 C10 C9 120.0 . . ?
C11 C10 C16 123.2(5) . . ?
C9 C10 C16 116.8(5) . . ?
C8 C9 C10 120.0 . . ?
C9 C8 C4 118.2(5) . . ?
C13 C8 C4 121.8(5) . . ?
C13 C8 C9 120.0 . . ?
C8 C13 C12 120.0 . . ?
C8 C13 C15 119.2(7) . . ?
C12 C13 C15 120.7(7) . . ?
C11 C12 C12 119.8 . 10_556 ?
C13 C12 C11 120.0 . . ?
C13 C12 C12 120.2 . 10_556 ?
C11 C14 C14 120.4(6) . 10_556 ?
C13 C15 C15 118.9(6) . 10_556 ?
C17 C16 C10 120.9(10) . . ?
C17 C16 C21 119.4(9) . . ?
C21 C16 C10 119.7(9) . . ?
C18 C17 C16 116.4(11) . . ?
C19 C18 C17 125.5(11) . . ?
C18 C19 C20 119.1(10) . . ?
C18 C19 C22 119.8(11) . . ?
C20 C19 C22 120.8(12) . . ?
C19 C20 C21 119.5(12) . . ?
C16 C21 C20 120.0(11) . . ?
O3 C22 In1 60.0(7) . 5_445 ?
O3 C22 O4 121.3(17) . . ?
O3 C22 C19 120.0(15) . . ?
O4 C22 In1 61.5(12) . 5_445 ?
O4 C22 C19 118.5(16) . . ?
C19 C22 In1 179.6(9) . 5_445 ?
C1A O1A In1 93(2) . . ?
O2 C1A In1 58.1(11) . . ?
O1A C1A In1 56.4(18) . . ?
O1A C1A O2 113(3) . . ?
O1A C1A C2A 121(3) . . ?
C2A C1A In1 175(3) . . ?
C2A C1A O2 123(3) . . ?
C24A O4A In1 88(2) . 5_445 ?
C6A C5A C4A 120.0 . . ?
C6A C5A C8A 117.8(13) . . ?
C4A C5A C8A 122.0(13) . . ?
C7A C6A C5A 120.0 . . ?
C6A C7A C2A 120.0 . . ?
C7A C2A C1A 120.1(17) . . ?
C3A C2A C1A 119.5(18) . . ?
C3A C2A C7A 120.0 . . ?
C4A C3A C2A 120.0 . . ?
C3A C4A C5A 120.0 . . ?
C5A C8A C9A 121.2(18) . . ?
C5A C8A C10A 127.1(15) . . ?
C9A C8A C10A 111.6(17) . . ?
C8A C9A C8A 129(3) 10_556 . ?
C14A C15A C10A 120.7 . . ?
C10A C15A C14A 120.75(18) 10_556 . ?
C10A C15A C10A 118.59(18) 10_556 . ?
C15A C14A C13A 119.3 . . ?
C15A C14A C13A 119.1(5) . 10_556 ?
C13A C14A C13A 121.6(5) . 10_556 ?
C14A C13A C12A 120.2 . . ?
C14A C13A C16A 119.5(12) . . ?
C12A C13A C16A 120.1(12) . . ?
C11A C12A C13A 120.0 . . ?
C10A C11A C12A 120.0 . . ?
C15A C10A C8A 124.5(9) . . ?
C11A C10A C8A 115.2(9) . . ?
C11A C10A C15A 119.9 . . ?
C13A C16A C18A 124.0(15) . . ?
C17A C16A C13A 119.3(18) . . ?
C17A C16A C18A 116.4(17) . . ?
C16A C17A C16A 121(3) 10_556 . ?
C22A C21A C20A 120.0 . . ?
C22A C21A C24A 121.0(16) . . ?
C20A C21A C24A 119.0(16) . . ?
C23A C22A C21A 120.0 . . ?
C22A C23A C18A 120.0 . . ?
C23A C18A C16A 114.6(14) . . ?
C19A C18A C16A 125.4(14) . . ?
C19A C18A C23A 120.0 . . ?
C18A C19A C20A 120.0 . . ?
C19A C20A C21A 120.0 . . ?
O3 C24A In1 58.1(10) . 5_445 ?
O3 C24A C21A 125(3) . . ?
O4A C24A In1 64(2) . 5_445 ?
O4A C24A O3 122(3) . . ?
O4A C24A C21A 113(3) . . ?
C21A C24A In1 176.6(19) . 5_445 ?
loop_
_geom_bond_atom_site_label_1
_geom_bond_atom_site_label_2
_geom_bond_distance
_geom_bond_site_symmetry_2
_geom_bond_publ_flag
In1 O2 2.263(5) 3_755 ?
In1 O2 2.263(5) . ?
In1 O3 2.257(5) 7_655 ?
In1 O3 2.257(5) 5 ?
In1 O1 2.328(19) . ?
In1 O1 2.328(19) 3_755 ?
In1 O4 2.29(2) 5 ?
In1 O4 2.29(2) 7_655 ?
In1 O1A 2.22(3) 3_755 ?
In1 O1A 2.22(3) . ?
In1 O4A 2.39(4) 7_655 ?
In1 O4A 2.39(4) 5 ?
O2 C1 1.187(18) . ?
O2 C1A 1.45(4) . ?
O3 In1 2.257(5) 5_445 ?
O3 C22 1.168(19) . ?
O3 C24A 1.42(3) . ?
O1 C1 1.20(2) . ?
C1 C7 1.531(19) . ?
C2 C3 1.335(17) . ?
C2 C7 1.426(18) . ?
C3 C4 1.324(17) . ?
O4 In1 2.29(2) 5_445 ?
O4 C22 1.24(2) . ?
C4 C5 1.330(17) . ?
C4 C8 1.558(11) . ?
C5 C6 1.423(16) . ?
C6 C7 1.364(18) . ?
C11 C10 1.3900 . ?
C11 C12 1.3900 . ?
C11 C14 1.430(13) . ?
C10 C9 1.3900 . ?
C10 C16 1.488(10) . ?
C9 C8 1.3900 . ?
C8 C13 1.3900 . ?
C13 C12 1.3900 . ?
C13 C15 1.463(12) . ?
C12 C12 1.500(10) 10_556 ?
C14 C14 1.43(2) 10_556 ?
C15 C15 1.48(3) 10_556 ?
C16 C17 1.414(15) . ?
C16 C21 1.423(16) . ?
C17 C18 1.399(14) . ?
C18 C19 1.349(16) . ?
C19 C20 1.378(16) . ?
C19 C22 1.553(18) . ?
C20 C21 1.427(15) . ?
C22 In1 2.601(16) 5_445 ?
O1A C1A 1.36(5) . ?
C1A C2A 1.43(3) . ?
O4A In1 2.39(4) 5_445 ?
O4A C24A 1.23(4) . ?
C5A C6A 1.3900 . ?
C5A C4A 1.3900 . ?
C5A C8A 1.39(2) . ?
C6A C7A 1.3900 . ?
C7A C2A 1.3900 . ?
C2A C3A 1.3900 . ?
C3A C4A 1.3900 . ?
C8A C9A 1.44(2) . ?
C8A C10A 1.50(2) . ?
C9A C8A 1.44(2) 10_556 ?
C15A C14A 1.3899 . ?
C15A C10A 1.386(7) 10_556 ?
C15A C10A 1.3858 . ?
C14A C13A 1.3974 . ?
C14A C13A 1.40(2) 10_556 ?
C13A C12A 1.3900 . ?
C13A C16A 1.43(2) . ?
C12A C11A 1.3900 . ?
C11A C10A 1.3900 . ?
C16A C17A 1.41(2) . ?
C16A C18A 1.51(2) . ?
C17A C16A 1.41(2) 10_556 ?
C21A C22A 1.3900 . ?
C21A C20A 1.3900 . ?
C21A C24A 1.43(3) . ?
C22A C23A 1.3900 . ?
C23A C18A 1.3900 . ?
C18A C19A 1.3900 . ?
C19A C20A 1.3900 . ?
C24A In1 2.66(3) 5_445 ?
loop_
_refln_index_h
_refln_index_k
_refln_index_l
_refln_F_squared_meas
_refln_F_squared_sigma
2 0 0 1272.77 66.59
-2 0 0 1287.67 53.99
-2 0 0 1295.77 66.39
-2 0 0 1269.07 66.59
2 0 0 1371.76 53.99
2 0 0 1193.58 66.39
-4 0 0 3870.91 200.98
4 0 0 3965.1 163.38
-4 0 0 3878.41 201.38
-6 0 0 248.98 14.4
8 0 0 175.48 10.1
-12 0 0 9 1.9
-12 0 0 9.7 1.8
-14 0 0 5.4 1.5
1 1 0 489.15 20.3
-1 -1 0 518.15 25
1 1 0 473.35 24.9
1 -1 0 480.05 25
-1 -1 0 492.25 20.3
-1 1 0 476.05 25
-1 1 0 425.96 24.9
-1 -1 0 468.65 25
-1 1 0 485.65 20.3
1 -1 0 456.35 24.9
-3 -1 0 8.1 1.1
3 1 0 8.2 1.1
-3 -1 0 8.5 1.6
3 -1 0 6.9 1.4
3 1 0 7.9 1.2
3 1 0 5.8 1.4
-3 1 0 9.4 1.5
3 -1 0 9.7 1.2
3 -1 0 8.3 1.3
-3 1 0 9.3 1.1
-5 1 0 21.5 2
-5 -1 0 24 2.6
5 1 0 17.8 1.9
-5 1 0 23.5 2.5
5 1 0 23 2.1
5 1 0 18.4 2.5
5 -1 0 23.5 3
-5 -1 0 21.9 2
5 -1 0 20.1 2
7 -1 0 21 1.6
7 1 0 19 1.6
9 -1 0 15 1.5
-11 1 0 1.6 1.2
-11 -1 0 2.9 1.5
-11 1 0 2.4 1.4
-13 1 0 -0.2 1.4
-13 1 0 -0.1 1.3
-13 -1 0 -2.4 1.4
-13 -1 0 -0.2 1.2
-15 -1 0 0.1 1.2
-15 1 0 0.9 1.2
0 -2 0 1234.88 59.79
0 -2 0 1081.59 59.69
2 2 0 4068.99 208.48
-2 -2 0 3576.04 208.38
-2 -2 0 4227.18 208.88
-2 -2 0 4148.69 169.18
2 -2 0 3814.02 208.38
-2 2 0 4418.66 208.88
-2 2 0 3700.53 208.58
2 2 0 4199.58 169.18
-2 2 0 4265.27 169.38
4 2 0 45.3 2.7
-4 -2 0 49.8 3.6
-4 -2 0 44.1 3
-4 2 0 43.6 3.3
4 -2 0 39.8 3.4
4 -2 0 38.2 2.9
-4 2 0 45.1 2.9
4 2 0 44.2 3
4 2 0 38.9 3.4
-6 2 0 160.78 9.6
6 2 0 164.18 7.9
-6 2 0 149.88 9.5
8 -2 0 152.38 8.8
-10 2 0 28.1 2.7
10 -2 0 28.2 2.2
-12 2 0 7.4 1.8
-12 -2 0 6.8 1.6
-12 -2 0 6 1.7
-12 2 0 8 1.9
-14 -2 0 1.1 1.4
-14 2 0 1.2 1.3
1 3 0 1133.49 66.09
-1 3 0 1335.97 65.99
1 3 0 1334.77 66.09
-1 3 0 1291.57 66.09
1 3 0 1279.37 53.59
1 -3 0 1190.18 66.09
1 -3 0 1370.16 66.09
-1 -3 0 1278.97 53.59
-1 -3 0 1323.47 66.19
3 -3 0 8937.71 467.45
-3 3 0 9680.43 468.25
3 3 0 9870.11 468.55
3 3 0 9999 380.36
3 3 0 7865.01 467.65
-3 -3 0 8180.18 468.05
5 3 0 8.4 1.8
-5 -3 0 12.3 2.2
5 -3 0 8.7 1.7
-5 3 0 12.1 1.5
5 3 0 9 1.5
5 -3 0 11.3 1.5
5 3 0 11.4 1.5
7 -3 0 675.53 38.1
9 -3 0 87.29 5.3
-11 3 0 24.2 2.6
-11 -3 0 23.4 2.6
-11 3 0 28.5 2.5
-13 3 0 6.8 1.6
-13 -3 0 3.8 1.6
-13 3 0 3.8 1.6
-13 -3 0 5.5 1.7
-15 3 0 3.6 1.5
-15 -3 0 2.7 1.2
0 4 0 346.67 18.6
0 4 0 359.26 18.6
0 -4 0 344.87 18.6
0 -4 0 372.56 18.6
-2 -4 0 17.2 1.5
-2 -4 0 26 2.5
2 4 0 17.5 1.5
-2 4 0 16.5 1.5
-2 -4 0 16.3 1.4
2 4 0 19.2 1.8
2 4 0 18.2 1.5
2 -4 0 14.6 1.5
-2 4 0 17 1.4
-2 4 0 16.7 1.4
-4 4 0 371.86 20.8
-4 -4 0 390.16 21.2
-4 -4 0 401.36 20.8
4 -4 0 392.06 20.7
4 4 0 386.96 20.7
-4 4 0 397.76 20.6
4 4 0 421.56 17.1
4 4 0 359.06 21.1
4 -4 0 369.56 21
6 -4 0 16.8 1.3
-6 4 0 14.6 1.9
6 4 0 14.3 2
8 -4 0 41.1 2.7
-10 4 0 2.6 1.3
10 -4 0 1.1 1.1
-10 4 0 1.8 1.2
-12 4 0 1 1.5
-12 -4 0 0.2 1.3
-12 4 0 0.6 1.4
-14 4 0 -0.6 1.4
-14 -4 0 1 1.3
1 -5 0 871.91 44.5
-1 5 0 879.11 44.5
-1 -5 0 884.71 44.5
1 -5 0 806.02 44.5
-1 5 0 816.42 44.4
-1 -5 0 838.62 44.6
1 5 0 877.31 36.1
1 5 0 887.71 44.5
1 5 0 867.61 44.6
-3 -5 0 41.8 2.9
-3 5 0 42.4 2.9
3 -5 0 38 2.8
3 5 0 43.1 2.8
3 -5 0 37.9 3
-3 -5 0 43.7 3.3
-3 5 0 38.3 2.7
3 5 0 43.8 2.6
5 5 0 498.75 22
-5 -5 0 529.55 27.7
5 5 0 465.95 26.7
-5 5 0 516.55 27
-5 5 0 502.05 26.6
7 5 0 183.58 9.3
7 -5 0 187.58 10.7
9 -5 0 175.68 9.7
-9 5 0 157.38 11.5
-11 5 0 23 2.7
-11 5 0 31.3 2.5
11 -5 0 24.2 2.3
-13 5 0 13.3 2.2
-13 -5 0 19.8 2.2
-13 -5 0 12.3 2.1
-15 -5 0 4.1 1.5
0 -6 0 507.75 25.7
0 6 0 468.65 25.6
0 6 0 465.55 25.6
0 -6 0 521.25 25.7
-2 6 0 146.29 7.9
2 6 0 140.39 6.5
-2 6 0 135.09 7.8
2 -6 0 140.99 7.9
2 -6 0 137.29 7.9
2 6 0 166.18 7.9
-2 -6 0 138.49 8.2
2 6 0 132.99 8
-4 6 0 9.8 1.3
4 6 0 9.5 1.5
-4 -6 0 9.7 1.6
-4 6 0 12.5 1.6
-4 -6 0 15.9 2.6
-4 6 0 11.5 1.1
4 6 0 10.1 1.3
4 6 0 5.9 1.6
4 -6 0 12.1 1.5
4 -6 0 10.1 1.8
-6 6 0 322.27 19.9
-6 6 0 308.67 16.9
6 6 0 273.47 13.7
6 -6 0 288.07 16.9
8 -6 0 17.2 1.5
-8 6 0 11.6 1.6
-8 6 0 15 1.8
-10 6 0 22.9 2.2
-10 6 0 20.5 2.4
10 -6 0 23.9 1.9
-10 6 0 22.4 1.9
-12 6 0 1.4 1.4
-12 -6 0 2.9 1.5
-12 6 0 4.1 1.6
-14 6 0 2.3 1.4
-14 -6 0 1.5 1.4
-1 -7 0 351.36 18.4
1 7 0 350.56 18.4
-1 -7 0 356.16 18.5
1 -7 0 318.27 18.3
1 7 0 351.96 18.3
-1 7 0 336.27 18.2
1 7 0 346.67 14.8
-1 7 0 354.56 18.2
3 -7 0 170.88 11
3 7 0 212.88 11.3
3 7 0 203.28 9
-3 7 0 199.98 10.8
-3 -7 0 196.88 11
3 -7 0 193.78 10.9
-3 -7 0 195.48 11.4
3 7 0 201.28 10.8
-3 7 0 203.38 11
-5 7 0 120.99 7.2
5 7 0 118.89 6.3
-5 7 0 123.39 7.6
-5 7 0 128.29 8.4
-7 7 0 387.56 23.5
-7 7 0 321.87 19.1
7 7 0 343.67 16.3
7 -7 0 354.96 20
-9 7 0 18.3 1.9
-9 7 0 18.5 1.6
9 -7 0 19.1 1.7
-9 7 0 16.4 2
11 -7 0 34.6 2.6
-11 7 0 37.3 2.8
-11 7 0 29.7 3.2
-13 -7 0 4.8 1.6
-13 -7 0 2.7 1.5
-13 7 0 4 1.5
-13 7 0 4.7 1.6
0 -8 0 165.08 9.4
0 8 0 174.48 9.2
0 8 0 172.28 9.2
0 -8 0 159.58 9.3
2 8 0 138.49 6.2
2 8 0 131.39 7.8
2 8 0 128.89 7.6
2 -8 0 117.49 7.6
-2 8 0 131.09 7.5
2 -8 0 137.29 7.7
-2 -8 0 153.28 7.8
-2 8 0 138.19 7.6
-4 8 0 770.62 39
-4 8 0 734.03 48.9
4 8 0 695.33 39.5
4 8 0 750.02 32
4 8 0 726.03 39.1
-4 8 0 790.22 39.3
-6 8 0 137.49 8.9
-6 8 0 122.99 8.1
6 8 0 122.39 6.8
-8 8 0 135.19 8
8 -8 0 148.19 8.3
-8 8 0 150.08 9.9
8 8 0 120.49 9.4
-10 8 0 42.4 4
-10 8 0 48.6 3.4
-10 8 0 52.29 3.2
10 -8 0 52.59 3.3
-12 8 0 16.5 2
-12 -8 0 12 2
-12 8 0 8.8 2
-14 -8 0 3 1.4
-1 -9 0 20 1.9
-1 9 0 16.3 1.5
1 9 0 17.2 1.7
-1 9 0 16.2 1.5
1 -9 0 15.1 1.6
1 9 0 16.2 1.3
1 -9 0 17.4 1.7
1 9 0 17.9 1.6
-1 -9 0 13.7 1.6
3 9 0 6 1.3
-3 9 0 4.5 1
-3 -9 0 6.4 1.4
3 9 0 7.1 1.2
-3 -9 0 7.1 1.9
-3 9 0 6.2 0.9
3 9 0 6.8 1.2
-3 9 0 6.8 1.2
3 -9 0 6.5 1.3
-5 9 0 4.9 1.2
5 9 0 4.6 1.4
-5 9 0 5.2 1.5
-5 9 0 7.2 1.1
-7 9 0 1.8 1
7 9 0 1.6 1.4
7 -9 0 2.4 0.9
-7 9 0 3.9 1.1
-9 9 0 0.3 1.1
-9 9 0 2.1 0.9
-9 9 0 2.6 1.3
9 -9 0 1.5 1.1
-11 9 0 1.8 1.5
-11 9 0 2.6 1.6
11 -9 0 2 1.2
-11 9 0 2.4 1.1
-13 -9 0 -0.3 1.4
0 10 0 117.79 6.6
0 10 0 115.69 6.6
0 -10 0 120.39 6.9
0 -10 0 99.49 6.6
-2 10 0 199.28 13.3
2 10 0 217.58 11.5
2 10 0 203.08 9.3
-2 10 0 219.68 11.4
2 10 0 209.58 11.7
-2 -10 0 212.58 12
2 -10 0 200.78 11.7
-2 -10 0 204.98 11.7
-2 10 0 206.68 11.5
-4 10 0 680.53 45.3
-4 10 0 719.33 37.8
4 10 0 738.13 31
-4 10 0 711.33 47.3
4 10 0 701.03 37.9
-4 10 0 768.72 38.1
-6 10 0 471.75 26
-6 10 0 499.55 31.6
6 10 0 455.35 21.3
-8 10 0 34.5 3
8 -10 0 36.7 2.5
-8 10 0 36.5 3.1
-10 10 0 147.69 8.9
-10 10 0 167.38 9
-10 10 0 136.79 10.8
10 -10 0 159.58 9
-12 -10 0 9.2 1.9
-14 -10 0 17.1 1.9
-1 -11 0 16.3 1.8
1 11 0 14.4 1.3
1 -11 0 17.2 2.3
1 11 0 14.8 1.7
-1 11 0 17.5 1.6
1 11 0 16.7 1.6
-1 11 0 17.8 1.7
3 11 0 128.39 8.2
3 11 0 139.49 7.9
-3 11 0 131.89 8.8
3 11 0 136.19 6.6
-3 11 0 140.89 8
-3 11 0 136.09 7.8
-5 11 0 87.59 5.5
5 11 0 80.99 4.8
-5 11 0 86.39 5.8
7 11 0 53.69 4.2
-7 11 0 67.79 4.7
9 11 0 9.5 1
-9 11 0 8.5 1.9
9 -11 0 9.6 1.4
-9 11 0 9.8 1.1
11 -11 0 35.4 2.8
-11 11 0 42.1 2.7
-13 -11 0 16.5 2.1
0 12 0 15.4 1.7
0 12 0 19.3 1.8
-2 12 0 102.69 6.2
2 12 0 98.79 6.5
2 12 0 100.99 5.1
-2 12 0 112.89 6.9
2 12 0 103.29 6.3
-2 12 0 103.89 6.3
-4 12 0 59.29 4.3
4 12 0 60.29 3.7
-4 12 0 57.59 4.2
-4 12 0 64.59 4.1
6 12 0 32.5 2.9
-6 12 0 36.3 3.3
8 12 0 17.8 1.3
8 -12 0 19.2 1.6
-8 12 0 18.6 1.6
-10 12 0 7.8 1.2
10 -12 0 6.5 1.5
-12 -12 0 17.8 2.4
1 13 0 175.88 8.3
1 13 0 187.08 10.5
-1 13 0 181.88 10.3
1 13 0 185.28 10.4
-1 13 0 190.98 10.4
-1 13 0 179.58 11.9
3 13 0 311.67 14.5
-3 13 0 321.57 20.7
-3 13 0 336.67 17.7
3 13 0 315.97 17.7
-3 13 0 339.27 17.9
5 13 0 195.68 9.6
-5 13 0 197.58 11.5
-9 13 0 68.59 4.3
9 -13 0 70.49 4.4
9 13 0 69.29 4.1
-11 13 0 45 2.9
11 -13 0 38.8 3
-13 -13 0 42.3 3.1
0 14 0 13.4 1.7
0 14 0 13.9 1.7
-2 14 0 16.4 1.9
2 14 0 18.1 1.9
-2 14 0 17.5 1.9
-2 14 0 15.8 1.7
-4 14 0 21 2
-4 14 0 20.8 2.4
-6 14 0 2.7 0.5
-6 14 0 2.9 1.3
8 -14 0 -0.3 0.9
-8 14 0 -0.7 0.7
8 14 0 0.4 0.4
-10 14 0 -0.3 1
10 -14 0 -0.2 1.2
-12 -14 0 -0.4 1.1
-12 14 0 0 1
-1 15 0 156.18 10.6
-1 15 0 163.18 9.4
1 15 0 164.48 9.4
-1 15 0 166.58 9.4
-3 15 0 820.52 44.3
-3 15 0 834.72 44.4
-3 15 0 859.91 52.89
-5 15 0 304.07 17.2
-5 15 0 305.47 16.8
7 15 0 50.09 3.1
-7 15 0 52.19 3.2
-9 15 0 34.3 2.4
9 -15 0 31.3 2.4
9 15 0 32.4 2.1
11 -15 0 7.1 1.5
-11 15 0 11 1.5
0 16 0 95.99 6
0 16 0 92.69 6.5
-2 16 0 572.84 30.4
-2 16 0 562.54 36
-4 16 0 298.57 18.9
-4 16 0 291.97 16.5
-4 16 0 287.37 16.1
-6 16 0 124.89 6.9
6 16 0 123.39 7.2
-6 16 0 123.19 7.2
8 16 0 18.9 1.4
-8 16 0 18.6 1.7
8 -16 0 19.3 1.8
-10 16 0 4.8 1.1
10 -16 0 5 1.4
-12 16 0 10.6 1.4
-1 17 0 193.48 11.4
1 17 0 180.68 11.6
1 17 0 209.18 13
-1 17 0 201.28 13
-3 17 0 130.29 7.2
-3 17 0 115.69 7.9
-3 17 0 138.39 8.8
5 17 0 76.69 4.8
-5 17 0 80.09 4.9
-5 17 0 86.99 4.6
7 17 0 24.8 1.7
7 17 0 22.4 2.6
-7 17 0 26.3 1.9
9 -17 0 0.5 1.1
-9 17 0 1.3 1
9 17 0 1.5 0.5
11 -17 0 5.7 1.6
-11 17 0 10 1.4
0 18 0 1374.46 77.59
0 18 0 1354.26 74.19
0 18 0 1534.65 89.59
-2 18 0 404.96 22.9
-2 18 0 449.16 27
-2 18 0 420.86 23.1
2 18 0 410.26 23.1
4 18 0 296.37 18.3
-4 18 0 323.27 20.5
-4 18 0 332.47 17.5
6 18 0 250.37 14.2
-6 18 0 256.17 13.6
-6 18 0 245.38 14.2
6 18 0 234.28 16.2
8 -18 0 18.9 1.8
8 18 0 16 1.3
-8 18 0 18.5 1.7
-10 18 0 61.89 3.6
10 -18 0 49.99 3.7
-12 18 0 6.6 1
1 19 0 95.39 6.5
-1 19 0 83.19 5.9
-1 19 0 87.29 5.1
-1 19 0 91.49 6.4
1 19 0 89.99 5
3 19 0 24.1 1.6
-3 19 0 22.3 1.7
-3 19 0 26.2 2.5
3 19 0 24.7 1.6
-3 19 0 26.2 1.6
3 19 0 29.1 2.7
-5 19 0 30.1 2.2
-5 19 0 32.6 2.1
5 19 0 33.5 2.1
5 19 0 32.4 3.2
7 19 0 7.7 1
-7 19 0 9.9 1.4
7 19 0 4.8 1.4
9 -19 0 15.3 1.9
-9 19 0 22.1 2
9 19 0 21.6 1.5
-11 19 0 -0.4 1
0 20 0 513.85 27.8
0 20 0 549.15 32.6
0 20 0 462.35 29
2 20 0 285.57 17.5
2 20 0 322.57 19.9
2 20 0 299.77 16.7
-2 20 0 291.17 17.5
-2 20 0 311.37 16.8
-2 20 0 320.17 19.9
-4 20 0 138.29 8.6
4 20 0 145.59 8.2
4 20 0 158.48 10.3
4 20 0 145.99 8.6
-4 20 0 152.98 8.3
6 20 0 19.5 2.8
6 20 0 25.9 1.8
-6 20 0 26.4 1.9
-6 20 0 25.7 1.8
-8 20 0 157.28 8.9
8 -20 0 139.09 8.9
8 20 0 155.88 8.8
-10 20 0 26.3 2
10 -20 0 21.6 2.1
-12 20 0 13.6 1.4
1 21 0 211.58 13.8
1 21 0 202.18 11.4
-1 21 0 197.48 11.9
-1 21 0 220.68 13.8
-1 21 0 208.18 11.4
1 21 0 197.98 11.9
3 21 0 277.47 16.8
-3 21 0 237.38 14.5
3 21 0 250.97 13.9
-3 21 0 245.48 16.6
-3 21 0 256.77 13.9
3 21 0 245.38 14.5
-5 21 0 17.6 1.4
5 21 0 16.5 1.3
-5 21 0 16.9 1.5
7 21 0 111.99 9.1
-7 21 0 146.99 7.8
9 21 0 39.8 2.5
-9 21 0 43.1 2.8
9 -21 0 37.7 2.9
-11 21 0 12.5 1.4
0 22 0 24.5 1.7
0 22 0 26.4 1.7
0 22 0 26.4 2.9
2 22 0 63.89 3.7
2 22 0 61.39 3.8
-2 22 0 65.59 5
2 22 0 65.09 5.1
-2 22 0 60.19 3.8
-2 22 0 64.29 3.7
4 22 0 1.2 1.3
-4 22 0 3.8 0.7
-4 22 0 3.8 0.7
4 22 0 1.8 0.5
4 22 0 2.8 0.6
6 22 0 33.1 3.8
-6 22 0 47.2 2.7
-6 22 0 39.4 2.8
6 22 0 43.4 2.7
-8 22 0 17 1.7
8 -22 0 12.7 1.7
8 22 0 16.5 1.3
-10 22 0 3.9 1
1 23 0 328.07 20.4
-1 23 0 310.77 20.3
1 23 0 304.97 17.8
-1 23 0 294.47 17.8
-1 23 0 306.77 17
1 23 0 310.67 17
3 23 0 48.2 3
-3 23 0 49.3 4.2
3 23 0 46.4 2.9
-3 23 0 51.39 3
-3 23 0 48 3
3 23 0 46.9 4.3
-5 23 0 184.88 10.8
-5 23 0 189.78 10.4
5 23 0 173.28 12.7
5 23 0 194.08 10.8
-7 23 0 79.89 4.9
7 23 0 79.69 4.8
9 -23 0 26.8 2.3
-9 23 0 32.5 2.2
0 24 0 73.29 4.3
0 24 0 73.39 4.2
0 24 0 69.09 5.7
2 24 0 11.1 1
2 24 0 9.8 1
-2 24 0 8.7 1.8
-2 24 0 11.1 1.1
2 24 0 8.4 2
-2 24 0 10.8 1.1
-4 24 0 37.2 2.2
-4 24 0 28.1 2.3
4 24 0 33.1 3.6
4 24 0 31.7 2.3
4 24 0 36.4 2.2
6 24 0 11.1 1.1
-6 24 0 8.1 1.1
6 24 0 5.6 1.8
8 -24 0 3.1 1.3
-8 24 0 3.2 0.9
8 24 0 1.6 0.5
-10 24 0 1.4 0.8
1 25 0 84.19 4.8
-1 25 0 81.89 4.8
1 25 0 82.89 4.9
-1 25 0 81.99 4.9
-1 25 0 83.49 6.4
1 25 0 82.39 6.4
3 25 0 51.49 3.1
3 25 0 52.19 4.5
-3 25 0 44.2 4.2
-3 25 0 53.09 3
-3 25 0 45.2 3.1
3 25 0 49.3 3
5 25 0 25.5 3.3
-5 25 0 29.2 2.2
-5 25 0 31 2.1
5 25 0 30.4 2
7 25 0 14.7 1.2
-7 25 0 16.6 1.6
-9 25 0 26.5 2
0 26 0 8 2
0 26 0 10.5 1.1
0 26 0 10.8 1.1
2 26 0 106.69 8.2
2 26 0 111.69 6.3
2 26 0 113.29 6.5
-2 26 0 105.79 8
-2 26 0 111.89 6.3
-2 26 0 111.39 6.5
-4 26 0 29.5 2
-4 26 0 26.4 2.1
4 26 0 27 3.3
4 26 0 32.3 2
6 26 0 12.1 1.1
-6 26 0 11.9 1.5
-8 26 0 31.1 2.2
-1 27 0 6.3 1.8
-1 27 0 9.2 1.1
1 27 0 9.3 1.1
1 27 0 7.6 2
1 27 0 9.7 1
-1 27 0 9.3 1.1
3 27 0 3.9 1.6
3 27 0 4.7 0.7
3 27 0 6.4 1
-3 27 0 5.7 0.8
-3 27 0 6 0.8
5 27 0 0.9 0.5
-5 27 0 0.7 0.7
7 -27 0 3.2 1.2
7 27 0 2.7 0.5
-7 27 0 5.1 0.9
0 28 0 85.89 4.8
0 28 0 71.99 6.2
0 28 0 80.59 4.7
-2 28 0 7.3 1
2 28 0 6.3 0.8
2 28 0 4.7 2.7
-2 28 0 5.7 0.8
2 28 0 4.1 0.7
4 28 0 27.1 1.8
-4 28 0 24.4 1.9
-4 28 0 25.3 1.8
-6 28 0 33.8 2.3
6 28 0 32.1 2.1
-1 29 0 12.5 1.2
1 29 0 12.8 1.2
-1 29 0 13.7 1.3
1 29 0 11.9 1.2
-3 29 0 4.1 0.7
3 29 0 2.9 0.6
-3 29 0 3.6 0.7
5 29 0 8.3 0.9
-5 29 0 7 0.9
0 30 0 20.4 1.6
0 30 0 21.9 1.6
2 30 0 39.1 2.4
-2 30 0 37.8 2.4
2 30 0 35.3 2.3
-2 30 0 38.5 2.5
4 30 0 2.7 0.6
-4 30 0 2.9 0.7
1 31 0 39.1 2.5
-1 31 0 42.6 2.6
-1 31 0 39.4 2.5
1 31 0 42.8 2.6
-3 31 0 52.49 3.3
3 31 0 53.49 3.2
0 32 0 8.6 1
0 32 0 7.3 0.9
-2 32 0 3.1 0.6
2 32 0 2.8 0.5
0 0 1 -2.6 0.1
2 0 -1 2.5 0.5
2 0 -1 1.9 0.8
-2 0 -1 2.8 0.9
2 0 1 2.1 0.7
-2 0 -1 2.6 0.5
-2 0 1 2.5 0.6
-2 0 1 3.1 1.1
-2 0 1 2.5 0.5
-2 0 -1 4.7 0.8
2 0 -1 3 0.7
2 0 1 2 0.5
2 0 1 2 0.8
-4 0 -1 4.5 1.4
4 0 -1 5.3 1.1
-4 0 1 4.3 0.9
4 0 1 4.7 1
4 0 -1 2.5 1.3
4 0 1 5.9 2
-4 0 -1 4.8 1
-4 0 1 6.1 1.5
4 0 1 3 1.2
-6 0 1 -0.8 1.2
-6 0 -1 1 0.9
-6 0 -1 1.7 1.4
6 0 1 -0.5 1.1
8 0 1 2.7 1
8 0 -1 3.7 1
-10 0 -1 0 1.4
-12 0 -1 1.2 1.6
-12 0 1 -0.2 1.2
-12 0 -1 1.5 1.4
-12 0 1 0.1 1.3
-14 0 1 0.1 1.4
-14 0 -1 -0.2 1.3
1 1 -1 80.89 3.5
-1 -1 -1 76.69 4.2
-1 -1 -1 75.09 3.5
1 1 -1 81.69 4.3
1 -1 1 80.69 3.5
1 1 -1 73.09 4.3
-1 -1 -1 77.79 4.4
1 -1 1 78.89 4.3
1 -1 1 74.49 4.2
-1 1 -1 84.29 3.5
1 -1 -1 77.59 4.3
1 1 1 76.79 4.4
1 1 1 79.39 4.2
1 1 1 75.09 3.5
-1 -1 1 80.99 4.3
-1 -1 1 80.59 3.5
-1 1 -1 81.79 4.2
-1 -1 1 76.99 4.4
-1 1 -1 77.29 4.2
-3 -1 -1 26.6 1.9
3 -1 1 21.9 2.3
-3 1 1 23.2 1.8
3 1 -1 21.7 1.9
-3 1 1 24.2 2.3
3 -1 1 21.7 1.8
-3 -1 -1 23.6 2.4
3 -1 1 21.9 1.8
3 1 -1 22.5 2.3
3 1 -1 22 1.9
-3 1 -1 18.8 1.7
3 -1 -1 23.6 2.4
3 1 1 30.6 2.1
3 1 1 21.1 2.3
3 1 1 23.8 1.9
-3 -1 1 26.7 2.1
-3 1 -1 20.8 2.2
3 -1 -1 30.9 2.2
-3 -1 1 24 2.7
-5 -1 -1 20.9 2.1
5 -1 1 23.3 2.1
5 -1 1 22.9 2.7
5 -1 1 26.4 2.1
5 1 -1 23.6 2.1
-5 1 1 23.9 2.6
5 1 -1 23.7 2.9
5 1 -1 21.7 2.1
-5 1 1 31.5 2.5
-5 1 -1 25.3 2.6
5 1 1 20.1 2.6
-5 -1 1 22.9 2.7
-5 1 -1 22.9 2
5 1 1 23.4 2.1
5 -1 -1 21.2 2.1
-5 -1 1 21.9 2
5 1 1 20.5 2
5 -1 -1 24.5 2.7
7 1 -1 1.7 0.9
7 -1 1 2.1 0.9
7 1 1 2.9 1.4
7 -1 -1 2.2 0.9
7 1 1 2 0.9
9 -1 1 1.9 1
9 -1 -1 3.1 1
-11 1 1 0.1 1.3
-11 -1 -1 -0.2 1.2
-11 1 -1 -2.2 1.2
-11 1 -1 0.1 1.3
-13 -1 -1 1 1.4
-13 1 1 -1.1 1.4
-13 1 1 -0.5 1.2
-13 -1 -1 -1.4 1.4
-13 1 -1 -1.9 1.4
-13 -1 1 0.2 1.3
-13 -1 1 -0.8 1.5
-13 1 -1 -1.2 1.2
-15 -1 -1 -0.6 1.2
-15 1 1 -0.5 1.2
-15 1 -1 0.3 1.2
-15 -1 1 0.8 1.1
0 -2 1 0.3 0.1
0 2 1 0.1 0.2
0 2 -1 0 0.1
0 2 1 0 0.2
0 -2 -1 0 0.1
0 -2 1 0.1 0.1
0 2 -1 0.1 0.1
0 -2 -1 0.3 0.2
2 2 -1 951.9 51.19
-2 2 1 916.41 50.89
2 2 -1 1017.2 41.5
-2 -2 -1 1091.69 51.39
2 -2 1 949.31 50.89
-2 2 1 973.1 41.5
2 -2 1 930.61 51.09
-2 2 1 952.8 51.09
-2 -2 -1 966.3 41.5
2 -2 1 1034 41.5
2 2 -1 1018 50.99
2 -2 -1 981.8 51.19
-2 2 -1 976 41.5
-2 2 -1 1005.7 50.99
-2 2 -1 1027 50.89
-2 -2 1 948.81 51.19
2 2 1 876.31 51.09
-2 -2 1 1004.6 41.5
2 2 1 994.5 41.5
2 -2 -1 1114.19 51.09
-4 -2 -1 119.09 6.9
4 2 -1 119.09 5.8
4 -2 1 125.59 5.8
4 2 -1 105.39 7.2
-4 -2 -1 117.79 7.3
4 2 -1 119.79 6.8
-4 2 1 110.39 6.7
-4 2 1 117.89 7.1
4 -2 1 109.09 7.2
4 -2 1 119.99 6.8
4 -2 -1 116.39 6.8
-4 -2 1 124.59 6.8
4 -2 -1 104.29 7.2
4 2 1 117.99 5.8
4 2 1 135.49 7.8
-4 2 -1 118.59 7
-4 2 -1 127.89 6.8
4 2 1 119.09 6.8
-6 -2 -1 27.7 3.2
-6 2 1 27.5 3
6 2 1 27.3 2.5
-6 2 -1 26.1 2.4
-6 2 -1 28 2.9
8 -2 1 9.5 1.4
8 -2 -1 10.5 1.3
10 -2 1 3.1 1.1
-10 2 -1 0.3 1.2
-10 2 -1 2.1 1.1
-12 2 1 -1.4 1.5
-12 2 1 -0.3 1.3
-12 -2 -1 0 1.4
-12 -2 -1 -0.4 1.3
-12 2 -1 0.1 1.6
-12 2 -1 -0.2 1.3
-12 -2 1 -0.6 1.4
-14 2 1 -1.6 1.3
-14 -2 -1 0.3 1.3
-14 -2 1 0 1.3
-14 2 -1 -1.2 1.3
1 -3 1 96.69 5.3
1 3 -1 96.59 5.3
1 3 -1 93.99 5.4
-1 3 1 95.89 5.4
-1 -3 -1 100.19 5.5
-1 -3 -1 101.69 5.4
1 -3 1 90.19 5.3
1 3 -1 99.59 4.3
-1 3 1 102.69 5.3
1 3 1 95.59 5.3
-1 3 -1 103.59 5.2
-1 -3 1 88.19 5.4
-1 -3 1 102.09 5.3
1 3 1 97.59 5.4
-1 3 -1 101.69 5.3
1 3 1 96.59 4.4
1 -3 -1 101.79 5.4
-1 -3 1 98.49 4.3
-1 3 -1 103.99 4.3
1 -3 -1 93.09 5.4
3 -3 1 2331.77 124.89
3 3 -1 2464.05 101.39
-3 -3 -1 2284.57 124.89
-3 3 1 2693.23 124.69
3 3 -1 2542.45 125.09
-3 -3 -1 2307.57 124.99
3 3 -1 2527.95 124.69
3 -3 1 2274.57 124.59
3 3 1 2378.76 124.69
-3 -3 1 2571.74 125.09
3 -3 -1 2285.37 124.99
3 3 1 2432.26 101.39
-3 3 -1 2553.54 124.59
-3 -3 1 2227.08 124.69
-5 3 1 73.79 4.7
-5 -3 -1 86.59 5.6
5 3 -1 60.09 5.2
5 3 -1 72.59 4.8
5 -3 1 70.19 5.3
5 3 -1 77.59 4.3
-5 3 1 75.89 5.2
-5 -3 -1 78.79 4.9
5 -3 1 77.69 5
5 3 1 69.39 4.7
-5 3 -1 72.99 4.7
5 -3 -1 81.39 4.9
-5 -3 1 84.59 5.6
-5 3 -1 76.89 5.1
5 3 1 80.39 4.3
-5 -3 1 67.79 4.8
5 -3 -1 92.19 6.3
7 -3 1 22.5 1.7
7 -3 -1 23.2 1.7
9 -3 1 3.5 1
-9 3 -1 1 1.3
9 -3 -1 5.1 1.2
-11 -3 -1 0.5 1.4
-11 3 1 -0.6 1.2
-11 3 1 1.6 1.3
11 -3 1 -0.4 1.3
-11 3 -1 1.9 1.5
-11 3 -1 -0.3 1.3
-13 -3 -1 -1.5 1.2
-13 -3 -1 -0.7 1.5
-13 3 1 0.1 1.4
-13 3 1 -0.7 1.4
-13 -3 1 -0.5 1.3
-13 -3 1 0.5 1.4
-13 3 -1 0.1 1.5
-13 3 -1 -0.4 1.2
-15 3 1 1 1.5
-15 -3 -1 1.7 1.2
-15 -3 1 1.5 1.3
-15 3 -1 1.6 1.3
0 -4 -1 6.3 0.9
0 4 1 4.7 0.6
0 4 -1 4.6 0.5
0 4 1 4.4 0.7
0 -4 -1 6.1 0.8
0 -4 1 4.1 0.5
0 4 -1 4.7 0.5
0 -4 1 4.6 0.6
2 4 -1 78.89 4.3
-2 -4 -1 70.89 3.6
-2 -4 -1 69.19 4.3
2 -4 1 74.69 4.3
2 4 -1 71.29 4.5
-2 4 1 73.59 4.3
-2 4 1 76.09 4.4
2 4 -1 77.39 3.7
2 -4 -1 77.79 4.4
2 4 1 76.09 3.7
2 -4 -1 72.09 4.5
-2 4 -1 76.19 3.6
-2 -4 1 75.29 3.6
-2 4 -1 72.99 4.3
2 4 1 66.49 4.3
-2 4 -1 73.69 4.2
-2 -4 1 75.39 4.4
-2 -4 1 77.59 4.7
4 4 -1 170.08 7.9
4 4 -1 169.38 10
-4 4 1 167.58 9.6
-4 4 1 168.88 9.4
-4 -4 -1 169.48 10
-4 -4 -1 193.28 9.7
4 -4 1 165.88 9.4
4 4 -1 171.78 9.4
4 -4 1 144.29 9.7
4 4 1 184.38 10.3
-4 -4 1 165.48 9.5
-4 4 -1 170.58 9.3
4 4 1 167.58 7.9
4 -4 -1 167.88 10
-4 4 -1 163.18 9.5
4 -4 -1 163.08 9.5
-4 -4 1 166.88 10
6 4 -1 10.9 1.9
6 -4 1 14.2 1.2
6 4 1 11.8 1.9
-6 4 -1 15.8 1.8
6 -4 -1 15.1 1.3
8 -4 1 0.2 1
8 -4 -1 1.9 1
-8 4 -1 2 1.1
8 4 1 1.5 1.4
-10 4 1 -0.2 1.2
10 -4 1 -0.7 1.1
10 -4 -1 0.5 1
-10 4 -1 -0.5 1.3
-10 4 -1 0.1 1.2
-12 4 1 0.2 1.5
-12 -4 -1 -1.3 1.2
-12 -4 -1 -0.9 1.3
-12 4 1 -1.7 1.1
-12 4 -1 -0.9 1.5
-12 -4 1 -0.7 1.3
-12 4 -1 -0.9 1.2
-14 -4 -1 0.3 1.4
-14 4 1 -0.6 1.3
-14 -4 1 -0.2 1.4
-14 4 -1 -0.9 1.3
-1 5 1 16.6 1.3
1 -5 1 16.2 1.3
1 5 -1 17 1.3
1 5 -1 15.8 1.4
-1 -5 -1 15.2 1.5
-1 5 1 15.7 1.4
1 -5 1 17.7 1.3
1 5 -1 16.8 1.1
-1 5 -1 18 1.3
-1 -5 1 17.2 1.5
-1 5 -1 17.5 1.3
1 -5 -1 17.2 1.4
1 5 1 17.2 1.2
1 5 1 17.4 1.4
1 -5 -1 15.8 1.4
1 5 1 14.2 1.4
-1 -5 1 16 1.3
3 5 -1 343.27 19.8
3 -5 1 340.47 19.6
3 5 -1 368.36 16
-3 -5 -1 390.76 19.7
3 5 -1 355.06 19.5
-3 5 1 385.76 19.7
-3 -5 -1 367.36 20
3 -5 1 365.76 19.5
-3 5 1 357.06 19.4
-3 5 -1 368.66 19.6
3 5 1 364.76 16.1
3 -5 -1 336.87 19.7
3 5 1 398.26 19.7
-3 5 -1 406.36 19.5
5 5 -1 0.3 1.2
-5 5 1 1.1 0.7
5 5 -1 0.1 0.7
-5 -5 -1 1.1 1.3
-5 5 1 0.8 0.9
5 5 -1 0.8 0.9
-5 5 -1 0.1 0.7
5 5 1 0.4 1.1
-5 5 -1 0.9 0.7
-5 5 -1 0.3 1
5 5 1 0.2 0.9
7 -5 1 99.59 5.8
7 5 1 87.59 5.7
-7 5 -1 105.49 7
7 -5 -1 96.29 5.8
-7 5 -1 99.09 6.8
9 -5 -1 4.7 1.2
-9 5 -1 3.4 1.4
11 -5 1 0.7 1.2
-11 5 1 1.7 1.5
-11 5 1 -0.3 1.4
-11 -5 -1 0 1.4
-11 5 -1 3.3 1.5
-11 5 -1 1 1.4
-13 -5 -1 2 1.6
-13 5 1 3.2 1.5
-13 -5 -1 0.3 1.3
-13 5 1 0.5 1.4
-13 5 -1 1 1.4
-13 -5 1 0.7 1.4
-13 5 -1 2.9 1.6
-13 -5 1 1.9 1.4
-15 -5 -1 1.4 1.4
-15 -5 1 1.7 1.4
0 6 -1 2.6 0.7
0 -6 1 2.4 0.7
0 -6 1 1.4 0.5
0 -6 -1 3.1 0.9
0 6 -1 2 0.5
0 6 1 1.9 0.6
0 -6 -1 1.6 0.6
0 6 1 2 0.6
2 6 -1 21.1 1.5
2 -6 1 18.6 1.6
-2 6 1 17.6 1.6
2 6 -1 19.4 1.6
2 -6 1 16.7 1.6
2 6 -1 17.9 1.8
-2 6 1 21.6 1.8
-2 -6 -1 25.2 2.4
-2 -6 1 19.8 1.4
2 6 1 19.3 1.5
-2 6 -1 18.4 1.4
2 -6 -1 16.2 1.7
-2 6 -1 19.6 1.6
-2 6 -1 18.9 1.5
-2 -6 1 20.5 1.8
2 -6 -1 19.4 1.7
-2 -6 1 21.5 2.1
2 6 1 19.1 1.9
2 6 1 18.7 1.6
4 6 -1 49.1 3
-4 6 1 48.5 3.2
-4 -6 -1 52.09 3.5
-4 6 1 49 3.5
4 6 -1 45.3 3.6
4 6 -1 45.7 3.2
-4 -6 -1 50.79 3.9
4 -6 1 45.4 3.3
-4 -6 1 50.69 4.2
4 6 1 49.99 3
4 6 1 47.4 3.3
4 -6 -1 48.5 3.4
-4 6 -1 47.6 3.4
-4 6 -1 50.19 3.4
-4 6 -1 46.6 3.1
-4 -6 1 46.9 3.4
4 -6 -1 42.9 3.6
-6 6 1 23.1 2.7
6 6 -1 20.6 2.3
6 -6 1 22.8 1.6
-6 6 -1 23.8 2.1
-6 6 -1 22 2.2
-6 6 -1 23.2 2.5
6 -6 -1 21.3 1.6
6 6 1 21.1 2.3
8 -6 1 7.4 1.1
-8 6 1 6.2 1.4
8 6 1 3.1 1.6
-8 6 -1 3.8 1.3
-8 6 -1 4.8 1.4
8 -6 -1 7.6 1.2
-10 6 1 0.1 1.2
10 -6 1 0.6 1
-10 6 1 0.7 1.4
-10 6 1 0.9 0.9
-10 6 -1 -0.1 1.2
-10 6 -1 0.9 1.3
-10 6 -1 1.4 0.9
10 -6 -1 1.3 1
-12 -6 -1 0.5 1.2
-12 6 1 0.1 1.4
-12 6 1 1.9 1.5
-12 -6 -1 -1.1 1.2
-12 6 -1 0 1.4
-12 -6 1 -0.1 1.3
-12 6 -1 0.3 1.3
-14 -6 -1 -1.6 1.3
-14 6 1 0.9 1.2
-14 6 -1 -0.5 1.3
-14 -6 1 0.8 1.4
1 7 -1 28.4 1.9
-1 -7 -1 27.8 2.1
1 7 -1 25.1 2
1 -7 1 24.4 2
-1 -7 -1 27 2.2
1 7 -1 27 1.6
1 -7 1 26.2 2
-1 7 1 26.9 2
-1 7 1 25.4 2
1 -7 -1 27.2 2.1
1 7 1 25.1 1.6
-1 -7 1 26.5 2.2
1 7 1 26.5 2.1
1 -7 -1 25.6 2
1 7 1 34.3 2.3
-1 7 -1 26 1.9
-1 7 -1 27.3 1.9
-1 -7 1 27.1 2
3 7 -1 14.8 1.7
3 7 -1 13.6 1.4
3 -7 1 13.9 1.5
-3 -7 -1 16.1 2
-3 7 1 14.6 1.6
3 7 -1 14.9 1.6
-3 7 1 12.9 1.4
3 7 1 12.6 1.7
-3 -7 1 15.7 2
-3 7 -1 13.2 1.3
3 7 1 13.8 1.5
3 -7 -1 12.5 1.7
3 7 1 11.4 1.4
-3 -7 1 14.3 1.6
3 -7 -1 12.8 1.5
-3 7 -1 12.9 1.5
-5 7 1 66.99 4.4
-5 7 1 65.89 4.7
5 7 -1 68.59 4
5 7 -1 63.19 4.4
-5 7 -1 67.89 4.6
-5 7 -1 68.19 4.7
-5 7 -1 68.29 4.3
5 7 1 65.49 4
7 7 -1 10 2
7 -7 1 12.8 1.3
-7 7 1 9.7 1.6
7 7 1 6.1 1.7
-7 7 -1 10.1 2.2
-7 7 -1 10.9 1.6
-7 7 -1 13.2 1.6
7 -7 -1 11.2 1.3
-9 7 1 8 1.1
9 -7 1 9.9 1.4
-9 7 1 7.1 1.6
-9 7 1 6 1.6
-9 7 -1 6.5 1.6
-9 7 -1 7.3 1.5
9 -7 -1 9 1.4
-9 7 -1 8.4 1.1
-11 7 1 0.5 1.5
-11 7 1 -0.6 1.4
11 -7 1 1.7 1.3
-11 -7 -1 -0.7 1.4
-11 7 -1 0 1.3
-11 7 -1 1.2 1.5
-13 -7 -1 -0.5 1.3
-13 7 1 -0.8 1.4
-13 7 1 -0.6 1.3
-13 -7 -1 -0.4 1.5
-13 -7 1 -0.1 1.2
-13 7 -1 0.9 1.4
-13 -7 1 -0.6 1.4
-13 7 -1 -0.5 1.4
0 -8 -1 4.9 1
0 8 -1 3.9 0.8
0 -8 1 4.1 0.8
0 8 1 5.8 1
0 -8 -1 4.1 1
0 8 -1 5.8 0.9
0 8 1 4.4 0.9
0 -8 1 4.1 1
-2 -8 -1 19.4 1.9
-2 8 1 19.5 1.7
2 8 -1 20.7 1.9
2 -8 1 19.1 1.7
2 8 -1 21.2 1.7
-2 -8 -1 18.3 2
2 8 -1 19.8 1.5
-2 8 1 19.6 1.7
-2 -8 1 19.8 2.1
2 8 1 18.5 1.5
-2 8 -1 19.1 1.5
-2 8 -1 18.7 1.4
2 8 1 17.6 1.8
2 -8 -1 16.4 1.8
2 -8 -1 18.6 1.8
-2 -8 1 19.2 1.8
-2 8 -1 17.9 1.6
2 8 1 18.5 1.7
-2 8 -1 17.4 1.6
4 8 -1 6.7 1.3
-4 8 1 8.8 1.1
4 8 -1 6.4 1.5
-4 8 1 7.9 1.4
4 8 -1 6.6 1.3
-4 8 1 7.6 1.5
-4 8 -1 7.9 1.4
-4 8 -1 5.9 0.9
4 8 1 5.9 1.2
4 8 1 6.8 1.4
-4 8 -1 6.1 0.9
-4 8 -1 7.9 1.2
4 8 1 5.6 1.5
6 8 -1 132.29 7.2
-6 8 1 145.89 9.5
-6 8 1 142.89 8.8
-6 8 -1 146.39 9.6
-6 8 -1 135.79 8.6
-6 8 -1 135.59 8.2
6 8 1 132.99 7.2
-8 8 1 7 1.5
-8 8 1 5.9 1.5
8 -8 1 9.7 1.2
-8 8 -1 6.6 1.5
8 -8 -1 9.8 1.2
-8 8 -1 8.7 1.5
10 -8 1 10.8 1.5
-10 8 1 12.7 1.4
-10 8 1 7 1.7
-10 8 -1 7.1 1.8
-10 8 -1 13.4 1.4
10 -8 -1 10.8 1.5
-12 8 1 -1 1.4
-12 -8 -1 0.1 1.4
-12 8 1 1.6 1.6
-12 8 -1 1.2 1.6
-12 -8 1 0.3 1.4
-12 8 -1 2 1.5
-14 -8 -1 1.2 1.4
-14 -8 1 0.8 1.4
-14 8 -1 0.8 1.4
1 -9 1 15.3 1.6
-1 9 1 14.6 1.5
1 9 -1 14.4 1.4
-1 9 1 14.8 1.5
1 9 -1 12.9 1.1
-1 -9 -1 14.2 1.8
1 9 -1 14.2 1.5
-1 -9 -1 13 1.5
-1 -9 1 14.3 1.7
1 9 1 14.9 1.3
1 9 1 14.1 1.6
-1 9 -1 14.1 1.4
1 -9 -1 13.7 1.6
1 -9 -1 14.2 1.6
-1 -9 1 13.8 1.5
-1 9 -1 11.2 1.3
-1 9 -1 16.5 1.4
1 9 1 14.3 1.5
3 9 -1 6.1 1.1
3 9 -1 7.4 1.2
-3 9 1 6.7 1.2
-3 -9 -1 10.5 2
-3 9 1 6.6 1.3
-3 9 1 6.2 0.9
3 9 -1 6.6 1.4
-3 -9 -1 7.3 1.7
-3 -9 1 6.3 1.6
-3 -9 1 6 1.2
3 9 1 11.4 2.3
3 9 1 8.8 1.3
-3 9 -1 6.3 0.9
-3 9 -1 6.7 1.2
3 -9 -1 6.9 1.4
3 9 1 5.4 1.2
-3 9 -1 7.3 1.1
-5 9 1 7.8 1.5
-5 9 1 7.6 1.6
-5 9 1 11.1 1.2
5 9 -1 9.3 1.6
-5 9 -1 9.7 1.5
5 9 1 8 1.7
-5 9 -1 9.8 1.2
-5 9 -1 11.4 1.9
-7 9 1 0.7 1
-7 9 1 0.8 1.4
7 9 -1 1.6 1.3
7 -9 1 0.5 0.8
7 -9 -1 0.9 0.8
-7 9 -1 1.3 1
7 9 1 0.6 1.1
-7 9 -1 0.5 1.2
-7 9 -1 0.8 1.1
-9 9 1 2.2 0.9
-9 9 1 1.5 1.2
9 -9 1 0.6 1
-9 9 1 2.9 1.3
9 9 -1 1.5 0.4
-9 9 -1 0.9 1.2
9 -9 -1 1.6 1
-9 9 -1 1 0.9
-9 9 -1 1.3 1.2
-11 9 1 2 1.1
-11 9 1 1.8 1.5
11 -9 1 1.5 1.2
-11 9 1 0.7 1.3
-11 -9 -1 1.6 1.4
-11 9 -1 1.5 1.4
-11 9 -1 2.1 1.1
11 -9 -1 2.5 2
-11 9 -1 1.4 1.5
-13 -9 -1 -0.5 1.5
-13 -9 1 -0.4 1.2
-13 9 -1 -1 1.3
0 10 -1 0.2 0.6
0 -10 1 -0.2 0.7
0 -10 -1 0.4 0.8
0 10 1 0.3 0.7
0 10 1 0 0.6
0 -10 -1 0.5 0.7
0 10 -1 0.3 0.6
-2 10 1 14.2 1.6
-2 10 1 15.4 1.5
2 10 -1 13 1.3
2 10 -1 15.4 1.7
2 10 -1 14.4 1.5
-2 -10 -1 15.8 2.4
-2 10 -1 13.2 1.4
2 10 1 14.6 1.7
-2 10 -1 13.6 1.5
2 10 1 14.4 1.5
2 -10 -1 14.7 1.7
-2 10 -1 12.9 1.4
2 -10 -1 13.5 1.7
2 10 1 13.8 1.3
-2 -10 1 14.4 1.7
-2 -10 1 15.1 2.3
4 10 -1 8.8 1.5
-4 10 1 8.9 1.6
-4 10 1 7.6 1.3
4 10 -1 6.8 1.2
-4 10 1 8.1 1.2
4 10 1 9.6 1.6
-4 10 -1 8.4 1.2
-4 10 -1 11 1.5
-4 10 -1 10 1.3
-4 10 -1 9.9 1.1
-6 10 1 31.8 2.7
6 10 -1 33.2 2.9
-6 10 1 37.4 4.5
-6 10 -1 32.8 3.5
-6 10 -1 37.4 3.2
6 10 1 31.9 2.9
-6 10 -1 33.6 2.8
8 -10 1 9.3 1.2
-8 10 1 8.2 1.6
8 -10 -1 10.4 1.3
-8 10 -1 8.3 1.5
-8 10 -1 7.4 1.5
10 -10 1 36.1 2.7
-10 10 1 40.9 2.6
10 -10 -1 34 2.7
-10 10 -1 38.5 2.6
-10 10 -1 27.3 2.9
-12 -10 -1 0.1 1.4
-12 -10 1 0.2 1.5
-14 -10 -1 2.2 1.4
-14 -10 1 2 1.3
1 11 -1 9.8 1.2
1 11 -1 9 1
-1 -11 -1 8.1 1.9
-1 11 1 8.8 1.4
-1 11 1 10.2 1.5
1 11 -1 9.4 1.4
-1 11 -1 9.3 1.2
-1 11 -1 9.4 1.2
-1 11 -1 10.2 1.2
1 11 1 11.8 1.3
1 11 1 10 1.3
1 11 1 10.7 1.6
1 -11 -1 11.4 2
3 11 -1 3.5 1
3 11 -1 5.5 1.2
-3 11 1 5.2 0.9
-3 11 1 3.7 1
-3 11 1 5.9 1.3
3 11 -1 4.2 1.4
-3 11 -1 5.4 1.1
3 11 1 3.6 0.9
-3 11 -1 3.9 1
-3 11 -1 5.2 0.9
3 11 1 5.7 1.3
5 11 -1 2.8 1.2
-5 11 1 1.9 1.1
-5 11 -1 2.1 0.9
-5 11 -1 1.5 0.9
-5 11 -1 1.7 0.9
5 11 1 0.3 1.1
7 11 -1 3.2 1.6
7 11 1 2.2 1.3
-7 11 -1 5.6 1.2
9 -11 1 0.8 1
9 11 -1 1.4 0.4
-9 11 1 1.9 0.9
-9 11 -1 0.9 1.1
9 -11 -1 0.8 1
-9 11 -1 0.9 0.8
11 -11 1 7 1.5
-11 -11 -1 3.9 1.6
11 -11 -1 6.7 1.6
-13 -11 -1 0.8 1.5
-13 -11 1 1.9 1.3
0 12 1 1.4 0.8
0 12 -1 1 0.6
0 12 -1 1 0.5
0 12 -1 0.4 0.6
0 12 1 0.9 0.8
-2 12 1 3.3 1
-2 12 1 3.8 1.1
2 12 -1 3.3 1.1
-2 12 1 5.5 0.9
2 12 -1 2.5 0.9
2 12 -1 5.5 1
2 12 1 4 1
-2 12 -1 5.3 1.2
-2 12 -1 3.8 1
-2 12 -1 6 1
2 12 1 4.8 1.1
2 12 1 5.4 1.5
-4 12 1 2.8 0.9
-4 12 1 3.9 1.3
-4 12 1 4.7 1.2
4 12 -1 4.6 1.3
4 12 1 5.3 1.4
-4 12 -1 4.9 1.1
-4 12 -1 3.6 0.9
-4 12 -1 5.2 1.2
6 12 -1 -1 1.1
-6 12 -1 0.6 1
6 12 1 0.7 1.2
8 12 -1 1 0.4
8 -12 1 0.5 0.9
-8 12 1 1.3 0.8
-8 12 -1 0.9 0.8
8 -12 -1 1.5 1
8 12 1 1.1 0.6
10 -12 1 3 1.3
-10 12 1 0.3 1
10 -12 -1 0.5 1.4
-10 12 -1 3.2 1
-12 -12 -1 0.9 1.3
-12 -12 -1 -0.1 1.4
-12 -12 1 -0.7 1.3
-1 13 1 9 1.5
1 13 -1 9 1.5
1 13 -1 8.7 1.4
1 13 -1 11.3 1.5
-1 13 1 9.3 1.5
1 13 1 8.3 1.5
-1 13 -1 9.5 1.4
1 13 1 11.3 1.4
-1 13 -1 8.6 1.3
-1 13 -1 8.7 1.4
1 13 1 11 1.6
-3 13 1 13.4 1.7
3 13 -1 15.6 2.1
-3 13 1 13.3 1.6
3 13 -1 14.8 1.7
-3 13 1 16.6 2
-3 13 -1 11.2 1.6
3 13 1 12.8 1.8
-3 13 -1 12.4 1.7
-3 13 -1 12.7 1.6
-5 13 1 7.4 1.6
5 13 1 9.8 1.8
-5 13 -1 9.4 1.5
-5 13 -1 7.9 1.6
-9 13 1 2.6 1
9 -13 1 2.4 1.1
-9 13 -1 3.2 1
9 -13 -1 2.4 1.2
11 -13 1 3.5 1.4
-11 13 1 6.1 1.1
11 -13 -1 2.6 1.8
-11 13 -1 10.4 1.5
-13 -13 -1 18.3 2.1
-13 -13 1 16.8 2.1
0 14 -1 1.9 0.8
0 14 1 1.6 0.9
0 14 -1 1.7 0.8
0 14 -1 1 0.8
0 14 1 1.2 0.8
0 14 1 1.8 0.8
-2 14 1 0.9 0.9
-2 14 1 0.4 0.8
2 14 -1 0.4 0.7
-2 14 1 0.3 0.7
2 14 -1 0.2 0.7
-2 14 -1 1.3 0.8
2 14 1 0.9 0.8
-2 14 -1 -0.1 0.7
-2 14 -1 -0.1 0.7
2 14 1 0.1 0.8
-4 14 1 1.8 0.8
-4 14 1 1 1
-4 14 -1 2.4 1
-4 14 -1 1.8 0.9
-4 14 -1 2.8 1.1
-6 14 1 -0.9 0.4
-6 14 -1 -0.2 1
-6 14 -1 -0.8 0.4
8 14 -1 -0.7 0.4
-8 14 1 -0.8 0.7
8 -14 1 -1 0.9
8 14 1 -0.7 0.4
8 -14 -1 -1.7 0.9
-8 14 -1 -0.4 0.7
10 -14 1 -2.2 1.1
10 -14 -1 -1.9 1.2
-10 14 -1 -1.2 1
-12 -14 -1 -2.4 1.2
-12 14 -1 0.1 1
1 15 -1 13 1.7
-1 15 1 16.6 1.9
1 15 -1 13.5 1.7
-1 15 1 13.2 1.6
1 15 -1 13.1 1.8
1 15 1 13 1.9
-1 15 -1 12.4 1.6
-1 15 -1 12.3 1.6
-1 15 -1 12.2 1.6
-3 15 1 1.3 0.9
-3 15 -1 2.5 0.9
-3 15 -1 2.7 1
-5 15 1 4.5 0.6
-5 15 -1 3.2 0.6
-5 15 -1 4.3 1.3
-7 15 1 6 0.9
7 15 -1 5.2 0.7
-7 15 -1 7.8 1.1
7 15 1 6.8 0.8
9 -15 1 1.1 1.1
-9 15 1 -0.3 0.9
9 15 -1 0.9 0.5
-9 15 -1 1.3 1
9 -15 -1 0.5 1.2
11 -15 1 1.9 1.4
-11 15 1 1.9 1
-11 15 -1 1.9 1.1
-13 -15 1 1.3 1.4
0 16 -1 0.2 0.8
0 16 -1 0.5 0.8
0 16 -1 -0.3 0.8
0 16 1 0.4 0.8
-2 16 1 6.1 1.5
2 16 -1 5.4 1.4
2 16 -1 4.2 1.2
-2 16 1 4.1 1.2
-2 16 -1 6.6 1.3
-2 16 -1 7.7 1.5
-2 16 -1 5.2 1.2
-4 16 1 5.4 0.6
-4 16 1 3.9 1.2
-4 16 1 5.7 1.7
-4 16 -1 4.5 1.2
-4 16 -1 5.5 1.4
-4 16 -1 5.1 1.3
-4 16 -1 5.3 0.6
-6 16 1 1.9 0.6
6 16 -1 -1 1
6 16 -1 0.7 0.4
-6 16 1 0.2 0.5
-6 16 -1 1.3 0.6
-6 16 -1 0.7 0.5
6 16 1 1.3 0.4
8 -16 1 0.8 1.1
-8 16 1 1.1 0.8
8 16 -1 0.9 0.5
-8 16 -1 1.5 0.8
8 -16 -1 0.6 1.1
8 16 1 1.8 0.5
10 16 -1 2.4 0.6
10 -16 1 3.6 1.3
-10 16 1 2 1.1
10 -16 -1 1 1.3
-10 16 -1 2.7 1
-12 16 1 0.8 0.9
-12 16 -1 1.8 1
1 17 -1 24.1 2.4
-1 17 1 23.1 2.4
1 17 -1 21.4 2.3
-1 17 1 24.2 2.6
-1 17 -1 24.8 2.4
-1 17 -1 25.5 2.4
-1 17 -1 24.3 2.4
-3 17 1 1.1 1.2
3 17 -1 1.8 1.1
-3 17 1 1.2 0.4
-3 17 1 0.7 1
-3 17 -1 2.3 1.1
-3 17 -1 2.5 1
-3 17 -1 1.1 1
-3 17 -1 1.6 0.4
-5 17 1 0.6 0.5
5 17 -1 0.9 0.4
-5 17 1 1.8 0.6
5 17 -1 0.7 1.1
5 17 1 0.6 0.4
-5 17 -1 0.4 0.5
-5 17 -1 1.6 0.8
7 17 -1 -0.4 0.4
-7 17 1 -0.1 0.7
7 17 -1 -0.8 1
-7 17 -1 0 0.7
7 17 1 0.2 0.4
9 -17 1 3.2 1.3
9 17 -1 2.7 0.5
-9 17 1 4 1.1
9 -17 -1 3.1 1.3
-9 17 -1 4.3 1
11 -17 1 -0.5 1.2
-11 17 1 -0.5 1
-11 17 -1 -1.1 1
0 18 -1 0 1.1
0 18 -1 2.8 1.3
0 18 1 2.2 0.5
0 18 1 1.1 1.1
2 18 -1 7.8 1.7
2 18 -1 6.8 0.8
-2 18 1 5 1.4
-2 18 1 7.3 0.8
2 18 1 7.8 1.2
-2 18 -1 10.9 1.8
-2 18 -1 8.6 0.8
-2 18 -1 7.3 1.6
4 18 -1 4.3 1.5
-4 18 1 5.5 0.7
4 18 -1 6.2 0.7
-4 18 -1 4.4 0.6
-4 18 -1 3.7 1.3
6 18 -1 6.4 0.9
-6 18 1 9.6 1.2
6 18 1 6.8 0.9
-6 18 -1 9.7 1.1
8 -18 1 22.9 2
-8 18 1 22.7 1.9
8 18 -1 23.1 1.6
-8 18 -1 22 1.9
8 -18 -1 23 2
8 18 1 20.8 1.6
10 18 -1 2.5 0.9
10 -18 1 2.9 1.3
-10 18 1 4.9 1.1
-10 18 -1 4.4 1.1
10 -18 -1 4.3 1.4
-12 18 1 -0.1 0.9
-12 18 -1 0.9 0.9
1 19 -1 1.7 1.2
-1 19 1 2.3 1.2
1 19 -1 1.9 1.2
-1 19 1 2.4 0.5
1 19 -1 2.7 0.5
1 19 1 1.9 0.5
-1 19 -1 1.1 1.1
1 19 1 2.6 1.2
-1 19 -1 2.3 0.5
-1 19 -1 2.1 1.2
-3 19 1 1.3 0.5
-3 19 1 2.9 0.5
3 19 -1 1.7 1.2
-3 19 1 1 1
3 19 -1 0.3 0.4
3 19 -1 1.1 0.4
3 19 1 1.7 0.4
-3 19 -1 1.5 1
3 19 1 0.9 0.4
-3 19 -1 1.6 0.7
-3 19 -1 1.8 0.5
5 19 -1 2.6 1.3
-5 19 1 3.8 0.7
5 19 -1 2.8 0.5
-5 19 1 2.7 0.6
-5 19 -1 2.4 0.6
-5 19 -1 4 0.7
5 19 1 3.3 0.5
7 19 -1 5.6 0.8
-7 19 1 6.5 1
7 19 -1 2.3 1.3
7 19 1 1.8 1.4
-7 19 -1 6.3 0.9
7 19 1 4.6 0.7
-9 19 1 2 1.1
9 -19 1 -0.4 1.2
9 19 -1 0.4 0.6
-9 19 -1 1.5 1
9 -19 -1 2.2 1.3
-11 19 1 -1.3 0.9
11 -19 1 -0.4 1.2
-11 19 -1 -0.1 1
0 20 1 1.1 0.5
0 20 1 2.1 0.4
0 20 -1 1.9 0.5
0 20 1 0.2 1.2
0 20 -1 2 0.4
0 20 -1 -1.3 1.2
2 20 -1 15.5 1.2
-2 20 1 15.8 1.3
-2 20 1 18.3 1.2
2 20 -1 17.7 1.2
-2 20 1 15.8 2.2
2 20 -1 15.3 2.3
2 20 1 14.1 1.2
-2 20 -1 15.2 1.2
2 20 1 16.3 1.2
2 20 1 14.1 2.3
-2 20 -1 16 1.2
-2 20 -1 12.8 2.1
4 20 -1 13.2 2.3
4 20 -1 12.5 1.2
-4 20 1 12.2 1.2
4 20 -1 14.7 1.1
-4 20 1 13.9 1.2
-4 20 -1 16.1 1.2
-4 20 -1 12.8 2.1
4 20 1 16.9 1.2
-4 20 -1 14.1 1.2
4 20 1 15.4 2.3
6 20 -1 28.1 1.7
-6 20 1 26.5 1.9
-6 20 1 26 1.8
6 20 -1 20.1 2.8
6 20 1 22.2 2.9
6 20 1 23 1.8
-6 20 -1 25.8 1.9
-6 20 -1 24.5 1.8
8 -20 1 10.5 1.6
-8 20 1 13.3 1.5
8 20 -1 8.6 1.1
8 20 1 11.6 1.2
-8 20 -1 14.4 1.5
8 -20 -1 11.1 1.6
10 -20 1 1.2 1.1
-10 20 1 1.2 1
-10 20 -1 2.4 1
10 -20 -1 0 2.1
-12 20 -1 0.6 0.8
1 21 -1 4.1 1.6
-1 21 1 6.7 0.8
1 21 -1 6.3 0.7
-1 21 1 5.4 0.7
1 21 -1 5.7 0.8
-1 21 1 4.7 1.5
1 21 1 3.2 1.5
1 21 1 5.5 0.7
-1 21 -1 3.3 1.4
-1 21 -1 6.4 0.8
1 21 1 6.7 0.8
-1 21 -1 5.6 0.8
-3 21 1 3.1 0.6
-3 21 1 0.7 1.2
-3 21 1 2 0.6
3 21 -1 2.8 0.5
3 21 -1 0.5 1.3
3 21 -1 2.3 0.5
-3 21 -1 4.1 0.6
-3 21 -1 2.1 1.3
3 21 1 2.5 0.5
3 21 1 3.9 0.5
3 21 1 2.7 1.5
-3 21 -1 3.1 0.6
-5 21 1 8.3 1.1
5 21 -1 7.9 0.9
-5 21 1 5.2 0.8
5 21 -1 3.3 1.6
-5 21 -1 5.1 0.8
5 21 1 6 0.9
5 21 1 4 1.6
-5 21 -1 5.4 0.8
-7 21 1 11.4 1.6
7 21 -1 8.8 1.2
7 21 1 11.8 1.2
-7 21 -1 13.9 1.5
9 -21 1 1.4 1.2
9 21 -1 0.8 0.5
-9 21 1 0.9 1
-9 21 -1 2.2 1
9 -21 -1 -0.8 1.2
-11 21 1 0.1 0.8
-11 21 -1 -0.5 0.9
0 22 -1 1.2 1.3
0 22 1 1.4 0.5
0 22 -1 1.3 0.5
0 22 1 1.4 0.5
0 22 -1 1.4 0.5
0 22 1 1.1 1.3
-2 22 1 4.8 0.7
-2 22 1 5.3 1.5
-2 22 1 5.9 0.9
2 22 -1 5 1.6
2 22 -1 5.3 0.6
2 22 -1 5.5 0.7
-2 22 -1 5.7 0.7
-2 22 -1 5.5 0.7
2 22 1 5.2 1.6
-2 22 -1 5.7 1.6
2 22 1 4.9 0.7
2 22 1 5.9 0.6
4 22 -1 5.9 1.7
-4 22 1 8.1 0.9
4 22 -1 5.5 0.9
-4 22 1 7.4 0.8
4 22 -1 5.1 0.7
-4 22 -1 5.9 0.8
4 22 1 6.2 0.7
-4 22 -1 6.4 0.9
4 22 1 6.6 1.8
-6 22 1 6.7 1
6 22 -1 4.7 0.7
6 22 -1 4.5 1.6
6 22 1 3.6 1.5
-6 22 -1 7.1 0.9
-6 22 -1 5.9 0.9
6 22 1 8.5 1
8 22 -1 -0.8 0.5
8 -22 1 0.8 1.1
-8 22 1 -0.1 0.9
-8 22 -1 1.3 0.9
8 -22 -1 -0.1 1.2
8 22 1 -0.1 0.5
-10 22 1 -0.6 0.9
10 -22 1 -0.4 1.1
-10 22 -1 0 0.9
-1 23 1 32.9 2.2
1 23 -1 33.2 2.1
-1 23 1 32.8 2.2
-1 23 1 33.2 3.4
1 23 -1 29.5 3.4
1 23 -1 31 2.1
1 23 1 36.2 2.2
-1 23 -1 35.3 2.2
1 23 1 34.6 2.1
-1 23 -1 35 2.2
1 23 1 33 3.4
-1 23 -1 36.2 3.4
-3 23 1 9.8 1.9
3 23 -1 12.3 1.1
-3 23 1 11.6 1.2
-3 23 1 12.4 1.2
3 23 -1 10.2 2.2
3 23 -1 13.7 1.1
-3 23 -1 11.9 1.2
-3 23 -1 10.8 1.2
-3 23 -1 10.4 2
3 23 1 11.5 1.1
3 23 1 10.2 2.1
3 23 1 10.6 1.1
5 23 -1 12.4 1.2
-5 23 1 12.1 1.3
5 23 -1 7.8 2.1
-5 23 1 11.4 1.4
5 23 1 8 2
5 23 1 15.1 1.2
-5 23 -1 14.5 1.4
-5 23 -1 11.8 1.3
-7 23 1 4 0.9
7 23 -1 0.2 1.4
7 23 -1 3.1 0.7
7 23 1 3.7 0.6
-7 23 -1 5.4 1
9 23 -1 0.9 0.5
-9 23 1 2.5 1
9 -23 1 1.7 1.1
-9 23 -1 2.9 1
0 24 -1 0.6 0.5
0 24 1 0.2 0.5
0 24 1 -0.1 0.5
0 24 -1 0.6 0.5
0 24 1 -0.6 1.3
0 24 -1 0.2 1.2
2 24 -1 0.5 0.5
2 24 -1 -0.8 1.3
2 24 -1 0.4 0.5
-2 24 1 0.7 0.5
-2 24 1 0 0.5
-2 24 1 0.8 1.2
-2 24 -1 0.6 0.5
2 24 1 0.7 1.4
2 24 1 1 0.5
-2 24 -1 0.2 0.5
-2 24 -1 0 1.2
2 24 1 0.7 0.5
-4 24 1 3.8 0.7
4 24 -1 2.1 1.5
-4 24 1 3.3 0.8
4 24 -1 3.1 0.6
4 24 -1 2.3 0.5
4 24 1 3.1 1.6
-4 24 -1 4.1 0.7
-4 24 -1 3.3 0.7
4 24 1 3.2 0.6
-6 24 1 -0.9 0.8
6 24 -1 -0.6 1.3
6 24 -1 -0.2 0.5
-6 24 -1 -0.4 0.7
6 24 1 -0.3 0.5
6 24 1 -0.1 1.4
8 24 -1 -0.7 0.5
-8 24 1 -0.2 0.9
8 -24 1 -0.9 1.1
8 -24 -1 0.5 1.3
-8 24 -1 -0.8 0.8
8 24 1 -0.7 0.4
-10 24 1 -0.1 0.8
-10 24 -1 0.4 0.8
1 25 -1 32.6 3.5
1 25 -1 34.3 2.2
-1 25 1 34.4 2.2
1 25 -1 33.6 2.1
-1 25 1 36 2.2
-1 25 1 30.7 3.3
1 25 1 31.9 2.2
1 25 1 33.1 2.1
-1 25 -1 30 2.1
-1 25 -1 31.2 2.2
-1 25 -1 31.5 3.4
1 25 1 30 3.4
3 25 -1 14.1 1.2
-3 25 1 14.2 1.3
3 25 -1 9.6 2.1
3 25 -1 12.9 1.2
-3 25 1 13 1.3
3 25 1 13.8 1.2
-3 25 -1 15 1.3
3 25 1 13 1.2
-3 25 -1 13.1 1.3
3 25 1 10.4 2.2
-3 25 -1 10.6 2
-5 25 1 -0.1 0.6
-5 25 1 -0.9 0.7
5 25 -1 0.3 0.5
5 25 -1 0.2 1.4
5 25 1 0.3 0.5
5 25 1 -1 1.3
-5 25 -1 0.3 0.6
-5 25 -1 0.5 0.7
7 25 -1 3.1 0.6
-7 25 1 4.6 0.9
-7 25 -1 3.2 0.9
7 -25 -1 5.2 1.4
7 25 1 2 0.5
-9 25 1 2.4 0.9
-9 25 -1 2.3 0.9
0 26 -1 0.4 0.6
0 26 1 0.3 1.3
0 26 -1 0.3 0.5
0 26 1 0.7 0.5
0 26 -1 -1.1 1.3
0 26 1 0.5 0.5
-2 26 1 1.6 0.6
-2 26 1 1.4 0.6
2 26 -1 1.2 0.5
2 26 -1 1.5 0.5
-2 26 1 -0.2 1.3
2 26 -1 0.4 1.3
2 26 1 0.9 0.6
-2 26 -1 1 0.6
2 26 1 0.7 0.6
-2 26 -1 0.2 1.2
2 26 1 -0.9 1.4
-2 26 -1 1.1 0.6
4 26 -1 -0.3 0.5
4 26 -1 -0.3 1.2
-4 26 1 -0.1 0.7
-4 26 1 0.2 0.6
4 26 -1 0.4 0.5
-4 26 -1 -0.3 0.6
4 26 1 0.6 0.5
-4 26 -1 0.5 0.6
4 26 1 -0.5 1.4
-6 26 1 4.4 0.9
6 26 -1 2.6 0.6
6 26 1 2.1 0.5
-6 26 -1 3.1 0.8
8 26 -1 0.1 0.4
8 -26 1 0.5 1.5
-8 26 1 1.3 0.8
-8 26 -1 0.8 0.8
1 27 -1 8.1 1
-1 27 1 7 1.1
-1 27 1 5.3 1.7
1 27 -1 7.3 1
-1 27 1 7.7 1.1
1 27 -1 4.6 1.7
-1 27 -1 7.2 1.1
1 27 1 5.5 1.7
-1 27 -1 7 1
-1 27 -1 7.1 1.8
1 27 1 8.9 1
1 27 1 7.7 1
3 27 -1 2 0.6
3 27 -1 1.7 1.4
3 27 -1 2.8 0.6
-3 27 1 2.6 0.7
-3 27 1 3 0.7
-3 27 -1 2.7 0.7
-3 27 -1 3.3 0.7
3 27 1 2.6 0.6
3 27 1 1.6 1.5
5 27 -1 -0.1 0.5
-5 27 1 0.1 0.7
-5 27 -1 -0.1 0.6
5 27 1 -0.4 0.5
-5 27 -1 -0.3 0.7
7 27 -1 -0.4 0.4
-7 27 1 -0.5 0.8
7 -27 1 -0.1 1
7 27 1 -0.2 0.4
-7 27 -1 -1.4 0.7
0 28 -1 1.2 0.6
0 28 1 -0.6 1.3
0 28 -1 0.1 0.5
0 28 -1 0 1.3
0 28 1 -0.1 0.5
0 28 1 -0.1 0.5
2 28 -1 5.1 0.7
-2 28 1 7.6 1.1
2 28 -1 7.1 1
-2 28 1 7.3 0.9
2 28 1 8 1
-2 28 -1 8.3 1.1
-2 28 -1 8.7 1.1
2 28 1 7.5 1
-4 28 1 11.5 1.2
4 28 -1 10.8 1.1
4 28 1 10 1.1
-4 28 -1 10.1 1.2
-4 28 -1 11.2 1.3
6 28 -1 0.4 0.5
-6 28 1 1 0.8
6 28 1 0.9 0.5
-6 28 -1 1.8 0.8
-1 29 1 2.1 0.6
1 29 -1 2.7 0.6
1 29 -1 2.4 0.6
-1 29 1 1.6 0.6
-1 29 -1 1.7 0.6
1 29 1 2.1 0.6
1 29 1 2.1 0.6
-1 29 -1 2.2 0.6
3 29 -1 1.1 0.5
-3 29 1 1.7 0.6
-3 29 1 1.5 0.7
3 29 -1 0.9 0.5
3 29 1 1.2 0.5
-3 29 -1 1.6 0.7
-3 29 -1 1 0.6
5 29 -1 -0.4 0.5
-5 29 1 -0.5 0.7
-5 29 -1 0.1 0.7
5 29 1 -0.2 0.5
0 30 -1 0.3 0.5
0 30 1 -0.2 0.5
0 30 -1 0.2 0.5
0 30 1 0.3 0.5
-2 30 1 3.6 0.7
2 30 -1 2.9 0.6
-2 30 1 3.3 0.7
2 30 -1 3.1 0.6
2 30 1 2.5 0.6
2 30 1 2.2 0.7
-2 30 -1 1.9 0.6
-2 30 -1 2.4 0.6
4 30 -1 7.5 1
-4 30 1 8.2 1.2
-4 30 -1 9.1 1.2
4 30 1 8.9 1
-1 31 1 0.4 0.5
-1 31 1 1.2 0.6
1 31 -1 0.7 0.5
1 31 -1 0.5 0.5
-1 31 -1 0.2 0.5
1 31 1 0.6 0.5
1 31 1 0.1 0.5
-1 31 -1 0.7 0.6
3 31 -1 0.6 0.5
-3 31 1 1.6 0.6
-3 31 -1 0.8 0.5
-3 31 -1 0.6 0.6
3 31 1 0.5 0.5
0 32 -1 -0.2 0.5
0 32 -1 0.2 0.5
0 32 1 -0.2 0.5
0 32 1 0.3 0.5
2 32 -1 -0.2 0.4
-2 32 1 0.3 0.5
2 32 -1 0 0.4
-2 32 -1 0.1 0.5
-2 32 -1 -0.6 0.5
2 32 1 0.3 0.5
0 0 -2 1932.01 98.99
0 0 -2 2008.2 99.09
0 0 2 1821.92 98.99
2 0 2 4467.65 255.67
-2 0 -2 5088.79 256.17
-2 0 2 5051.39 207.68
-2 0 2 5361.76 255.97
-2 0 -2 5191.28 207.48
-2 0 -2 4350.66 255.57
2 0 2 5274.87 207.98
-4 0 2 289.37 15.3
4 0 2 277.07 15.3
4 0 2 287.87 12.7
-4 0 -2 272.27 15.3
4 0 -2 289.77 15.4
4 0 -2 272.07 15.8
4 0 2 272.47 15.7
-4 0 -2 297.57 15.7
-4 0 2 298.87 15.8
6 0 2 115.49 5.9
-6 0 -2 100.09 6.7
-6 0 -2 117.69 7.3
8 0 -2 276.47 16.8
8 0 2 310.97 16.8
-10 0 -2 74.39 5.7
-12 0 2 19.6 2.5
-12 0 -2 27.2 2.4
-12 0 -2 18.5 2.4
-14 0 2 4 1.5
-14 0 -2 5.3 1.5
-1 1 2 309.27 16.7
1 1 -2 299.77 16.8
1 -1 2 319.37 16.6
-1 1 2 330.27 16.8
-1 -1 -2 308.17 13.6
1 1 -2 311.97 16.6
-1 -1 -2 319.47 16.8
1 -1 2 334.57 13.6
1 -1 2 321.37 16.7
-1 -1 -2 320.37 16.7
1 1 2 323.87 16.8
-1 1 -2 342.07 16.6
-1 -1 2 317.27 16.8
-1 1 -2 310.57 13.6
-1 -1 2 309.37 16.7
1 1 2 313.17 13.6
1 1 2 327.97 16.7
-1 1 -2 323.47 16.6
1 -1 -2 312.87 16.7
-3 1 2 201.78 10.7
3 -1 2 202.48 8.9
-3 -1 -2 186.88 10.9
3 -1 2 188.68 10.9
3 -1 2 188.18 10.6
3 1 -2 203.38 10.7
-3 -1 -2 213.28 10.7
-3 1 2 207.78 11
3 1 2 191.58 11
-3 1 -2 195.18 10.8
3 -1 -2 200.48 10.7
3 1 2 197.48 8.9
-3 1 -2 202.58 10.6
3 1 2 182.68 10.6
3 -1 -2 186.18 11
-5 1 2 49.99 3.4
-5 -1 -2 51.79 3.9
-5 -1 -2 54.19 3.6
5 1 -2 49.99 3.5
5 1 -2 50.89 4.3
5 -1 2 47.6 3.4
5 -1 2 43 3.9
5 -1 2 51.39 3.2
-5 1 2 53.69 4
-5 1 -2 52.79 3.9
5 -1 -2 46 4
5 -1 -2 50.49 3.5
5 1 2 43.1 3.3
-5 1 -2 48.8 3.4
5 1 2 44.8 4
5 1 2 50.09 3.2
7 -1 2 36 2.4
-7 1 -2 36.3 3.6
7 1 2 36.5 3
7 1 2 35.7 2.4
7 -1 -2 33.7 2.3
9 -1 2 10.5 1.4
-9 1 -2 11.1 1.7
-11 -1 -2 1.6 1.3
-11 -1 -2 1.9 1.4
-11 1 -2 2.9 1.6
-11 1 -2 2.1 1.4
-13 1 2 0.5 1.5
-13 -1 -2 0.6 1.5
-13 1 2 -0.2 1.2
-13 -1 -2 0.7 1.4
-13 1 -2 0.6 1.3
-13 -1 2 -0.3 1.4
-13 -1 2 0.8 1.4
-13 1 -2 -0.6 1.4
-15 -1 -2 -0.6 1.2
-15 1 2 0.7 1.2
-15 -1 2 -0.5 1.1
-15 1 -2 0.5 1.2
0 -2 2 2990.9 147.89
0 -2 -2 2903.41 148.69
0 2 2 2679.73 148.39
0 2 2 2936.31 148.59
2 -2 2 348.97 19.8
-2 -2 -2 391.06 19.8
-2 -2 -2 373.36 16.2
2 2 -2 383.96 19.8
2 2 -2 384.06 16.1
2 2 -2 358.46 19.9
2 -2 2 398.56 16.2
2 -2 2 356.56 19.7
-2 -2 -2 380.66 20
2 -2 -2 386.96 20
-2 2 -2 386.26 16.2
-2 -2 2 376.06 19.8
-2 2 -2 384.56 19.7
2 2 2 360.76 20
2 2 2 384.46 19.8
-2 -2 2 375.16 16.2
2 2 2 378.46 16.2
-2 -2 2 388.06 20
-4 -2 -2 941.71 47.9
4 2 -2 1006.9 47.9
-4 2 2 900.31 47.8
-4 2 2 935.21 48.2
4 -2 2 934.31 39.1
4 2 -2 951.5 39.1
4 -2 2 843.62 48.2
-4 -2 -2 918.31 48.3
4 2 -2 1059.29 49
4 -2 2 876.31 47.8
-4 -2 2 910.41 48.4
-4 -2 2 915.51 47.9
4 -2 -2 887.01 48.3
4 2 2 926.91 39.1
-4 2 -2 958.6 48
4 2 2 859.81 48.3
4 -2 -2 876.11 47.9
-4 2 -2 900.31 47.7
4 2 2 862.31 47.8
6 -2 2 107.69 6.4
-6 -2 -2 107.49 7.4
-6 2 -2 109.19 6.7
6 2 2 111.29 5.9
-6 2 -2 115.89 7.1
8 -2 2 185.98 10.3
-8 2 -2 185.18 12.2
8 -2 -2 169.48 10.3
8 2 2 168.98 9.2
10 -2 2 57.89 3.6
-10 -2 -2 49.6 4.4
-10 2 -2 55.19 4.4
-10 2 -2 58.69 3.7
-12 2 2 7 1.7
-12 -2 -2 4.8 1.6
-12 2 2 5.4 1.6
-12 -2 -2 7.1 1.8
-12 2 -2 7.6 1.8
-12 -2 2 5.3 1.7
-12 2 -2 5.7 1.7
-14 -2 -2 4.9 1.6
-14 2 2 3.7 1.4
-14 2 -2 4 1.6
-14 -2 2 3.8 1.5
1 3 -2 1605.64 86.29
1 -3 2 1814.42 70.09
1 3 -2 1738.63 69.99
-1 3 2 1768.62 86.39
1 -3 2 1581.44 86.09
-1 -3 -2 1751.62 86.39
-1 3 2 1611.54 86.29
1 -3 2 1645.94 86.19
-1 3 -2 1550.74 86.19
1 3 2 1688.03 70.09
-1 -3 2 1572.54 86.19
1 3 2 1669.53 86.39
-1 -3 2 1730.43 86.39
-1 -3 2 1790.62 69.99
1 -3 -2 1676.23 86.29
-1 3 -2 1530.45 86.29
-1 3 -2 1752.52 69.99
3 -3 2 15.4 1.8
3 -3 2 16.8 1.5
3 3 -2 14.2 1.6
-3 -3 -2 14.2 1.9
-3 3 2 15.1 1.5
3 3 -2 16.8 1.6
-3 -3 -2 18.2 1.8
3 -3 2 16.9 1.5
3 3 -2 18.4 2.2
-3 -3 2 20.2 2.7
3 3 2 16.3 1.5
3 3 2 16.4 1.6
-3 3 -2 18.4 1.4
3 -3 -2 15.7 1.6
3 3 2 15.4 1.9
3 -3 -2 17.4 2.1
-3 -3 2 22 2
5 3 -2 761.52 36.5
-5 -3 -2 739.03 36.6
-5 3 2 691.23 36.4
5 3 -2 643.94 37
-5 3 2 702.23 36.9
5 3 -2 735.43 29.9
5 3 2 708.83 29.9
-5 -3 2 689.23 36.5
-5 3 -2 682.23 36.3
-5 3 -2 699.73 36.6
-5 -3 2 735.43 37.4
5 -3 -2 623.94 37.1
5 3 2 614.84 37.4
5 3 2 653.53 36.4
7 -3 2 205.08 11.7
7 3 2 197.78 10.1
7 -3 -2 198.08 11.7
-7 3 -2 216.78 13.9
9 -3 2 90.19 5.2
-9 3 -2 80.59 6.3
9 -3 -2 86.39 5.2
-11 3 2 20.9 2.5
11 -3 2 21 2
-11 -3 -2 20.1 2.4
-11 3 -2 25.2 2.3
-11 3 -2 19.4 2.4
-13 3 2 6.5 1.6
-13 -3 -2 4.4 1.6
-13 3 2 4 1.6
-13 -3 -2 4.8 1.7
-13 3 -2 3.8 1.6
-13 -3 2 3.5 1.5
-13 3 -2 7.9 1.7
-13 -3 2 4.1 1.5
-15 -3 -2 4.2 1.4
-15 3 -2 3.1 1.4
-15 -3 2 3.2 1.2
0 4 2 86.39 5.3
0 -4 2 102.59 5.2
0 4 -2 92.99 5.1
0 -4 -2 93.09 5.3
0 -4 2 92.99 5.1
0 4 -2 98.89 5.1
2 4 -2 27.7 1.7
-2 4 2 23.9 2
-2 -4 -2 25.1 2.2
2 4 -2 27.8 2.2
2 4 -2 29.4 1.9
2 -4 2 24.2 1.8
-2 4 2 25 1.9
-2 -4 2 25 2.3
-2 -4 2 26.4 1.8
2 4 2 28 1.8
2 -4 -2 25.2 1.9
-2 -4 2 27 1.9
2 4 2 25.7 1.9
-2 4 -2 25.3 1.7
2 -4 -2 22.8 2.1
-2 4 -2 27.6 1.7
-2 4 -2 24.7 1.8
-4 4 2 2.2 1.1
4 4 -2 1.8 1.1
-4 -4 -2 3.5 1.3
4 -4 2 3.9 0.9
-4 -4 -2 2.5 0.8
-4 4 2 3.6 0.9
4 4 -2 3.1 1.3
4 4 -2 2.2 0.9
-4 -4 2 2.9 1.4
-4 4 -2 3.5 0.8
4 4 2 2.3 1.1
4 -4 -2 3.1 1
4 -4 -2 2.2 1.2
-4 -4 2 3.4 1
4 4 2 1.5 0.7
-4 4 -2 3.2 1
4 4 2 2.5 1
-4 4 -2 3.8 0.8
6 -4 2 14.5 1.3
-6 4 -2 17.1 2.2
6 4 2 13 1.9
-6 4 -2 15.8 1.8
-6 4 -2 18.7 1.7
8 -4 2 8.9 1.3
8 -4 -2 11 1.3
8 4 2 7.6 1.9
-8 4 -2 14.9 1.6
-8 4 -2 12.5 1.4
-10 4 2 1.9 1.3
-10 -4 -2 1.5 1.3
10 -4 2 2.2 1.2
-10 4 -2 1.6 1.2
-10 4 -2 2.2 1.4
-12 4 2 0.8 1.3
-12 -4 -2 0.6 1.3
-12 4 2 1 1.5
-12 -4 -2 0.2 1.5
-12 4 -2 1.1 1.5
-12 -4 2 0.9 1.4
-12 4 -2 1.2 1.3
-14 4 2 0.9 1.3
-14 -4 -2 0 1.3
-14 -4 2 0.9 1.4
-14 4 -2 0.1 1.3
1 5 -2 885.91 50.19
1 5 -2 947.51 50.29
-1 -5 -2 1129.79 50.99
1 -5 2 946.21 50.19
-1 -5 -2 971.6 50.39
-1 5 2 990.7 50.39
1 5 -2 957.3 40.8
-1 -5 2 924.01 50.29
1 5 2 935.41 50.39
-1 -5 2 975.6 50.49
-1 5 -2 1001.3 40.7
1 5 2 1060.09 50.59
-1 5 -2 965.6 50.09
-1 -5 2 951.5 40.7
-1 5 -2 956.2 50.19
-3 -5 -2 2527.35 135.39
-3 5 2 2517.85 135.19
3 -5 2 2436.26 134.89
-3 5 2 2661.33 134.99
3 5 -2 2527.55 134.89
3 5 -2 2682.13 109.69
3 -5 -2 2464.55 134.99
-3 5 -2 2761.52 134.79
3 5 2 2802.32 134.99
-3 -5 2 2648.33 135.09
-3 5 -2 2595.34 134.89
3 5 2 2944.81 135.69
3 5 2 2560.44 109.69
3 -5 -2 2528.75 135.19
-5 -5 -2 157.28 9.4
5 5 -2 153.88 8.7
5 5 -2 158.38 7.4
-5 5 2 139.59 8.9
-5 5 2 137.49 8.6
5 5 -2 129.09 9.1
5 5 2 148.49 7.4
-5 5 -2 154.28 8.5
-5 5 -2 157.28 10.1
-5 5 -2 161.18 8.8
7 -5 2 661.53 36.8
7 -5 -2 652.93 36.8
-7 5 -2 605.34 35.2
-7 5 -2 696.73 43.2
-7 5 -2 645.54 35.1
9 -5 2 91.49 5.4
-9 5 -2 87.79 5.3
9 -5 -2 92.09 5.4
-9 5 -2 86.59 6.5
11 -5 2 44.9 3.1
-11 5 2 42.2 3.8
-11 5 2 49.6 3.3
-11 -5 -2 36.9 3.7
-11 5 -2 52.39 3.3
-11 5 -2 38.6 3.8
-13 5 2 7.2 1.8
-13 -5 -2 7.9 1.9
-13 -5 2 9.1 1.9
-13 5 -2 7.8 1.9
-15 -5 -2 5.1 1.8
-15 -5 2 4.5 1.7
0 6 2 46.8 2.9
0 -6 -2 48.6 3.1
0 -6 -2 44.1 2.9
0 6 -2 47.2 2.7
0 6 2 43.6 2.9
0 -6 2 45.7 2.9
0 6 -2 46.7 2.7
0 -6 2 44.1 2.8
2 -6 2 75.69 4.4
-2 -6 -2 84.09 5.1
2 6 -2 70.59 4.6
-2 -6 -2 84.19 4.8
2 6 -2 69.09 3.7
-2 6 2 80.99 4.7
-2 6 2 73.69 4.5
2 6 -2 77.19 4.4
2 6 2 67.49 3.7
-2 6 -2 79.49 4.3
-2 -6 2 73.69 3.6
-2 -6 2 73.79 4.5
2 6 2 72.59 4.5
-2 -6 2 71.89 4.7
2 6 2 67.89 4.6
-2 6 -2 75.09 4.2
-2 6 -2 76.19 3.6
2 -6 -2 75.49 4.6
2 -6 -2 75.39 4.7
-4 6 2 177.38 9.7
4 6 -2 168.08 7.9
-4 -6 -2 176.08 10
-4 6 2 165.68 9.4
-4 -6 -2 171.98 9.6
4 6 -2 159.58 9.8
4 6 -2 166.78 9.4
-4 6 -2 181.48 9.3
4 6 2 153.48 9.3
4 6 2 163.88 7.9
4 -6 -2 151.28 9.7
-4 6 -2 163.08 11.2
4 6 2 160.98 9.9
-4 -6 2 171.58 9.6
-4 6 -2 172.48 9.4
6 6 -2 26.5 2.6
6 -6 -2 25.6 1.9
6 6 2 24.6 2.5
-6 6 -2 28.7 2.3
-6 6 -2 26.3 2.4
-6 6 -2 26.3 2.7
8 -6 2 40.3 2.6
8 -6 -2 38.9 2.6
-8 6 -2 33.3 2.7
-8 6 -2 41.4 3.2
8 6 2 35.2 3.4
-10 6 2 14.4 1.9
-10 6 2 15.7 1.5
10 -6 2 12.8 1.5
-10 6 2 11.9 1.9
-10 6 -2 16.2 1.9
-10 6 -2 11.5 1.9
-10 6 -2 15.9 1.5
10 -6 -2 11.9 1.7
-12 -6 -2 1.4 1.4
-12 6 2 4.7 1.6
12 -6 2 1.4 1.3
-12 -6 -2 1 1.4
-12 6 2 1.3 1.4
-12 6 -2 3.7 1.6
-12 6 -2 2 1.5
-14 -6 -2 2.7 1.4
-14 6 2 1.4 1.3
-14 6 -2 1.3 1.4
-14 -6 2 0.7 1.4
1 7 -2 17.2 1.2
1 7 -2 19.7 1.5
1 7 -2 17.6 1.4
-1 -7 -2 10.5 1.6
-1 7 2 17.4 1.5
-1 7 2 13 1.5
1 7 2 20.6 1.8
1 7 2 13.8 1.4
-1 7 -2 15.6 1.3
1 -7 -2 22.8 2.1
-1 7 -2 19 1.3
-1 -7 2 14.9 1.4
3 7 -2 190.78 10.6
-3 -7 -2 189.48 10.8
-3 -7 -2 199.68 11.2
3 7 -2 183.38 10.9
-3 7 2 200.18 10.9
-3 7 2 190.58 10.6
3 7 -2 198.98 8.8
3 -7 -2 172.78 10.8
3 7 2 215.78 10.8
-3 -7 2 201.08 11.2
3 7 2 188.28 8.8
-3 7 -2 195.58 10.5
-3 -7 2 191.98 10.8
-3 7 -2 185.98 10.4
5 7 -2 351.86 15.8
-5 7 2 338.67 19.4
-5 7 2 367.36 19.2
5 7 -2 340.07 19.1
5 7 2 349.27 15.9
-5 7 -2 357.46 18.9
-5 7 -2 360.86 23.4
-5 7 -2 356.76 19.2
7 -7 2 29.5 2
-7 7 -2 25.3 2.9
-7 7 -2 25.5 2.1
7 -7 -2 26.9 2
-7 7 -2 31.7 2.5
-9 7 2 75.29 4.7
-9 7 2 76.09 5.7
-9 7 2 73.89 4.6
9 -7 2 81.99 4.7
-9 7 -2 72.99 4.6
-9 7 -2 77.59 4.7
-9 7 -2 78.09 5.8
9 -7 -2 78.99 4.7
-11 7 2 14.9 2
-11 7 2 12.3 2
11 -7 2 14.5 1.6
-11 -7 -2 11.1 2
-11 7 -2 12.7 2.1
-11 7 -2 16.9 2.1
-13 7 2 5.4 1.8
-13 -7 -2 5.4 1.7
-13 -7 -2 10.7 1.8
-13 7 2 7 1.7
-13 -7 2 4.4 1.6
-13 7 -2 5.7 1.8
-13 7 -2 6.7 1.7
0 8 -2 52.69 3.3
0 8 2 55.69 3.6
0 8 -2 60.79 3.9
0 -8 -2 66.49 4.1
0 8 2 43.4 3.5
0 -8 2 61.19 3.7
-2 8 2 49.3 3.2
-2 -8 -2 47.4 3.5
2 8 -2 49.4 2.6
-2 -8 -2 46.5 3.3
-2 8 2 46.3 3.3
2 8 -2 53.79 3.1
2 8 -2 47.4 3.2
-2 -8 2 49.9 3.5
-2 -8 2 46.4 3.2
2 -8 -2 49.6 3.3
2 8 2 47.4 3.4
2 8 2 44.8 3.1
-2 8 -2 41 3.2
2 8 2 49.6 2.7
-2 8 -2 42.6 2.9
-2 8 -2 49.7 2.9
-2 8 -2 47.9 2.5
2 -8 -2 43.6 3.3
4 8 -2 411.26 17.6
-4 8 2 401.96 21.4
4 8 -2 403.36 21.4
4 8 -2 384.66 21.8
-4 -8 -2 406.66 22.3
-4 8 2 403.76 21.7
4 8 2 394.76 17.7
-4 8 -2 433.26 21.4
-4 8 -2 418.96 21.2
-4 8 -2 395.66 26.4
-4 8 -2 359.56 25.2
4 8 2 383.16 21.4
6 8 -2 515.55 23.4
-6 8 2 562.04 35.1
-6 8 -2 501.35 28.4
-6 8 -2 530.15 28.2
6 8 2 504.75 23.5
-6 8 -2 560.74 35.1
8 -8 2 56.99 3.4
-8 8 2 55.19 4.1
-8 8 2 47.9 3.4
-8 8 -2 57.39 4.2
8 -8 -2 55.59 3.4
-8 8 -2 51.59 3.4
-8 8 -2 44.1 5.2
-10 8 2 91.99 5.3
10 -8 2 95.79 5.4
-10 8 2 76.39 6.5
-10 8 2 88.89 5.3
-10 8 -2 92.69 5.4
-10 8 -2 76.39 6.5
-10 8 -2 92.69 5.3
10 -8 -2 90.19 5.4
12 -8 2 26.1 2.1
-12 -8 -2 26.2 2.3
-12 8 2 22.9 2.3
-12 8 2 17.2 2.5
-12 -8 -2 18.1 2.5
-12 8 -2 19 2.5
-14 -8 -2 7.4 1.6
-14 8 -2 7 1.5
-14 -8 2 7.6 1.6
-1 -9 -2 21.4 2.2
-1 9 2 19.2 1.9
1 9 -2 21.4 1.4
-1 9 2 24.5 2
-1 -9 -2 24.6 2
1 9 -2 21.8 1.9
1 9 -2 23.8 1.8
1 9 2 22.9 1.9
1 9 2 21.8 2
1 9 2 20.9 1.6
-1 9 -2 22.7 1.7
-1 -9 2 21.4 2.1
1 -9 -2 22.4 2
-1 9 -2 19.3 1.8
-1 9 -2 24 1.7
1 -9 -2 20.8 2
-3 9 2 24.3 1.9
3 9 -2 24.4 2.3
-3 -9 -2 25.6 2.4
3 9 -2 26.4 1.9
3 9 -2 23.6 2.1
-3 9 2 26.4 2.1
-3 -9 -2 25.8 2.7
-3 9 2 26.2 2.3
3 9 2 30.6 2.9
3 9 2 24.8 2
-3 -9 2 25.3 2.3
3 -9 -2 24.6 3.1
3 9 2 25.3 2.4
-3 9 -2 27.5 2.1
-3 -9 2 29.9 4.1
-3 9 -2 25.4 2
-3 9 -2 25.4 2
-5 9 2 3.9 1.4
5 9 -2 4.4 1.3
-5 9 2 5.6 1
-5 9 -2 4.5 1.1
5 9 2 4.9 1.4
-5 9 -2 4.4 1.2
-5 9 -2 5.2 1
-7 9 2 10 1.4
-7 9 -2 10.3 1.4
-7 9 -2 7.5 1.8
7 9 2 5.8 1.6
-7 9 -2 12.1 1.4
7 -9 -2 7.1 1.1
-9 9 2 2.2 0.9
9 9 -2 1.7 0.4
-9 9 2 1.3 1.3
-9 9 2 1.2 1.1
9 -9 2 1.3 1
-9 9 -2 1.9 1.3
-9 9 -2 0.8 1.2
9 -9 -2 1.2 1
-9 9 -2 2.3 0.9
-11 -9 -2 0.7 1.3
-11 9 2 1.6 1
11 -9 2 2 1.3
-11 9 2 1.2 1.4
-11 9 -2 0.8 1.5
-11 9 -2 1.7 1.4
-11 9 -2 1.4 1.1
-13 -9 -2 -0.8 1.4
-13 9 -2 1.4 1.4
0 10 2 161.48 9
0 -10 -2 163.98 9.2
0 10 2 164.48 9.1
0 10 -2 166.98 8.9
0 10 -2 165.68 8.8
0 -10 -2 147.39 9.2
0 10 -2 149.39 10.3
-2 10 2 137.79 8
2 10 -2 135.19 8.1
2 10 -2 134.69 6.4
-2 -10 -2 134.49 8.5
-2 10 2 141.69 8.1
2 10 -2 143.19 7.9
2 10 2 134.99 8
-2 -10 2 142.39 8.5
-2 10 -2 140.59 7.7
-2 10 -2 137.09 6.4
-2 10 -2 139.79 9.1
2 -10 -2 133.49 8.2
-2 10 -2 148.69 7.8
2 10 2 139.39 6.6
2 -10 -2 149.99 8.6
-4 10 2 307.27 17
4 10 -2 319.47 14
4 10 -2 286.27 17.3
-4 10 2 312.67 17.3
4 10 -2 314.67 17
-4 10 -2 330.97 16.8
-4 10 -2 321.57 17
-4 10 -2 298.47 19.9
4 10 2 325.57 14.2
-4 10 -2 310.47 20.7
6 10 -2 295.27 13.7
-6 10 2 302.67 19.7
-6 10 -2 317.37 19.7
6 10 2 288.17 13.8
-6 10 -2 281.67 16.1
-6 10 -2 277.57 16.4
-8 10 2 91.89 6.5
8 -10 2 96.59 5.4
-8 10 -2 82.19 5.3
-8 10 -2 91.79 6.6
8 -10 -2 88.49 5.4
-10 10 2 53.69 3.1
10 -10 2 52.79 3.3
-10 -10 -2 38.5 3.9
10 10 -2 45.8 2.9
10 -10 -2 48.2 3.2
-10 10 -2 44.8 3.4
-10 10 -2 37.8 3.9
-10 10 -2 53.39 3.1
-12 -10 -2 45.5 3.1
12 -10 2 41 2.8
-12 10 -2 43.6 3
-12 10 -2 31.3 3.5
-12 -10 2 31 3.4
-14 -10 -2 5.6 1.5
-14 -10 2 4.8 1.4
1 11 -2 54.79 3.5
-1 11 2 54.29 3.7
-1 11 2 54.39 3.7
1 11 -2 55.29 3.6
-1 11 -2 54.39 3.4
1 11 2 52.89 3.6
-1 11 -2 54.69 3.4
-1 11 -2 49.3 3.8
1 11 2 55.89 3.8
1 11 2 55.39 3
3 11 -2 99.69 6.1
-3 11 2 97.69 6.7
-3 11 2 104.89 6.5
3 11 -2 98.19 6.4
3 11 -2 105.99 5.1
-3 11 2 101.79 6.2
-3 11 -2 107.99 6
3 11 2 98.79 5.2
3 11 2 91.89 6.2
-3 11 -2 113.49 6.1
-3 11 -2 102.59 6.8
-3 11 -2 102.99 6.9
5 11 -2 91.69 5.2
-5 11 2 104.09 6.7
5 11 2 88.29 5.3
-5 11 -2 98.59 5.9
-5 11 -2 95.49 6.1
-5 11 -2 99.89 6.7
-7 11 -2 33.2 2.7
7 11 2 28.4 2.9
7 -11 -2 33.2 2.2
-7 11 -2 26.7 3
-7 11 -2 31.8 3.1
-9 11 2 40.4 2.8
9 -11 2 45.5 2.9
9 11 -2 44.9 2.6
-9 11 -2 42.1 2.8
-9 11 -2 44.3 3.1
-9 11 -2 42.7 3.7
9 -11 -2 43.2 2.9
11 -11 2 14.5 1.8
-11 11 2 16.9 1.7
-11 11 -2 11 3.2
-11 11 -2 16.4 1.7
-13 -11 -2 8.9 1.8
0 12 -2 28.1 2.2
0 12 -2 25.4 2.2
0 12 2 25.8 2.4
0 12 -2 32 2.3
0 12 2 27.5 2.4
2 12 -2 69.59 3.6
2 12 -2 71.59 4.7
2 12 -2 68.69 4.4
-2 12 2 72.89 4.7
-2 12 2 72.19 4.6
2 12 2 67.79 4.6
-2 12 -2 70.99 4.4
-2 12 -2 71.29 4.3
-2 12 -2 70.29 4.9
2 12 2 68.79 3.8
4 12 -2 324.87 14.6
4 12 -2 310.77 17.7
-4 12 -2 322.97 17.6
-4 12 -2 326.57 20.7
-4 12 -2 345.97 17.6
4 12 2 315.57 14.7
6 12 2 44 3.4
-6 12 -2 41 3.3
-6 12 -2 41.6 3.5
-6 12 -2 47.8 3.8
-8 12 2 18.4 1.6
8 -12 2 19.4 1.6
8 12 -2 16.3 1.2
8 -12 -2 17.9 1.6
-8 12 -2 17.8 1.5
-8 12 -2 18.1 2.2
-10 -12 -2 23.2 2.8
-10 12 2 28.7 2.2
10 -12 2 29.4 2.3
10 12 -2 30.8 1.9
10 -12 -2 28.3 2.3
-10 12 -2 31.5 2.2
-12 -12 -2 5.6 1.6
12 -12 2 4.8 1.2
-12 -12 2 4 1.6
1 13 -2 93.59 5.8
-1 13 2 99.59 6
1 13 -2 91.69 6.4
-1 13 2 90.19 5.8
1 13 -2 102.19 5.7
-1 13 -2 92.69 6.4
1 13 2 82.69 4.7
-1 13 -2 101.39 5.7
-1 13 -2 97.29 5.6
1 13 2 90.59 5.8
3 13 -2 741.93 42.5
-3 13 2 828.32 42.6
3 13 -2 792.82 42.2
-3 13 2 782.22 50.59
3 13 2 780.72 34.5
-3 13 -2 820.22 42
-3 13 -2 838.12 42.2
-3 13 -2 837.82 50.69
-5 13 -2 258.17 14.9
5 13 2 264.67 12.7
-5 13 -2 283.47 14.8
-9 13 2 39.1 2.8
9 -13 2 42 2.8
9 13 -2 42.1 2.5
-9 13 -2 40.9 2.7
9 -13 -2 37.2 2.8
11 -13 2 33.6 2.7
-11 13 2 37.4 2.6
-11 13 -2 37.6 2.6
-13 -13 -2 24.8 2.3
0 14 -2 20.6 1.9
0 14 -2 20.9 2
0 14 2 20.4 2.1
0 14 -2 17.2 1.8
-2 14 2 16.8 2.1
2 14 -2 19.3 1.9
2 14 -2 18 2
2 14 -2 16.1 1.8
-2 14 2 17.8 1.7
-2 14 -2 18.3 1.9
-2 14 -2 18 1.8
2 14 2 17.2 2
-2 14 -2 17.9 1.9
-4 14 -2 8.2 1.4
-4 14 -2 9.5 1.5
4 14 2 8.4 1.7
-4 14 -2 12.5 1.7
6 14 -2 11.7 1.7
-6 14 -2 10.3 1
-6 14 -2 7 2.5
-6 14 -2 9.8 1.7
-8 14 2 1.8 0.8
8 14 -2 1.5 0.4
8 -14 2 2.9 1
-8 14 -2 1.6 0.8
8 14 2 1.5 0.5
8 -14 -2 2.2 1.1
10 -14 2 0.7 1.2
10 14 -2 0.5 0.5
-10 14 2 -1.1 1
10 -14 -2 -1.3 1.2
-10 14 -2 1.6 1
12 -14 2 1.5 1.1
-12 -14 -2 1.3 1.4
-12 14 -2 0.9 1
1 15 -2 290.37 18.6
1 15 -2 253.87 15.7
-1 15 2 277.57 16
1 15 -2 288.27 15.9
-1 15 -2 301.87 18.6
-1 15 -2 299.87 15.7
-1 15 -2 306.07 15.8
3 15 -2 494.35 27.4
3 15 -2 536.25 32.6
-3 15 2 508.35 32.5
-3 15 -2 482.35 27.1
-3 15 -2 522.25 27.3
-3 15 -2 528.75 32.6
-5 15 2 320.07 17.5
5 15 -2 342.47 20.6
-5 15 -2 313.67 17.4
-5 15 -2 323.87 17.5
-5 15 -2 292.77 17.5
-7 15 2 79.69 4.7
7 15 -2 74.99 4.5
-7 15 -2 77.79 4.6
7 15 2 75.89 4.5
-9 15 2 14.9 1.7
9 -15 2 15.9 1.7
9 15 -2 17.6 1.2
9 -15 -2 13.4 1.7
-9 15 -2 18.2 1.7
-11 15 2 40 2.7
11 -15 2 32.8 2.7
-11 15 -2 40.4 2.7
-13 -15 2 8.1 1.6
0 16 -2 374.96 24.3
0 16 -2 380.46 20.6
0 16 -2 385.76 20.6
-2 16 2 240.78 15.4
2 16 -2 221.28 13.3
2 16 -2 245.88 15.6
-2 16 -2 232.08 13.1
-2 16 -2 244.68 15.5
-2 16 -2 244.18 13.3
4 16 -2 228.18 14
-4 16 2 206.68 11.7
-4 16 -2 220.98 13.9
-4 16 -2 208.88 11.7
-4 16 -2 212.48 12
-4 16 -2 198.78 11.8
-6 16 2 113.89 6.7
6 16 -2 111.69 6.6
6 16 -2 112.99 7.9
-6 16 -2 113.99 6.7
-6 16 -2 116.89 6.4
6 16 2 113.29 6.6
8 16 -2 15.1 1.2
-8 16 2 14.8 1.6
8 16 2 17 1.2
8 -16 -2 14 1.6
-8 16 -2 14.9 1.5
10 -16 2 24.3 2.1
10 16 -2 25.6 1.7
-10 16 2 25.6 2.1
10 -16 -2 21 2.1
-10 16 -2 27.7 2.1
12 -16 2 2.3 1.2
-12 16 -2 5.5 1
1 17 -2 131.39 8.4
-1 17 2 125.09 8.3
1 17 -2 128.19 9.1
1 17 -2 117.59 7.4
-1 17 -2 118.89 7.3
-1 17 -2 126.99 8.4
-1 17 -2 112.19 7.3
3 17 -2 98.29 6
3 17 -2 114.39 7.4
-3 17 2 105.09 5.9
-3 17 2 110.59 7.2
-3 17 -2 114.29 7.3
-3 17 -2 97.89 6.4
-3 17 -2 106.39 5.9
-3 17 -2 91.69 6.3
-5 17 2 57.89 3.5
5 17 -2 55.79 3.3
5 17 -2 54.49 3.4
-5 17 2 60.09 3.4
5 17 -2 59.89 4.5
5 17 2 55.69 3.6
-5 17 -2 62.79 3.4
-5 17 -2 53.69 3.7
7 17 -2 5.7 1.9
7 17 -2 6 0.8
-7 17 -2 9.1 1.2
7 17 2 6.1 0.9
9 17 -2 8.3 1
-9 17 2 13.5 1.6
9 -17 2 11.1 1.5
-9 17 -2 12.8 1.5
9 -17 -2 10.1 1.5
-11 17 2 4.3 1
11 -17 2 2.4 1.3
-11 17 -2 4.5 1.1
0 18 -2 633.14 35.9
0 18 -2 582.64 30.8
0 18 -2 572.44 30
0 18 -2 504.05 29.9
0 18 2 517.45 30.8
2 18 -2 628.54 34.8
2 18 -2 591.04 33.8
2 18 -2 693.63 40.6
-2 18 2 622.24 34.8
-2 18 2 669.13 40.4
-2 18 -2 594.24 33.6
-2 18 -2 625.34 33.7
-2 18 -2 677.13 40.5
-2 18 -2 621.84 34.8
4 18 -2 257.37 15.5
4 18 -2 282.97 17.8
-4 18 2 262.57 15.6
-4 18 2 274.17 14.9
4 18 -2 268.47 14.8
-4 18 -2 275.37 14.9
-4 18 -2 271.77 17.6
6 18 -2 92.99 7.2
6 18 -2 97.89 5.9
-6 18 2 104.39 6
6 18 2 105.69 6
-6 18 -2 104.39 5.8
-6 18 -2 103.79 6
-8 18 2 98.19 5.8
8 18 -2 93.49 5.6
-8 18 -2 97.49 5.8
8 18 2 99.89 5.7
8 -18 -2 92.59 5.9
10 -18 2 26.5 2.3
10 18 -2 29.2 1.9
-10 18 2 30.8 2.3
-10 18 -2 30.6 2.2
-12 18 -2 13.5 1.5
-1 19 2 59.09 4.3
1 19 -2 55.89 4.4
1 19 -2 50.99 4.1
1 19 -2 54.69 3.1
-1 19 2 52.39 3.2
-1 19 -2 49.99 3.8
-1 19 -2 59.39 4.4
1 19 2 53.49 3.2
-1 19 -2 54.79 3.2
3 19 -2 43.9 2.5
-3 19 2 41.7 2.6
-3 19 2 42.1 3.5
3 19 -2 46.1 3.8
-3 19 2 40.4 2.6
3 19 -2 42.3 2.6
-3 19 -2 44.1 2.6
-3 19 -2 37.8 2.8
-3 19 -2 43.8 3.6
3 19 2 44.4 2.6
-5 19 2 8.1 1.1
-5 19 2 7.9 1
5 19 -2 7.3 1.7
5 19 -2 7.1 0.9
5 19 -2 9.3 0.9
-5 19 -2 8.3 1
5 19 2 9.8 1
-5 19 -2 9.5 1
-7 19 2 15.4 1.6
7 19 -2 15.6 1.2
-7 19 -2 14.9 1.6
7 19 2 16.1 1.3
7 19 2 13.5 2.3
-9 19 2 3.8 1.1
9 19 -2 3.1 0.6
9 -19 2 4.2 1.4
-9 19 -2 4.8 1.1
9 -19 -2 4.5 1.4
11 -19 2 1.5 1.2
-11 19 2 0.7 0.9
-11 19 -2 1.5 1
0 20 2 512.45 30.7
0 20 2 478.95 26.2
0 20 2 453.05 27.4
0 20 -2 491.05 26.2
0 20 -2 430.96 27.4
0 20 -2 508.95 30.8
2 20 -2 249.38 13.5
-2 20 2 236.38 14.1
2 20 -2 221.48 14.1
2 20 -2 267.97 16.3
-2 20 2 245.28 13.5
-2 20 2 258.37 16.1
2 20 2 237.78 13.5
2 20 2 241.28 14.1
-2 20 -2 262.77 16.2
-2 20 -2 255.07 13.5
-2 20 -2 230.18 14.1
-4 20 2 100.59 5.6
4 20 -2 100.69 7.3
-4 20 2 95.49 5.9
4 20 -2 101.99 5.8
4 20 -2 108.19 5.6
4 20 2 95.79 5.8
-4 20 -2 97.39 7.1
-4 20 -2 92.59 5.8
-4 20 -2 100.69 5.6
-6 20 2 108.79 6.1
6 20 -2 92.49 7.4
6 20 -2 99.79 6
6 20 2 90.69 7.3
-6 20 -2 107.59 6.1
6 20 2 107.29 6
-6 20 -2 107.59 5.9
8 20 -2 47.7 2.9
-8 20 2 48 3.1
8 -20 -2 40.1 3.1
8 20 2 45.8 2.9
-8 20 -2 49.2 3.1
10 -20 2 21.5 2.1
-10 20 2 25.5 2
10 20 -2 23.7 1.7
-10 20 -2 29 2
-12 20 -2 5.2 0.9
1 21 -2 312.77 17.2
1 21 -2 294.57 17.9
-1 21 2 331.07 20.4
1 21 -2 329.37 20.4
-1 21 2 295.87 17.9
-1 21 2 304.57 17.2
-1 21 -2 311.57 17.2
1 21 2 311.67 17.9
1 21 2 333.37 20.4
-1 21 -2 325.27 20.4
1 21 2 304.87 17.2
-1 21 -2 295.47 17.9
3 21 -2 95.09 5.3
-3 21 2 95.19 5.4
3 21 -2 94.39 7
-3 21 2 93.09 6.8
-3 21 2 92.49 5.6
3 21 -2 92.59 5.5
-3 21 -2 97.79 5.4
3 21 2 96.19 5.6
3 21 2 99.49 6.9
-3 21 -2 90.29 5.6
-3 21 -2 94.19 6.9
5 21 -2 110.79 6.5
-5 21 2 118.29 6.9
5 21 -2 121.09 6.8
5 21 -2 110.59 8.4
-5 21 2 118.09 6.6
5 21 2 115.39 8.3
5 21 2 121.79 6.8
-5 21 -2 113.99 6.9
-5 21 -2 118.09 6.6
7 21 -2 42.9 2.6
-7 21 2 40.6 2.8
7 21 2 32 3.7
-7 21 -2 41.7 2.8
7 21 2 45.4 2.6
9 -21 2 35.8 2.8
-9 21 2 39 2.7
9 21 -2 40.9 2.5
9 -21 -2 32.9 3
-9 21 -2 42.3 2.7
-11 21 2 8.2 1.2
-11 21 -2 8.5 1.2
0 22 -2 54.09 3.1
0 22 2 53.49 3.1
0 22 2 58.29 4.5
0 22 -2 50.59 4.4
0 22 -2 49.6 3.2
0 22 2 52.49 3.2
-2 22 2 23.7 1.6
2 22 -2 21.6 2.8
-2 22 2 27.2 2.7
-2 22 2 23.5 1.6
2 22 -2 20.6 1.6
2 22 -2 23.5 1.6
-2 22 -2 24.8 1.6
2 22 2 22.1 1.6
-2 22 -2 23 1.6
2 22 2 22.2 1.6
-2 22 -2 24 2.7
2 22 2 24.1 2.8
4 22 -2 11.8 2.2
4 22 -2 12.9 1.1
4 22 -2 13.5 1.2
-4 22 2 11.8 1.3
-4 22 -2 12 2.3
4 22 2 14.6 1.2
-4 22 -2 16.3 1.2
4 22 2 15.3 2.5
-4 22 -2 11.6 1.2
6 22 -2 6.6 0.8
-6 22 2 8 1
6 22 -2 3.9 1.7
6 22 2 8.4 1
6 22 2 4.2 1.6
-6 22 -2 8.9 1.1
-6 22 -2 7.3 0.9
-8 22 2 16.3 1.7
8 22 -2 15.8 1.3
8 -22 2 13 1.7
8 22 2 11.2 1.2
-8 22 -2 15.6 1.6
8 -22 -2 11.8 1.8
10 -22 2 2.4 1.2
10 22 -2 1.6 0.6
-10 22 2 3.8 1
-10 22 -2 3.5 0.9
-1 23 2 170.38 11.4
1 23 -2 156.68 9.6
1 23 -2 167.28 11.5
-1 23 2 166.08 9.6
1 23 -2 169.18 9.2
-1 23 2 164.68 9.3
-1 23 -2 161.78 9.6
-1 23 -2 169.98 9.3
1 23 2 165.08 9.6
1 23 2 162.28 9.2
-1 23 -2 170.78 11.5
1 23 2 173.48 11.5
-3 23 2 167.88 11.8
3 23 -2 175.78 12
-3 23 2 169.48 10.1
-3 23 2 176.08 9.7
3 23 -2 172.28 9.7
3 23 -2 171.58 10.1
-3 23 -2 168.68 10.1
3 23 2 186.28 12.1
3 23 2 179.98 10.1
-3 23 -2 180.48 9.7
-3 23 -2 170.38 11.9
5 23 -2 32.3 2.1
-5 23 2 32.8 2.1
-5 23 2 30.6 2.2
5 23 -2 23.3 3.3
5 23 -2 29.7 2
5 23 2 31.6 2.1
5 23 2 27.4 3.3
-5 23 -2 30.9 2.2
-5 23 -2 31.9 2.1
-7 23 2 101.99 6.2
7 23 -2 107.19 6.1
-7 23 -2 100.69 6.2
9 -23 2 36.4 3
-9 23 2 48.1 3
-9 23 -2 47.5 3
0 24 -2 19.6 2.7
0 24 -2 19.2 1.4
0 24 2 17.8 1.4
0 24 -2 18.9 1.4
0 24 2 17.7 2.6
0 24 2 19.7 1.5
-2 24 2 31 3.2
2 24 -2 33.9 3.6
2 24 -2 34.2 2.1
-2 24 2 34.1 2.2
-2 24 2 33.2 2.2
2 24 -2 33.5 2.2
-2 24 -2 33.7 2.2
2 24 2 36 2.2
-2 24 -2 33.2 3.4
2 24 2 32 2.1
2 24 2 32.2 3.5
-2 24 -2 33.3 2.2
4 24 -2 10.3 1
4 24 -2 10.1 1
-4 24 2 9.4 1.2
-4 24 2 8.3 1.3
4 24 -2 8.1 2
-4 24 -2 8.6 1.1
4 24 2 7.1 1.9
4 24 2 10.6 1
-4 24 -2 9.8 1.1
6 24 -2 18.5 1.4
-6 24 2 15.2 1.7
-6 24 -2 14 1.6
6 24 2 15.2 1.3
-6 24 -2 15.9 1.5
8 -24 2 9.6 1.5
-8 24 2 10.6 1.5
8 24 -2 10.4 1.1
-8 24 -2 9.7 1.4
-10 24 2 2.1 0.8
-10 24 -2 1.9 0.8
-1 25 2 78.59 6.3
1 25 -2 79.49 6.4
1 25 -2 80.59 4.9
1 25 -2 83.79 4.7
-1 25 2 82.39 4.9
-1 25 2 82.29 4.7
1 25 2 83.29 6.4
-1 25 -2 84.89 4.8
1 25 2 81.69 4.9
-1 25 -2 82.29 4.9
-1 25 -2 78.99 6.3
1 25 2 86.59 4.7
-3 25 2 24.3 1.8
-3 25 2 23 1.7
3 25 -2 21.1 2.9
3 25 -2 22.9 1.6
3 25 -2 23.3 1.6
-3 25 -2 22.3 2.8
-3 25 -2 24.3 1.7
3 25 2 21.4 2.9
-3 25 -2 22.6 1.7
3 25 2 22.4 1.7
5 25 -2 41.7 2.9
5 25 -2 32 3.8
5 25 -2 46.3 2.7
-5 25 2 43.6 2.8
5 25 2 44.2 2.7
-5 25 -2 41.3 2.8
-5 25 -2 45.2 2.7
5 25 2 38.2 4
-7 25 2 46 2.9
7 25 -2 44.8 2.7
-7 25 -2 45.7 2.9
7 -25 -2 36.2 3
-9 25 2 29.5 2.1
-9 25 -2 28.3 2.1
0 26 -2 174.38 9.7
0 26 2 172.18 9.7
0 26 -2 169.28 12
0 26 2 170.98 12
0 26 2 180.28 10.1
0 26 -2 169.98 10
2 26 -2 14.7 1.2
-2 26 2 13.4 1.3
-2 26 2 15.1 1.3
-2 26 2 11.5 2.1
2 26 -2 8.9 2.1
2 26 -2 14.3 1.2
-2 26 -2 13 1.3
2 26 2 14.4 1.2
2 26 2 10.9 2.2
-2 26 -2 15.2 1.3
-2 26 -2 11.1 2.1
2 26 2 13.1 1.2
-4 26 2 53.19 3
4 26 -2 43.6 4.4
4 26 -2 52.59 3
-4 26 2 48.9 3.2
4 26 -2 46.5 2.9
-4 26 -2 46.9 3.1
4 26 2 49.4 3
-4 26 -2 48.6 3
4 26 2 45.6 4.4
-6 26 2 47.5 3.1
6 26 -2 51.39 3
-6 26 -2 45 3.1
6 26 2 47.3 3
8 -26 2 23.6 2.2
-8 26 2 27.8 2
-8 26 -2 27 2
-1 27 2 7.7 1.9
1 27 -2 10.4 1.1
-1 27 2 10.5 1.1
1 27 -2 5.9 1.8
1 27 -2 9.6 1.1
-1 27 2 11 1.2
-1 27 -2 6.7 1.8
1 27 2 6.7 2
1 27 2 10.2 1.1
-1 27 -2 10.5 1.1
1 27 2 10.5 1.2
-1 27 -2 11.2 1.1
-3 27 2 2.6 0.7
3 27 -2 2.3 0.6
-3 27 2 1.9 0.7
3 27 -2 2 0.6
3 27 -2 0.6 1.2
-3 27 -2 2.7 0.7
3 27 2 1.6 1.5
-3 27 -2 1.7 0.7
3 27 2 1.6 0.6
-5 27 2 5.9 1
5 27 -2 9.2 0.9
-5 27 -2 5.8 0.9
-5 27 -2 9.1 1.1
5 27 2 8 1
7 -27 2 1.7 1.2
7 27 -2 1.7 0.5
-7 27 2 3 0.8
7 27 2 1.8 0.6
-7 27 -2 2.3 0.8
0 28 -2 26.1 1.8
0 28 2 24.6 1.8
0 28 2 26.6 1.8
0 28 -2 22.9 3
0 28 2 23 3
0 28 -2 25 1.8
-2 28 2 73.09 4.3
-2 28 2 73.99 4.4
2 28 -2 72.19 4.2
2 28 -2 74.39 4.4
-2 28 -2 73.49 4.4
2 28 2 76.29 4.4
-2 28 -2 73.59 4.3
2 28 2 65.39 4.2
4 28 -2 26.8 1.9
-4 28 2 27.8 2.1
4 28 -2 31.8 2
-4 28 -2 31.4 2
4 28 2 30.9 2
-4 28 -2 29 2.1
-6 28 2 35.8 2.4
-6 28 -2 36.7 2.4
6 28 2 33.7 2.3
1 29 -2 9.4 1.1
1 29 -2 12 1.1
-1 29 2 11.6 1.2
-1 29 2 11 1.2
1 29 2 9.4 1.1
-1 29 -2 10 1.1
-1 29 -2 11.2 1.2
1 29 2 11.5 1.2
-3 29 2 20.4 1.7
3 29 -2 18.9 1.5
3 29 -2 22.4 1.6
-3 29 2 21.8 1.6
-3 29 -2 21.5 1.6
-3 29 -2 21.5 1.7
3 29 2 21 1.6
5 29 -2 2.4 0.5
-5 29 2 3.1 0.8
5 29 2 2.5 0.5
-5 29 -2 2.8 0.8
0 30 2 26.7 1.9
0 30 -2 26.8 1.8
0 30 2 26 1.8
0 30 -2 25.8 1.8
2 30 -2 25.8 1.7
2 30 -2 22.8 1.7
-2 30 2 22.9 1.7
-2 30 2 24.8 1.8
-2 30 -2 24.2 1.7
-2 30 -2 23.8 1.8
2 30 2 24.6 1.7
-4 30 2 18.2 1.5
4 30 -2 18.3 1.4
-4 30 -2 17.7 1.5
-4 30 -2 17.8 1.4
4 30 2 17.8 1.4
-1 31 2 41.7 2.5
-1 31 2 37.9 2.4
1 31 -2 40.6 2.5
1 31 -2 36.9 2.4
-1 31 -2 39.5 2.5
1 31 2 35.1 2.4
-1 31 -2 37 2.4
1 31 2 38.9 2.5
3 31 -2 19.8 1.4
-3 31 2 19 1.5
3 31 -2 15.6 1.3
-3 31 -2 19.3 1.5
-3 31 -2 18.7 1.4
3 31 2 18.3 1.4
0 32 2 3.1 0.6
0 32 -2 4.1 0.6
0 32 -2 3.3 0.6
0 32 2 3.6 0.6
2 32 -2 2.8 0.5
2 32 -2 3.2 0.5
-2 32 2 4.3 0.6
-2 32 -2 3.1 0.6
-2 32 -2 4.4 0.6
2 32 2 3.1 0.6
0 0 -3 -1.1 0.2
0 0 3 -1.1 0.2
0 0 3 -1.1 0.2
0 0 -3 -1.1 0.1
2 0 3 5.2 1
2 0 3 6.6 0.7
-2 0 3 6.5 1.2
2 0 -3 4.8 1.1
-2 0 -3 5.3 0.7
2 0 -3 5.1 0.8
-2 0 -3 5.7 1
-2 0 -3 7 0.9
-2 0 3 6.4 0.9
2 0 3 5.8 0.9
4 0 -3 2.4 1.6
4 0 3 1.6 0.7
-4 0 -3 1.7 1
4 0 3 2.9 1
-4 0 3 1 0.8
4 0 3 1.9 1.2
-4 0 3 2.2 1.3
4 0 -3 2.9 1
-4 0 -3 2.2 0.8
-6 0 -3 -0.1 0.8
6 0 3 1.4 1.1
6 0 3 1 0.8
-6 0 -3 0.7 1.4
-10 0 -3 1.9 1.2
-10 0 -3 0.4 1.3
-12 0 -3 -0.7 1.4
-12 0 -3 1.6 1.5
-12 0 3 -0.2 1.4
-14 0 -3 1 1.4
-14 0 3 1.5 1.4
1 -1 3 5.2 0.5
-1 -1 -3 5.8 0.6
1 1 -3 5.1 0.8
1 -1 3 5.8 0.6
-1 1 3 5.3 0.8
1 1 -3 4.7 0.5
-1 1 3 5.1 0.6
1 -1 3 5 0.6
-1 -1 -3 5.5 0.7
1 1 3 6.1 0.7
-1 1 -3 4.9 0.6
1 -1 -3 4.6 0.6
1 -1 -3 6.2 0.8
1 1 3 5.4 0.7
1 1 3 4.9 0.6
-1 -1 3 5.1 0.6
-1 -1 3 5.2 0.8
-3 -1 -3 118.59 6.4
-3 1 3 111.89 6.4
3 -1 3 105.49 6.3
3 -1 3 116.79 5.4
-3 1 3 114.09 6.8
-3 -1 -3 114.39 6.7
3 1 -3 116.39 6.4
3 -1 3 108.79 6.7
3 1 3 113.19 5.5
3 -1 -3 123.29 6.5
-3 1 -3 110.19 6.3
-3 1 -3 112.89 6.5
3 1 3 107.99 6.3
-3 -1 3 111.39 6.4
3 1 3 104.09 6.7
5 1 -3 2.2 1.4
-5 -1 -3 6.4 1.3
-5 1 3 4.8 1.5
5 -1 3 4.3 1.2
5 -1 3 4.1 1.1
5 1 -3 6.9 1.4
5 1 3 6.6 1.2
-5 -1 3 3.3 1.6
-5 -1 3 3.7 0.9
5 1 3 4.3 1.2
-5 1 -3 5.1 1.1
5 -1 -3 6.8 1.3
5 1 3 3.9 1.5
-5 1 -3 5.3 1.4
5 -1 -3 4.8 1.5
7 -1 3 1.4 0.8
7 -1 3 -0.6 1.2
7 1 3 0.5 0.8
7 1 3 0.2 1.2
-7 1 -3 -0.3 1.1
-9 -1 -3 5.7 1.4
9 -1 3 5.1 1.1
-9 1 -3 3.9 1.1
-9 1 -3 3.8 1.3
9 1 3 3.7 1.4
-11 -1 -3 -0.9 1.4
-11 -1 -3 -0.3 1.2
-11 1 -3 -0.8 1.1
-11 1 -3 -1 1.4
-13 1 3 -0.6 1.3
-13 -1 -3 0.7 1.5
-13 -1 -3 -1.1 1.2
-13 1 3 -1.7 1.4
-13 1 -3 -1.1 1.2
-13 1 -3 0.4 1.5
-13 -1 3 0 1.3
-13 -1 3 -0.7 1.3
-15 -1 -3 0 1.2
-15 1 3 0.6 1.2
-15 -1 3 -0.1 1.2
-15 1 -3 0.8 1.3
0 2 3 1.3 0.4
0 -2 -3 2 0.5
0 -2 -3 1.6 0.4
0 2 3 1.1 0.4
-2 -2 -3 810.52 40.9
-2 -2 -3 773.62 33.4
2 -2 3 746.03 40.7
-2 -2 -3 804.62 40.7
2 -2 3 759.52 40.6
-2 2 3 827.52 41
2 2 -3 750.12 40.7
2 2 -3 766.32 40.9
2 -2 3 817.52 33.2
2 2 3 787.72 33.2
-2 2 -3 784.32 33.2
2 2 3 760.92 40.7
-2 -2 3 769.52 33.1
-2 -2 3 809.62 41
-2 -2 3 801.92 40.7
-2 2 -3 848.32 40.6
2 2 3 767.82 40.9
2 -2 -3 758.52 40.7
4 2 -3 42.4 3.6
4 -2 3 39.2 2.5
4 -2 3 32.5 2.5
4 2 -3 35 2.7
-4 2 3 38.1 3.1
-4 -2 -3 36.5 2.7
-4 -2 -3 37.2 3.1
-4 2 -3 35.4 2.7
4 2 3 36.2 2.5
-4 -2 3 40.2 3.3
4 2 3 31.9 2.5
-4 2 -3 36.3 2.8
-4 -2 3 43.8 3
4 -2 -3 38.2 2.7
4 -2 -3 37.3 3.2
4 2 3 32.4 3.1
-4 2 -3 42.9 2.7
-6 -2 -3 11.6 2.4
6 -2 3 11.8 1.9
6 -2 3 8 1.1
-6 -2 -3 11.8 2
6 2 3 11.1 1.1
-6 2 -3 11.2 1.3
-6 2 -3 9.4 1.6
-6 2 -3 10 1.9
6 2 3 9.5 1.7
8 -2 3 15.1 1.5
-8 2 -3 13.5 1.8
8 2 3 16.6 1.6
8 2 3 9.9 2.2
8 -2 -3 17.4 1.7
10 -2 3 4.7 1.1
-10 -2 -3 2.6 1.4
-10 2 -3 2.5 1.4
-10 2 -3 4.8 1.5
-12 2 3 1.4 1.3
-12 -2 -3 0.3 1.6
-12 2 3 -1 1.2
-12 -2 -3 -1.2 1.2
-12 2 -3 1.2 1.6
-12 2 -3 0.9 1.4
-14 2 3 1.5 1.4
-14 -2 -3 0.6 1.3
-14 -2 3 0.2 1.3
-14 2 -3 -0.1 1.3
1 3 -3 364.46 19.6
-1 -3 -3 374.96 19.8
-1 -3 -3 365.26 19.9
1 3 -3 387.96 19.7
1 -3 3 379.46 19.5
1 -3 3 398.86 16
1 -3 3 340.57 19.5
-1 -3 3 380.16 19.8
1 3 3 357.76 19.8
-1 -3 3 390.46 16
-1 3 -3 382.06 15.9
-1 -3 3 390.36 19.7
1 -3 -3 387.16 19.8
3 -3 3 183.08 8.1
-3 3 3 167.68 9.7
3 3 -3 172.88 9.8
3 3 -3 176.98 10.1
-3 -3 -3 183.98 10.1
-3 -3 -3 187.18 9.8
3 -3 3 168.58 9.6
3 3 3 161.88 9.7
-3 3 -3 184.68 9.6
3 3 3 180.88 10.1
-3 3 -3 178.98 9.7
-3 -3 3 178.88 10.2
3 3 3 183.68 8.2
3 -3 -3 181.78 9.8
3 -3 -3 174.38 10.1
-3 -3 3 191.68 9.8
5 -3 3 2.1 1.1
-5 3 3 1.6 0.8
-5 -3 -3 1.7 1.3
-5 -3 -3 1.8 1
5 3 -3 2 1.4
-5 3 3 4.1 1.9
5 3 -3 1.4 0.8
5 -3 -3 2.2 1
-5 -3 3 1.1 1.3
5 3 3 0.7 1
-5 3 -3 1.8 0.8
-5 3 -3 2 0.8
7 -3 3 8 1
-7 3 -3 5.9 1.3
7 -3 -3 8.3 1.1
7 3 3 4.3 1.5
-9 -3 -3 32.6 3
9 -3 3 38.4 2.4
-9 3 -3 32.8 2.6
-9 3 -3 30.4 3
-11 3 3 0.4 1.4
11 -3 3 -1.9 1.2
-11 -3 -3 1.8 1.3
-11 -3 -3 -0.2 1.3
-11 3 -3 0.3 1.4
-11 3 -3 2.8 1.5
-13 3 3 1.3 1.5
-13 -3 -3 0.5 1.3
-13 -3 -3 1 1.5
-13 3 3 -0.4 1.2
-13 3 -3 0.3 1.4
-13 -3 3 0.2 1.3
-13 3 -3 1.5 1.5
-15 -3 -3 0.2 1.2
-15 3 -3 1.3 1.4
-15 -3 3 0.5 1.2
0 4 -3 0.4 0.4
0 -4 3 0.4 0.5
0 4 3 1.5 0.9
0 4 3 1.1 0.8
0 -4 3 1 0.4
0 -4 -3 0.6 0.6
-2 -4 -3 105.99 6.1
2 4 -3 105.49 5.8
-2 4 3 99.89 6
2 -4 3 107.29 4.8
2 4 -3 102.79 6
-2 4 3 96.79 5.8
-2 -4 -3 103.19 5.9
2 -4 3 92.49 5.6
2 -4 -3 98.79 6
-2 4 -3 97.99 5.6
-2 -4 3 103.39 4.8
2 4 3 103.29 4.9
-2 -4 3 105.39 6.1
2 4 3 105.69 6.2
-2 4 -3 101.09 5.5
2 4 3 95.99 5.8
-2 4 -3 98.39 4.8
2 -4 -3 115.49 6.1
-2 -4 3 101.69 5.8
-4 -4 -3 1.4 1.2
-4 4 3 1.1 0.8
-4 4 3 2.2 0.9
4 4 -3 0.8 1
-4 -4 -3 2.5 0.9
4 -4 3 1.3 0.8
4 4 -3 2.3 0.9
4 -4 3 2.6 1
4 -4 -3 2.3 0.9
4 4 3 2.2 1
-4 4 -3 1.7 0.7
-4 4 -3 1.5 0.6
4 -4 -3 2.2 1.1
4 4 3 0.7 0.8
-4 -4 3 2.6 1.7
-4 4 -3 1.6 0.8
4 4 3 0.9 1
-4 -4 3 2.6 1.1
6 -4 3 4.4 0.9
-6 -4 -3 3 1.7
-6 4 -3 4.1 1
6 4 3 3 1.3
-6 4 -3 1.7 1
-6 4 -3 2.6 1.2
8 -4 3 0 0.9
-8 4 -3 2.5 1.1
-8 4 -3 0.9 2
8 4 3 0.2 1.2
8 -4 -3 -0.8 1
-8 4 -3 1.3 1.1
-10 -4 -3 0.4 1.2
10 -4 3 -0.8 0.9
-10 4 -3 -0.6 1.3
-10 4 -3 0.4 1.2
-12 4 3 -0.7 1.3
-12 4 3 -1 1.5
-12 -4 -3 -0.7 1.2
-12 -4 -3 -0.4 1.5
-12 4 -3 -0.9 1.2
-12 4 -3 -1 1.5
-14 4 3 -0.8 1.2
-14 -4 -3 -0.7 1.3
-14 -4 3 -1.6 1.3
-14 4 -3 0.2 1.3
1 5 -3 268.07 14.5
-1 5 3 271.37 14.6
1 5 -3 287.07 14.4
1 -5 3 272.57 14.4
1 -5 3 268.27 14.5
-1 5 3 266.77 14.7
-1 -5 -3 273.77 14.8
1 -5 -3 249.97 14.6
1 5 3 282.17 14.8
-1 5 -3 281.67 14.3
1 -5 -3 284.77 14.7
-1 5 -3 294.17 14.3
-1 -5 3 270.37 14.6
-1 -5 3 266.27 14.5
1 5 3 269.17 14.6
3 5 -3 672.93 35.3
-3 5 3 643.64 35.6
3 5 -3 635.74 35.5
3 5 -3 678.03 28.8
-3 5 3 651.63 35.3
-3 5 -3 674.53 35.2
3 -5 -3 763.92 35.7
3 5 3 645.34 28.9
3 -5 -3 654.63 35.6
-3 5 -3 699.53 35.1
3 5 3 709.43 35.6
-3 -5 3 765.42 35.6
-3 -5 3 640.54 35.7
3 5 3 622.44 35.7
-5 5 3 249.38 14.8
5 5 -3 229.68 14.8
5 5 -3 245.28 14.4
-5 -5 -3 275.87 15.2
-5 5 3 246.78 14.4
-5 -5 -3 276.47 14.6
-5 5 -3 277.37 14.5
-5 5 -3 277.67 17.4
5 5 3 261.47 12.1
-5 5 -3 269.77 14.2
7 -5 3 40.8 2.3
-7 5 -3 30 3.2
-7 5 -3 31.6 2.5
7 -5 -3 37.8 2.3
-7 5 -3 25.5 2.8
-7 5 -3 31.8 2.9
9 -5 3 14.2 1.5
-9 5 -3 9.2 1.9
-9 5 -3 13.6 1.8
9 -5 -3 13.9 1.5
-11 5 3 0.5 1.4
-11 5 3 4.3 1.5
11 -5 3 1.8 1.3
-11 -5 -3 4 1.3
-11 -5 -3 -0.4 1.4
-11 5 -3 5.8 1.7
-11 5 -3 0.7 1.4
-13 -5 -3 3 1.6
-13 -5 -3 0.1 1.4
-13 5 3 2.4 1.5
-13 5 3 0.4 1.4
-13 -5 3 0.4 1.4
-13 5 -3 1.2 1.4
-13 5 -3 4.5 1.6
-15 -5 3 1.9 1.8
0 -6 -3 22.6 2.1
0 6 -3 16.2 1.2
0 6 3 14.3 1.4
0 6 3 14.2 1.5
0 -6 3 14.9 1.4
0 6 -3 19.5 1.2
0 -6 -3 17.7 1.8
-2 6 3 52.79 3.6
-2 6 3 60.59 3.8
-2 -6 -3 60.79 4
2 6 -3 63.49 3.6
2 6 -3 56.39 2.9
2 6 -3 59.19 3.7
2 6 3 56.49 3.6
-2 -6 3 59.59 2.9
-2 6 -3 60.39 3.3
-2 6 -3 59.09 3
-2 -6 3 57.79 3.6
2 6 3 58.89 3.1
2 -6 -3 51.59 3.7
-2 6 -3 59.79 3.4
2 -6 -3 54.09 3.7
-2 -6 3 57.59 3.9
-4 -6 -3 2.7 1
4 6 -3 2.2 1
-4 6 3 4.5 1.1
4 6 -3 4.2 1.1
-4 -6 -3 3.7 1.4
4 6 -3 3.6 1
-4 6 3 4.4 1.2
4 -6 -3 3.4 1.3
4 6 3 4.1 1.2
-4 6 -3 3.7 0.8
4 -6 -3 3.5 0.9
4 6 3 4 1
-4 6 -3 4.9 0.9
-4 -6 3 4.3 1.1
-4 6 -3 4.2 1
4 6 3 6.2 2.2
-4 -6 3 5.2 2.1
-6 6 -3 50.89 3.9
-6 6 -3 54.49 3.7
-6 6 -3 55.79 3.9
6 -6 -3 50.59 3.2
6 6 3 47.3 3.6
8 -6 3 2.3 0.9
-8 6 -3 1.4 1.2
-8 6 -3 1.8 1.1
-8 6 -3 0.7 1.2
8 -6 -3 3.4 1
8 6 3 2.2 1.6
-10 6 3 1 1.2
-10 6 3 -1.2 1.2
-10 -6 -3 -0.1 1.2
10 -6 3 0.3 1.1
-10 6 -3 0.1 1.2
-10 6 -3 0.3 0.9
-10 6 -3 1.4 1.4
-12 6 3 1.8 1.5
-12 6 3 0.9 1.4
-12 -6 -3 2.2 1.6
12 -6 3 -0.9 1
-12 -6 -3 0.6 1.3
-12 6 -3 1.4 1.4
-12 6 -3 1.8 1.6
-14 -6 -3 1 1.4
-14 6 3 -0.6 1.2
-14 6 -3 0.3 1.3
-14 -6 3 -1 1.3
1 7 -3 206.68 14.8
1 7 -3 235.28 12.4
-1 -7 -3 250.27 12.7
-1 7 3 232.38 12.7
-1 7 3 229.98 12.6
1 7 -3 228.88 12.5
1 7 3 234.08 12.6
-1 7 -3 245.78 12.3
1 -7 -3 220.78 12.7
-1 7 -3 247.38 12.3
-1 -7 3 240.38 12.7
-1 7 -3 226.38 14.9
-3 7 3 7.6 1.2
-3 7 3 6.1 1.2
3 7 -3 5.8 1
-3 -7 -3 4.7 1.4
3 7 -3 6.8 1.3
3 7 -3 6.3 1.1
-3 7 -3 5.6 0.8
-3 -7 3 6.4 1.7
-3 -7 3 6.5 1.1
-3 7 -3 5 0.8
3 7 3 4.1 1.1
3 7 3 5.9 1.2
3 7 3 7.4 1.5
3 -7 -3 5.2 1.2
-3 7 -3 5.8 0.9
3 -7 -3 5.5 1.1
5 7 -3 18.9 2
-5 7 3 20.9 2.4
5 7 -3 18.6 2.2
-5 7 -3 18 1.8
5 7 3 20.4 2.1
-5 7 -3 20 2
-5 7 -3 18.3 1.8
7 -7 3 33.2 2.2
-7 7 -3 31 2.8
-7 7 -3 30.2 2.4
-7 7 -3 35.2 2.8
-7 7 -3 36.8 3.2
7 7 3 28.3 2.9
7 -7 -3 30.7 2.2
-9 7 3 -0.1 1
-9 7 3 -0.6 1.2
9 -7 3 1.1 1
-9 7 3 2.3 0.8
-9 7 -3 1.2 1.2
9 -7 -3 0.5 1
-9 7 -3 0.9 0.9
-9 7 -3 -0.4 1.3
-11 -7 -3 -0.2 1.4
11 -7 3 1.3 1.1
-11 7 3 1.5 1.4
-11 7 3 1.7 1.6
-11 7 -3 4.2 1.7
-11 7 -3 2.3 1.5
-13 -7 -3 -0.2 1.4
-13 7 3 0.4 1.4
-13 7 3 1.3 1.5
-13 -7 -3 1.7 1.5
-13 7 -3 0.4 1.4
-13 7 -3 0.7 1.5
-13 -7 3 -0.1 1.4
0 8 3 2.3 0.8
0 8 3 2.7 0.9
0 -8 -3 3.7 1.1
0 8 -3 4.6 0.8
0 -8 -3 3.5 1
0 8 -3 3.3 0.7
0 8 -3 2.7 0.6
2 8 -3 102.69 4.8
-2 8 3 104.59 6.2
-2 -8 -3 108.59 6.5
-2 8 3 94.19 6
2 8 -3 98.79 5.8
2 8 -3 100.29 6
-2 -8 -3 112.49 6.3
-2 8 -3 97.79 6.7
-2 8 -3 105.79 4.8
2 8 3 100.89 5
2 -8 -3 98.69 6.1
-2 8 -3 107.89 5.7
-2 -8 3 100.59 6.3
2 8 3 104.39 6
2 -8 -3 98.09 6.2
-2 8 -3 105.99 5.7
-4 8 3 28.7 2.7
-4 8 3 28.9 2.5
-4 -8 -3 36.6 3.5
4 8 -3 27.3 2.2
4 8 -3 30.4 2.8
4 8 -3 32.7 2.5
-4 8 -3 31.5 2.2
4 8 3 30 2.4
-4 8 -3 27.6 2.3
-4 8 -3 30.9 2.3
-4 8 -3 29.9 2.3
-6 8 -3 3.4 1.1
-6 8 -3 3.1 1.2
-6 8 -3 2.6 1
6 8 3 3.1 1.5
-8 8 3 22.7 2
-8 8 3 24.1 2.4
8 -8 3 28.6 1.9
-8 8 -3 26.2 2.5
-8 8 -3 22 2.8
8 -8 -3 27.9 2
-8 8 -3 24 2.1
-10 8 3 4.6 1.6
10 -8 3 9.8 1.5
-10 8 3 14.4 1.4
10 8 -3 9.7 0.9
-10 8 -3 6.3 1.8
-10 8 -3 12.5 1.4
-12 8 3 5.9 2.7
12 -8 3 4.4 1.3
-12 -8 -3 1.6 1.4
-12 -8 -3 5.8 1.8
-12 8 3 1.5 1.5
-12 8 -3 1.5 1.5
-12 8 -3 5.4 1.7
-14 -8 -3 2.4 1.5
-14 8 -3 1.5 1.2
-14 -8 3 2.2 1.4
1 9 -3 43.4 2.7
1 9 -3 39 2.7
-1 9 3 40.7 2.9
-1 9 3 39.7 2.9
-1 -9 -3 40 3.1
1 9 -3 37.1 2.9
1 9 3 42.1 3.1
-1 9 -3 39.8 2.9
1 -9 -3 41.1 3.1
1 9 3 41.1 2.9
-1 9 -3 38.9 2.5
1 -9 -3 43.1 3
-1 9 -3 41.5 2.5
-3 -9 -3 3.6 1.2
-3 9 3 5.7 1.2
3 9 -3 5.1 1
3 9 -3 4.1 1.1
3 9 -3 6.3 1.1
-3 9 3 5 1.2
-3 -9 -3 6.6 1.5
-3 9 -3 5.4 0.9
-3 9 -3 5.7 0.9
3 9 3 4.2 1.1
-3 9 -3 5.7 0.9
-3 9 -3 4.3 0.7
3 9 3 3.7 0.9
5 9 -3 -0.4 0.7
-5 9 3 -0.6 0.7
5 9 -3 0.9 1
-5 9 -3 0.6 0.7
5 9 3 -0.9 1
-5 9 -3 -0.5 0.7
-5 9 -3 -1.2 0.7
-7 9 3 1.1 0.9
-7 9 -3 0.9 1.1
-7 9 -3 0.6 1.1
-7 9 -3 0.8 0.9
7 -9 -3 0.3 0.9
7 9 3 1.1 1.3
-7 9 -3 -0.5 0.9
-9 9 3 -1 0.8
9 -9 3 -0.4 0.9
9 9 -3 -0.6 0.4
-9 9 3 0.2 1.1
9 -9 -3 -1.7 1.1
-9 9 -3 -2.9 1.2
-9 9 -3 -0.4 1.1
-9 9 -3 -1 0.8
-11 9 3 -1.9 1.4
11 -9 3 -1.1 1.2
-11 -9 -3 -0.6 1.3
-11 9 -3 0.7 1.5
-11 9 -3 0.2 1
-11 9 -3 0.6 1.4
-13 -9 -3 -0.2 1.4
-13 9 -3 -0.1 1.4
0 10 -3 0.4 0.6
0 10 3 0.8 0.7
0 -10 -3 1.1 0.8
0 10 -3 0.5 0.5
0 -10 -3 0.4 0.8
0 10 -3 1.3 0.6
0 10 3 0.1 0.7
2 10 -3 31.3 2.4
-2 -10 -3 29.8 2.7
2 10 -3 27.1 2.3
-2 -10 -3 28.5 2.8
-2 10 3 29.7 2.4
-2 10 3 30.4 2.5
2 10 -3 31.8 1.9
2 10 -3 32.9 2.3
-2 10 -3 31.7 2.1
-2 10 -3 29.6 2.3
2 10 3 27.3 2.1
-2 10 -3 28.7 2.3
2 10 3 29.8 2.6
2 10 3 27.4 2.4
-2 10 -3 30.8 2.1
-2 -10 3 33 3.5
2 -10 -3 29.4 3.3
-4 10 3 35 3.1
4 10 -3 37 2.8
4 10 -3 32.1 2.5
4 10 -3 30.5 3
-4 10 -3 32.3 2.6
-4 10 -3 38.6 2.6
-4 10 -3 31.6 2.6
4 10 3 33.8 2.7
-4 10 -3 39.5 2.5
6 10 -3 -1.5 0.9
6 10 3 -0.7 1.1
-6 10 -3 1.6 0.9
-6 10 -3 0.7 1.1
-6 10 -3 -0.3 0.9
-6 10 -3 0.7 0.9
8 -10 3 4.7 1.1
-8 10 -3 1.1 1.2
-8 10 -3 1.8 1.2
8 -10 -3 2.3 1
-10 10 3 3.1 1
-10 -10 -3 0.3 1.3
10 -10 3 2.3 1.3
-10 10 -3 1.4 1.4
-10 10 -3 -0.8 1.5
-10 10 -3 4.2 1
12 -10 3 5.4 1.4
-12 -10 -3 2 1.6
-12 -10 -3 3.1 1.7
-12 10 -3 2.6 1.6
-12 10 -3 1.2 1.6
-14 -10 -3 1 1.3
-14 -10 3 2.3 1.3
1 11 -3 2.2 0.8
1 11 -3 2.6 0.8
-1 11 3 2.3 0.9
-1 11 3 2.3 0.9
1 11 -3 2.2 0.8
1 11 3 2.7 0.9
-1 11 -3 1.9 0.6
1 11 3 2.2 0.8
-1 11 -3 2.3 0.7
1 11 3 2 1
-1 11 -3 2.6 0.8
3 11 -3 6.9 1.3
-3 11 3 7.5 1.5
3 11 -3 8 1.2
3 11 -3 4.6 1.1
-3 11 3 3.6 1.1
-3 11 3 6.7 0.9
-3 11 -3 6.3 1.1
-3 11 -3 7.6 1.1
-3 11 -3 6.7 1.1
3 11 3 6.2 1.3
-3 11 -3 5.5 0.9
5 11 -3 26.6 2.4
5 11 -3 24.7 2.3
-5 11 -3 28.2 2.4
5 11 3 26.3 2.6
-5 11 -3 27.8 2.3
-5 11 -3 27.9 2.3
-7 11 -3 0.3 1
7 -11 -3 1.4 0.9
-7 11 -3 0.5 1.1
-7 11 -3 0.9 0.9
7 11 3 1.1 1.3
-7 11 -3 0.8 1
9 -11 3 4.1 1.2
9 11 -3 4.9 0.6
-9 11 3 4 1
-9 -11 -3 1.3 1.3
-9 11 -3 2.1 1.4
-9 11 -3 4.5 0.9
-9 11 -3 2.6 1.4
9 -11 -3 1.8 1.2
-11 11 3 1.6 1.1
-11 -11 -3 1.2 1.4
-11 -11 -3 1.5 1.3
11 -11 3 2.1 1.3
-11 11 -3 1.4 1.5
-11 11 -3 1.7 1.5
-11 11 -3 3.2 1
-13 -11 -3 0 1.5
0 12 3 -0.4 0.6
0 12 3 -0.3 0.6
0 12 -3 0 0.5
0 12 -3 0.1 0.5
0 12 -3 0.1 0.7
-2 12 3 23.6 2.4
2 12 -3 25.7 2.3
2 12 -3 26.3 2.1
-2 12 3 23.2 2.4
2 12 -3 24.6 2.1
2 12 3 23 2
-2 12 -3 24.8 1.9
2 12 3 20.9 2.6
-2 12 -3 24 1.9
-2 12 -3 24.1 2.1
4 12 -3 4.4 1.2
4 12 -3 5 1.1
4 12 3 6.4 1.5
-4 12 -3 7.9 1.3
-4 12 -3 6.8 1.2
-4 12 -3 7.3 1.2
-4 12 -3 5.8 1
6 12 -3 -1.7 0.8
-6 12 -3 -0.3 0.7
-6 12 -3 0.7 0.8
-6 12 -3 -0.8 0.9
6 12 3 0.5 1.3
8 12 -3 0.9 0.4
8 -12 3 0.1 0.9
-8 12 3 1.4 0.8
-8 12 -3 0.4 1.1
-8 12 -3 0.9 0.7
8 -12 -3 -0.3 0.9
10 -12 3 1.7 1.2
-10 12 3 1.9 1.1
10 12 -3 2.6 0.5
-10 -12 -3 1.2 1.3
-10 12 -3 3.1 1
12 -12 3 0.7 1
-12 -12 -3 -1.4 1.5
-1 13 3 23.5 2.3
1 13 -3 23.3 2
1 13 -3 23.8 2
1 13 -3 22.4 2.1
1 13 3 18.8 2.1
-1 13 -3 21.8 2.1
-1 13 -3 23.2 1.9
1 13 3 20.3 1.8
-1 13 -3 21 1.8
3 13 -3 1 0.9
3 13 -3 1.5 0.9
3 13 -3 0.5 0.9
-3 13 3 1.7 1.2
3 13 3 1 1.1
-3 13 -3 1.7 0.7
-3 13 -3 0.3 0.8
-3 13 -3 1.2 0.7
-5 13 -3 4.7 1.1
5 13 3 3.3 1.4
-5 13 -3 5.2 1.2
-7 13 3 1.7 1.1
7 -13 -3 2.1 0.9
9 -13 3 1 1
9 13 -3 2 0.4
-9 13 3 1 1
-9 13 -3 2.1 0.9
9 -13 -3 -0.1 1.1
-11 13 3 6.8 1.1
-11 -13 -3 2.2 1.5
11 -13 3 5.6 1.5
-11 13 -3 5.9 1.1
-13 -13 -3 3.2 1.5
0 14 -3 0.8 0.8
0 14 -3 0.6 0.7
0 14 -3 1.2 0.7
2 14 -3 0.9 0.8
2 14 -3 0.3 0.8
2 14 -3 0.9 0.8
-2 14 -3 1.1 0.8
2 14 3 1 1
-2 14 -3 0.7 0.7
-2 14 -3 0.6 0.7
4 14 -3 -0.1 0.9
4 14 -3 1 0.9
4 14 3 0.5 1.1
-4 14 -3 0.7 0.8
-4 14 -3 0.5 0.8
-4 14 -3 -0.1 0.7
6 14 -3 -0.1 0.3
6 14 -3 0.3 0.9
6 14 3 0.6 1.5
-6 14 -3 -0.5 0.5
-6 14 -3 0.1 1
8 14 -3 -0.5 0.4
8 -14 3 -0.1 0.9
-8 14 3 -0.8 0.8
-8 14 -3 -0.1 0.7
8 -14 -3 -1.2 1
10 14 -3 0.1 0.4
-10 14 3 -0.8 1
10 -14 3 0 1.1
-10 14 -3 -0.4 1
-12 -14 -3 0.5 1.6
12 -14 3 1.6 1.1
-12 14 -3 -0.1 1
1 15 -3 30.9 2.7
1 15 -3 30.8 2.6
1 15 -3 29.1 2.4
-1 15 -3 32.7 2.4
1 15 3 27.7 2.2
-1 15 -3 32.1 2.7
-1 15 -3 33.9 2.5
3 15 -3 1 0.9
-3 15 3 -0.8 0.8
3 15 -3 -0.9 1
3 15 3 2.6 1.5
-3 15 -3 0.8 1
-3 15 -3 2.6 0.8
-3 15 -3 2 0.8
5 15 -3 12.7 2.1
-5 15 3 17 1.2
-5 15 -3 16.1 1.7
-5 15 -3 16.5 1.2
-7 15 3 1.6 0.7
7 15 -3 1.3 0.4
-7 15 -3 2 0.7
7 15 3 1.4 0.5
-9 15 3 3.9 1.1
9 -15 3 4.4 1.3
9 15 -3 6 0.8
-9 15 -3 5.5 1
9 -15 -3 2.9 1.3
11 -15 3 2.3 1.3
-11 15 3 4 1.1
-11 15 -3 3.7 1.1
-13 -15 3 2.1 1.2
0 16 -3 0.2 0.9
0 16 -3 0.5 0.7
0 16 -3 0 0.7
-2 16 3 9.4 1.6
2 16 -3 10.5 1.8
2 16 -3 12.5 1.9
2 16 -3 12.4 1.7
-2 16 -3 12.5 1.4
-2 16 -3 14.4 1.6
-2 16 -3 11.9 1.7
4 16 -3 7.6 0.9
4 16 -3 5.7 1.4
-4 16 3 7.5 0.7
-4 16 -3 7.1 1.4
-4 16 -3 5.9 1.2
-4 16 -3 6.3 0.8
-4 16 -3 6.5 1.2
6 16 -3 9.9 0.8
6 16 -3 6.5 1.5
6 16 -3 9.5 0.8
-6 16 3 11.1 1.2
-6 16 -3 7.7 1
6 16 3 10.3 1
-6 16 -3 10.5 1.1
8 16 -3 6.6 0.8
-8 16 3 5 1
8 -16 -3 5 1.3
-8 16 -3 4.2 0.9
10 -16 3 1.5 1.2
10 16 -3 0.2 0.4
-10 16 3 1.8 1
-10 16 -3 1.8 1
12 -16 3 1.5 1.1
-12 16 -3 1.3 0.9
1 17 -3 12.9 1.8
1 17 -3 12.2 1.7
1 17 -3 11.6 1.9
-1 17 -3 13.7 1.8
-1 17 -3 11.8 1.5
-1 17 -3 13.3 1.6
3 17 -3 1.8 1.1
3 17 -3 1.1 1.1
3 17 -3 1.9 0.4
-3 17 3 1.5 0.5
-3 17 3 2 1
-3 17 -3 3.1 0.5
-3 17 -3 2.2 1.1
-3 17 -3 2.3 0.9
-3 17 -3 4.2 1.1
5 17 -3 2 1.2
5 17 -3 1.8 0.4
-5 17 3 1.5 0.5
5 17 -3 2.8 0.4
-5 17 3 3.7 0.7
-5 17 -3 3.1 0.8
-5 17 -3 1.9 0.5
-7 17 3 10.4 1.4
7 17 -3 10.8 0.9
-7 17 -3 9.5 1.2
7 17 3 7.9 1.1
-7 17 -3 11.3 1.3
9 17 -3 -0.4 0.5
-9 17 3 -0.1 1
9 -17 3 0.5 1.2
9 -17 -3 -1.2 1.2
-9 17 -3 1.2 0.9
11 -17 3 -1.2 1.2
-11 17 3 -0.9 0.9
-11 17 -3 -0.2 1
0 18 -3 1.9 1
0 18 -3 -0.8 1
0 18 -3 2.1 1
0 18 -3 2.2 0.4
0 18 3 1.1 0.5
-2 18 3 2.6 1.2
2 18 -3 5.4 1.5
2 18 -3 5.3 0.7
2 18 -3 2.9 1.3
-2 18 3 4.3 0.6
-2 18 -3 3.4 1.3
-2 18 -3 5.7 0.7
-2 18 -3 6.6 1.2
-4 18 3 3.3 0.6
4 18 -3 -0.7 1.1
4 18 -3 1.6 0.4
4 18 -3 2.1 0.4
-4 18 3 1.2 0.5
4 18 3 2.1 0.7
-4 18 -3 1.4 0.5
-4 18 -3 0.3 1
6 18 -3 42.8 4.2
6 18 -3 54.59 3.1
-6 18 3 54.89 3.3
6 18 -3 51.39 3
-6 18 -3 50.69 3.2
-6 18 -3 51.79 3.1
6 18 3 51.49 3.1
8 18 -3 13.9 1.2
-8 18 3 15.4 1.6
8 -18 -3 13.3 1.7
-8 18 -3 14.7 1.6
-10 18 3 1.4 1
10 18 -3 0.3 0.4
10 -18 3 1.1 1.2
-10 18 -3 1.7 1
-12 18 -3 1.2 0.9
-1 19 3 0.7 0.4
1 19 -3 1.1 1.2
-1 19 3 0.5 1
1 19 -3 1.4 0.4
1 19 -3 0 1
1 19 3 1.1 0.4
-1 19 -3 0.7 0.4
-1 19 -3 0.3 1
-3 19 3 -0.4 0.5
3 19 -3 -0.4 0.3
3 19 -3 -0.6 1.1
-3 19 3 -0.6 0.9
3 19 -3 -0.6 0.4
-3 19 3 0.9 0.4
-3 19 -3 0.4 1.1
3 19 3 0.3 0.4
-3 19 -3 0.4 0.4
-3 19 -3 0.4 0.7
5 19 -3 1.1 1.3
5 19 -3 0.8 0.5
-5 19 3 0.8 0.6
-5 19 3 2.3 0.7
5 19 -3 2 0.4
5 19 3 1.1 0.5
-5 19 -3 1.9 0.5
-5 19 -3 1.8 0.6
7 19 -3 1.2 0.5
-7 19 3 1.4 0.8
7 19 3 0.2 0.5
-7 19 -3 2.2 0.8
-9 19 3 -1 1
9 19 -3 -0.4 0.4
9 -19 3 -0.7 1.2
-9 19 -3 -0.7 0.9
-11 19 3 0.3 0.9
11 -19 3 -1.3 1.1
-11 19 -3 -1 0.9
0 20 -3 1.1 0.4
0 20 -3 1.7 0.4
0 20 3 0.3 0.4
0 20 3 0.5 1.2
0 20 -3 -1.5 1.1
-2 20 3 2.9 0.5
2 20 -3 1.8 0.4
2 20 -3 2.1 0.5
-2 20 3 1.1 1.1
2 20 -3 1.9 1.4
-2 20 3 1.4 0.5
-2 20 -3 3.2 0.5
2 20 3 3.1 0.5
2 20 3 2 0.5
-2 20 -3 2.1 1.3
-2 20 -3 3.3 0.5
4 20 -3 8.1 0.8
4 20 -3 7.9 0.8
4 20 -3 5.2 1.7
-4 20 3 8.2 1
-4 20 3 7.9 0.8
-4 20 -3 6.9 0.9
4 20 3 6.7 0.9
-4 20 -3 6.9 0.9
-4 20 -3 5.2 1.4
6 20 -3 10.5 1
6 20 -3 12.3 1.1
-6 20 3 12.7 1.4
-6 20 -3 13.6 1.3
6 20 3 9.5 1.1
-6 20 -3 8.4 1.2
-8 20 3 1.3 0.9
8 20 -3 0.6 0.5
-8 20 -3 0.9 0.9
8 -20 -3 1.5 1.3
10 20 -3 0.5 0.5
10 -20 3 1.6 1.1
-10 20 3 3.4 1
-10 20 -3 0.8 0.9
-12 20 -3 -0.3 0.8
-1 21 3 2.5 1.3
-1 21 3 4 0.6
1 21 -3 2.6 1.5
1 21 -3 4.3 0.6
1 21 -3 4.1 0.5
-1 21 3 3.4 0.6
-1 21 -3 2.7 0.5
-1 21 -3 3.1 0.5
-1 21 -3 1 1.3
1 21 3 3.6 0.5
1 21 3 3.3 1.4
1 21 3 3.4 0.6
-3 21 3 0.2 0.5
-3 21 3 -0.1 0.5
3 21 -3 -0.2 1.3
3 21 -3 0.2 0.4
3 21 -3 0.2 0.4
-3 21 3 -1.1 1
-3 21 -3 0.6 0.5
-3 21 -3 -0.5 1.1
-3 21 -3 0.8 0.5
3 21 3 1 0.4
5 21 -3 3.5 0.6
5 21 -3 6.5 0.9
-5 21 3 6.3 0.8
-5 21 3 5 0.8
5 21 -3 0.6 1.5
-5 21 -3 3.2 0.7
-5 21 -3 4.6 0.7
5 21 3 3.9 0.6
-7 21 3 0.1 0.8
7 21 -3 0.3 0.5
-7 21 -3 0.2 0.8
7 21 3 -0.9 1.3
7 21 3 0 0.5
-9 21 3 2.6 1
9 -21 3 0.9 1.3
9 21 -3 1.3 0.5
-9 21 -3 2.2 1
-11 21 3 -1 0.8
-11 21 -3 -0.2 0.9
0 22 3 0.4 1.2
0 22 -3 0.7 0.4
0 22 3 1.2 0.5
0 22 3 0.8 0.5
0 22 -3 0.7 0.4
0 22 -3 -0.4 1.2
-2 22 3 0.7 0.5
2 22 -3 0.6 0.5
-2 22 3 0.1 1.1
-2 22 3 0.8 0.5
2 22 -3 0.4 0.4
2 22 -3 -0.5 1.3
-2 22 -3 0.4 0.5
2 22 3 0.2 1.2
2 22 3 0.4 0.4
-2 22 -3 0.5 1.2
2 22 3 0.1 0.5
-2 22 -3 0.9 0.4
4 22 -3 -0.4 0.5
4 22 -3 -1.1 1.3
-4 22 3 -0.3 0.6
4 22 -3 -0.6 0.4
-4 22 3 -0.3 0.6
4 22 3 -0.2 0.5
4 22 3 -0.3 1.2
-4 22 -3 0.4 1.1
-4 22 -3 0 0.5
-4 22 -3 0.1 0.5
6 22 -3 -0.8 1.3
-6 22 3 -0.3 0.8
6 22 -3 0 0.5
6 22 -3 0.1 0.5
6 22 3 -1.5 1.3
-6 22 -3 -0.3 0.6
6 22 3 0 0.5
-6 22 -3 0.1 0.6
-8 22 3 4.4 1
8 22 -3 2.2 0.6
8 -22 3 3.5 1.3
-8 22 -3 3.5 0.9
8 -22 -3 4.9 2.2
10 -22 3 -0.3 1
10 22 -3 -0.6 0.4
-10 22 3 0.1 0.9
-10 22 -3 0.1 0.9
1 23 -3 2.6 0.5
1 23 -3 2.2 0.5
1 23 -3 0.6 1.3
-1 23 3 2.4 0.6
-1 23 3 1.7 0.6
-1 23 3 2.1 1.4
1 23 3 2 0.5
1 23 3 1.7 1.4
-1 23 -3 2 0.5
-1 23 -3 1.3 0.5
1 23 3 1.6 0.5
-1 23 -3 0.3 1.3
-3 23 3 -0.6 1.3
3 23 -3 -0.4 1.4
3 23 -3 0.8 0.5
3 23 -3 0.5 0.4
-3 23 3 0.7 0.6
-3 23 3 0.4 0.6
3 23 3 -1 1.3
-3 23 -3 1.2 0.5
-3 23 -3 0.7 0.5
3 23 3 0.9 0.5
-3 23 -3 -0.2 1.2
5 23 -3 0.9 0.5
-5 23 3 1.6 0.7
5 23 -3 -0.7 1.4
-5 23 3 1.4 0.7
5 23 -3 1.3 0.5
-5 23 -3 1.8 0.6
5 23 3 0.4 1.4
5 23 3 1.4 0.5
-5 23 -3 2.1 0.7
7 23 -3 2.3 0.6
-7 23 3 3.7 0.9
7 -23 -3 4.4 1.3
7 23 3 1.5 0.5
7 23 3 1 1.4
-9 23 3 3.1 1
9 23 -3 1.2 0.5
9 -23 3 2.6 1.1
-9 23 -3 4.6 1
0 24 -3 0.5 1.2
0 24 3 -1 1.2
0 24 3 -0.1 0.5
0 24 -3 -0.5 0.4
0 24 3 -0.6 0.5
0 24 -3 -0.5 0.5
-2 24 3 1.8 0.6
2 24 -3 1.6 0.5
2 24 -3 0.6 1.3
-2 24 3 -0.5 1.2
-2 24 3 1.4 0.6
2 24 -3 0.8 0.5
2 24 3 1.1 1.4
-2 24 -3 0.7 1.3
-2 24 -3 1.6 0.6
2 24 3 2.1 0.6
2 24 3 1.3 0.5
-2 24 -3 2.3 0.5
4 24 -3 -0.2 0.5
4 24 -3 -0.6 0.4
4 24 -3 -0.2 1.2
-4 24 3 0.4 0.7
-4 24 3 -0.8 0.6
-4 24 -3 -0.3 0.6
-4 24 -3 -0.4 0.6
4 24 3 -0.4 0.5
4 24 3 -0.6 1.3
6 24 -3 3.5 0.6
-6 24 3 5.1 1
6 24 -3 1.3 1.4
-6 24 -3 2.9 0.7
-6 24 -3 5 0.8
6 24 3 1.1 1.3
6 24 3 2.7 0.6
-8 24 3 0.1 0.9
8 24 -3 -0.3 0.5
8 -24 3 0.6 1.1
-8 24 -3 0 0.8
10 24 -3 -0.5 0.6
-10 24 3 0 0.8
-10 24 -3 -0.1 0.8
1 25 -3 7.9 1
1 25 -3 9.5 1
-1 25 3 8.5 2
-1 25 3 11 1.1
-1 25 3 9 1.1
1 25 -3 7.4 1.9
-1 25 -3 10.3 1
1 25 3 9.4 2.1
1 25 3 9.5 1.1
1 25 3 10.6 1.1
-1 25 -3 9.6 1.1
-1 25 -3 7.4 2
3 25 -3 1.4 1.5
-3 25 3 1.9 0.7
3 25 -3 2.1 0.5
3 25 -3 1.7 0.5
-3 25 3 3.1 0.7
-3 25 -3 2.5 0.6
-3 25 -3 0 1.1
-3 25 -3 2.2 0.6
3 25 3 1.8 0.6
3 25 3 1.7 1.4
5 25 -3 0.5 1.4
-5 25 3 2.4 0.8
5 25 -3 1.5 0.6
5 25 -3 1.8 0.5
-5 25 -3 1.5 0.7
5 25 3 0.7 1.4
5 25 3 1.8 0.6
-5 25 -3 2.9 0.7
7 25 -3 0.9 0.5
-7 25 3 1 0.8
-7 25 -3 2.2 0.8
-9 25 3 2.1 0.9
-9 25 -3 1.3 0.8
0 26 -3 2.2 0.5
0 26 3 1.1 0.6
0 26 3 1.7 0.6
0 26 3 -0.3 1.4
0 26 -3 0.5 1.4
0 26 -3 1.5 0.6
-2 26 3 -0.1 0.6
-2 26 3 -0.1 1.2
-2 26 3 0.8 0.6
2 26 -3 0.1 0.5
2 26 -3 -1 1.2
2 26 -3 0 0.5
2 26 3 -0.5 1.3
-2 26 -3 0.7 0.5
-2 26 -3 0.3 0.6
-2 26 -3 -0.7 1.1
2 26 3 0.9 0.7
2 26 3 0.7 0.6
4 26 -3 -0.2 0.5
4 26 -3 -0.4 1.3
-4 26 3 0.4 0.6
-4 26 3 0.2 0.7
4 26 -3 0.3 0.5
-4 26 -3 0.2 0.6
-4 26 -3 0.1 0.6
4 26 3 -0.2 1.3
4 26 3 0.1 0.6
-6 26 3 0.6 0.8
6 26 -3 0.3 0.5
6 26 3 0.1 0.5
-6 26 -3 1.5 0.7
8 26 -3 0.3 0.4
8 -26 3 1.7 1.2
-8 26 3 1 0.9
-8 26 -3 1.9 0.8
1 27 -3 0.9 1.4
1 27 -3 2.9 0.6
-1 27 3 2.4 0.6
-1 27 3 2.6 0.7
1 27 -3 2.8 0.6
-1 27 3 1.8 1.4
-1 27 -3 2.4 0.6
1 27 3 0.9 1.5
1 27 3 2.5 0.6
-1 27 -3 2.3 0.6
1 27 3 1.8 0.6
-1 27 -3 1.9 1.4
3 27 -3 1.6 0.5
3 27 -3 1 0.5
-3 27 3 1.7 0.7
-3 27 3 1.7 0.7
3 27 -3 0.2 1.3
3 27 3 1.6 1.4
-3 27 -3 1.7 0.6
3 27 3 1.7 0.6
-3 27 -3 1.8 0.6
-3 27 -3 0.7 1.3
5 27 -3 -1 0.6
5 27 -3 -0.2 0.5
-5 27 3 -0.4 0.7
-5 27 -3 -0.3 0.6
-5 27 -3 -0.8 0.6
5 27 3 -0.3 0.5
-7 27 3 -0.8 0.8
7 27 -3 -0.1 0.4
-7 27 -3 0.5 0.8
0 28 -3 0.4 0.5
0 28 3 -0.1 1.4
0 28 3 0.3 0.5
0 28 3 0.3 0.6
0 28 -3 0.5 0.5
0 28 -3 0.3 1.3
2 28 -3 1.6 0.5
2 28 -3 1.2 0.5
-2 28 3 1.7 0.6
-2 28 3 1.4 0.7
2 28 3 0.8 0.6
-2 28 -3 0.8 0.6
-2 28 -3 1 0.5
4 28 -3 6.7 1
-4 28 3 8 1
4 28 -3 8.6 1
4 28 3 8.1 1
-4 28 -3 8.4 1.1
-4 28 -3 10.3 1.2
6 28 -3 -0.1 0.5
-6 28 3 -0.5 0.8
-6 28 -3 0.5 0.7
6 28 3 0.1 0.6
-1 29 3 0 0.6
1 29 -3 0.4 0.5
-1 29 3 0 0.5
1 29 -3 0.2 0.5
1 29 3 0.2 0.6
1 29 3 0.1 0.5
-1 29 -3 -0.2 0.5
-1 29 -3 0 0.5
3 29 -3 0.4 0.5
3 29 -3 0.2 0.5
-3 29 3 0.5 0.6
3 29 3 1.1 0.5
-3 29 -3 1.3 0.6
-3 29 -3 1.1 0.6
-5 29 3 1.3 0.8
5 29 -3 0.8 0.5
5 29 3 0.6 0.5
-5 29 -3 1.3 0.7
0 30 -3 0.1 0.5
0 30 3 -0.3 0.5
0 30 3 0.1 0.5
0 30 -3 0.4 0.5
2 30 -3 0.8 0.5
2 30 -3 1.3 0.5
-2 30 3 0.9 0.6
2 30 3 1.5 0.5
-2 30 -3 1.5 0.6
-2 30 -3 1.6 0.6
-4 30 3 0.6 0.7
4 30 -3 -0.2 0.5
4 30 -3 0.4 0.5
-4 30 -3 0.4 0.6
-4 30 -3 0.3 0.5
4 30 3 0 0.5
1 31 -3 1.5 0.5
-1 31 3 2.4 0.6
1 31 -3 1.7 0.5
-1 31 -3 2.5 0.6
-1 31 -3 3.3 0.6
1 31 3 2.5 0.6
-3 31 3 0.8 0.6
3 31 -3 0 0.5
3 31 -3 0.5 0.5
-3 31 -3 0.3 0.5
3 31 3 0.4 0.5
-3 31 -3 0.1 0.5
0 32 3 -0.1 0.5
0 32 -3 -0.1 0.5
0 32 -3 -0.1 0.4
2 32 -3 0.1 0.4
-2 32 3 0.5 0.5
2 32 -3 0.2 0.4
2 32 3 0.7 0.5
-2 32 -3 0.2 0.5
-2 32 -3 0.4 0.5
0 0 -4 2403.46 121.49
0 0 4 2384.86 121.59
0 0 -4 2322.37 121.59
0 0 4 2328.37 121.59
-2 0 4 1087.89 58.19
2 0 4 949.51 57.79
-2 0 -4 1110.39 47.2
-2 0 4 1133.19 57.89
-2 0 -4 1173.38 57.99
-2 0 -4 1170.08 57.79
2 0 4 1166.48 47.2
2 0 -4 1184.58 57.89
2 0 -4 1128.49 58.19
2 0 4 1102.49 57.99
4 0 4 11 1.3
-4 0 -4 13.7 1.8
-4 0 -4 12.3 1.2
4 0 -4 16.2 2.5
-4 0 4 14.7 1.8
4 0 4 13.1 1.6
-4 0 -4 12.7 1.4
4 0 -4 14.1 1.5
-4 0 4 15 2.1
6 0 4 493.55 30
-6 0 -4 552.84 28.8
-6 0 -4 558.84 35.2
-6 0 -4 525.25 28.4
8 0 4 393.06 21.9
8 0 4 372.76 17.8
-8 0 -4 387.56 25.8
-10 0 -4 66.29 5.6
-10 0 -4 80.39 4.6
-12 0 -4 18 2.2
-12 0 4 14.4 2.1
-14 0 -4 8.7 1.7
-14 0 4 7.7 1.6
1 -1 4 126.29 7
-1 -1 -4 137.19 7
-1 -1 -4 135.59 7.1
1 -1 4 126.69 6.9
1 1 -4 130.59 7.1
-1 1 4 125.19 7.1
1 1 -4 132.39 7
1 -1 4 135.39 5.8
1 -1 -4 134.39 7.2
1 1 4 135.19 7.1
1 1 4 127.89 7.1
-1 -1 4 135.09 7
-1 -1 4 130.89 7.2
1 -1 -4 133.59 7.1
3 -1 4 232.98 12.8
-3 1 4 232.08 13.3
-3 -1 -4 252.57 12.9
3 1 -4 221.48 13.2
3 -1 4 242.88 10.7
-3 -1 -4 239.98 13.1
3 1 -4 248.78 13
-3 1 -4 255.57 12.8
3 1 4 238.38 10.7
3 -1 -4 251.97 13
-3 -1 4 241.48 12.9
3 1 4 230.48 13.2
3 -1 -4 229.78 13.3
-3 1 -4 251.27 13
-3 -1 4 245.48 13.4
3 1 4 227.78 12.8
5 -1 4 27 2.2
5 1 -4 27.1 2.4
-5 1 4 24.3 2.8
5 1 -4 24 2.8
-5 -1 -4 25.3 2.7
-5 -1 -4 26.5 2.3
-5 1 4 24.1 2.3
-5 -1 4 27.7 3
5 -1 -4 22.9 2.8
-5 1 -4 28.9 2.3
5 -1 -4 26.3 2.4
-5 1 -4 27.3 2.1
-5 1 -4 28.1 2.6
5 1 4 27 2.3
-7 -1 -4 47 4.4
-7 -1 -4 52.09 3.8
7 -1 4 51.69 3.1
7 -1 4 50.89 3.7
7 1 4 49.99 3.1
-7 1 -4 50.99 3.8
-7 1 -4 49.3 4.2
7 1 4 43.6 3.5
-9 -1 -4 22.1 2.2
9 -1 4 20.6 1.8
-9 1 -4 22.7 2
-9 1 -4 19.9 2.2
9 1 4 19.5 1.9
-11 -1 -4 1.6 1.5
-11 -1 -4 2.4 1.4
-11 1 -4 2.1 1.4
-11 1 -4 4.5 1.6
-13 -1 -4 0 1.3
-13 1 4 0 1.3
-13 1 4 -0.1 1.4
-13 -1 -4 -0.5 1.6
-13 -1 4 0 1.2
-13 1 -4 -0.3 1.2
-13 -1 4 -0.8 1.2
-13 1 -4 2.2 1.5
-15 -1 -4 -0.3 1.2
-15 1 -4 1.8 1.3
-15 -1 4 1.6 1.2
0 -2 -4 1623.04 84.39
0 2 4 1524.15 84.09
0 2 4 1629.24 84.19
0 -2 -4 1757.52 84.49
2 -2 4 1418.26 76.09
2 -2 4 1583.04 61.99
2 2 -4 1443.96 76.39
2 -2 4 1414.26 76.19
-2 -2 -4 1508.35 76.39
2 2 -4 1359.26 76.19
-2 2 4 1462.05 76.19
-2 -2 -4 1549.94 76.29
-2 2 -4 1511.15 75.99
-2 -2 4 1531.75 76.19
2 -2 -4 1404.16 76.49
-2 2 -4 1498.05 75.99
2 -2 -4 1465.15 76.29
-2 2 -4 1425.06 61.99
2 2 4 1486.75 76.49
-2 -2 4 1573.94 76.59
2 2 4 1541.65 62.09
2 2 4 1444.76 76.19
-2 -2 4 1454.05 61.89
4 -2 4 331.57 14.3
-4 -2 -4 335.67 17.3
4 -2 4 293.67 17.1
-4 -2 -4 330.47 17.7
4 2 -4 297.97 17.7
4 2 -4 321.57 17.3
-4 2 4 332.87 17.4
-4 2 4 329.27 17.7
4 2 4 273.37 17.6
4 2 4 324.77 14.4
4 2 4 298.87 17.2
-4 -2 4 326.37 17.9
-4 2 -4 313.17 21.3
-4 2 -4 356.36 17.2
-4 -2 4 355.06 17.6
4 -2 -4 335.77 17.4
-4 2 -4 325.97 17.3
-6 -2 -4 213.18 12.9
6 -2 4 230.38 10.5
-6 -2 -4 215.08 12.5
6 -2 4 214.38 12.5
-6 2 -4 224.68 12.6
6 2 4 206.98 12.5
6 2 4 215.58 10.5
-6 2 -4 236.78 14.8
-6 2 -4 221.98 12.3
-8 -2 -4 166.48 11.3
8 -2 4 161.78 9.5
-8 2 -4 170.48 11.3
8 2 4 174.58 9.5
-8 2 -4 158.28 9.2
8 2 4 147.79 8.6
-10 -2 -4 40.6 3.8
10 -2 4 51.09 3.1
-10 -2 -4 47.9 3.2
-10 2 -4 39.6 3.8
-10 2 -4 48.4 3.3
-12 2 4 13.2 2
-12 -2 -4 16.9 2.1
-12 -2 -4 11.1 2.1
-12 2 -4 16.7 2.1
-12 2 -4 12.2 2
-14 -2 -4 5.4 1.5
-14 2 4 3.7 1.4
-14 2 -4 5.2 1.5
-14 -2 4 5.4 1.5
-1 3 4 2273.27 105.69
1 3 -4 1994 105.49
1 3 -4 2048.4 105.59
1 -3 4 2081.09 85.49
-1 -3 -4 2047.9 105.59
-1 3 4 1996.9 105.49
1 3 4 1977.1 105.49
1 3 4 2013.2 105.59
-1 -3 4 2026.8 105.49
1 -3 -4 2058.99 105.49
-1 -3 4 2013.2 105.49
-3 -3 -4 830.12 40.9
3 3 -4 764.92 41.2
3 -3 4 840.22 33.4
-3 -3 -4 801.22 41.2
3 3 -4 801.92 40.9
-3 3 4 773.12 40.9
-3 3 -4 716.33 40.7
-3 -3 4 809.72 41.3
3 3 4 760.22 41.2
3 3 4 836.42 40.9
-3 -3 4 785.72 40.9
3 3 4 804.92 33.4
3 -3 -4 709.83 40.9
-3 3 -4 755.52 40.6
-5 -3 -4 301.47 16.2
-5 3 4 278.17 16.1
-5 -3 -4 265.77 15.6
5 3 -4 285.77 15.6
5 -3 4 298.47 13
-5 3 -4 293.47 19
5 3 4 289.47 13
5 -3 -4 279.57 15.7
-5 3 -4 270.67 15.4
7 -3 4 97.19 5.4
-7 3 -4 88.29 5.9
7 -3 -4 80.39 5.4
-7 3 -4 105.39 6.6
-7 3 -4 90.99 5.4
7 3 4 89.89 5.4
-9 -3 -4 100.89 7.6
9 -3 4 116.09 6.4
-9 3 -4 100.89 7.6
-9 3 -4 107.89 6.3
-11 -3 -4 22.9 2.5
-11 -3 -4 25.4 2.4
11 -3 4 19.9 2
-11 3 -4 26.2 2.3
-11 3 -4 20 2.5
-13 -3 -4 9.7 1.8
-13 -3 -4 4 1.6
-13 3 4 4.2 1.6
-13 3 4 8.1 1.7
-13 3 -4 9.3 1.8
-13 -3 4 7.3 1.8
-13 3 -4 5.2 1.6
-15 -3 -4 1 1.2
-15 3 -4 0.8 1.5
-15 -3 4 2.5 1.3
0 -4 -4 68.99 4.2
0 -4 4 67.49 3.8
0 4 4 67.89 4.1
0 -4 4 68.39 3.8
0 4 4 65.89 4.1
0 -4 -4 68.49 4.1
2 4 -4 22.5 2
-2 4 4 23 2
2 4 -4 21.7 1.7
-2 -4 -4 21.5 1.9
2 -4 4 19.7 1.5
-2 4 4 20.5 2
-2 -4 -4 21.3 2.1
2 4 4 20.6 1.8
-2 -4 4 17.8 1.7
-2 -4 4 23.9 2.2
-2 4 -4 22.5 1.6
2 4 4 22.2 1.8
-2 -4 4 22.1 1.6
2 4 4 20.9 2.1
2 -4 -4 21 1.9
-4 4 4 38.6 3.1
-4 -4 -4 36.1 2.8
4 4 -4 33.8 3.1
-4 -4 -4 33.2 3.1
4 4 -4 36.1 2.7
4 -4 4 40.7 2.5
-4 -4 4 34 2.7
-4 4 -4 37.6 2.6
4 4 4 36.4 2.6
-4 -4 4 41.8 3.5
4 -4 -4 33.6 2.7
4 4 4 35.2 3.2
-4 4 -4 38.5 2.5
-4 4 -4 34.7 2.7
4 4 4 34.7 2.6
4 -4 -4 43.7 3.7
-6 -4 -4 6.8 2
6 -4 4 6.3 0.9
6 4 4 6.9 1.6
-6 4 -4 6.3 1.4
-6 4 -4 10 1.8
8 -4 4 5 1.1
8 4 4 1.7 1.3
-8 4 -4 6.3 1.4
-8 4 -4 4.7 1.6
-8 4 -4 7.1 1.4
-10 -4 -4 1.9 1.3
-10 -4 -4 1.9 1.2
10 -4 4 1.7 1
-10 4 -4 2.9 1.4
-10 4 -4 3.7 1.4
-12 4 4 -0.5 1.4
-12 4 4 0.2 1.3
-12 -4 -4 -0.2 1.3
-12 -4 -4 1.6 1.6
-12 4 -4 -0.3 1.3
-12 4 -4 0 1.5
-14 -4 -4 0.1 1.4
-14 4 4 0.1 1.3
-14 -4 4 -0.9 1.3
-14 4 -4 0.9 1.4
1 5 -4 4878.21 245.08
-1 5 4 4888.61 245.68
1 5 -4 5276.77 245.58
-1 5 4 4919.01 245.88
-1 -5 -4 4622.84 245.48
1 5 4 4693.83 245.98
1 5 4 4369.26 245.08
-1 -5 4 4621.44 245.78
-1 -5 4 4559.04 244.98
3 5 -4 782.32 40.3
-3 -5 -4 787.22 40.7
-3 -5 -4 794.32 40.4
-3 5 4 763.32 40.6
3 5 -4 730.33 40.5
3 -5 4 820.92 32.8
3 5 4 725.83 40.6
-3 5 -4 805.72 40
-3 -5 4 758.62 40.3
-3 5 -4 691.63 50.99
3 5 4 780.22 32.9
-3 -5 4 757.52 40.7
3 -5 -4 757.72 40.4
3 -5 -4 818.22 40.9
-3 5 -4 800.02 40
-5 5 4 701.03 35.2
-5 -5 -4 676.53 35.3
5 5 -4 591.04 35
-5 -5 -4 646.74 34.8
5 5 -4 631.44 34.6
-5 5 -4 637.14 34.3
-5 5 -4 656.13 34.5
-5 5 -4 702.93 43.2
5 5 4 643.14 28.5
7 -5 4 236.88 13.2
-7 5 -4 257.97 15.7
-7 5 -4 216.18 12.7
-7 5 -4 243.18 13.4
7 -5 -4 215.38 13.2
-7 5 -4 217.28 13
-9 -5 -4 109.49 8.4
9 -5 4 128.49 7.1
-9 5 -4 117.89 7.1
-9 5 -4 119.09 8.5
-9 5 -4 120.99 6.9
-11 -5 -4 52.09 3.4
-11 5 4 43.7 3.1
-11 5 4 41.8 3.8
-11 -5 -4 37.2 3.8
11 -5 4 46.6 3.1
-11 5 -4 41.6 3.9
-13 5 4 6.5 1.8
-13 -5 -4 5.1 1.7
-13 5 -4 11.4 1.8
-13 5 -4 7.2 1.8
-13 -5 4 6.8 1.8
0 6 4 744.53 39
0 6 -4 745.73 38.5
-2 -6 -4 162.18 8.6
2 6 -4 153.98 8.4
2 6 -4 144.99 8.5
-2 6 4 157.08 8.7
-2 -6 4 145.09 6.8
2 6 4 145.59 8.5
-2 6 -4 159.28 8.1
-2 6 -4 156.68 8.1
-2 6 -4 154.48 6.8
-2 -6 4 143.79 8.8
2 6 4 171.18 9
2 6 4 146.69 7.1
2 -6 -4 149.69 8.6
4 6 -4 71.69 4.3
-4 -6 -4 69.89 4.9
4 6 -4 61.49 4.6
-4 6 4 72.59 4.4
-4 -6 -4 70.09 4.5
4 6 -4 57.09 4.5
-4 6 4 74.69 4.8
-4 6 -4 69.49 4.7
4 6 4 61.79 4.8
-4 6 -4 71.39 4.1
-4 -6 4 65.19 5
4 6 4 62.49 4.3
-4 6 -4 70.99 4
4 -6 -4 66.79 4.5
4 6 4 65.09 3.8
-4 -6 4 73.09 4.5
-4 6 -4 61.69 4.5
4 -6 -4 68.89 4.8
6 6 4 127.89 7.1
-6 6 -4 134.59 8.1
-6 6 -4 149.49 9.4
-6 6 -4 146.79 8
6 -6 -4 122.39 7.8
8 -6 4 28.8 2
-8 6 -4 23 2.8
-8 6 -4 30.2 2.6
8 -6 -4 26.7 2
-8 6 -4 27.4 2.2
10 -6 4 18.1 1.7
10 6 -4 16.3 1.2
-10 6 4 15.7 2.1
-10 -6 -4 15.9 2
-10 6 -4 19.4 2
-10 6 -4 16.7 1.6
-10 6 -4 15.2 2.1
-12 -6 -4 4.7 1.6
-12 6 4 6.8 1.7
-12 6 4 4.5 1.6
12 -6 4 4.9 1.2
-12 -6 -4 5.2 1.7
-12 6 -4 3.6 1.6
-12 6 -4 7.4 1.8
-14 -6 -4 0.7 1.3
14 -6 -4 -1.4 0.8
-14 -6 4 0.6 1.2
-14 6 -4 1.4 1.3
1 7 -4 114.49 6.8
1 7 -4 135.39 8.2
-1 -7 -4 138.89 7.4
1 7 -4 107.79 6.8
-1 7 4 131.19 7.3
-1 7 -4 125.79 8.2
1 7 4 118.79 7.1
1 -7 -4 123.89 7.3
1 -7 -4 140.49 7.4
3 7 -4 177.18 9.1
-3 -7 -4 166.78 9.4
3 7 -4 165.88 9.3
-3 -7 -4 154.78 9.6
3 7 -4 142.29 10.5
-3 7 4 153.48 9.1
-3 7 4 185.28 9.7
3 -7 -4 182.48 9.9
-3 -7 4 164.08 9.7
-3 7 -4 161.48 10.5
3 7 4 166.28 9.6
3 7 4 155.98 9.2
3 7 4 166.68 7.7
-3 7 -4 170.98 8.8
3 -7 -4 156.38 9.3
-3 7 -4 162.28 8.8
-3 7 -4 155.58 10.9
5 7 -4 137.39 8.2
5 7 -4 131.79 8.8
5 7 -4 120.49 9
-5 7 -4 145.69 8
5 7 4 140.19 7.1
-5 7 -4 146.69 7.9
-5 7 -4 150.38 9.5
7 -7 4 127.39 7.1
7 -7 -4 118.79 7.1
-7 7 -4 117.79 7.6
-7 7 -4 117.69 7.3
-7 7 -4 136.69 8.6
-7 7 -4 115.69 6.9
7 7 4 111.79 6.7
-9 -7 -4 33.4 3.2
-9 7 4 35.6 2.4
9 7 -4 37.2 2.2
9 -7 4 41 2.6
-9 7 -4 39.1 3.3
-9 7 -4 36.6 2.7
-9 7 -4 33.5 2.5
-11 7 4 17.7 2.3
-11 -7 -4 24.2 2.2
11 -7 4 19.9 1.8
-11 7 4 19.3 2.2
-11 -7 -4 16 2.3
-11 7 -4 18.6 2.4
-11 7 -4 22.7 2.3
-13 -7 -4 1.2 1.4
-13 -7 -4 7.3 1.8
-13 -7 4 4.1 1.7
-13 7 -4 3.4 1.7
-13 7 -4 6.5 1.6
0 -8 -4 193.28 11.5
0 8 4 215.08 11.5
0 8 -4 217.58 11.1
0 8 -4 200.18 13.4
0 8 -4 219.78 11.1
2 8 -4 377.96 25.2
-2 8 4 464.85 21.7
2 8 -4 405.66 21.2
-2 -8 -4 432.66 21.9
-2 8 4 404.56 21.3
2 8 -4 419.26 21.1
2 8 4 385.86 17.4
2 8 4 371.46 21.5
-2 -8 4 362.46 17
2 -8 -4 395.26 21.4
-2 8 -4 358.26 25.2
-2 8 -4 423.86 20.8
2 -8 -4 367.66 21.4
-2 8 -4 411.36 20.8
-2 8 -4 412.26 17
4 8 -4 393.26 21.6
4 8 -4 363.16 25.1
-4 8 4 405.26 21.7
4 8 -4 388.06 21.2
-4 -8 -4 399.06 22
-4 8 -4 421.66 21
-4 8 -4 439.36 21
-4 8 -4 403.06 26.3
4 8 4 397.06 17.6
-4 8 -4 360.06 25.1
-6 8 -4 273.37 16.4
6 8 4 238.28 11.7
-6 8 -4 264.87 13.7
-6 8 -4 213.38 13.3
6 -8 -4 218.78 13.8
-6 8 -4 257.27 13.4
8 -8 4 130.29 7.3
8 8 -4 129.39 6.9
-8 8 -4 130.39 8.8
-8 8 -4 108.89 9.2
8 -8 -4 120.79 7.3
-8 8 -4 117.69 7.1
10 -8 4 52.19 3.1
-10 8 4 44.6 3.4
10 8 -4 48.1 2.7
-10 8 4 47.5 3
-10 -8 -4 40.3 3.8
-10 8 4 40.2 3.8
-10 8 -4 48 3
-10 8 -4 44.8 3.3
-10 8 -4 41.6 3.9
12 -8 4 35.8 2.8
-12 -8 -4 39.2 3.1
-12 8 -4 42.6 3.2
-14 -8 -4 5 1.4
-14 -8 4 4.5 1.3
-1 -9 -4 17.1 2
1 9 -4 10.1 1.3
-1 -9 -4 13.8 2
-1 9 4 15.3 1.8
1 9 -4 11.9 1.2
-1 9 4 11 1.5
1 9 -4 13.6 1.2
-1 9 -4 11.9 1
-1 9 -4 12.9 1
1 9 4 13.1 1.5
1 -9 -4 12.7 1.6
-1 9 -4 11.1 1.3
1 -9 -4 12.9 1.7
3 9 -4 2 0.8
-3 9 4 2.4 1
-3 -9 -4 2.2 1.3
3 9 -4 2.2 0.9
3 9 -4 2.9 0.8
-3 -9 -4 1 1
-3 9 4 2.5 0.9
3 9 4 1.9 1.1
-3 9 -4 2.4 0.7
-3 9 -4 3.4 0.7
-3 9 -4 2.5 0.7
-3 9 -4 2.2 0.7
3 9 4 2.2 1
5 9 -4 4.4 1.2
5 9 -4 5.7 1
-5 9 -4 6.2 1.1
5 9 4 5.2 1.4
-5 9 -4 6.7 1.2
-5 9 -4 5.9 1.1
-5 9 -4 7.8 1.1
-7 9 4 3.5 1.1
-7 9 -4 2.1 0.9
7 9 4 2.8 1.5
-7 9 -4 3 1.1
7 -9 -4 3.2 0.9
-7 9 -4 2.3 1.1
-7 9 -4 3.3 1.1
-9 -9 -4 0.3 1.1
9 9 -4 0.3 0.4
9 -9 4 -0.6 0.9
-9 9 4 -0.2 1.1
-9 9 4 0.2 0.9
-9 9 -4 0.7 1.3
-9 9 -4 -0.6 0.8
9 -9 -4 -0.1 1.4
-9 9 -4 -0.1 1.1
-11 -9 -4 1.6 1.4
-11 -9 -4 -0.4 1.2
11 -9 4 -0.8 1.1
-11 9 -4 0.9 1.4
-11 9 -4 0.2 1
-11 9 -4 0.7 1.6
-13 -9 -4 1.1 1.5
13 -9 4 1 1.8
-13 9 -4 1 1.3
0 10 -4 20 1.5
0 10 -4 18.8 1.7
0 -10 -4 20.6 2
0 10 4 21.8 1.9
0 10 4 18.6 1.9
0 -10 -4 21.7 2.3
0 10 -4 19.1 1.5
2 10 -4 239.98 15.9
-2 -10 -4 242.18 14.1
2 10 -4 248.48 13.5
2 10 -4 263.47 13.4
2 10 4 241.78 11.2
2 10 4 234.28 13.6
-2 10 -4 238.78 16.4
-2 10 -4 256.67 13.1
-2 10 -4 249.88 15.9
-2 10 -4 258.37 13.1
4 10 -4 856.91 45.4
4 10 -4 817.52 54.49
4 10 -4 842.22 45.7
-4 10 -4 811.42 54.49
-4 10 -4 947.51 45.1
-4 10 -4 899.41 45.1
4 10 4 878.31 37.3
-4 10 -4 876.01 56.99
-6 10 -4 114.69 7
-6 10 -4 120.19 7.2
-6 10 -4 108.39 6.7
6 10 4 120.49 6.7
-6 10 -4 135.59 8.4
8 -10 4 82.79 4.7
8 -10 -4 75.39 4.7
-8 10 -4 75.89 5.8
-8 10 -4 75.49 4.7
10 10 -4 40.8 2.4
-10 10 4 39.1 2.7
-10 -10 -4 34.4 3.4
10 -10 4 43.6 2.8
-10 10 -4 43 2.7
-10 10 -4 38.7 3.1
-10 10 -4 36.2 3.5
12 -10 4 29.6 2.3
-12 -10 -4 31.2 2.6
-12 10 -4 29.4 2.6
-12 10 -4 20.9 2.8
-14 -10 -4 6.4 1.4
-14 -10 4 5.8 1.3
-1 11 4 66.49 4.5
1 11 -4 69.09 4.1
-1 11 4 69.09 4.6
1 11 -4 68.69 4.7
1 11 -4 69.09 4.2
-1 11 -4 69.89 4
1 11 4 65.49 4.5
1 11 4 69.69 4.7
-1 11 -4 69.29 3.9
-1 11 -4 66.89 4.7
3 11 -4 210.28 14.1
3 11 -4 219.88 12.1
3 11 -4 208.48 12.3
-3 11 4 228.68 12.6
-3 11 -4 215.28 14.5
-3 11 -4 229.08 11.7
-3 11 -4 226.88 11.7
-3 11 -4 215.18 14.1
3 11 4 208.68 10.1
5 11 -4 175.28 10.4
5 11 -4 179.68 11.7
-5 11 -4 171.58 11.6
-5 11 -4 183.68 10
-5 11 -4 185.18 9.9
-5 11 -4 190.88 12.1
5 11 4 161.98 8.8
7 -11 -4 25.5 1.9
-7 11 -4 27.8 2.4
-7 11 -4 23.7 2
7 11 4 19.6 4
-7 11 -4 20 2.2
9 11 -4 17.7 1.2
-9 11 4 14.6 1.6
9 -11 4 19 1.6
-9 -11 -4 15.3 2
9 -11 -4 16.1 1.6
-9 11 -4 16.2 1.5
-9 11 -4 16.4 2.1
-9 11 -4 15.4 1.9
-11 -11 -4 6.4 1.7
11 -11 4 9.2 1.5
-11 11 4 8 1.2
11 11 -4 8.1 0.9
-11 11 -4 8.8 1.2
-11 11 -4 5.9 1.7
-11 11 -4 5.9 1.6
13 -11 4 2.6 1.1
-13 -11 -4 1.3 1.5
0 12 4 61.59 4.3
0 12 -4 60.69 3.8
0 12 -4 62.69 3.8
0 12 -4 66.79 4.5
2 12 -4 215.08 14.3
2 12 -4 224.38 12.1
-2 12 4 211.28 12.6
2 12 -4 224.48 12.3
2 12 4 220.58 10.2
-2 12 -4 227.68 14.3
-2 12 -4 232.48 11.8
-2 12 -4 229.08 11.9
-2 12 -4 203.78 14.7
4 12 -4 251.17 13.5
4 12 -4 217.48 13.7
4 12 -4 235.68 15.5
-4 12 -4 250.67 13
-4 12 -4 247.98 15.5
4 12 4 234.18 11.3
-4 12 -4 249.58 13
-4 12 -4 233.28 16.1
6 12 -4 101.39 6.9
-6 12 -4 114.09 7.1
-6 12 -4 101.59 6
-6 12 -4 89.59 5.9
-6 12 -4 95.39 6.1
6 12 4 97.79 5.9
8 12 -4 19.7 1.3
-8 12 4 20.3 1.7
8 -12 4 22.2 1.7
-8 -12 -4 18.2 2.7
-8 12 -4 20 2.2
-8 12 -4 18.5 1.9
8 -12 -4 19.9 1.7
-8 12 -4 21.8 1.7
10 12 -4 12.7 1
10 -12 4 12.7 1.5
-10 -12 -4 6.6 2.6
-10 12 4 11.5 1.5
-10 12 -4 13.9 1.5
-10 12 -4 8.8 1.9
-10 12 -4 7.3 1.7
-12 -12 -4 5.1 1.7
12 -12 4 2.4 1.1
1 13 -4 460.55 28.7
1 13 -4 460.45 23.9
1 13 -4 452.05 23.9
-1 13 -4 457.55 23.7
-1 13 -4 446.16 28.7
1 13 4 428.76 19.7
-1 13 -4 447.66 23.7
3 13 -4 584.74 30
3 13 -4 574.64 35.8
3 13 -4 532.95 30.1
-3 13 -4 576.14 29.5
-3 13 -4 560.84 29.5
3 13 4 533.15 24.6
-3 13 -4 583.94 35.8
5 13 -4 532.55 32.6
-5 13 -4 520.55 27
-5 13 -4 488.65 32.5
5 13 4 512.05 22.9
-5 13 -4 509.15 27.1
-7 13 4 145.79 8.7
7 13 -4 147.89 8.2
7 13 -4 144.39 8.5
-7 13 -4 153.18 11
7 -13 -4 148.59 8.6
9 13 -4 32.6 2
9 -13 4 36.4 2.4
-9 13 4 31.1 2.4
9 -13 -4 30 2.4
-9 13 -4 32.8 2.3
-11 -13 -4 25.1 2.6
-11 13 4 32 2.2
11 13 -4 28 1.9
11 -13 4 30.1 2.4
-11 13 -4 30.3 2.2
-13 -13 -4 4.6 1.6
0 14 -4 19.3 1.7
0 14 -4 18.7 1.6
0 14 -4 16.1 1.9
2 14 -4 17.2 1.8
2 14 -4 19.2 1.9
2 14 -4 17.5 1.9
2 14 4 17.1 2.1
-2 14 -4 16.5 1.6
-2 14 -4 15.3 1.5
-2 14 -4 17.6 1.9
4 14 -4 13.5 1.8
4 14 -4 13.9 2
-4 14 -4 10.6 1.5
4 14 4 8.7 1.8
-4 14 -4 12.2 1.4
-4 14 -4 10 1.3
6 14 -4 3.6 0.4
6 14 -4 3 1.1
-6 14 -4 3.2 0.6
6 14 4 2.8 1.7
8 14 -4 1.9 0.4
-8 14 4 2 0.9
8 -14 -4 2.3 1
-8 14 -4 2.3 0.8
-10 14 4 -0.1 1
10 -14 4 0.9 1.2
10 14 -4 0.1 0.4
-10 14 -4 0.8 1
12 -14 4 1.6 1.1
-12 14 -4 0.3 1
1 15 -4 466.05 24.6
1 15 -4 474.25 24.6
1 15 -4 485.65 29.5
-1 15 -4 432.46 24.3
-1 15 -4 464.55 24.3
1 15 4 434.16 20.3
-1 15 -4 473.45 29.5
3 15 -4 400.96 21.9
3 15 -4 424.36 26
3 15 -4 394.86 22.1
-3 15 4 398.96 25.7
-3 15 -4 387.96 21.3
-3 15 -4 411.96 21.4
-3 15 -4 435.36 26
3 15 4 379.46 18.1
-5 15 4 241.68 13.5
5 15 -4 253.77 16.1
5 15 -4 240.58 13.5
-5 15 -4 242.58 13.5
-5 15 -4 251.67 16.1
7 15 -4 76.79 4.8
7 15 -4 80.09 4.6
-7 15 4 85.29 4.9
-7 15 -4 84.49 4.9
-7 15 -4 81.89 4.7
7 -15 -4 84.29 5
9 15 -4 46.4 3
-9 15 4 51.19 3.3
9 -15 4 49.4 3.3
-9 15 -4 51.19 3.2
-11 15 4 42.7 2.8
11 -15 4 37 2.9
11 15 -4 38.2 2.5
-11 15 -4 42.9 2.7
0 16 -4 277.27 17.2
0 16 -4 261.27 14.4
0 16 -4 256.47 14.3
2 16 -4 231.48 12.7
2 16 -4 238.88 15
2 16 -4 228.88 12.8
-2 16 -4 215.18 12.2
-2 16 -4 232.28 14.9
-2 16 -4 219.58 12.3
4 16 -4 144.69 8.2
4 16 -4 141.49 8.9
4 16 -4 160.38 10.1
-4 16 4 144.39 8.2
-4 16 -4 150.48 10
-4 16 -4 147.49 8.2
-6 16 4 51.19 3.2
6 16 -4 48.3 4.1
6 16 -4 51.19 3
6 16 -4 50.89 3.1
-6 16 -4 50.99 3.2
6 16 4 53.99 3.2
-6 16 -4 53.39 3.1
-8 16 4 47.8 3.2
8 16 -4 48.5 2.9
8 -16 -4 47.1 3.2
-8 16 -4 49.2 3.1
10 -16 4 27 2.2
10 16 -4 28 1.8
-10 16 4 26.8 2.2
-10 16 -4 27.3 2.2
12 -16 4 16.9 1.7
-12 16 -4 19.4 1.7
1 17 -4 62.59 4.4
1 17 -4 66.69 4.4
1 17 -4 75.79 5.1
-1 17 -4 70.29 4
-1 17 -4 62.49 4.2
-1 17 -4 78.59 5.1
-1 17 -4 62.79 4.2
3 17 -4 68.89 5.1
-3 17 4 80.89 5.5
3 17 -4 79.69 5.7
-3 17 4 75.59 4.4
3 17 -4 75.09 4.4
-3 17 -4 80.19 4.4
-3 17 -4 84.89 5.7
5 17 -4 30.5 1.8
-5 17 4 32 2.1
-5 17 4 32.8 2
5 17 -4 27.1 1.9
5 17 -4 31.6 3
-5 17 -4 26.6 2.3
-5 17 -4 32.6 1.9
7 17 -4 12.6 1.1
7 17 -4 12.6 1.1
-7 17 4 14.6 1.5
-7 17 -4 14.7 1.4
-7 17 -4 14.1 1.3
-9 17 4 19.8 1.8
9 17 -4 17.5 1.4
9 -17 4 18.9 1.9
-9 17 -4 20.4 1.8
11 17 -4 7.7 0.8
11 -17 4 5.7 1.4
-11 17 4 7.1 1.1
-11 17 -4 7.8 1.2
0 18 -4 316.67 18.2
0 18 -4 327.77 18.6
0 18 -4 349.77 18.3
0 18 -4 364.36 22
2 18 -4 299.67 17.2
-2 18 4 300.17 17.3
-2 18 4 324.37 20.3
2 18 -4 299.67 17.5
2 18 -4 327.97 20.5
2 18 -4 305.37 17.2
-2 18 -4 314.47 17.3
-2 18 -4 342.47 20.5
4 18 -4 190.08 10.3
-4 18 4 189.78 10.3
4 18 -4 176.98 10.7
4 18 -4 188.98 12.5
-4 18 4 187.18 10.8
4 18 4 173.98 10.9
-4 18 -4 192.48 12.5
-4 18 -4 191.48 10.3
6 18 -4 104.89 7.9
6 18 -4 104.99 6.5
6 18 -4 111.29 6.2
-6 18 4 114.29 6.6
-6 18 -4 113.49 6.6
6 18 4 114.19 6.5
-6 18 -4 117.09 6.3
-8 18 4 79.99 4.9
8 18 -4 81.29 4.7
8 -18 -4 76.19 4.9
-8 18 -4 78.69 4.8
10 18 -4 32.1 2.1
-10 18 4 34 2.4
10 -18 4 29.8 2.5
-10 18 -4 33.9 2.3
-12 18 -4 18.6 1.6
-1 19 4 28 2.6
-1 19 4 24.4 1.7
1 19 -4 29.5 2.8
1 19 -4 27.1 1.7
-1 19 -4 27.3 2.7
1 19 4 26.4 1.7
-1 19 -4 29.7 1.7
-3 19 4 20.2 1.5
-3 19 4 20.4 1.5
3 19 -4 21.5 1.4
3 19 -4 22.8 2.6
3 19 -4 19.3 1.4
-3 19 4 22.3 2.3
-3 19 -4 20.1 1.8
3 19 4 23.6 1.5
-3 19 -4 22.9 1.5
-3 19 -4 23.4 2.4
-5 19 4 14.1 1.3
5 19 -4 15.5 1.1
-5 19 4 13.1 1.4
5 19 -4 16.8 2.4
5 19 -4 14.5 1.1
-5 19 -4 13.6 1.3
5 19 4 17 1.2
-5 19 -4 15.8 1.2
7 19 -4 13.2 1.1
7 19 -4 10 1.1
-7 19 4 10.9 1.5
-7 19 -4 12.4 1.3
-7 19 -4 12.1 1.4
-9 19 4 2.2 1.1
9 -19 4 2.3 1.3
9 19 -4 2 0.5
-9 19 -4 1.6 1
11 19 -4 0.5 0.4
-11 19 4 -0.2 0.9
11 -19 4 0.7 1.2
-11 19 -4 0.3 0.9
0 20 -4 193.98 12.1
0 20 4 207.98 11.6
0 20 -4 229.68 14.1
0 20 4 205.88 12.1
0 20 -4 217.98 11.6
2 20 -4 177.48 11.2
2 20 -4 212.18 13.2
-2 20 4 207.98 13
-2 20 4 186.28 11.3
-2 20 4 192.68 10.8
2 20 -4 202.78 10.8
2 20 4 196.98 11.3
-2 20 -4 205.08 13.1
-2 20 -4 197.78 10.8
-2 20 -4 178.58 11.2
-4 20 4 99.29 5.7
-4 20 4 100.09 5.5
4 20 -4 97.99 5.4
4 20 -4 98.59 7.2
4 20 -4 90.89 5.6
4 20 4 98.79 5.7
-4 20 -4 93.89 6.9
-4 20 -4 100.79 5.5
-4 20 -4 90.79 5.7
6 20 -4 107.39 6.1
6 20 -4 88.99 7.5
-6 20 4 107.49 6.3
6 20 -4 107.69 5.9
-6 20 -4 106.09 6.2
6 20 4 104.39 6.2
-6 20 -4 108.29 6
-8 20 4 36 2.6
8 20 -4 35.5 2.2
-8 20 -4 34.9 2.5
10 20 -4 21.5 1.5
-10 20 4 23.3 1.9
10 -20 4 19.6 1.9
-10 20 -4 22.9 1.9
1 21 -4 197.48 12.8
1 21 -4 172.48 10.8
-1 21 4 202.98 12.7
1 21 -4 192.88 10.4
-1 21 4 183.28 10.9
-1 21 4 185.08 10.4
-1 21 -4 194.38 10.4
1 21 4 184.58 10.4
-1 21 -4 193.68 12.8
1 21 4 191.58 10.9
-1 21 -4 178.28 10.9
3 21 -4 120.89 8.2
-3 21 4 114.29 7.9
-3 21 4 112.59 6.4
-3 21 4 109.99 6.6
3 21 -4 114.19 6.3
3 21 -4 110.29 6.6
3 21 4 116.09 6.6
-3 21 -4 115.19 6.4
-3 21 -4 113.49 8.1
-3 21 -4 106.19 6.6
-5 21 4 66.79 4.4
5 21 -4 68.19 5.7
5 21 -4 72.59 4.2
5 21 -4 71.99 4.1
-5 21 4 73.59 4.2
-5 21 -4 72.89 4.2
-5 21 -4 68.89 4.3
5 21 4 74.99 4.3
-7 21 4 35.7 2.5
7 21 -4 38.7 2.3
7 21 4 27.6 3.3
-7 21 -4 35.8 2.5
7 -21 -4 34.8 2.6
9 21 -4 23.3 1.6
-9 21 4 24 2
9 -21 4 21.1 2
-9 21 -4 24.5 2
-11 21 4 4.9 0.9
-11 21 -4 5.3 1
0 22 -4 64.79 3.6
0 22 -4 57.89 3.7
0 22 -4 63.69 5.1
0 22 4 65.39 5
0 22 4 62.59 3.8
0 22 4 60.79 3.6
2 22 -4 26.9 1.8
-2 22 4 28.8 1.9
2 22 -4 27.4 3
2 22 -4 24.6 1.8
-2 22 4 28 1.9
-2 22 4 29.1 2.9
2 22 4 27.6 2.9
2 22 4 27.2 1.8
-2 22 -4 27.5 2.9
-2 22 -4 29.2 1.8
-2 22 -4 25.6 1.8
-4 22 4 13.2 1.4
4 22 -4 14.5 1.2
4 22 -4 10.9 2.1
4 22 -4 15.4 1.2
-4 22 4 16.5 1.3
-4 22 -4 12.8 2.2
4 22 4 14.1 1.2
-4 22 -4 12.2 1.2
-4 22 -4 16.2 1.3
6 22 -4 4.3 0.6
6 22 -4 7.5 0.9
-6 22 4 6.2 1
6 22 -4 1.8 1.4
6 22 4 2.6 1.4
6 22 4 4 0.6
-6 22 -4 5 0.8
-6 22 -4 5.5 0.8
8 22 -4 9.4 1.1
-8 22 4 11.1 1.5
-8 22 -4 10.7 1.4
-10 22 4 3.2 0.9
10 -22 4 2.6 1.1
10 22 -4 1.9 0.5
-10 22 -4 3.5 0.9
-1 23 4 173.48 10
1 23 -4 176.58 9.6
1 23 -4 176.48 11.9
-1 23 4 182.78 11.8
1 23 -4 158.38 9.9
-1 23 4 171.58 9.6
-1 23 -4 176.88 9.6
1 23 4 164.98 9.6
1 23 4 180.38 11.8
-1 23 -4 174.58 11.9
1 23 4 171.68 10
-1 23 -4 161.58 9.9
3 23 -4 105.89 7.9
-3 23 4 108.99 6.1
-3 23 4 105.49 6.3
3 23 -4 107.19 6
3 23 -4 104.99 6.3
-3 23 -4 100.49 7.7
-3 23 -4 102.29 6.3
3 23 4 109.09 6.3
-3 23 -4 109.69 6.1
3 23 4 117.99 7.9
-5 23 4 61.89 3.8
5 23 -4 62.99 3.7
5 23 -4 60.59 3.5
5 23 -4 51.49 5
5 23 4 61.59 3.7
-5 23 -4 63.39 3.6
5 23 4 56.99 5
-5 23 -4 62.29 3.8
7 23 -4 65.99 3.9
-7 23 4 64.79 4.1
-7 23 -4 63.79 4
-9 23 4 56.99 3.3
9 -23 4 43.1 3.4
-9 23 -4 53.89 3.3
0 24 -4 16.5 2.6
0 24 4 18.4 2.6
0 24 -4 19.5 1.4
0 24 4 19.6 1.5
0 24 -4 18.3 1.3
0 24 4 17.7 1.4
-2 24 4 17.5 1.4
2 24 -4 18.1 1.3
2 24 -4 17.4 2.7
-2 24 4 16.5 2.4
-2 24 4 17.8 1.4
2 24 -4 17.8 1.3
2 24 4 17.8 1.4
2 24 4 14.6 2.5
-2 24 -4 17 1.3
-2 24 -4 16.1 2.5
-2 24 -4 17.8 1.4
4 24 -4 9.8 2.1
4 24 -4 11.9 1.1
-4 24 4 14.1 1.3
-4 24 4 11.6 1.4
4 24 -4 13.6 1.1
4 24 4 10.6 2.1
-4 24 -4 12.3 1.2
4 24 4 12.9 1.2
-4 24 -4 13.9 1.2
6 24 -4 11.6 1.1
6 24 -4 13.2 1.2
-6 24 4 11.1 1.5
6 24 4 11.6 1.2
-6 24 -4 11.6 1.4
-6 24 -4 12.3 1.3
-8 24 4 11.3 1.5
8 24 -4 11.5 1.1
8 -24 4 9.1 1.5
-8 24 -4 10.1 1.4
-10 24 4 4.9 0.9
10 24 -4 4.7 0.7
-10 24 -4 4.2 0.8
1 25 -4 80.29 4.5
-1 25 4 78.19 6
1 25 -4 71.39 6.1
-1 25 4 79.79 4.7
-1 25 4 80.89 4.5
1 25 -4 75.99 4.6
1 25 4 76.49 4.5
-1 25 -4 75.29 4.6
1 25 4 78.59 4.7
-1 25 -4 80.49 4.5
-1 25 -4 76.89 6.1
1 25 4 73.89 6
3 25 -4 25.8 1.8
-3 25 4 28.1 1.9
3 25 -4 25.6 1.8
3 25 -4 22.4 3
-3 25 4 26.7 2
3 25 4 26.3 1.9
-3 25 -4 26.7 1.8
-3 25 -4 24.5 2.9
3 25 4 25.8 3.1
-3 25 -4 27.8 1.9
5 25 -4 33.7 2.2
-5 25 4 37 2.5
5 25 -4 39.4 2.3
5 25 4 26.1 3.4
5 25 4 34.4 2.3
-5 25 -4 34.2 2.4
-5 25 -4 36.2 2.3
7 25 -4 61.79 3.7
-7 25 4 59.59 3.8
-7 25 -4 58.89 3.8
9 25 -4 23.3 1.6
-9 25 4 24.5 1.9
-9 25 -4 26 1.9
0 26 -4 85.69 4.9
0 26 -4 85.99 5
0 26 4 81.09 6.4
0 26 4 82.79 4.9
0 26 4 88.89 5.1
0 26 -4 77.19 6.5
-2 26 4 74.09 4.3
2 26 -4 71.49 4.2
-2 26 4 71.29 4.1
2 26 -4 70.89 4.1
2 26 -4 64.89 5.7
-2 26 4 65.69 5.5
-2 26 -4 60.09 5.5
-2 26 -4 70.79 4.2
2 26 4 70.29 4.2
2 26 4 66.09 5.6
-2 26 -4 73.29 4.1
4 26 -4 37.7 2.2
-4 26 4 33.8 2.3
4 26 -4 31.5 2.1
4 26 -4 27 3.4
-4 26 -4 32.5 2.2
4 26 4 28.4 3.4
-4 26 -4 33.1 2.2
4 26 4 34.1 2.2
6 26 -4 58.69 3.3
-6 26 4 52.49 3.5
6 26 4 51.49 3.6
-6 26 -4 52.79 3.4
-8 26 4 34.3 2.3
8 -26 4 28.7 2.4
-8 26 -4 33.1 2.3
1 27 -4 10.8 1.1
-1 27 4 9.9 2
-1 27 4 10.7 1.2
-1 27 4 12.5 1.2
1 27 -4 10.9 1.1
1 27 -4 8.1 2
1 27 4 10.4 1.2
1 27 4 6.2 1.8
-1 27 -4 7.3 1.9
-1 27 -4 12.6 1.1
-1 27 -4 10.7 1.1
1 27 4 11.4 1.2
3 27 -4 5.6 0.8
3 27 -4 2.1 1.5
-3 27 4 5.5 0.8
-3 27 4 5.5 0.8
3 27 -4 3.9 0.6
-3 27 -4 1.9 1.3
3 27 4 4 0.7
-3 27 -4 4.9 0.7
3 27 4 4 1.6
-3 27 -4 4.1 0.7
-5 27 4 1.8 0.8
5 27 -4 2.3 0.5
5 27 -4 1.6 0.5
-5 27 -4 2.3 0.7
5 27 4 1.8 0.6
-5 27 -4 2 0.7
7 27 -4 2.3 0.5
-7 27 4 4 0.9
-7 27 -4 3.1 0.8
0 28 4 106.19 6.3
0 28 -4 105.29 6.2
0 28 -4 111.49 9.3
0 28 4 101.79 6
0 28 -4 108.09 6
2 28 -4 82.59 4.8
2 28 -4 80.49 4.6
-2 28 4 79.99 4.7
-2 28 4 82.79 4.9
-2 28 -4 78.79 4.7
-2 28 -4 77.69 4.8
2 28 4 80.49 4.8
4 28 -4 51.89 3
-4 28 4 48.1 3.1
-4 28 -4 46.3 3
4 28 4 46.7 3
-4 28 -4 47.3 2.9
-6 28 4 23.6 1.8
6 28 -4 23.1 1.6
-6 28 -4 23 1.8
-1 29 4 27.4 1.9
-1 29 4 25.8 1.8
1 29 -4 25.7 1.8
1 29 -4 28.4 1.9
-1 29 -4 25.7 1.8
1 29 4 26.9 1.9
-1 29 -4 27.3 1.9
3 29 -4 20.4 1.4
3 29 -4 17.3 1.4
-3 29 4 17.5 1.6
3 29 4 19.1 1.5
-3 29 -4 17.6 1.5
-3 29 -4 18.8 1.5
5 29 -4 12.9 1.1
-5 29 4 9.7 1.3
-5 29 -4 10.8 1.3
0 30 -4 40.1 2.5
0 30 4 36.1 2.4
0 30 -4 38.8 2.4
0 30 4 39.4 2.5
2 30 -4 20.6 1.5
2 30 -4 18.4 1.4
-2 30 4 19.8 1.6
-2 30 -4 20.8 1.5
-2 30 -4 19.6 1.5
2 30 4 19.3 1.5
4 30 -4 25.3 1.6
4 30 -4 19.9 1.6
-4 30 4 23.7 1.8
-4 30 -4 24.6 1.7
-4 30 -4 25.5 1.7
4 30 4 21.5 1.6
1 31 -4 27.8 1.8
1 31 -4 25.1 1.8
-1 31 4 28.8 1.9
-1 31 -4 28.6 1.9
-1 31 -4 26.8 1.8
1 31 4 27 1.9
3 31 -4 27.4 2
3 31 -4 32.5 2
-3 31 4 31.4 2.1
-3 31 -4 33.5 2.1
-3 31 -4 32.5 2
3 31 4 31.5 2.1
0 32 4 2.1 0.6
0 32 -4 1.2 0.5
0 32 -4 1.3 0.5
2 32 -4 1.4 0.5
-2 32 -4 2.8 0.5
0 0 5 3.8 0.5
0 0 5 4.5 0.6
0 0 -5 3.5 0.5
0 0 -5 4.9 0.6
2 0 -5 0.4 1
-2 0 5 0.2 0.9
-2 0 -5 0.5 0.8
2 0 -5 1.4 0.5
-2 0 5 0.6 0.6
2 0 5 1.5 0.8
2 0 5 0.6 0.8
2 0 5 0.9 0.5
-2 0 -5 1.3 0.5
4 0 5 2 1
-4 0 -5 2.8 1.1
-4 0 5 4 1.7
-4 0 -5 2.4 0.8
4 0 -5 1.6 1.1
4 0 5 2.2 0.8
4 0 -5 2.3 1
-4 0 -5 4.4 0.8
-4 0 5 2.7 1.1
-6 0 -5 3 1.5
-6 0 -5 0.5 1
-6 0 -5 1.5 0.9
6 0 5 1.3 1.2
8 0 5 -0.4 1.7
-10 0 -5 1.3 1.3
-10 0 -5 4.3 1.5
-12 0 -5 0.3 1.3
-12 0 -5 1.2 1.6
-14 0 5 3.1 1.4
-14 0 -5 3 1.4
1 -1 5 108.09 4.9
-1 -1 -5 108.29 5.9
1 1 -5 109.79 6
-1 1 5 109.69 6
1 -1 5 105.29 5.9
1 -1 5 103.49 5.8
1 1 -5 113.59 5.9
-1 -1 -5 115.79 6
-1 -1 5 107.49 5.9
1 -1 -5 116.49 6.2
-1 -1 5 112.69 6.1
1 -1 -5 113.09 6
1 1 5 105.19 5.9
1 1 5 111.69 6.1
3 1 -5 4.4 1
-3 1 5 3.3 0.9
3 -1 5 3.4 0.9
3 1 -5 3.6 1.1
-3 -1 -5 4.3 0.8
3 -1 5 5.2 1.1
-3 1 5 4.1 1.4
-3 -1 -5 3.1 1.1
3 -1 -5 3.3 0.9
-3 -1 5 2.9 0.8
-3 1 -5 4.2 0.7
3 1 5 3.7 1
3 1 5 3.9 0.8
3 -1 -5 3.5 1.2
3 1 5 3.2 1.2
-3 1 -5 3.2 0.9
-3 -1 5 3.8 1.4
5 -1 5 13.5 1.8
-5 -1 -5 12.3 1.6
-5 -1 -5 12.5 2.1
-5 -1 -5 14.2 1.4
5 1 -5 11 2.1
5 1 -5 13.9 1.8
-5 1 -5 14.2 1.4
5 1 5 11.6 1.7
-5 1 -5 14.6 1.6
5 -1 -5 13.8 2.5
-5 1 -5 12.4 1.9
5 -1 -5 16.6 2.1
7 -1 5 0.1 1.2
-7 -1 -5 0.2 0.9
7 -1 5 1.7 0.9
-7 -1 -5 0.9 1.5
7 1 5 1.3 0.8
-7 1 -5 0.9 1
7 1 5 0.3 1.1
-7 1 -5 0.6 1.3
-7 1 -5 0 0.9
-7 1 -5 1.5 1
9 -1 5 4 1.1
-9 -1 -5 3.5 1.4
-9 -1 -5 3 1.2
9 1 5 2.5 1.3
-9 1 -5 4.1 1.3
-9 1 -5 2.9 1.2
-11 -1 -5 0.1 1.4
-11 -1 -5 0 1.3
-11 1 -5 -0.5 1.2
-11 1 -5 1 1.5
-13 -1 -5 0.2 1.5
-13 -1 -5 -0.7 1.2
-13 1 5 -1.2 1.2
-13 1 5 -0.3 1.3
-13 -1 5 -1.2 1.2
-13 1 -5 -0.6 1.2
-13 1 -5 -1.3 1.5
-15 -1 -5 -1 1.2
-15 1 -5 -0.1 1.2
0 -2 -5 0.8 0.5
0 2 5 1.3 0.5
0 2 5 1.8 0.5
0 -2 -5 1.4 0.5
-2 2 5 4.6 0.9
-2 -2 -5 6.5 0.9
2 2 -5 5.8 1.1
-2 -2 -5 6.1 1.1
2 -2 5 5.2 0.9
2 2 -5 6.5 0.9
2 2 5 5.3 0.8
-2 -2 5 6.1 0.9
-2 2 -5 6.4 1
2 -2 -5 5 0.9
-2 -2 5 7.1 1.5
2 2 5 7 1.3
2 2 5 7 1.1
2 -2 -5 6.5 1.4
4 2 -5 22 2.5
4 -2 5 23 2
4 2 -5 23.6 2
-4 2 5 26.5 2.1
-4 -2 -5 24.7 2
-4 2 5 25.3 2.7
-4 -2 -5 21.7 2.4
-4 -2 -5 24.6 1.9
-4 2 -5 25.1 1.9
4 2 5 22.7 1.9
-4 2 -5 24.2 2
4 -2 -5 26 2.8
-4 -2 5 23.3 2.6
-4 -2 5 22.8 2.1
4 -2 -5 21.2 2.1
-4 2 -5 22.5 1.9
4 2 5 27 2.1
6 -2 5 51.59 3.2
6 -2 5 51.99 3.5
-6 -2 -5 54.89 4
-6 -2 -5 56.39 4
-6 -2 -5 52.69 4.4
-6 2 -5 55.39 4.1
-6 2 -5 55.19 4
6 2 5 53.29 3.7
-6 2 -5 52.99 3.8
6 2 5 51.59 3.3
-8 -2 -5 10.8 1.7
8 -2 5 13.1 1.4
8 2 5 14.2 1.5
8 2 5 7 1.9
-8 2 -5 9.8 1.7
-8 2 -5 11.4 1.7
-10 -2 -5 0.9 1.3
10 -2 5 2 1.1
-10 -2 -5 1.3 1.4
-10 2 -5 0.6 1.3
-10 2 -5 2.2 1.4
-12 -2 -5 0.3 1.3
-12 2 5 1 1.4
-12 -2 -5 3.9 1.7
-12 2 -5 0.5 1.4
-12 2 -5 2.4 1.6
-14 2 5 0.9 1.3
-14 -2 -5 0.8 1.3
-14 -2 5 -0.2 1.3
-14 2 -5 1 1.4
-1 -3 -5 44.3 2.9
1 -3 5 47.4 2.2
-1 3 5 43.9 2.9
-1 -3 -5 42.4 2.7
1 3 -5 44.8 2.6
-1 3 5 43.7 2.8
1 3 -5 48.3 2.5
1 3 5 38.8 2.8
-1 -3 5 45.4 2.9
1 -3 -5 47.2 2.9
1 3 5 40.6 2.7
-1 -3 5 44.6 2.6
3 -3 5 75.79 3.8
3 3 -5 75.79 4.4
-3 -3 -5 74.89 4.5
3 3 -5 69.39 4.7
-3 -3 -5 74.39 4.8
-3 3 5 74.29 4.5
3 3 5 70.89 4.4
3 -3 -5 79.79 4.6
-3 -3 5 75.29 5
3 -3 -5 72.69 4.9
3 3 5 73.59 3.9
-3 3 -5 71.89 5.1
-3 3 -5 81.49 4.2
-3 3 -5 77.09 4.2
-3 -3 5 73.99 4.5
3 3 5 66.89 4.8
5 -3 5 75.09 4.2
-5 -3 -5 73.99 4.9
5 3 -5 64.19 5.3
-5 -3 -5 74.89 5.3
-5 -3 -5 74.89 5.3
5 3 -5 77.19 4.9
-5 3 -5 79.79 4.7
5 -3 -5 74.39 5
5 3 5 79.39 4.4
-5 3 -5 75.69 5.3
7 -3 5 73.79 4.7
-7 -3 -5 76.39 5.3
7 -3 5 75.69 4.3
-7 3 -5 65.79 4.3
7 3 5 64.59 4.6
-7 3 -5 79.09 5.1
-7 3 -5 75.29 5.3
-7 3 -5 67.59 4.9
9 -3 5 28.6 2.1
-9 -3 -5 23.6 2.6
-9 -3 -5 28.2 2.2
-9 3 -5 23.2 2.6
-9 3 -5 28 2.3
11 -3 5 1.2 1.1
-11 -3 -5 4.5 1.7
-11 -3 -5 0.5 1.4
-11 3 -5 4.2 1.7
-11 3 -5 0.4 1.3
-13 -3 -5 2.8 1.6
-13 3 5 2 1.5
-13 3 5 1.9 1.5
-13 -3 -5 1.4 1.5
-13 3 -5 1.1 1.3
-13 -3 5 1.1 1.5
-13 3 -5 5.2 1.6
-15 -3 -5 0.3 2.3
0 -4 -5 13.3 1.5
0 4 5 14 1.4
0 -4 -5 15.8 1.6
0 4 5 14.1 1.5
-2 -4 -5 91.99 5.6
2 -4 5 92.19 4.3
-2 4 5 79.79 5.3
-2 4 5 95.89 5.6
2 4 -5 94.29 5.1
2 4 -5 85.99 5.3
-2 -4 -5 97.89 5.4
2 -4 -5 92.29 5.4
2 -4 -5 106.49 5.9
2 4 5 86.69 5.2
2 4 5 83.19 5.5
-2 -4 5 92.29 5.6
2 4 5 90.89 4.5
-2 4 -5 88.49 4.3
-2 -4 5 87.09 4.3
4 4 -5 3.2 0.9
-4 -4 -5 2.6 0.9
-4 4 5 5.1 1.7
-4 -4 -5 1.3 1.1
4 4 -5 1.8 1.1
-4 -4 -5 4.1 0.8
-4 4 5 2.2 0.8
4 -4 5 1.8 0.9
-4 4 -5 2.5 0.7
-4 -4 5 2 0.9
4 4 5 2 1
-4 4 -5 3.3 0.8
4 4 5 1.7 0.8
4 -4 -5 2.6 0.8
4 4 5 1.7 1.1
-4 -4 5 2.3 1.3
4 -4 -5 0.6 0.7
-4 4 -5 3.3 0.7
-6 -4 -5 14.5 2.6
6 -4 5 10.2 1.1
-6 -4 -5 12.9 1.4
6 -4 5 10.2 1.8
6 4 5 10.1 1.9
-6 4 -5 10.5 1.6
-6 4 -5 12.5 1.5
-6 4 -5 10.5 1.7
8 -4 5 1.4 0.9
-8 -4 -5 1.9 1.1
-8 4 -5 2.4 1.2
-8 4 -5 1.7 1.1
-8 4 -5 0.2 1.2
8 4 5 0.7 1.4
-10 -4 -5 -0.2 1.3
-10 -4 -5 -0.3 1.2
10 -4 5 -0.3 0.9
10 4 -5 0.4 0.4
-10 4 -5 -0.8 1.3
-10 4 -5 -0.3 1.1
-12 -4 -5 -0.1 1.6
-12 -4 -5 -0.2 1.3
-12 4 5 -0.1 1.3
-12 4 5 -1.5 1.3
-12 4 -5 -0.6 1.2
-12 4 -5 0.2 1.6
-14 4 5 -0.2 1.2
-14 -4 -5 1 1.5
-14 -4 5 -1.4 1.1
-14 4 -5 -0.7 1.2
-1 -5 -5 458.05 25.7
1 5 -5 489.45 25.2
1 5 -5 493.05 25.2
-1 -5 -5 432.56 25.5
1 -5 -5 538.95 25.7
1 -5 -5 491.25 25.6
1 5 5 487.05 25.7
3 5 -5 1201.78 61.69
-3 -5 -5 1241.28 61.99
-3 -5 -5 1065.49 61.49
3 -5 5 1282.17 49.99
3 5 -5 1202.38 61.39
-3 5 5 1200.38 61.49
-3 -5 5 1289.37 62.09
3 5 5 1173.38 61.49
-3 5 -5 1125.29 77.79
3 -5 -5 1170.88 61.69
3 5 5 1130.89 61.79
3 5 5 1219.28 50.19
-3 5 -5 1104.19 74.29
-5 -5 -5 27.8 2.6
5 5 -5 24.4 2.8
-5 -5 -5 31.9 3.2
5 5 -5 28.1 2.5
5 -5 5 29.1 2.4
5 5 5 25.6 2.4
-5 5 -5 30 2.2
-5 5 -5 28.7 2.3
-5 5 -5 26.8 2.3
7 -5 5 53.29 3.2
-7 -5 -5 55.39 4
-7 5 -5 49.6 3.8
-7 5 -5 44.3 3.8
7 -5 -5 52.39 3.6
7 5 5 40.1 3.6
-7 5 -5 50.09 3.3
-7 5 -5 55.49 4
9 5 -5 23.2 1.4
9 -5 5 24.5 1.9
-9 5 -5 22.8 1.8
-9 5 -5 16.6 2.4
-9 5 -5 24.7 2.2
-11 -5 -5 5.4 1.7
-11 5 5 1.1 1.6
11 -5 5 4.9 1.3
-11 5 -5 7.1 1.8
-11 5 -5 1.9 1.5
-13 5 5 2 1.5
-13 -5 -5 2.6 1.6
-13 5 5 0.8 1.4
-13 -5 -5 0.9 1.5
-13 -5 5 0.6 1.4
-13 5 -5 4.3 1.7
-13 5 -5 1.9 1.5
0 6 -5 6.3 1
0 -6 -5 11.9 1.8
0 6 5 7.7 1.2
0 6 5 9.9 1.5
0 -6 -5 9.3 1.5
-2 6 5 60.09 3.8
-2 -6 -5 60.39 3.8
2 6 -5 60.89 4
2 6 -5 62.49 3.7
2 6 -5 54.89 3.5
-2 -6 -5 57.19 4
2 6 5 56.79 3.9
2 -6 -5 57.69 3.9
2 6 5 58.79 3.2
-2 6 -5 59.29 2.9
-2 -6 5 60.49 3
2 6 5 59.99 3.8
-2 6 -5 56.19 4
-4 6 5 3.1 0.9
-4 -6 -5 5.6 1.2
4 6 -5 8.1 1.3
-4 6 5 5.2 1.5
4 6 -5 5.7 0.9
4 6 -5 4.6 1.2
-4 -6 -5 6 1.6
-4 6 -5 5.1 0.8
-4 6 -5 6.9 0.9
4 6 5 5 1.2
-4 6 -5 5.4 0.9
4 -6 -5 5.3 2
4 -6 -5 5.3 1.2
-4 6 -5 5.6 0.9
-6 6 -5 24.1 2.1
-6 6 -5 31.9 2.5
6 6 5 26 2.7
-6 6 -5 29.3 2.5
6 -6 -5 27.2 2.4
-6 6 -5 28.8 2.4
8 -6 5 2.8 0.9
-8 -6 -5 1.7 1.1
-8 6 -5 1.1 1
-8 6 -5 1.5 1.1
-8 6 -5 2.5 1.3
-8 6 -5 1.2 1.2
10 -6 5 0.5 1.2
-10 -6 -5 0.9 1.2
-10 -6 -5 0.3 1.3
10 6 -5 0 0.4
-10 6 -5 0.6 1.2
-10 6 -5 0.7 0.9
-10 6 -5 1.2 1.4
-12 -6 -5 0.2 1.5
-12 6 5 -0.1 1.4
-12 -6 -5 -0.2 1.3
-12 6 5 1.3 1.5
12 -6 5 -0.3 1
-12 6 -5 0.5 1.3
-12 6 -5 2.9 1.6
-14 -6 -5 -0.5 1.4
-14 -6 5 -0.3 1.1
14 -6 -5 -1.2 0.8
-14 6 -5 -0.5 1.2
-1 -7 -5 52.19 3.7
1 7 -5 51.09 3.6
1 7 -5 55.49 3.1
1 7 -5 53.19 3.1
-1 7 5 54.69 3.6
-1 -7 -5 62.89 3.8
1 7 5 46.9 3.4
-1 7 -5 49.7 3.6
1 7 5 49.7 3.6
3 7 -5 7.5 1.3
3 7 -5 7.8 1
-3 -7 -5 7 1.3
-3 7 5 8.5 1.5
3 7 -5 8.4 1.1
-3 -7 -5 5.5 1.6
3 7 5 8.3 1.4
-3 -7 5 7.7 1.6
3 7 5 7.3 1.3
-3 7 -5 6.3 1
3 -7 -5 8 1.5
3 7 5 9.8 2.4
3 -7 -5 7.6 1.4
-3 7 -5 5.1 0.9
5 7 -5 28.9 3.1
5 7 -5 34.2 2.9
5 7 -5 32.8 2.8
-5 7 -5 42.4 2.6
5 7 5 36.8 2.9
-5 7 -5 38 2.9
-5 7 -5 37.7 2.6
-7 -7 -5 8.2 1.4
7 -7 -5 9.9 1.2
-7 7 -5 6.8 1.5
7 7 5 7.1 1.9
-7 7 -5 10.5 1.5
-7 7 -5 9 1.6
-7 7 -5 6.1 1.4
9 -7 5 -1.3 1
-9 7 5 0.4 0.9
9 7 -5 0.7 0.4
-9 -7 -5 -0.4 1.1
-9 7 -5 0.9 1.4
-9 7 -5 -0.3 1.1
-9 7 -5 -1.2 0.9
-11 7 5 0.4 1.4
-11 7 5 -0.9 1.5
11 -7 5 0.5 1
-11 -7 -5 1 1.6
-11 -7 -5 -0.4 1.3
-11 7 -5 2.6 1.6
-11 7 -5 -0.4 1.3
-13 -7 -5 2.1 2.4
-13 -7 -5 1.8 1.6
-13 -7 5 0.8 1.5
-13 7 -5 1.2 1.5
-13 7 -5 1.8 1.8
0 8 5 2.6 1
0 -8 -5 2.5 0.9
0 8 -5 4.9 0.9
0 8 5 5.1 1.1
-2 -8 -5 8.5 1.7
2 8 -5 5.3 1
2 8 -5 6.4 1
-2 -8 -5 6 1
2 8 -5 8 1
-2 8 5 6.9 1.3
2 8 5 6.4 1.2
-2 8 -5 7.6 1
-2 8 -5 5.9 0.8
2 8 5 7.7 1.8
-2 -8 5 8.2 0.9
2 8 5 7.8 1.2
2 -8 -5 13.2 2.3
2 -8 -5 6.6 1.3
4 8 -5 89.59 6.2
4 8 -5 84.89 6.5
-4 -8 -5 98.19 6.7
4 8 -5 106.39 6.1
-4 8 5 126.19 8.3
-4 8 -5 97.19 6.8
-4 8 -5 95.39 6.6
4 8 5 97.59 5.3
-4 8 -5 110.99 5.6
-4 8 -5 98.29 5.5
-6 8 -5 5.6 1.1
6 -8 -5 8.3 1.1
-6 8 -5 7.1 1.3
6 8 5 6.1 1.7
-6 8 -5 7.4 1.4
-6 8 -5 5.4 1.2
-8 -8 -5 2.9 1.3
-8 8 -5 4 1.3
-8 8 -5 4.2 1.3
-8 8 -5 1.6 1.3
-10 8 5 6 1.1
10 -8 5 8.3 1.5
-10 -8 -5 4.2 1.6
10 8 -5 7.8 0.7
-10 -8 -5 6.4 1.4
-10 8 5 2.4 1.5
-10 8 -5 6.4 1
-10 8 -5 4.8 1.6
-10 8 -5 7.5 1.7
-12 -8 -5 3.3 1.7
-12 -8 -5 0.9 1.4
12 -8 5 3.3 1.3
-12 8 -5 3.5 1.6
-12 8 -5 1.8 1.5
-14 -8 -5 1.6 1.4
14 -8 -5 0.6 0.9
-14 -8 5 1 1.1
-14 8 -5 2.5 1.2
1 9 -5 17.3 1.6
-1 9 5 17 1.8
1 9 -5 17.1 1.3
1 9 -5 15.8 1.3
-1 -9 -5 15.6 1.9
1 -9 -5 19.6 2.2
1 -9 -5 14.7 1.8
-1 9 -5 12.8 1.5
1 9 5 13.9 1.6
3 9 -5 8.5 1.2
3 9 -5 7.8 1.4
-3 9 5 6.4 1.4
-3 -9 -5 7 1.9
3 9 -5 7.6 1.1
-3 9 -5 7.3 1.1
3 9 5 9.8 1.6
-3 9 -5 6.7 0.9
5 9 -5 1.2 0.8
5 9 -5 0.6 0.9
-5 9 -5 0.4 0.9
-5 9 -5 1.9 0.7
-5 9 -5 0.9 0.6
5 9 5 -0.4 1.1
-5 9 -5 1.2 0.7
-7 -9 -5 1.4 1
7 -9 -5 1.5 0.9
-7 9 -5 1.8 0.9
-7 9 -5 1.6 1
-7 9 -5 1.7 1.1
7 9 5 1.6 1.5
-7 9 -5 1.1 1.1
-9 9 5 -0.5 1.6
9 -9 5 -0.9 0.9
9 9 -5 0.1 0.4
-9 -9 -5 -0.3 1.1
-9 9 5 -1 0.9
9 9 -5 -0.6 0.4
-9 9 -5 -1.3 1.3
-9 9 -5 -0.7 0.8
-9 9 -5 -0.6 1
-11 -9 -5 -0.1 1.3
11 -9 5 -0.3 1.2
11 9 -5 -0.9 0.4
-11 -9 -5 -0.4 1.5
-11 9 -5 0.1 1.4
-11 9 -5 -0.8 1
-11 9 -5 -0.2 1.3
13 -9 5 0.4 1.3
-13 -9 -5 0.4 1.5
-13 9 -5 1.1 1.4
0 10 -5 0.3 0.4
0 10 -5 0.7 0.5
0 10 -5 0.1 0.7
0 10 5 0.5 0.6
0 -10 -5 0.9 0.9
0 10 5 0.3 0.5
0 -10 -5 0.3 0.5
0 10 -5 0.4 0.5
-2 -10 -5 4.8 1.3
2 10 -5 5.7 1
2 10 -5 7.7 1.1
-2 10 5 6.5 1.3
2 10 -5 7.6 1.2
-2 10 5 4.9 1.2
2 10 5 6.6 1.2
2 10 5 5.2 1.4
-2 10 -5 6 0.8
-2 10 -5 6.3 1
4 10 -5 4.1 1
4 10 -5 3.8 1.2
-4 10 -5 4.9 0.8
-4 10 -5 2.8 1
-4 10 -5 3.8 0.7
4 10 5 4 1.3
-4 10 -5 3.6 0.9
-6 -10 -5 51.69 3.8
-6 10 -5 44.3 3.1
-6 10 -5 47.5 3.3
6 10 5 45.5 3.7
6 -10 -5 49.3 3.1
-6 10 -5 49 3.3
-6 10 -5 55.09 3.9
-8 -10 -5 1.2 1.2
8 -10 5 4.5 1
-8 10 5 3 1.2
-8 10 -5 3.4 1.2
8 -10 -5 2.6 1.1
-8 10 -5 1.1 1.3
-8 10 -5 1.2 1.2
10 -10 5 1.4 1.2
-10 10 5 0.2 1
-10 -10 -5 0.7 1.2
-10 -10 -5 0.4 1.3
10 10 -5 1.5 0.4
-10 10 -5 -0.3 1.4
-10 10 -5 0.2 1.4
-10 10 -5 1.7 1
-12 -10 -5 0.8 1.6
-12 -10 -5 -0.1 1.3
12 -10 5 2.5 1.3
-12 10 -5 2.3 1.5
-12 10 -5 0.6 1.4
-14 -10 -5 0.3 1.3
-14 -10 5 1 1
14 -10 -5 1.6 0.9
1 11 -5 3.9 0.8
-1 11 5 2.4 1
1 11 -5 2.8 0.7
1 11 -5 2.5 0.9
1 11 5 1.4 0.9
-1 11 -5 3.3 0.9
-1 11 -5 3.2 0.7
3 11 -5 6.5 1.2
3 11 -5 6.1 1.3
3 11 -5 5.5 1.2
3 11 5 5.3 1.4
-3 11 -5 5.7 1
-3 11 -5 5.6 0.9
5 11 -5 7.3 1.4
5 11 -5 10 1.7
-5 11 -5 11.5 1.4
-5 11 -5 13.1 1.5
-5 11 -5 10.8 1.4
5 11 5 10.5 2
-5 11 -5 11.4 1.2
-5 11 -5 10.3 1.2
-7 -11 -5 3.3 1.2
7 11 -5 2.8 0.4
-7 11 -5 2.7 1.1
7 -11 -5 3.8 1
-7 11 -5 2.9 1.3
-9 11 5 0.1 0.9
9 -11 5 0.5 1
-9 -11 -5 -0.3 1.2
9 11 -5 0.9 0.4
-9 11 -5 -1.5 1.2
-9 11 -5 -0.3 1.2
-9 11 -5 1.1 0.8
-11 -11 -5 0.7 1.3
11 -11 5 -0.2 1.1
-11 -11 -5 -1.2 1.5
11 11 -5 0.7 0.5
-11 11 -5 0.6 1.5
-11 11 -5 -0.6 1.3
-11 11 -5 0.7 1
13 -11 5 2.1 1
-13 -11 -5 -0.5 1.4
0 12 -5 -0.1 0.7
0 12 -5 0.3 0.5
0 12 -5 0.8 0.6
0 12 -5 0.5 0.5
2 12 -5 11.2 1.6
2 12 -5 13.2 1.4
2 12 -5 12.8 1.5
2 12 5 13.4 1.8
-2 12 -5 11.3 1.2
-2 12 -5 10.6 1.5
4 12 -5 2.4 1
4 12 -5 3.9 1.1
4 12 -5 2.4 1
-4 12 -5 3.3 0.9
4 12 5 4.2 1.4
-4 12 -5 3.9 1
6 12 -5 -0.7 1.2
6 12 5 1.7 1.4
-6 12 -5 1 1
-6 12 -5 0.7 1
-8 12 5 -0.1 0.8
8 12 -5 -0.2 0.4
8 12 -5 0.5 0.4
8 -12 5 0.9 0.9
-8 12 -5 0.2 1.2
-8 12 -5 0.3 0.7
-8 12 -5 -0.2 1.1
8 -12 -5 1 1
10 12 -5 2.8 0.5
10 -12 5 2.9 1.2
-10 -12 -5 0.9 1.4
-10 12 5 2.5 1
-10 12 -5 1.3 1.4
-10 12 -5 2.4 1.4
-10 12 -5 3.1 1
12 -12 5 0.6 1
-12 -12 -5 1.6 1.5
14 -12 -5 0 0.8
1 13 -5 19.5 1.7
1 13 -5 20.4 2
1 13 -5 19.5 1.6
-1 13 -5 15.7 1.9
1 13 5 16.9 1.8
-1 13 -5 18 1.6
3 13 -5 13 1.8
3 13 -5 11.5 1.8
3 13 -5 15.7 1.7
-3 13 -5 15 1.4
3 13 5 15.9 2.1
-3 13 -5 14.3 1.7
5 13 -5 9 1.7
5 13 -5 5.1 1.5
-5 13 -5 8.7 1.3
-5 13 -5 7.7 1.3
5 13 5 8.2 1.9
7 13 -5 7.2 0.7
-7 13 5 8.7 1.2
7 13 -5 8.1 0.7
7 -13 -5 7 1.2
-7 13 -5 4.3 1.4
9 -13 5 6.5 1.3
9 13 -5 9.5 0.8
-9 13 5 6.3 1.2
-9 13 -5 8.9 1.3
-9 13 -5 3.3 2.6
11 -13 5 10.4 1.6
-11 13 5 10.4 1.5
-11 -13 -5 4.5 1.8
11 13 -5 11 1
-11 13 -5 12 1.4
13 -13 5 0.7 1
0 14 -5 -0.5 0.8
0 14 -5 -0.2 0.5
0 14 -5 -0.5 0.5
2 14 -5 8.7 1.4
2 14 -5 7.4 1.4
2 14 -5 7.2 1.3
2 14 5 9.4 1.7
-2 14 -5 8.4 1.5
4 14 -5 0.1 0.9
4 14 -5 1.5 0.9
-4 14 -5 0.7 0.8
4 14 5 -1.5 1.1
6 14 -5 -0.1 0.3
6 14 -5 -0.2 0.9
-6 14 -5 -0.3 0.5
-8 14 5 -0.3 0.9
8 14 -5 0.8 0.4
8 14 -5 1 0.4
8 -14 -5 -0.4 1
-8 14 -5 0.3 0.7
10 14 -5 0.1 0.5
10 -14 5 1.2 1.2
-10 14 5 -0.9 1
-10 14 -5 1 1
12 -14 5 0.8 1.1
-12 14 -5 -1.7 1
1 15 -5 84.29 5
1 15 -5 85.09 5.9
1 15 -5 86.69 5.1
1 15 5 75.49 4.6
-1 15 -5 85.49 6
-3 15 5 1.5 0.8
3 15 -5 0.2 0.9
3 15 -5 1.6 0.9
3 15 -5 0.1 1
3 15 5 1.6 1.2
-3 15 -5 1.5 1
5 15 -5 4.7 1.4
-5 15 -5 5 1.2
5 15 5 5 1.7
-5 15 -5 5.8 0.8
7 15 -5 34 1.9
-7 15 5 33.1 2.2
7 15 -5 32.7 2
7 -15 -5 30.8 2.3
-7 15 -5 28.1 2
-7 15 -5 30.4 2.2
9 -15 5 15.5 1.7
-9 15 5 17 1.7
9 15 -5 18.1 1.3
-9 15 -5 17.3 1.7
-11 15 5 3.4 1
11 15 -5 2 0.5
11 -15 5 1 1.3
-11 15 -5 3.2 1
0 16 -5 0.3 0.9
0 16 -5 1.2 0.6
0 16 -5 1.1 0.7
2 16 -5 6.8 1.5
2 16 -5 7.2 1.3
2 16 -5 5.9 1.2
2 16 5 6.5 2.4
-2 16 -5 7.1 1.4
4 16 -5 14 1.9
-4 16 5 13 1.1
4 16 -5 14 1
4 16 -5 13.9 2
-4 16 -5 15.1 1.9
-4 16 -5 14.1 1.1
6 16 -5 12.9 2.1
6 16 -5 17.1 1.1
6 16 -5 17.2 1.1
-6 16 5 16.8 1.5
-6 16 -5 14.9 1.3
-6 16 -5 13.6 1.4
8 16 -5 13.1 1.1
-8 16 5 12.9 1.6
8 16 -5 15.1 1.1
8 -16 -5 12.1 2.4
-8 16 -5 12.8 1.5
10 -16 5 1.1 1.2
10 16 -5 0.9 0.5
-10 16 5 0.9 1.1
-10 16 -5 0.6 0.9
12 -16 5 1.2 1.1
-12 16 -5 1.6 1
1 17 -5 7.3 0.7
1 17 -5 8.7 1.3
1 17 -5 8.6 1.6
1 17 -5 9.1 1.3
-1 17 -5 8.8 1.6
-1 17 -5 8.9 0.7
3 17 -5 -0.3 0.8
-3 17 5 -0.4 0.4
-3 17 5 0.3 0.9
3 17 -5 0 0.3
3 17 -5 -0.3 0.9
3 17 -5 -0.6 1
-3 17 -5 1 0.4
-3 17 -5 -0.2 0.9
5 17 -5 8.2 0.8
5 17 -5 6.4 1.5
5 17 -5 5.6 0.7
-5 17 5 8.1 1.1
-5 17 -5 6.5 1.3
-5 17 -5 7.8 0.9
-5 17 -5 7.8 1
7 17 -5 4.7 0.7
-7 17 5 3.3 0.9
7 17 -5 3.3 0.5
-7 17 -5 3.6 0.8
-7 17 -5 1.5 0.6
7 -17 -5 3.8 1.2
9 -17 5 0 1.2
-9 17 5 0 1
9 17 -5 0 0.4
-9 17 -5 0 0.9
-11 17 5 1.1 0.9
11 -17 5 0.8 1.2
11 17 -5 0.4 0.4
-11 17 -5 -0.2 1
0 18 5 0 0.5
0 18 -5 0.8 0.3
0 18 -5 0.4 1
2 18 -5 2.6 1.2
-2 18 5 4.7 1.2
-2 18 5 4.2 0.6
2 18 -5 3.8 1.4
2 18 -5 4 0.5
-2 18 -5 6.2 0.7
-2 18 -5 4.2 1.3
-4 18 5 4.9 0.7
4 18 -5 7 0.7
4 18 -5 5.9 1.6
-4 18 5 8.8 1
4 18 -5 5.7 0.7
-4 18 -5 4.9 1.3
4 18 5 5.3 0.7
-4 18 -5 6.1 0.8
6 18 -5 26.5 3.1
6 18 -5 32.1 1.9
6 18 -5 33.3 1.9
-6 18 5 32.7 2.2
-6 18 -5 31 2
-6 18 -5 29.7 2.1
6 18 5 25.3 2
8 18 -5 1.9 0.5
-8 18 5 2.6 1
-8 18 -5 1.7 0.9
-10 18 5 3.1 1
10 18 -5 1.9 0.5
10 -18 5 2.4 1.2
-10 18 -5 5 1
-12 18 -5 2 0.9
1 19 -5 0.8 1.1
1 19 -5 1.7 0.4
-1 19 5 1.6 0.5
-1 19 -5 0.5 1.1
-1 19 -5 1.5 0.4
1 19 5 0.8 0.4
-3 19 5 2.5 0.6
3 19 -5 0.9 0.4
-3 19 5 2.8 1.1
3 19 -5 1 0.4
3 19 -5 0.7 1.2
-3 19 5 1.1 0.5
-3 19 -5 2.3 0.5
-3 19 -5 2.6 0.5
-3 19 -5 1.2 1.1
3 19 5 2 0.5
5 19 -5 0.5 0.4
5 19 -5 0.7 0.4
5 19 -5 0.5 1.3
-5 19 5 1.4 0.6
-5 19 -5 0.9 0.5
-5 19 -5 1.3 0.5
5 19 5 0.6 0.5
7 19 -5 -0.5 0.4
-7 19 5 -0.6 0.8
7 19 -5 -0.6 0.5
-7 19 -5 -0.8 0.7
7 -19 -5 -0.2 1.1
-7 19 -5 -0.7 0.6
9 -19 5 -0.6 1.2
9 19 -5 -0.5 0.5
-9 19 5 -1.2 1
-9 19 -5 -0.5 0.9
-11 19 5 -0.3 0.9
11 19 -5 -0.3 0.4
11 -19 5 -0.7 1.1
-11 19 -5 -0.7 0.9
0 20 -5 1 0.4
0 20 -5 1.5 0.4
0 20 5 1.3 0.5
0 20 -5 0.3 1.1
0 20 5 1 0.5
-2 20 5 2 1.2
-2 20 5 2.8 0.6
2 20 -5 2.6 0.5
-2 20 5 3.7 0.6
2 20 -5 2.2 1.3
2 20 -5 3.2 0.5
-2 20 -5 4.2 0.6
-2 20 -5 4.4 0.6
2 20 5 3.8 0.5
-2 20 -5 2.1 1.3
-4 20 5 -0.4 0.5
4 20 -5 -1.9 1.2
-4 20 5 0.8 0.6
4 20 -5 -0.1 0.4
4 20 -5 0 0.4
-4 20 -5 -0.2 1
-4 20 -5 0.5 0.5
4 20 5 0.2 0.4
-4 20 -5 0.2 0.5
6 20 -5 0.7 1.4
6 20 5 3.8 0.6
-6 20 -5 5.6 0.8
-6 20 -5 4.1 0.7
-8 20 5 2.8 1
8 20 -5 1.6 0.5
-8 20 -5 1.8 0.9
10 -20 5 2.2 1.1
10 20 -5 0.9 0.5
-10 20 5 1.8 1
-10 20 -5 2.9 0.9
1 21 -5 4.5 0.5
-1 21 5 4 0.6
1 21 -5 4.1 1.5
-1 21 5 5.7 0.8
-1 21 5 3.2 1.4
1 21 -5 5.2 0.7
-1 21 -5 2.2 1.3
1 21 5 4.2 0.6
-1 21 -5 3.6 0.5
-1 21 -5 3.1 0.5
1 21 5 3.5 0.6
3 21 -5 0.4 0.4
-3 21 5 0.3 1.3
-3 21 5 -0.4 0.5
3 21 -5 0.3 0.4
-3 21 5 0.7 0.5
3 21 -5 -0.9 1.1
3 21 5 0.3 0.4
-3 21 -5 -0.6 1
-3 21 -5 0.3 0.4
-3 21 -5 0 0.5
5 21 -5 2.4 0.5
5 21 -5 1.6 0.5
-5 21 5 3.1 0.7
5 21 -5 0.9 1.4
5 21 5 1.6 0.5
-5 21 -5 1.8 0.6
-5 21 -5 2 0.6
-7 21 5 3.2 0.9
7 21 -5 1.4 0.5
7 21 -5 2.5 0.5
-7 21 -5 1.3 0.7
-7 21 -5 2.2 0.8
-9 21 5 0.5 1
9 21 -5 0.1 0.5
9 -21 5 0.1 1.2
-9 21 -5 0.1 0.9
11 21 -5 0 0.4
-11 21 5 0.3 0.8
-11 21 -5 -0.3 0.8
0 22 -5 0.3 0.4
0 22 -5 0.6 0.4
0 22 -5 -0.2 1.2
0 22 5 -0.3 0.5
0 22 5 -0.7 1.2
0 22 5 0.5 0.5
2 22 -5 -0.6 0.4
2 22 -5 -0.3 0.4
2 22 -5 -0.4 1.2
-2 22 5 0.1 0.5
-2 22 5 -0.6 0.5
-2 22 5 0 1.1
-2 22 -5 -0.2 0.5
2 22 5 -0.1 0.5
-2 22 -5 0 0.4
-2 22 -5 -0.5 1.1
-4 22 5 -1.1 0.6
-4 22 5 0.2 0.6
4 22 -5 -0.6 1.3
4 22 -5 0 0.4
4 22 -5 -0.3 0.4
-4 22 -5 -0.2 0.5
4 22 5 -0.4 0.5
-4 22 -5 -0.4 1
-4 22 -5 0.3 0.5
6 22 -5 0.8 1.3
-6 22 5 3 0.9
6 22 -5 2.3 0.5
6 22 -5 1.3 0.5
-6 22 -5 2 0.7
6 22 5 1.4 0.6
-6 22 -5 2.4 0.7
-8 22 5 0.2 1
8 22 -5 -0.5 0.5
-8 22 -5 -0.4 0.8
10 -22 5 -0.2 1
10 22 -5 -0.6 0.4
-10 22 5 0.4 0.9
-10 22 -5 -0.3 0.9
-1 23 5 1.6 0.5
1 23 -5 0.3 1.3
-1 23 5 0.4 0.5
-1 23 5 -0.2 1.3
1 23 -5 0.5 0.4
1 23 -5 0.9 0.5
1 23 5 1.6 0.5
-1 23 -5 0.5 1.3
1 23 5 0.4 1.3
-1 23 -5 1.2 0.4
-1 23 -5 0.7 0.5
1 23 5 0.4 0.5
-3 23 5 3.5 0.7
-3 23 5 1.8 0.6
3 23 -5 1.4 1.4
3 23 -5 2.7 0.5
3 23 -5 2.2 0.5
-3 23 -5 1.7 0.6
-3 23 -5 2.1 0.5
3 23 5 2.3 0.6
-3 23 -5 1.1 1.2
5 23 -5 1.6 1.4
-5 23 5 6.5 0.9
5 23 -5 4 0.6
-5 23 -5 4.3 0.7
-5 23 -5 3.3 0.7
5 23 5 2.2 1.4
5 23 5 4.1 0.7
7 23 -5 0.9 0.6
7 23 -5 0.8 0.6
-7 23 5 1.4 0.9
-7 23 -5 2.5 0.8
7 23 5 -0.1 1.3
9 -23 5 3.4 1.2
-9 23 5 4.5 1
0 24 -5 -0.6 1.3
0 24 5 0.7 0.5
0 24 5 -0.4 1.2
0 24 -5 0.4 0.4
0 24 5 0.5 0.5
0 24 -5 0.4 0.5
-2 24 5 -0.4 0.6
2 24 -5 -0.1 1.2
-2 24 5 0.1 0.6
-2 24 5 -0.9 1.2
2 24 -5 -0.1 0.4
2 24 -5 0 0.5
-2 24 -5 0 0.5
-2 24 -5 -0.2 1.1
2 24 5 0.1 0.5
2 24 5 -1.5 1.3
-2 24 -5 0.1 0.5
4 24 -5 -0.2 0.5
4 24 -5 -0.1 1.2
-4 24 5 0.6 0.7
4 24 -5 -0.2 0.5
4 24 5 0.6 0.5
4 24 5 0.3 1.4
-4 24 -5 0.5 0.6
-4 24 -5 -0.3 1.1
-4 24 -5 0.3 0.5
6 24 -5 -1.4 1.3
6 24 -5 -0.4 0.5
6 24 -5 -0.3 0.5
-6 24 5 0.7 0.8
-6 24 -5 -0.2 0.6
-6 24 -5 0.4 0.7
6 24 5 0 1.3
-8 24 5 -1.1 0.9
8 -24 5 0.3 1
8 24 -5 -0.2 0.5
-8 24 -5 0.1 0.8
10 24 -5 -0.5 0.4
-10 24 5 0.5 0.8
-10 24 -5 0.1 0.8
-1 25 5 4 0.7
1 25 -5 3.2 0.6
1 25 -5 1.4 1.5
-1 25 5 4.5 1.6
1 25 -5 3.5 0.6
-1 25 5 4.7 0.7
1 25 5 4.7 0.9
1 25 5 3.6 1.5
-1 25 -5 4.9 1.7
1 25 5 4.9 0.7
-1 25 -5 5 0.6
-1 25 -5 4.9 0.7
3 25 -5 -1.3 1.2
-3 25 5 0.1 0.6
3 25 -5 -0.3 0.5
3 25 -5 -0.3 0.5
-3 25 5 0.2 0.6
-3 25 -5 0.5 0.5
-3 25 -5 -0.3 0.6
3 25 5 -0.3 0.5
3 25 5 -1.2 1.2
-3 25 -5 -1.1 1.1
5 25 -5 -1.7 1.2
5 25 -5 0.3 0.5
-5 25 5 0.4 0.8
5 25 -5 0 0.5
-5 25 -5 0.3 0.6
5 25 5 0.4 0.5
-5 25 -5 1.1 0.6
5 25 5 -1.3 1.2
-7 25 5 4.1 0.9
7 25 -5 2.4 0.6
-7 25 -5 4.3 0.9
-9 25 5 1.8 0.8
9 25 -5 0.3 0.4
-9 25 -5 1 0.8
0 26 -5 0.6 1.4
0 26 5 0.7 0.6
0 26 -5 0.8 0.5
0 26 5 -0.2 1.3
0 26 -5 0.2 0.6
0 26 5 0.7 0.6
2 26 -5 3.1 1.6
-2 26 5 4.7 0.8
2 26 -5 3.3 0.6
2 26 -5 2.7 0.6
-2 26 5 4.9 0.8
-2 26 5 2.4 1.6
2 26 5 4.2 0.7
-2 26 -5 3.3 1.5
2 26 5 1.9 1.5
-2 26 -5 4 0.7
4 26 -5 6.9 0.9
4 26 -5 5 1.8
4 26 -5 4.8 0.7
-4 26 5 7.4 0.9
-4 26 -5 6.8 0.8
-4 26 -5 7.3 1.1
4 26 5 4 1.6
4 26 5 7.3 1
-6 26 5 3.2 0.9
6 26 -5 2.4 0.6
6 26 -5 2.2 0.5
-6 26 -5 2.7 0.7
-6 26 -5 4.6 0.8
8 -26 5 1.9 1.3
8 26 -5 0.7 0.4
-8 26 5 1.3 0.9
-8 26 -5 1.6 0.8
1 27 -5 0.2 0.5
-1 27 5 0.2 0.6
1 27 -5 -0.1 0.5
-1 27 5 -0.6 1.3
-1 27 5 0 0.6
1 27 -5 0.3 1.3
1 27 5 0.1 0.6
-1 27 -5 0 0.5
-1 27 -5 0.2 0.5
1 27 5 0 1.3
-1 27 -5 0.3 1.2
3 27 -5 2 0.5
3 27 -5 2.4 0.5
-3 27 5 2.7 0.7
3 27 -5 0.6 1.3
-3 27 -5 2.9 0.6
3 27 5 2.4 0.6
-3 27 -5 2.7 0.7
3 27 5 1.5 1.4
-5 27 5 -0.2 0.7
5 27 -5 0.1 0.5
5 27 -5 -0.2 0.4
-5 27 -5 -0.3 0.6
-5 27 -5 -0.2 0.6
-7 27 5 -0.6 0.8
7 27 -5 -0.3 0.5
-7 27 -5 0 0.7
0 28 -5 0.8 0.6
0 28 -5 1.5 0.5
0 28 5 1.6 0.6
0 28 5 1.2 0.6
-2 28 5 1.2 0.7
-2 28 5 0.8 0.6
2 28 -5 0.2 0.5
2 28 -5 0.7 0.5
-2 28 -5 2 0.6
-2 28 -5 0.1 0.6
2 28 5 0.7 0.6
4 28 -5 9.7 1
-4 28 5 10.4 1.3
4 28 -5 8.4 1
4 28 5 8.9 1.1
-4 28 -5 10 1.2
-4 28 -5 11.1 1.2
-6 28 5 2.6 0.8
-6 28 -5 3.4 0.8
-1 29 5 0.7 0.6
1 29 -5 0.8 0.5
1 29 -5 -0.1 0.5
-1 29 5 0.4 0.6
-1 29 -5 0.6 0.5
1 29 5 0.8 0.6
-1 29 -5 0.2 0.5
-3 29 5 0.5 0.6
3 29 -5 0 0.5
3 29 -5 0.3 0.5
3 29 5 -0.3 0.5
-3 29 -5 -0.1 0.5
-3 29 -5 0.1 0.5
5 29 -5 -0.6 0.4
-5 29 5 0.4 0.7
5 29 -5 0.4 0.4
-5 29 -5 1.1 0.6
-5 29 -5 0.6 0.6
0 30 -5 0.5 0.5
0 30 5 0.8 0.6
0 30 -5 0.3 0.5
2 30 -5 1.1 0.5
-2 30 5 1.9 0.6
2 30 -5 1.7 0.5
-2 30 -5 1.2 0.6
-2 30 -5 0.8 0.6
2 30 5 1.8 0.6
4 30 -5 0.5 0.5
-4 30 5 1.6 0.7
4 30 -5 -0.3 0.4
-4 30 -5 0 0.5
-4 30 -5 1 0.6
1 31 -5 1.6 0.5
-1 31 5 1.3 0.6
1 31 -5 1.4 0.5
-1 31 -5 0.2 0.5
-1 31 -5 0.7 0.5
1 31 5 1.7 0.6
-3 31 5 1.4 0.7
3 31 -5 1.1 0.5
3 31 -5 0 0.4
-3 31 -5 1.1 0.5
-3 31 -5 1.7 0.6
0 32 -5 0.1 0.4
0 32 5 -0.5 0.5
0 32 -5 0 0.4
0 0 -6 896.41 45.8
0 0 6 864.41 45.9
0 0 6 853.21 45.9
0 0 -6 942.31 45.9
-2 0 6 1366.56 70.29
-2 0 -6 1357.46 69.79
2 0 6 1305.77 69.99
2 0 -6 1354.36 69.99
2 0 6 1347.87 56.99
-2 0 -6 1367.16 69.89
2 0 -6 1344.67 70.19
-2 0 6 1389.46 69.99
4 0 -6 320.27 17.5
-4 0 -6 316.87 21.5
-4 0 -6 331.57 17.3
4 0 -6 310.07 17.9
-4 0 6 344.97 18.1
4 0 6 322.57 14.5
-4 0 -6 322.07 17.5
-6 0 -6 475.65 25.3
6 0 6 445.86 26.3
6 0 6 450.35 20.8
-6 0 -6 491.55 30.9
-6 0 -6 465.75 25
8 0 6 234.18 12.8
8 0 6 287.47 15.2
-8 0 -6 273.47 14.6
-8 0 -6 243.28 15.4
-8 0 -6 275.77 18
-10 0 -6 81.69 6.5
-10 0 -6 93.99 5.4
-12 0 -6 13.8 2.3
-12 0 -6 21.3 2.2
-14 0 -6 21.6 2.2
-14 0 6 18.7 2.1
-1 -1 -6 55.09 3
-1 -1 -6 55.19 3.2
1 1 -6 48.6 3.1
-1 1 6 49.99 3.2
-1 1 6 54.29 3.2
1 1 -6 54.39 3
1 1 6 51.99 3.2
1 -1 -6 54.99 3.2
-1 -1 6 56.99 3.4
-1 -1 6 48.3 3
1 1 6 49.2 3.1
1 -1 -6 58.49 3.4
3 -1 6 94.09 4.5
-3 -1 -6 88.09 5
3 1 -6 80.09 5.4
3 1 -6 84.19 5.1
-3 -1 -6 86.39 5.3
-3 1 -6 89.39 5
-3 1 -6 81.99 6
3 -1 -6 84.49 5.2
-3 1 -6 92.59 4.9
3 1 6 88.39 5
-3 -1 6 97.29 5.2
3 -1 -6 87.19 5.6
3 1 6 83.19 4.4
-3 -1 6 87.49 5.7
-5 -1 -6 62.89 4
5 -1 6 59.89 3.7
5 1 -6 51.99 4.5
-5 -1 -6 64.39 4.4
5 1 -6 53.89 4
-5 -1 -6 61.09 4.3
-5 1 -6 61.79 3.9
-5 1 -6 60.49 4.1
5 -1 -6 53.59 4.6
5 1 6 60.39 3.7
5 -1 -6 61.29 4.2
-5 1 -6 59.29 4.3
-7 -1 -6 52.39 3.5
-7 -1 -6 60.69 4.3
7 -1 6 50.49 3.7
-7 -1 -6 56.69 4.7
7 -1 6 61.39 3.5
-7 1 -6 58.29 4.2
-7 1 -6 49.9 4
7 1 6 57.89 3.5
7 1 6 50.39 3.8
-7 1 -6 54.49 4.4
-7 1 -6 53.79 3.5
-9 -1 -6 21.9 2.4
-9 -1 -6 24.5 2.1
9 -1 6 24 1.9
-9 1 -6 24.6 2.1
9 1 6 23.5 2
-9 1 -6 22.6 2.4
-11 -1 -6 6.8 1.7
-11 -1 -6 2.9 1.5
-11 1 -6 7.1 1.8
-11 1 -6 4.7 1.5
-13 -1 -6 1.3 1.6
-13 1 6 1.6 1.2
-13 -1 -6 0.4 1.3
-13 1 6 -0.2 1.3
-13 -1 6 2.4 1.5
-13 1 -6 1.6 1.5
-13 1 -6 0.7 1.3
-15 -1 -6 1 2
-15 1 -6 0.7 2.1
0 -2 -6 10.5 1.2
0 -2 -6 15.6 1.3
0 2 6 17.1 1.3
0 2 6 12.9 1.3
-2 -2 -6 773.52 40
2 2 -6 754.02 40
2 2 -6 720.63 39.8
-2 2 6 750.12 39.9
2 -2 6 804.72 32.5
-2 -2 -6 810.52 39.9
2 2 6 741.93 40.1
-2 -2 6 796.32 40.2
2 2 6 769.52 32.6
2 2 6 720.83 39.8
-2 -2 6 726.53 39.9
2 -2 -6 803.02 40
2 -2 -6 812.12 40.3
-4 -2 -6 77.09 4.7
4 2 -6 69.99 5
-4 -2 -6 74.19 5
4 2 -6 73.39 4.6
-4 2 6 75.09 4.7
4 -2 6 75.39 4.1
-4 2 6 86.99 5.5
-4 -2 -6 74.99 5.2
-4 -2 6 72.09 4.7
4 2 6 72.99 4.5
4 2 6 74.89 4.2
-4 -2 6 78.29 5.3
4 -2 -6 75.39 4.8
4 -2 -6 70.99 5.2
-4 2 -6 75.09 5.2
-4 2 -6 78.09 4.4
-4 2 -6 74.89 4.5
6 -2 6 280.37 13
6 -2 6 271.07 15.9
-6 -2 -6 270.47 15.6
-6 -2 -6 286.77 16
-6 -2 -6 295.67 18.7
6 2 6 262.37 15.9
-6 2 -6 284.17 15.3
-6 2 -6 274.37 15.5
6 2 6 291.17 13.1
-6 2 -6 306.27 18.8
-6 2 -6 258.27 15.3
8 -2 6 135.69 7.8
-8 -2 -6 135.69 9.3
8 -2 6 124.79 7.3
-8 -2 -6 129.49 7.6
-8 2 -6 141.89 9.4
8 2 6 146.99 7.8
-8 2 -6 129.29 7.5
8 2 6 102.69 7.1
10 2 -6 37.4 2.3
-10 -2 -6 34.1 3.3
10 -2 6 42.4 2.7
-10 -2 -6 42.4 3
-10 2 -6 34.2 3.4
-10 2 -6 38.6 2.9
-12 -2 -6 20.8 2.3
-12 2 -6 13.7 2.3
-12 2 -6 21 2.3
-14 2 6 4.5 1.4
-14 -2 -6 5 1.5
-14 2 -6 4.3 1.5
-14 -2 6 3.4 1.3
-1 3 6 633.24 32
-1 -3 -6 567.64 31.8
1 -3 6 649.93 25.8
-1 3 6 601.54 31.9
-1 -3 -6 664.63 32
1 3 6 590.74 32
1 -3 -6 636.84 32.1
1 3 6 604.84 31.9
1 -3 -6 557.94 31.9
-3 3 6 320.87 17.5
-3 -3 -6 331.07 17.8
3 -3 6 331.67 14.3
3 3 -6 336.07 17.4
3 3 -6 317.87 17.7
-3 -3 -6 347.07 17.5
3 3 6 325.07 14.5
3 3 6 344.57 18.4
3 -3 -6 331.07 17.6
-3 3 -6 314.87 21.7
3 -3 -6 318.27 17.9
3 3 6 309.17 17.4
-3 -3 6 332.77 18
-5 -3 -6 430.36 22.9
5 -3 6 419.06 18.8
-5 -3 -6 437.46 23.3
5 3 -6 384.56 23.3
5 3 -6 412.36 22.9
-5 -3 -6 432.66 28.2
-5 3 -6 441.26 28.2
5 -3 -6 447.76 23.3
-5 3 -6 417.66 22.6
-5 3 -6 442.06 22.6
5 3 6 416.46 19
-7 -3 -6 198.78 12.6
-7 -3 -6 179.88 11.4
7 -3 6 191.38 10.6
7 -3 6 189.68 9.3
-7 3 -6 179.18 10.6
7 3 6 167.38 9.3
-7 3 -6 204.38 12.6
-7 3 -6 174.08 10.7
-7 3 -6 166.38 10.2
9 -3 6 113.09 6.3
-9 -3 -6 106.09 6.2
-9 -3 -6 98.09 7.5
-9 3 -6 99.79 7.6
-9 3 -6 105.09 6.1
11 3 -6 39 2.3
-11 -3 -6 31.8 3.4
-11 -3 -6 43.2 3.1
11 -3 6 37.8 2.7
-11 3 -6 30.1 3.4
-11 3 -6 47.7 3.1
-13 -3 -6 5.5 1.7
-13 3 6 4.4 1.6
-13 -3 -6 7.7 1.8
-13 3 6 7.4 1.7
-13 3 -6 5.1 1.7
-13 3 -6 10.2 1.8
0 4 6 528.05 28.1
0 -4 -6 537.75 28
0 -4 -6 530.65 28.1
2 -4 6 12.6 1.2
2 4 -6 9.4 1.2
-2 4 6 11.6 1.5
2 4 -6 8.8 1
-2 -4 -6 10.9 1.5
-2 4 6 9.2 1.3
-2 -4 -6 12.4 1.3
-2 4 -6 9.5 1.2
-2 -4 6 16.4 2.3
2 -4 -6 10.1 1.3
2 4 6 9.5 1.2
2 4 6 10 1.4
2 -4 -6 10.2 1.6
2 4 6 10.6 1.4
-2 -4 6 11.2 1.2
4 4 -6 14.7 2
-4 -4 -6 14.9 1.3
-4 -4 -6 15 1.7
4 -4 6 14 1.5
4 4 -6 15 1.6
-4 4 6 19.1 2.8
-4 4 6 12.2 1.5
-4 -4 -6 11.9 2.1
4 -4 -6 15.6 2
-4 4 -6 14.5 1.2
4 -4 -6 15.4 2.3
-4 -4 6 16.6 2.4
4 4 6 12.5 1.7
4 4 6 14.2 1.6
-4 4 -6 13.5 1.4
-4 4 -6 12.9 1.2
6 -4 6 15.3 1.3
6 -4 6 17.5 2.2
-6 -4 -6 15.5 2.7
-6 -4 -6 16.6 1.6
-6 4 -6 16.5 1.9
6 4 6 16.5 2.3
-6 4 -6 15.2 1.7
-6 4 -6 14 1.5
-6 4 -6 16.6 1.7
8 -4 6 4 1.1
-8 -4 -6 3.6 1.2
-8 -4 -6 3.9 1.1
-8 4 -6 5.6 1.3
-8 4 -6 3.9 1.5
-8 4 -6 4.6 1.3
-8 4 -6 1.6 1.1
-10 -4 -6 4.4 1.5
10 4 -6 2.3 0.5
-10 -4 -6 3.1 1.4
10 -4 6 1.6 1
10 4 -6 2.9 0.5
-10 4 -6 3.4 1.5
-10 4 -6 2.6 1.4
-12 4 6 -0.9 1.3
-12 -4 -6 0.5 1.3
-12 4 6 -0.6 1.2
-12 -4 -6 1.5 1.6
-12 4 -6 0.8 1.5
-12 4 -6 -0.4 1.2
-14 4 6 0.7 1.2
-14 -4 -6 -0.4 1.3
-14 -4 6 -0.9 1
-14 4 -6 0.6 1.3
-1 -5 -6 4080.39 222.38
1 -5 6 4680.83 179.88
-1 5 6 3655.53 221.68
-1 -5 -6 4514.05 222.48
1 -5 -6 4852.51 222.98
-1 -5 6 4594.64 179.68
-1 5 -6 4091.29 270.47
1 5 6 4314.97 221.68
1 5 6 4035.1 222.28
1 -5 -6 4256.07 222.58
-3 5 6 300.37 16.5
3 5 -6 311.07 16.3
-3 -5 -6 347.97 16.6
-3 5 6 317.67 16.8
-3 -5 -6 314.87 16.8
3 -5 6 322.47 13.4
3 5 -6 290.77 16.5
-3 5 -6 296.97 20.2
-3 5 -6 285.67 19.4
3 5 6 307.67 13.7
3 5 6 288.77 16.8
3 5 6 299.67 16.4
-3 -5 6 302.37 16.9
3 -5 -6 312.77 16.6
3 -5 -6 286.67 16.8
5 -5 6 508.55 21.5
-5 -5 -6 484.35 32.3
-5 -5 -6 465.25 26.3
-5 -5 -6 516.55 26.8
5 5 -6 477.15 26.1
5 5 -6 431.96 26.5
5 5 6 490.95 21.7
-5 5 -6 507.25 32.4
-5 5 -6 490.45 25.8
-5 5 -6 517.75 25.7
-7 -5 -6 65.89 4.8
7 -5 6 67.19 3.9
7 5 6 60.09 4.4
-7 5 -6 60.49 3.9
-7 5 -6 60.39 4.3
-7 5 -6 73.09 4.9
-7 5 -6 65.19 4.5
9 -5 6 156.48 8.5
9 5 -6 142.99 8.3
-9 -5 -6 141.19 10.2
9 5 -6 144.29 8
-9 -5 -6 141.79 8.3
-9 5 -6 136.89 8.4
-9 5 -6 142.39 10.2
-9 5 -6 150.68 8.3
-11 -5 -6 47.2 3.2
-11 5 6 34.8 3.5
-11 -5 -6 31.5 3.6
11 -5 6 45.5 2.9
11 5 -6 42.9 2.6
-11 5 -6 35 3.6
-11 5 -6 44.5 3.2
-13 5 6 14.4 1.9
-13 -5 -6 17.7 2.1
13 -5 -6 14.9 1.5
-13 5 -6 18.1 2.1
-13 5 -6 12 2.2
0 6 -6 915.21 60.89
0 -6 -6 1002.2 50.59
0 -6 -6 1002.1 50.49
0 6 6 961 50.49
-2 6 6 617.44 34.7
2 6 -6 748.23 34.4
2 -6 6 723.63 28
-2 -6 -6 662.23 35
2 6 -6 607.04 41.7
2 6 -6 679.53 34.5
2 6 6 658.03 28.4
-2 6 -6 631.14 43.6
2 6 6 646.54 34.7
2 6 6 642.44 34.9
-2 -6 6 693.73 28.1
-2 6 -6 640.34 41.7
-4 -6 -6 151.78 10.3
4 6 -6 135.19 9.8
4 6 -6 137.99 8.9
-4 -6 -6 163.58 9
4 6 -6 162.68 8.7
4 -6 6 163.48 7.3
-4 -6 -6 149.29 9.3
-4 6 -6 159.38 10.4
4 6 6 150.18 7.5
4 -6 -6 159.68 9.1
-6 -6 -6 51.19 3.8
6 6 6 47.2 3.6
-6 6 -6 47 3.3
-6 6 -6 49 3.4
-6 6 -6 52.49 3.8
8 -6 6 37.6 2.4
-8 -6 -6 35.4 3.1
8 6 -6 35.8 2.1
-8 6 -6 37.2 3.1
-8 6 -6 36.7 2.6
-8 6 -6 27.9 2.8
-10 -6 -6 10.4 1.8
10 -6 6 11.3 1.6
10 6 -6 10.9 0.9
10 6 -6 10.2 0.9
-10 -6 -6 8.9 1.8
-10 6 -6 11.6 1.9
-10 6 -6 10.7 1.8
-10 6 -6 10.4 1.4
-12 6 6 5.4 1.7
12 -6 6 6.1 1.3
-12 6 6 7.7 1.7
-12 -6 -6 8.4 1.9
-12 -6 -6 5.3 1.6
-12 6 -6 9.4 1.9
-12 6 -6 5.6 1.7
-14 -6 -6 -0.4 1.2
14 -6 -6 0.9 0.8
-14 6 -6 1.4 1.3
-1 7 6 1630.84 82.19
1 7 -6 1563.84 99.39
-1 7 6 1471.05 82.09
1 7 -6 1592.24 103.89
-1 -7 -6 1501.05 82.09
-1 -7 -6 1711.43 82.39
1 -7 -6 1588.04 82.19
-1 7 -6 1573.24 99.39
-1 7 -6 1648.24 104.09
1 7 6 1540.55 82.19
1 7 6 1608.54 82.09
3 7 -6 692.23 48.7
-3 -7 -6 805.42 40.8
3 7 -6 774.92 40.4
-3 7 6 792.72 40.9
-3 7 6 740.03 40.6
3 7 -6 809.12 40.6
-3 -7 -6 729.93 41
-3 7 -6 793.02 50.89
3 -7 -6 794.62 40.8
-3 7 -6 761.92 48.7
3 7 6 761.62 40.6
3 7 6 835.62 33.3
5 7 -6 64.19 5.3
-5 -7 -6 74.49 5.5
-5 -7 -6 80.49 5.9
5 7 -6 75.99 5.1
-5 7 -6 82.99 4.6
-5 7 -6 83.19 5.6
-5 7 -6 84.19 4.6
5 7 6 75.49 4.7
7 -7 6 129.79 7.2
-7 -7 -6 125.69 8.6
-7 7 -6 135.39 8.7
-7 7 -6 111.79 7.2
7 7 6 119.49 7
-7 7 -6 117.49 7
-7 7 -6 120.89 7.3
9 -7 6 31.3 2.3
-9 -7 -6 29.7 2.9
-9 7 6 27.8 2.2
-9 -7 -6 33.8 2.5
9 7 -6 30.8 1.9
9 7 -6 32.4 1.9
-9 7 -6 33.2 3
-9 7 -6 29.4 2.2
-9 7 -6 34.9 2.6
-11 7 6 21 2.5
11 7 -6 27.1 1.6
11 -7 6 24.9 2.1
-11 -7 -6 18.7 2.6
-11 -7 -6 32.1 2.6
-11 7 -6 22.9 2.8
-11 7 -6 29 2.6
-13 -7 -6 3.1 1.5
-13 7 -6 4.5 1.5
0 -8 -6 1720.63 79.59
0 8 -6 1410.56 99.49
0 8 6 1530.45 78.79
0 8 6 1467.05 78.79
0 8 -6 1466.85 95.19
2 8 -6 1961.3 93.29
-2 -8 -6 1878.81 93.89
-2 -8 -6 1927.31 94.09
-2 8 6 1903.11 93.89
2 8 -6 1757.42 113.39
2 8 -6 1617.64 93.29
-2 8 6 1704.83 93.69
-2 8 -6 1814.02 113.49
-2 8 -6 1799.92 118.59
2 -8 -6 1688.93 93.79
2 8 6 1741.13 93.59
2 8 6 1877.81 93.99
2 8 6 1845.32 76.29
4 8 -6 710.63 37.4
-4 -8 -6 688.33 46.4
4 8 -6 662.13 44.4
-4 -8 -6 724.23 38
4 8 -6 755.22 37.2
-4 8 -6 722.23 46.5
-4 8 -6 672.03 44.5
4 8 6 713.43 30.6
-6 -8 -6 267.67 17.3
6 -8 -6 237.68 14.7
-6 8 -6 234.28 14.1
6 8 6 252.67 12.4
-6 8 -6 266.87 13.9
-6 8 -6 294.27 17.4
-6 8 -6 250.37 13.9
8 -8 6 92.29 5.3
8 8 -6 87.49 5
-8 -8 -6 86.09 6.5
-8 8 -6 87.59 5.3
-8 8 -6 91.69 6.6
-10 8 6 20.3 2.6
10 -8 6 28.4 2.1
10 8 -6 24.8 1.6
10 8 -6 26.7 1.6
-10 -8 -6 27.9 2.5
-10 -8 -6 22.3 2.6
-10 8 -6 27.5 2
-10 8 -6 23.4 2.7
-10 8 -6 27.6 2.5
-12 -8 -6 22.5 2.4
12 -8 6 21 1.9
-12 8 -6 21.8 2.4
-12 8 -6 15.9 2.5
-14 -8 -6 3.6 1.4
14 -8 -6 5 1
-14 8 -6 4.8 1.3
-1 -9 -6 7.9 1.4
-1 9 6 8.1 1.6
1 9 -6 7.6 0.8
1 9 -6 7.9 0.8
-1 9 6 6 1.3
-1 -9 -6 7.2 1.5
1 9 -6 8.8 1.2
1 9 6 5.8 1.3
-1 9 -6 6.9 0.9
-1 9 -6 8.6 1.1
1 -9 -6 3.9 1
1 9 6 8.1 1.4
3 9 -6 3.6 0.9
-3 -9 -6 2.6 1.2
3 9 -6 4.4 0.9
3 9 -6 1.9 0.8
-3 9 -6 4.4 0.8
-3 9 -6 3.4 0.8
3 9 6 3.2 1.2
5 9 -6 19.1 2.2
5 9 -6 19.1 1.9
-5 -9 -6 20 1.8
5 9 -6 15.6 2.5
-5 9 -6 20.7 1.9
-5 9 -6 20.5 1.9
5 9 6 18 2.5
-7 -9 -6 3.1 1
-7 9 -6 1.8 1.1
7 9 6 1.8 1.5
-7 9 -6 2.1 0.8
-7 9 -6 0.9 0.8
-7 9 -6 1.2 1.1
-9 -9 -6 0.9 1.2
-9 -9 -6 1.1 1.1
-9 9 6 0.9 0.9
9 9 -6 1 0.4
9 9 -6 0.5 0.4
9 -9 6 1.1 1
-9 9 -6 0.4 0.8
-9 9 -6 0.5 1.3
-9 9 -6 0.5 1.2
-11 -9 -6 -0.3 1.2
-11 -9 -6 -0.9 1.5
11 9 -6 0 0.4
11 -9 6 -1.6 1.1
-11 9 -6 -0.4 1.3
-11 9 -6 -0.6 1
-11 9 -6 -1.1 1.4
13 -9 6 0.4 1.2
-13 -9 -6 -0.9 1.4
-13 9 -6 0.6 1.3
0 10 -6 867.41 54.29
0 10 -6 818.52 56.69
0 -10 -6 841.42 45.5
0 10 6 923.61 45.5
2 10 -6 644.34 35.7
2 10 -6 686.13 35.8
2 10 -6 673.13 43.3
-2 -10 -6 720.33 36.8
-2 10 -6 697.63 43.3
-2 10 -6 690.73 45.2
2 10 6 689.23 29.6
4 10 -6 1452.25 92.49
4 10 -6 1351.36 76.69
4 10 -6 1607.44 76.59
-4 10 -6 1516.65 96.79
-4 10 -6 1450.65 92.49
4 10 6 1458.05 62.69
-6 -10 -6 291.87 19.4
-6 10 -6 321.17 19.6
6 -10 -6 275.57 16.5
-6 10 -6 275.87 15.8
6 10 6 288.97 13.9
8 10 -6 104.69 6.2
8 -10 6 114.89 6.4
-8 10 6 104.09 6.4
8 10 -6 108.69 6
-8 -10 -6 102.29 7.6
-8 10 -6 112.09 6.3
-8 10 -6 104.69 6.4
-8 10 -6 107.39 7.8
10 10 -6 24.1 1.5
10 -10 6 24.5 2
-10 10 6 22.4 1.9
-10 -10 -6 25.5 2.4
-10 -10 -6 18.1 2.4
-10 10 -6 20.4 2.6
-10 10 -6 22.3 2.3
-10 10 -6 25.7 1.9
12 -10 6 18 1.8
-12 -10 -6 11.8 2.2
-12 -10 -6 17.8 2.1
-12 10 -6 18.2 2.1
-12 10 -6 13 2.3
-14 -10 -6 5.5 1.9
14 -10 -6 5 0.9
1 11 -6 226.58 12.4
1 11 -6 241.38 12.4
1 11 -6 231.28 15.1
-1 11 -6 227.68 15.5
-1 11 -6 239.08 15.1
3 11 -6 497.95 26.3
3 11 -6 477.05 26.4
3 11 -6 505.55 31.5
3 11 6 490.15 21.9
-3 11 -6 511.65 32.8
-3 11 -6 489.65 31.5
5 11 -6 190.98 12.5
5 11 -6 195.18 11
-5 11 -6 213.18 13
-5 11 -6 171.68 10.5
-5 11 -6 189.98 12.4
5 11 6 183.08 9.5
7 11 -6 59.19 3.4
-7 11 -6 63.29 4.7
7 -11 -6 61.19 3.8
-7 11 -6 60.49 3.8
9 11 -6 12.5 0.9
-9 -11 -6 13 1.8
9 -11 6 13 1.4
-9 11 6 10.2 1.4
9 11 -6 11.1 0.9
-9 -11 -6 9.2 1.8
-9 11 -6 10.5 1.8
-9 11 -6 12.1 1.8
-9 11 -6 11.8 1.4
11 11 -6 8 0.8
11 -11 6 10.2 1.5
-11 -11 -6 8.8 1.8
-11 11 -6 4 1.7
-11 11 -6 8.7 1.2
-11 11 -6 7 1.7
-13 -11 -6 1.1 1.4
13 -11 6 1.9 0.9
-13 11 -6 1.4 1.4
0 12 -6 54.99 4
0 12 -6 59.49 4.2
2 12 -6 549.25 34.6
2 12 -6 551.24 28.7
2 12 -6 530.35 28.6
-2 12 -6 526.65 36
2 12 6 543.35 23.9
-2 12 -6 574.64 34.7
4 12 -6 149.29 9.3
4 12 -6 164.08 10.4
4 12 -6 143.89 9
-4 12 -6 164.38 10.4
-4 12 -6 162.98 10.7
4 12 6 152.18 8
6 12 -6 77.49 4.4
6 -12 -6 79.39 4.7
6 12 6 74.89 5.1
-6 12 -6 82.79 5.7
-6 12 -6 76.19 4.7
8 -12 6 17.9 1.5
8 12 -6 17.3 1.2
8 12 -6 16 1.1
-8 12 6 16.8 1.6
-8 12 -6 17.3 1.5
-8 12 -6 18.5 1.9
-8 12 -6 15.9 2.1
10 12 -6 8.1 0.8
10 -12 6 10 1.4
-10 12 6 8.1 1.2
-10 -12 -6 7.6 1.8
-10 12 -6 11.3 1.4
-10 12 -6 4.4 1.8
-10 12 -6 6.8 1.6
12 -12 6 4.7 1.2
-12 -12 -6 7.4 1.7
-12 12 -6 4.5 1.7
14 -12 -6 0 0.8
1 13 -6 695.23 43.6
1 13 -6 684.93 35.8
1 13 -6 704.13 35.8
-1 13 -6 702.23 43.6
-1 13 -6 653.73 45.3
3 13 -6 460.55 23.6
3 13 -6 425.16 23.7
3 13 -6 447.76 28.3
-3 13 -6 437.46 29.3
-3 13 -6 453.95 28.3
3 13 6 429.76 19.8
5 13 -6 320.47 19.6
5 13 -6 301.77 16.8
-5 13 -6 319.47 20.3
-5 13 -6 277.47 16.5
-5 13 -6 305.97 19.6
5 13 6 293.77 14.4
7 13 -6 102.29 6.2
7 13 -6 109.19 6
-7 13 6 103.49 6.3
-7 13 -6 104.99 6.2
-7 13 -6 113.69 7.7
-7 13 -6 105.69 6
7 -13 -6 111.69 6.4
-9 13 6 52.99 3.4
9 -13 6 58.09 3.4
9 13 -6 53.29 3
9 13 -6 53.99 3.1
-9 13 -6 54.69 3.3
-9 13 -6 43.5 4.3
-9 13 -6 46.3 3.6
-11 13 6 39.3 2.7
11 13 -6 39.7 2.4
11 -13 6 37.6 2.8
-11 13 -6 40.1 2.7
13 -13 6 4.5 1.1
0 14 -6 36.6 3.1
2 14 -6 8.3 1.3
2 14 -6 5.8 1.1
2 14 -6 8.6 1.4
-2 14 -6 7.1 1.3
2 14 6 6.6 1.5
4 14 -6 5.4 1.4
4 14 -6 5.7 1.3
-4 14 -6 5 1.1
4 14 6 6.2 1.7
6 14 -6 3.7 0.5
6 14 -6 3.5 1.1
-6 14 -6 2.6 0.5
-8 14 6 1.9 0.9
8 14 -6 2.4 0.4
8 14 -6 1.9 0.5
-8 14 -6 2.4 0.8
10 -14 6 3 1.2
10 14 -6 2.2 0.5
-10 14 6 3.5 1.1
-10 14 -6 2.6 1
12 -14 6 0.4 1
1 15 -6 444.76 28.1
1 15 -6 438.16 23.1
1 15 -6 425.16 23
1 15 6 405.56 19.5
-1 15 -6 479.75 28.2
3 15 -6 155.28 8.9
3 15 -6 157.08 10.5
3 15 -6 151.08 9
-3 15 -6 165.38 10.5
3 15 6 145.59 7.9
5 15 -6 249.48 16.1
5 15 -6 244.48 13.4
5 15 -6 228.38 13.8
-5 15 -6 249.28 13.5
-5 15 -6 259.67 16
5 15 6 230.18 12
-7 15 6 102.09 6
7 15 -6 97.79 5.9
7 15 -6 101.99 5.6
-7 15 -6 102.79 6
-7 15 -6 98.89 5.7
7 -15 -6 103.69 6.5
9 15 -6 76.29 4.5
9 -15 6 76.79 4.8
-9 15 6 78.19 4.7
-9 15 -6 77.49 4.7
-11 15 6 29.5 2.2
11 15 -6 30.2 1.9
11 -15 6 28.1 2.3
-11 15 -6 31.1 2.2
13 -15 -6 4.3 0.9
0 16 -6 196.18 13
2 16 -6 162.68 10.5
2 16 -6 152.88 8.7
2 16 -6 153.48 8.7
-2 16 -6 163.78 10.5
2 16 6 142.49 7.8
4 16 -6 86.59 5.9
4 16 -6 78.69 4.4
4 16 -6 71.69 5.9
-4 16 6 77.09 4.5
4 16 -6 75.39 5.4
-4 16 -6 80.09 5.7
-4 16 -6 80.49 4.5
6 16 -6 51.49 3.1
-6 16 6 51.09 3.3
6 16 -6 49.4 4.2
6 16 -6 54.59 3
-6 16 -6 54.39 3.1
-6 16 -6 51.29 3.2
-8 16 6 55.29 3.5
8 16 -6 54.29 3.3
8 16 -6 54.99 3.2
-8 16 -6 53.59 3.4
10 -16 6 18.9 1.9
10 16 -6 21.7 1.4
-10 16 6 17.7 1.8
-10 16 -6 18.6 1.8
12 -16 6 9.1 1.3
-12 16 -6 10.3 1.3
1 17 -6 33 2
1 17 -6 37.4 3.1
-1 17 -6 32.1 2
-1 17 -6 33.8 3.1
3 17 -6 82.09 5.8
3 17 -6 71.59 5
-3 17 6 78.89 5.4
3 17 -6 74.19 4.3
-3 17 6 72.29 4.3
-3 17 -6 75.09 4.3
-3 17 -6 83.59 5.7
5 17 -6 21.9 1.4
-5 17 6 23.5 1.7
5 17 -6 19.4 1.4
5 17 -6 20.2 2.4
-5 17 -6 22.4 2.4
-5 17 -6 24.6 1.5
-5 17 -6 18.3 1.5
-7 17 6 31.8 2.2
7 17 -6 28.2 1.8
7 17 -6 29.1 1.9
-7 17 -6 29.4 2.1
-7 17 -6 27.4 2
-9 17 6 12.2 1.6
9 -17 6 11 1.6
9 17 -6 11.7 1
-9 17 -6 12.6 1.5
11 17 -6 5.4 0.8
11 -17 6 4.4 1.3
-11 17 6 5.6 1.1
-11 17 -6 5.1 1.1
0 18 -6 111.09 6.2
0 18 -6 125.69 7.9
0 18 6 99.79 6.2
2 18 -6 202.38 12.8
-2 18 6 180.38 10.6
2 18 -6 189.88 10.5
-2 18 -6 182.58 10.5
-2 18 -6 202.58 12.8
-4 18 6 184.88 10.3
4 18 -6 196.48 12.6
-4 18 6 180.28 10.7
4 18 -6 189.38 10.2
4 18 -6 165.58 10.7
-4 18 -6 191.58 10.3
4 18 6 194.08 10.8
-4 18 -6 185.18 12.4
-6 18 6 63.99 3.9
6 18 -6 62.99 3.6
6 18 -6 55.59 4.9
6 18 -6 62.89 3.7
-6 18 -6 61.89 3.8
-6 18 -6 62.79 3.6
8 18 -6 72.49 4.3
8 18 -6 77.19 4.4
-8 18 6 74.19 4.6
-8 18 -6 75.99 4.6
10 18 -6 31.4 2
-10 18 6 31.5 2.3
10 -18 6 31.1 2.4
-10 18 -6 32 2.3
-12 18 -6 19.9 1.7
-1 19 6 13.7 1.2
1 19 -6 15.6 1.1
1 19 -6 16.4 2.2
-1 19 -6 14.3 2.1
-1 19 -6 16.4 1.1
-3 19 6 10.8 1.1
3 19 -6 12.8 2.1
-3 19 6 11.4 1.2
3 19 -6 12.4 0.9
3 19 -6 13.6 1
-3 19 6 11.6 1.8
-3 19 -6 11.7 1.9
-3 19 -6 10.5 1
-3 19 -6 13.4 1
3 19 6 13.4 1.1
5 19 -6 9.4 0.9
-5 19 6 8.3 1.2
5 19 -6 9 0.8
5 19 -6 6.9 1.7
-5 19 -6 7.4 1.9
-5 19 -6 9.7 1
5 19 6 10.3 1
-5 19 -6 9 1
7 19 -6 3.4 0.6
-7 19 6 3.6 0.9
-7 19 -6 3.8 0.7
-7 19 -6 4.1 0.8
9 19 -6 0.8 0.5
-9 19 6 1.4 1
9 -19 6 2.7 1.3
-9 19 -6 0.8 0.9
-11 19 6 2 0.9
11 19 -6 1.3 0.4
11 -19 6 1.3 1.2
-11 19 -6 1.1 0.9
0 20 6 70.49 4.1
0 20 -6 65.99 4.2
0 20 -6 80.49 5.6
0 20 -6 76.09 4.1
0 20 6 72.59 4.3
-2 20 6 134.69 7.9
2 20 -6 120.29 7.8
2 20 -6 140.49 7.6
2 20 -6 146.09 9.6
-2 20 6 145.09 9.3
-2 20 6 136.29 7.6
-2 20 -6 139.49 7.6
-2 20 -6 142.89 9.5
2 20 6 136.99 7.9
-2 20 -6 123.39 7.9
-4 20 6 55.09 3.5
4 20 -6 62.59 4.8
-4 20 6 55.69 3.3
4 20 -6 52.39 3.3
4 20 -6 59.59 3.3
-4 20 -6 51.59 3.4
-4 20 -6 58.09 3.3
-4 20 -6 53.29 4.5
4 20 6 57.19 3.4
-6 20 6 71.29 4.4
6 20 -6 69.99 4.2
6 20 -6 70.89 4.1
-6 20 -6 72.19 4.3
-6 20 -6 73.19 4.2
-8 20 6 32.2 2.3
8 20 -6 31.6 2
8 20 -6 28.3 1.9
-8 20 -6 30.5 2.2
-10 20 6 27.8 2.1
10 20 -6 26.9 1.8
10 -20 6 24.2 2.1
-10 20 -6 28.6 2
-1 21 6 89.79 5.3
1 21 -6 92.69 5.1
-1 21 6 95.69 6.5
-1 21 6 87.39 5.1
1 21 -6 94.09 6.8
1 21 -6 82.89 5.2
-1 21 -6 92.29 5.1
-1 21 -6 84.49 5.3
1 21 6 91.69 5.3
-1 21 -6 94.99 6.7
3 21 -6 58.19 3.6
-3 21 6 59.49 3.7
-3 21 6 61.09 3.6
3 21 -6 62.89 3.5
3 21 -6 66.19 5.1
-3 21 -6 62.89 4.9
-3 21 -6 55.69 3.6
3 21 6 61.49 3.7
-3 21 -6 63.69 3.6
5 21 -6 43.4 4.2
-5 21 6 46.7 3.1
5 21 -6 50.19 2.9
5 21 -6 50.19 2.9
-5 21 -6 46.9 3
-5 21 -6 49.6 2.9
5 21 6 49.5 3
7 21 -6 46.4 2.8
-7 21 6 43.8 3.1
7 21 -6 51.09 2.9
-7 21 -6 46 3
-7 21 -6 47.1 2.9
9 -21 6 20.8 2
-9 21 6 23.9 1.9
9 21 -6 23.2 1.6
-9 21 -6 22.4 1.9
11 21 -6 12.2 1
-11 21 6 10.8 1.3
0 22 6 36.6 3.4
0 22 -6 32.7 2.2
0 22 6 34.2 2.2
0 22 -6 37.3 2.2
0 22 -6 34.3 3.5
0 22 6 34.9 2.3
2 22 -6 15 2.4
2 22 -6 15.6 1.2
-2 22 6 17 2.2
-2 22 6 15.3 1.3
-2 22 6 15 1.3
2 22 -6 12.9 1.1
2 22 6 15 1.2
-2 22 -6 16.8 2.4
-2 22 -6 13.7 1.2
-2 22 -6 15.9 1.2
4 22 -6 15 1.1
-4 22 6 14.2 1.5
4 22 -6 9.4 2
4 22 -6 15.8 1.2
-4 22 -6 14.1 2.2
-4 22 -6 16.4 1.3
4 22 6 15.9 1.3
-4 22 -6 13.6 1.2
6 22 -6 6.9 1.8
6 22 -6 12.6 1.1
6 22 -6 11.4 1.1
-6 22 6 10.5 1.5
-6 22 -6 12.5 1.2
-6 22 -6 10.7 1.3
8 22 -6 12.9 1.1
-8 22 6 12.6 1.6
-8 22 -6 10.8 1.4
10 -22 6 2.9 1.1
10 22 -6 1.4 0.5
-10 22 6 2.4 0.9
-10 22 -6 2.8 0.9
1 23 -6 181.18 12.6
-1 23 6 181.18 10.6
1 23 -6 168.88 10.5
1 23 -6 186.38 10.1
-1 23 6 191.78 12.4
-1 23 6 178.68 10.1
-1 23 -6 171.18 10.5
-1 23 -6 186.58 12.5
1 23 6 184.68 10.6
1 23 6 190.78 12.4
-1 23 -6 189.48 10.1
-3 23 6 60.89 3.6
-3 23 6 59.79 3.7
3 23 -6 62.69 3.5
3 23 -6 56.69 3.6
3 23 -6 57.79 5.1
-3 23 -6 55.69 4.9
-3 23 -6 57.49 3.6
-3 23 -6 63.79 3.5
3 23 6 61.19 3.6
5 23 -6 76.29 6.9
5 23 -6 92.29 5.3
-5 23 6 94.69 5.6
5 23 -6 99.69 5.5
5 23 6 97.29 5.8
-5 23 -6 96.69 5.4
-5 23 -6 93.39 5.6
7 23 -6 46.7 3
-7 23 6 53.69 3.3
7 23 -6 59.89 3.2
-7 23 -6 52.89 3.3
7 23 6 40.4 4.3
9 -23 6 42.3 3.2
9 23 -6 52.19 3
-9 23 6 49.8 3.2
-9 23 -6 50.19 3.1
0 24 -6 42.9 2.5
0 24 -6 37.8 3.9
0 24 6 42.4 2.7
0 24 6 42.1 3.8
0 24 -6 41.5 2.6
0 24 6 39.7 2.6
2 24 -6 25.7 1.7
-2 24 6 27.2 1.9
2 24 -6 27.6 3.2
2 24 -6 26.8 1.8
-2 24 6 25.2 1.8
-2 24 6 26.7 2.9
2 24 6 26 1.9
-2 24 -6 26.9 1.8
-2 24 -6 23.8 2.9
-2 24 -6 26.2 1.8
2 24 6 24.8 3
4 24 -6 9.6 2.1
-4 24 6 10.9 1.4
4 24 -6 12.2 1.1
4 24 -6 13.9 1.1
-4 24 -6 12.8 1.2
4 24 6 10.7 2.1
-4 24 -6 11.6 1.2
4 24 6 12.7 1.2
-4 24 -6 8.6 1.8
6 24 -6 8.3 1
-6 24 6 8.9 1.1
6 24 -6 10.1 1
-6 24 -6 10.3 1.2
-6 24 -6 8 1.3
6 24 6 5.8 1.7
-8 24 6 7.9 1.2
8 -24 6 7.9 1.4
8 24 -6 10.5 1
-8 24 -6 8.8 1.3
10 24 -6 1.9 0.4
-1 25 6 105.89 5.9
1 25 -6 106.69 5.9
1 25 -6 101.49 6.1
-1 25 6 107.39 7.7
1 25 -6 99.79 7.8
-1 25 6 104.79 6.2
-1 25 -6 96.09 7.7
1 25 6 104.69 6.2
-1 25 -6 109.39 5.9
1 25 6 106.09 7.7
-1 25 -6 104.29 6.1
3 25 -6 50.69 3.1
-3 25 6 49.5 3.2
3 25 -6 46.2 4.5
3 25 -6 53.69 3
-3 25 -6 47.6 3.1
-3 25 -6 52.99 3
3 25 6 51.59 3.1
3 25 6 48.5 4.4
-3 25 -6 43.5 4.2
5 25 -6 22.3 1.5
-5 25 6 21.5 1.9
5 25 -6 23.4 1.6
5 25 6 17.2 2.7
-5 25 -6 20 1.7
-5 25 -6 22 1.6
-7 25 6 32.4 2.4
7 25 -6 35.4 2.2
7 25 -6 33.3 2.2
-7 25 -6 32 2.3
9 25 -6 13.4 1.1
-9 25 6 13.7 1.4
-9 25 -6 14.5 1.4
0 26 6 79.29 4.7
0 26 6 82.39 4.9
0 26 6 81.29 6.3
0 26 -6 82.69 4.8
0 26 -6 74.49 6.3
0 26 -6 83.19 4.7
2 26 -6 112.39 6.6
-2 26 6 114.59 6.4
2 26 -6 115.29 6.4
-2 26 6 115.99 6.7
2 26 -6 103.19 8.3
-2 26 -6 114.29 6.6
-2 26 -6 101.29 8.2
2 26 6 117.29 6.7
-2 26 -6 118.69 6.4
2 26 6 108.19 8.2
4 26 -6 33.8 2
4 26 -6 35.1 2.1
4 26 -6 26 3.4
-4 26 6 31.1 2.3
-4 26 -6 32.7 2.2
4 26 6 31.1 2.2
-4 26 -6 31.6 2.1
4 26 6 27.8 3.3
-6 26 6 32.2 2.4
6 26 -6 37.5 2.2
-6 26 -6 32.2 2.3
-6 26 -6 32.5 2.2
8 26 -6 23.9 1.6
-8 26 6 22.1 1.8
-8 26 -6 23.6 1.8
1 27 -6 7.4 1.9
1 27 -6 12 1.1
1 27 -6 11.9 1.2
-1 27 6 10.4 2
-1 27 6 14.3 1.3
-1 27 6 14.2 1.3
1 27 6 12.9 1.2
-1 27 -6 13.3 1.1
-1 27 -6 12.2 1.2
1 27 6 10.2 2.1
-3 27 6 9.2 1.2
3 27 -6 8.4 1
3 27 -6 8.3 0.9
3 27 6 6.6 1.1
-3 27 -6 8.8 1
-3 27 -6 8 1.1
3 27 6 4.3 2.3
5 27 -6 2.6 0.6
-5 27 6 2.1 0.8
5 27 -6 1.6 0.5
-5 27 -6 3.5 0.7
-5 27 -6 2.5 0.7
7 27 -6 2.8 0.5
-7 27 6 4.4 0.9
-7 27 -6 4.7 0.8
0 28 -6 102.69 6
0 28 6 101.09 6
0 28 -6 100.39 5.8
2 28 -6 63.79 3.9
-2 28 6 69.09 4.1
2 28 -6 68.69 4.1
-2 28 -6 69.09 4.1
2 28 6 65.69 4.1
-2 28 -6 67.89 4
-4 28 6 70.49 4.3
4 28 -6 71.29 4.2
-4 28 -6 70.19 4.1
-4 28 -6 69.39 4.3
-6 28 6 36.3 2.4
-6 28 -6 36.6 2.4
1 29 -6 16.7 1.4
1 29 -6 19.1 1.4
-1 29 6 19 1.6
1 29 6 19.3 1.5
-1 29 -6 19.7 1.4
-1 29 -6 18.6 1.5
3 29 -6 17.5 1.3
3 29 -6 13.8 1.3
-3 29 6 16.4 1.5
-3 29 -6 16.2 1.4
-3 29 -6 15.7 1.3
-5 29 6 19.3 1.7
5 29 -6 21.6 1.5
-5 29 -6 21 1.5
-5 29 -6 20.6 1.6
0 30 -6 30.9 2
0 30 6 31.4 2.1
0 30 -6 30.9 2
2 30 -6 27.2 1.8
-2 30 6 27 1.9
2 30 -6 25 1.8
-2 30 -6 26.7 1.8
-2 30 -6 27.7 1.9
2 30 6 26.7 1.9
-4 30 6 33.1 2.4
4 30 -6 38.1 2.3
-4 30 -6 37 2.3
-4 30 -6 35.1 2.4
1 31 -6 40.3 2.5
-1 31 6 39.7 2.6
1 31 -6 38.9 2.5
1 31 6 42 2.6
-1 31 -6 40.4 2.5
-1 31 -6 40.8 2.5
-3 31 6 45.2 2.9
-3 31 -6 45.9 2.8
-3 31 -6 48.4 2.9
0 32 -6 2.3 0.5
-2 0 -7 -0.6 0.4
2 0 -7 -0.5 0.6
-2 0 7 -0.7 0.8
-2 0 -7 -1 0.5
2 0 7 -1.8 0.6
-2 0 7 -0.2 0.5
2 0 -7 -1.3 0.8
-4 0 -7 1.4 0.6
4 0 -7 1.5 0.8
4 0 7 1.7 1
-4 0 7 0.6 0.9
4 0 -7 1.4 1.1
-4 0 -7 1.3 0.9
-4 0 -7 1.2 0.6
-4 0 7 0.5 0.6
-6 0 -7 0.8 0.9
-6 0 -7 1.6 1.1
-6 0 -7 0.2 1.2
-6 0 -7 0.8 1
6 0 7 1.8 1.4
6 0 7 2.9 0.8
-8 0 -7 0.1 1.3
-8 0 -7 1.4 1.2
-8 0 -7 3.4 1.2
8 0 7 4 1
8 0 7 0.2 1.3
-10 0 -7 4.1 1.5
-12 0 -7 0.8 1.4
-12 0 -7 6.2 1.8
-14 0 7 2.4 1.4
-14 0 -7 2.4 1.4
-1 -1 -7 51.09 2.9
1 1 -7 48.2 2.9
1 1 -7 48.8 3
-1 1 7 48.3 3.2
-1 1 7 43.7 3
-1 -1 -7 52.99 3.1
1 -1 -7 51.19 3.3
-1 -1 7 56.39 3.6
1 -1 -7 49.7 3.1
1 1 7 47.3 3
3 -1 7 5.6 1.1
3 1 -7 3.5 1.2
3 1 -7 5.6 1
-3 1 7 5.4 1
-3 -1 -7 4.9 0.8
-3 -1 -7 4.8 0.7
-3 1 7 4.7 1.3
-3 -1 -7 5.7 1.1
-3 1 -7 5.8 0.8
3 -1 -7 5.7 1.4
-3 1 -7 4.6 0.7
-3 -1 7 6.5 1.5
3 1 7 4.3 1
3 -1 -7 3.8 0.9
-3 1 -7 4.9 0.8
-5 -1 -7 2.4 1
5 1 -7 1.2 1.4
5 1 -7 2.4 1.1
-5 -1 -7 4 1
5 -1 7 2.4 1.2
-5 -1 -7 1.5 1.1
5 -1 -7 1.5 1.4
5 -1 -7 2.3 1
-5 1 -7 2.7 0.9
-5 1 -7 3.8 0.9
5 1 7 4 1.3
-5 1 -7 1.9 1.1
7 -1 7 1.8 0.8
-7 -1 -7 0.7 1.1
7 -1 7 1.9 1.3
-7 -1 -7 1.1 1.4
-7 -1 -7 0.5 0.9
-7 -1 -7 1.3 1.1
-7 1 -7 -0.2 1
7 1 7 1 0.8
-7 1 -7 0.9 1
-7 1 -7 0.7 1.1
-7 1 -7 0.5 0.9
7 1 7 -1.2 1.1
-9 -1 -7 0.2 1.1
-9 -1 -7 1.6 1.3
9 -1 7 0.2 1
-9 1 -7 0.6 1.1
-9 1 -7 1.3 1.3
9 1 7 -1.4 1.2
-11 -1 -7 -1.1 1.2
-11 -1 -7 0.6 1.6
-11 1 -7 0 1.3
-11 1 -7 0.3 1.5
-13 -1 -7 0.8 1.4
-13 -1 -7 -0.2 1.5
-13 1 7 0.9 1.4
-13 -1 7 0.3 1.3
-13 1 -7 -0.6 1.3
-13 1 -7 2.1 1.5
0 -2 -7 13.4 1.3
0 2 7 12.2 1.2
0 2 7 13.8 1.3
2 -2 7 115.39 5.5
-2 2 7 113.79 6.8
-2 2 7 113.19 6.6
2 2 -7 125.79 6.5
-2 -2 -7 124.49 6.7
2 2 -7 118.29 6.7
-2 -2 -7 114.79 6.5
2 -2 -7 115.89 6.6
2 2 7 119.19 5.6
2 -2 -7 122.19 7
2 2 7 107.29 6.5
-2 -2 7 119.69 7
4 2 -7 7.2 1.2
-4 -2 -7 6 1.4
-4 2 7 8.4 1.7
-4 -2 -7 5.6 0.9
4 2 -7 5.3 1.5
-4 -2 -7 7.5 1.2
-4 2 7 5.1 1.4
4 -2 7 7 1.3
-4 2 -7 5.9 0.9
4 -2 -7 4.9 1.1
4 2 7 6.9 1.4
-4 2 -7 5.6 0.8
-4 -2 7 7.2 1.8
4 -2 -7 6.3 1.7
6 -2 7 49.6 3
-6 -2 -7 48 3.1
-6 -2 -7 53.69 4.3
6 -2 7 51.29 3.5
-6 -2 -7 52.09 3.8
-6 -2 -7 52.19 3.8
6 2 7 52.19 3.7
-6 2 -7 50.39 3.8
6 2 7 49.7 3
-6 2 -7 41.7 3.1
-6 2 -7 46.4 3.4
8 -2 7 5.1 1.1
8 -2 7 4.6 1.7
-8 -2 -7 4.5 1.3
-8 -2 -7 3.7 1.3
-8 -2 -7 2.9 2.7
-8 2 -7 1.1 1.1
-8 2 -7 2.7 1.2
-8 2 -7 4.8 1.3
-8 2 -7 2.4 1.4
8 2 7 6.2 1.2
-10 -2 -7 3.7 1.5
-10 -2 -7 0.4 1.3
10 -2 7 3 1.1
-10 2 -7 3.3 1.5
-10 2 -7 2.5 1.5
-12 -2 -7 0.1 1.3
12 2 -7 1.2 0.4
-12 -2 -7 2.5 1.6
12 -2 -7 -0.4 1
-12 2 -7 -0.5 1.3
-12 2 -7 1.6 1.6
-14 2 7 1.8 1.3
-14 -2 -7 2.8 1.5
-14 2 -7 1.9 1.3
-14 -2 7 0.5 1.2
-1 -3 -7 162.08 8.8
-1 -3 -7 167.68 9
-1 3 7 169.78 9.1
1 -3 7 176.88 7.2
-1 3 7 161.28 8.9
1 3 7 154.58 8.9
1 -3 -7 175.68 9
1 3 7 146.59 9
-1 3 -7 150.28 10.5
1 -3 -7 162.98 9
3 -3 7 109.39 5.2
-3 3 7 102.49 6.2
3 3 -7 114.79 6.1
-3 3 7 110.59 6.5
-3 -3 -7 101.19 6.3
-3 -3 -7 98.29 7.1
3 3 -7 101.69 6.3
-3 -3 -7 111.59 6.1
3 3 7 100.29 6
-3 3 -7 103.39 7.2
-3 -3 7 105.59 6.6
3 -3 -7 101.39 6.5
3 3 7 104.29 5.3
3 -3 -7 112.09 6.3
5 -3 7 32.2 2.5
-5 -3 -7 31.5 2.5
5 3 -7 25.7 3.1
5 3 -7 29.2 2.6
-5 -3 -7 32.6 3.1
-5 -3 -7 32.8 2.7
-5 3 -7 31.5 2.5
-5 3 -7 34.1 2.4
5 -3 -7 29 2.7
5 3 7 29.6 2.6
-5 3 -7 30.7 2.2
5 3 7 28.6 2
-7 -3 -7 30.5 2.4
7 -3 7 37.6 2.2
-7 -3 -7 33.3 2.8
-7 -3 -7 33.3 3.7
7 -3 7 30 2.9
-7 3 -7 29.7 2.7
-7 3 -7 28 2.8
-7 3 -7 33.8 2.9
7 3 7 32.9 3.1
-7 3 -7 31.1 2.4
9 -3 7 5.6 1.1
-9 -3 -7 4.3 1.5
-9 -3 -7 1.3 1.3
-9 3 -7 1.2 1.3
-9 3 -7 4.4 1.4
11 -3 7 2.4 1.3
11 3 -7 1.8 0.7
-11 -3 -7 0.9 1.3
-11 -3 -7 3.1 1.7
-11 3 -7 0.9 1.4
-11 3 -7 3.2 1.7
-13 -3 -7 1.1 1.6
-13 -3 -7 -0.6 1.3
-13 3 7 -0.1 1.4
-13 3 7 0.1 1.3
-13 3 -7 3.2 1.6
-13 3 -7 0.4 1.4
13 -3 -7 0.1 0.9
0 -4 -7 8.6 1.2
0 -4 -7 6.5 1
0 4 -7 5.8 1
0 4 7 8.3 1.2
0 4 7 7.6 1.2
2 -4 7 51.09 2.5
-2 4 7 48.2 3.3
-2 4 7 44.8 3.1
2 4 -7 41.2 2.7
-2 -4 -7 45.6 3
2 4 -7 45.1 2.9
-2 -4 -7 45.8 3.2
-2 4 -7 42.2 3.2
2 4 7 46 2.7
2 4 7 44.6 3
-2 4 -7 42.5 3.2
2 -4 -7 47.3 3.1
2 4 7 41.3 3.1
2 -4 -7 48.2 3.3
-4 -4 -7 1.9 0.7
4 4 -7 0.9 1
-4 -4 -7 0.9 1.2
4 4 -7 0.8 0.8
-4 -4 -7 1.7 0.9
4 -4 7 1.2 0.9
4 4 7 0.4 0.9
-4 4 -7 1.1 0.7
4 -4 -7 0.4 1.1
4 -4 -7 0.6 0.8
6 -4 7 8 0.9
6 -4 7 3.6 1.3
-6 -4 -7 8 1.2
6 4 -7 5 1.4
-6 -4 -7 6.3 1.8
-6 -4 -7 6 1.2
-6 4 -7 6.7 1.3
-6 4 -7 6.7 1.2
-6 4 -7 5 1.2
-6 4 -7 3.7 1.1
6 4 7 5.1 1.6
-8 -4 -7 0.3 1
-8 -4 -7 -1.3 1.1
8 -4 7 -0.4 0.8
-8 4 -7 -0.6 0.9
-8 4 -7 -0.1 1
-8 4 -7 0.8 1.1
-8 4 -7 -0.1 1.1
10 4 -7 1 0.4
-10 -4 -7 1.5 1.4
10 4 -7 0.1 0.4
-10 -4 -7 0.6 1.3
10 -4 7 0.4 1.2
-10 4 -7 1.4 1.5
-10 4 -7 0.3 1.3
-12 4 7 -0.9 1.3
-12 -4 -7 -0.2 1.5
-12 -4 -7 -0.2 1.3
-12 4 -7 1.4 1.6
-12 4 -7 -0.4 1.4
-14 -4 -7 0.2 1.3
-14 4 7 0.8 1.5
-14 4 -7 0.3 1.3
1 -5 7 968.6 37.1
1 5 -7 920.61 57.99
-1 -5 -7 928.51 46
-1 -5 -7 873.61 46.1
1 5 -7 849.02 55.49
-1 5 7 812.62 46
-1 5 7 840.62 46.1
1 -5 -7 876.91 46
1 5 7 891.11 46
-1 5 -7 899.01 57.99
1 5 7 853.61 46.1
-1 5 -7 875.51 55.49
3 -5 7 54.49 2.9
-3 -5 -7 54.29 3.9
-3 -5 -7 53.89 3.6
3 5 -7 54.49 3.6
-3 5 7 65.59 4.4
3 5 -7 43.9 3.6
3 5 -7 53.79 3.3
3 -5 -7 51.19 3.9
-3 5 -7 49.3 3.7
3 5 7 48.7 3.4
3 -5 -7 63.59 4
3 5 7 51.79 3.2
-3 5 -7 49.9 3.7
-5 -5 -7 24.6 2.1
-5 -5 -7 26.4 3
5 5 -7 24.1 2.3
-5 -5 -7 24.2 2.5
5 5 -7 21.6 2.7
5 -5 7 21 2.1
-5 5 -7 25.3 1.8
-5 5 -7 23.8 1.7
-5 5 -7 24.6 2.1
5 5 7 23.9 2.4
-7 -5 -7 34.4 2.5
-7 -5 -7 37.6 3
7 -5 7 40.2 2.4
7 5 7 27.2 3.1
-7 5 -7 32.9 2.8
-7 5 -7 31.4 2.7
-7 5 -7 38.6 3.1
-7 5 -7 34.8 2.5
9 -5 7 17.8 1.7
-9 -5 -7 21.7 2.2
9 5 -7 20.6 1.3
9 5 -7 21 1.3
-9 5 -7 13.6 2.3
-9 5 -7 20.4 1.7
-9 5 -7 19.4 2.2
-11 -5 -7 5.8 1.8
11 -5 7 3.6 1.3
-11 -5 -7 1.3 1.4
-11 5 -7 5.4 1.7
-11 5 -7 1 1.4
-13 -5 -7 0.9 1.5
-13 5 7 1.7 1.5
-13 -5 -7 3.6 1.7
13 -5 -7 1.8 1
-13 5 -7 3.2 1.5
-13 5 -7 1.8 1.5
0 6 -7 4.6 0.8
0 -6 -7 6.9 1.3
0 6 7 5.9 1.1
0 6 7 8.2 1.6
0 -6 -7 5.1 1.1
0 6 -7 5.8 0.9
2 -6 7 206.68 8.5
-2 -6 -7 196.08 10.7
2 6 -7 199.38 10.2
2 6 -7 178.68 12.3
-2 -6 -7 211.28 11
2 6 -7 193.08 10.3
-2 6 7 174.08 10.6
2 6 7 184.18 10.8
2 -6 -7 199.18 10.8
-2 6 -7 183.58 12.8
2 6 7 186.88 10.6
2 6 7 194.88 8.9
-2 -6 7 199.18 8.5
-2 6 -7 181.98 12.3
-4 -6 -7 4.4 1.2
-4 -6 -7 5.9 0.9
4 6 -7 4.6 0.8
4 -6 7 4.8 1.1
-4 -6 -7 4.9 1.6
4 6 -7 4.7 1.1
4 6 -7 2.9 1.2
4 -6 -7 3.4 1.2
-4 6 -7 5.1 1
4 6 7 4.1 1.3
6 6 -7 0.7 1
-6 -6 -7 0.4 0.9
-6 -6 -7 2 1
-6 6 -7 1.5 0.7
-6 6 -7 1.2 0.7
6 6 7 1.3 1.3
-6 6 -7 1.4 1
-6 6 -7 0.9 1
8 -6 7 8.3 1.1
-8 -6 -7 6.6 1.5
8 6 -7 7.8 0.7
-8 -6 -7 8.1 1.4
-8 6 -7 9.3 1.5
-8 6 -7 7.4 1.6
10 -6 7 0.6 1.1
-10 -6 -7 1.3 1.3
10 6 -7 1.5 0.4
10 6 -7 2 0.4
-10 -6 -7 2.9 1.5
-10 6 -7 1.7 1.5
-10 6 -7 1.3 0.9
-10 6 -7 0.8 1.3
-12 -6 -7 -1 1.7
-12 -6 -7 0.1 1.3
-12 6 7 -1.3 1.3
12 -6 7 0 1
-12 6 -7 0.2 1.4
-12 6 -7 0.9 1.5
-14 -6 -7 -0.1 1.3
-14 6 -7 0.1 1.1
14 -6 -7 -0.6 0.7
1 7 -7 58.29 4.1
-1 -7 -7 55.69 3.9
-1 7 7 60.59 4
1 7 -7 64.19 4.1
-1 -7 -7 52.19 3.9
1 7 7 62.39 3.9
1 7 7 56.79 4
1 -7 -7 57.19 3.9
-1 7 -7 54.59 4
1 -7 -7 67.19 4.1
-1 7 -7 55.19 4.1
3 -7 7 167.18 7.1
3 7 -7 165.08 8.6
-3 -7 -7 158.98 9
3 7 -7 156.58 8.7
-3 -7 -7 158.78 9.3
3 7 -7 143.79 10
-3 7 7 155.88 9.6
3 -7 -7 157.68 9.1
-3 7 -7 149.29 10.4
3 -7 -7 141.69 9.1
-3 7 -7 142.69 10
3 7 7 154.88 7.5
5 7 -7 3.4 1.3
-5 -7 -7 6.2 1.1
5 7 -7 7.8 1.4
-5 -7 -7 6.1 2
5 7 7 4.2 1.5
-5 7 -7 7.1 1.3
-7 -7 -7 12.8 1.6
7 -7 7 16.6 1.3
-7 -7 -7 15.7 1.8
-7 7 -7 14.8 1.8
7 7 7 11.1 2.2
-7 7 -7 11.9 1.5
-7 7 -7 13.7 1.5
-7 7 -7 17.3 1.7
9 -7 7 1 1
-9 7 7 0.9 0.9
-9 -7 -7 1.6 1.3
9 7 -7 1.9 0.4
-9 -7 -7 0.4 1.2
9 7 -7 1.3 0.4
-9 7 -7 2.1 1.4
-9 7 -7 1.7 0.9
-9 7 -7 0.4 1.2
-11 -7 -7 -0.4 1.2
11 7 -7 0.4 0.5
11 7 -7 1.7 0.4
-11 -7 -7 2 1.6
-11 7 7 0.3 1.4
11 -7 7 0.8 1
-11 7 -7 0 1.4
-11 7 -7 2.3 1.6
-13 -7 -7 2.1 1.6
13 -7 -7 0.1 0.9
-13 7 -7 1.4 1.4
0 8 -7 2.6 0.7
0 -8 -7 2.5 1
0 8 -7 2.6 0.8
0 -8 -7 2.8 1.1
0 8 7 2.4 0.8
0 8 7 2.3 1
2 8 -7 99.69 5.2
-2 8 7 108.59 6.2
-2 -8 -7 95.89 6.1
2 8 -7 92.19 6.3
-2 -8 -7 90.39 5.8
2 8 -7 96.59 5.3
-2 8 7 95.69 6
-2 8 -7 89.19 6.3
2 -8 -7 100.49 6
-2 8 -7 87.59 6.4
2 8 7 88.89 4.9
2 8 7 78.49 6
4 8 -7 43.2 3
-4 -8 -7 35.7 2.9
4 8 -7 39.1 3
4 8 -7 40.5 3.2
-4 -8 -7 38.1 3.8
-4 8 -7 39.5 3
4 8 7 43.2 3.1
-4 8 -7 42.5 3.1
-6 -8 -7 117.19 7.8
6 8 -7 102.89 7
-6 8 -7 101.79 6.3
-6 8 -7 125.09 7.9
6 8 7 102.59 6.3
-8 -8 -7 -0.1 1.1
8 -8 7 3.3 0.9
-8 -8 -7 1 1.2
-8 8 -7 1.5 1.3
-8 8 -7 1.2 1.3
10 8 -7 1.5 0.4
10 8 -7 1 0.4
-10 -8 -7 0.7 1.5
-10 -8 -7 0.4 1.2
10 -8 7 0.7 1.2
-10 8 -7 0 1.3
-10 8 -7 -0.7 1.4
-10 8 -7 1.5 0.9
12 -8 7 1.7 1.2
-12 -8 -7 1 1.4
-12 -8 -7 -0.4 1.7
-12 8 -7 2.5 1.5
-12 8 -7 2.2 1.5
-14 -8 -7 1.3 1.3
-14 8 -7 0.9 1.2
14 -8 -7 0.5 0.8
-1 -9 -7 14.1 1.8
1 9 -7 13.1 1.5
-1 -9 -7 16.2 2
-1 9 7 16.9 1.9
1 -9 -7 13.9 1.9
1 -9 -7 13 1.7
-1 9 -7 17.3 1.6
1 9 7 16.8 2.6
-1 9 -7 13.7 1.3
3 9 -7 15.2 1.7
3 9 -7 15 1.5
-3 -9 -7 16.4 2.5
3 9 -7 16.2 1.7
-3 9 -7 16.9 1.6
-3 9 -7 13 1.5
3 9 7 18.8 2.2
5 9 -7 17.7 2
5 9 -7 13.3 2.2
5 9 -7 14.5 1.6
-5 -9 -7 18.1 1.6
-5 9 -7 13.6 1.6
-5 9 -7 19.1 1.8
5 9 7 15.6 2.3
7 9 -7 0.4 0.3
-7 -9 -7 0.7 1
-7 -9 -7 0.1 0.9
-7 9 -7 -1.3 1
-7 9 -7 0 1.1
9 9 -7 0 0.4
9 -9 7 -1.1 0.9
-9 -9 -7 -1 1.3
9 9 -7 -0.7 0.4
-9 -9 -7 -0.8 1.1
-9 9 7 -0.8 0.9
-9 9 -7 -0.9 0.8
-9 9 -7 -1.5 1.2
-9 9 -7 -0.1 1.2
-11 -9 -7 0 1.2
11 9 -7 -0.7 0.4
-11 -9 -7 1 1.6
11 -9 7 -0.5 1.2
-11 9 -7 -1.7 1
-11 9 -7 -0.6 1.3
-11 9 -7 -1.4 1.4
13 -9 7 -1.2 1.2
-13 -9 -7 -1.7 1.4
-13 9 -7 -1.9 1.1
13 -9 -7 -1.2 0.9
0 10 -7 3.4 0.8
0 10 -7 3.7 0.9
0 -10 -7 2.4 1.1
-2 -10 -7 249.58 14.9
2 10 -7 265.67 13.9
2 10 -7 275.97 16.9
2 10 -7 270.17 13.9
-2 10 -7 261.17 17.5
-2 10 -7 255.17 16.8
2 10 7 250.97 12
4 10 -7 45.3 3.7
4 10 -7 54.69 3.6
4 10 -7 42.4 3.7
-4 10 -7 53.59 3.7
-4 10 -7 52.19 3.8
4 10 7 53.19 3.6
-6 -10 -7 2.8 1.2
6 10 -7 2.7 1.2
-6 10 -7 5.1 1.2
6 10 7 3.6 1.7
-6 10 -7 2.6 1.2
-8 -10 -7 4.3 1.5
-8 10 7 8.4 1.3
8 -10 7 9.6 1.2
8 10 -7 8.1 0.7
-8 -10 -7 7.6 1.5
8 10 -7 9.3 0.7
-8 10 -7 6.4 1.5
-8 10 -7 7.5 1
-8 10 -7 5 1.6
10 10 -7 5 0.7
10 -10 7 4.5 1.4
-10 10 7 2.8 1
10 10 -7 4.5 0.7
-10 -10 -7 0.9 1.3
-10 -10 -7 3.7 1.6
-10 10 -7 2.5 1.5
-10 10 -7 4.1 1
-10 10 -7 4.4 1.5
12 -10 7 1.5 1.2
-12 -10 -7 0.4 1.5
12 10 -7 1.4 0.5
-12 10 -7 2 1.4
-12 10 -7 0.2 1.4
14 -10 -7 0.9 0.7
1 11 -7 144.79 9.3
-1 11 -7 136.49 9.5
-1 11 -7 140.99 9.3
3 11 -7 42.6 3.4
3 11 -7 42.6 3.2
3 11 -7 44.1 3.1
3 11 7 42.4 3.2
-3 11 -7 48.1 3.5
-3 11 -7 47.2 3.4
5 11 -7 2.4 1
5 11 -7 1.1 0.9
5 11 -7 1.8 1.2
5 11 7 -0.1 1.2
-5 11 -7 2.3 1
-5 11 -7 2.5 0.9
-5 11 -7 2.1 1
7 11 -7 5.4 0.6
-7 11 -7 4.2 1.3
-7 11 -7 5.5 1.3
-9 -11 -7 -0.8 1.4
9 -11 7 1.6 1
9 11 -7 1 0.4
9 11 -7 1.2 0.4
-9 11 7 1.2 0.9
-9 11 -7 0.3 1.4
-9 11 -7 1.4 0.8
-9 11 -7 0.3 1.3
11 11 -7 0.5 0.4
11 -11 7 2 1.3
-11 -11 -7 -1 1.5
-11 11 -7 -0.3 1.3
-11 11 -7 1.2 1
-11 11 -7 0.1 1.3
13 -11 7 0.5 0.8
-13 -11 -7 -2 1.3
-13 11 -7 -1.2 1.2
13 -11 -7 -1.6 0.8
0 12 -7 2.3 0.9
0 12 -7 2 0.7
2 12 -7 13.9 1.4
2 12 -7 14.3 1.4
2 12 -7 14 1.8
2 12 7 18.4 2.2
-2 12 -7 17.2 1.8
-2 12 -7 14.3 1.5
4 12 -7 0.6 0.8
4 12 -7 1.1 0.8
4 12 -7 0.2 0.8
4 12 7 1.2 1.3
-4 12 -7 1 0.8
-4 12 -7 0.8 0.8
-4 12 -7 0.8 0.8
6 12 -7 0.5 0.3
6 12 7 -0.2 1.9
-6 12 -7 -0.3 1
-6 12 -7 -1 0.9
8 12 -7 0.1 0.4
-8 12 7 0 0.8
8 -12 7 0.6 0.9
8 12 -7 0.4 0.4
-8 12 -7 -0.7 1.2
-8 12 -7 0.5 0.7
-8 12 -7 -0.6 1.1
10 12 -7 2.3 0.5
10 12 -7 1.3 0.5
10 -12 7 3.8 1.3
-10 12 7 1.8 1
-10 -12 -7 1.9 1.6
-10 12 -7 2.7 1.4
-10 12 -7 -0.4 1.4
-10 12 -7 3.2 1
-12 -12 -7 -0.5 1.4
12 12 -7 0.5 0.4
12 -12 7 0.4 1
-12 12 -7 -1.3 1.2
1 13 -7 334.97 21.5
-1 13 -7 342.57 21.5
-1 13 -7 324.07 22.2
3 13 -7 2.2 0.9
3 13 -7 1.5 0.9
3 13 -7 0.9 0.8
3 13 7 0.7 1.1
-3 13 -7 2.4 0.8
-3 13 -7 2.3 1
5 13 -7 2.2 1
5 13 -7 0.8 1
-5 13 -7 2.1 0.9
5 13 7 1.2 1.4
-5 13 -7 1 0.9
-5 13 -7 1.2 0.9
-7 13 7 4.5 0.8
7 13 -7 5.6 0.7
-7 13 -7 3.4 0.8
-7 13 -7 2.9 1.2
-7 13 -7 2.4 1.2
9 -13 7 17 1.7
9 13 -7 16.6 1.2
-9 13 7 15.8 1.7
9 13 -7 17.5 1.2
-9 13 -7 16.9 1.6
11 -13 7 4.5 1.4
-11 13 -7 1.4 1.5
-11 13 -7 3.6 1
13 -13 7 0.2 1
13 -13 -7 0.2 0.9
0 14 -7 0.2 0.9
2 14 -7 0.4 0.9
2 14 -7 -0.8 0.5
2 14 -7 -0.2 0.6
2 14 7 0.5 1
-2 14 -7 0.4 0.8
-2 14 -7 0.7 0.7
4 14 -7 4.3 1.2
4 14 -7 1.5 1
4 14 -7 2.5 1
4 14 7 2.2 1.5
-4 14 -7 3.7 1.1
-4 14 -7 1.7 1.5
-4 14 -7 4.4 1
6 14 -7 0.4 0.3
6 14 -7 0.2 0.3
-6 14 -7 0.1 0.9
-6 14 -7 -0.3 0.5
-6 14 -7 -0.8 0.9
8 14 -7 1.8 0.4
8 14 -7 2 0.4
-8 14 7 0.7 0.9
-8 14 -7 2.7 0.8
-8 14 -7 0.7 1.5
-8 14 -7 -0.1 1.2
10 14 -7 0.2 0.4
10 -14 7 -0.7 1.1
-10 14 7 -0.6 1
-10 14 -7 0.6 0.9
12 14 -7 -0.6 0.4
12 -14 7 -0.1 0.9
1 15 -7 1.8 1.1
1 15 -7 2.7 0.9
1 15 7 1.5 1.1
-1 15 -7 2.6 1.1
3 15 -7 34.5 3
3 15 -7 33.4 2.6
3 15 -7 34.2 2.6
3 15 7 35.3 3
5 15 -7 5 1.4
-5 15 -7 4.3 0.6
-5 15 -7 5.1 1.2
-7 15 7 34.2 2.3
7 15 -7 34.7 1.9
7 15 -7 32.9 2
-7 15 -7 26.6 2
-7 15 -7 30.7 2.2
9 15 -7 1.6 0.5
-9 15 7 4.8 1
9 -15 7 2.2 1.2
-9 15 -7 3.3 0.9
-11 15 7 2.2 1
11 15 -7 1 0.4
11 -15 7 0.5 1.2
-11 15 -7 0.5 0.9
13 -15 -7 0.3 0.8
0 16 -7 0.5 1
2 16 -7 2.7 1.1
2 16 -7 1.5 0.3
-2 16 -7 1.6 1
-2 16 -7 1.7 0.4
2 16 7 2 1.3
4 16 -7 1.8 0.4
4 16 -7 2.4 1.1
-4 16 -7 2.1 0.5
-4 16 -7 2.7 1.1
4 16 7 1.3 1.4
6 16 -7 8.2 1.6
-6 16 7 10.1 1.3
6 16 -7 12.5 0.9
6 16 -7 11.8 0.9
-6 16 -7 10.1 1.2
-6 16 -7 9.5 1.1
8 16 -7 5.3 0.8
8 16 -7 5.6 0.8
-8 16 7 4.2 1
-8 16 -7 4.7 0.9
-10 16 7 -0.2 1
10 16 -7 0.6 0.5
10 -16 7 0.2 1.1
-10 16 -7 0.4 0.9
12 16 -7 0.7 0.4
12 -16 7 1 1
1 17 -7 3.2 1.2
1 17 -7 4.2 0.5
-1 17 -7 4.6 1.3
-1 17 -7 4.5 0.6
-3 17 7 0.7 0.5
3 17 -7 0.5 1
3 17 -7 0.4 0.3
-3 17 -7 1 1
-3 17 -7 1.6 0.4
-5 17 7 0.2 0.6
5 17 -7 0.2 0.3
5 17 -7 0.1 1.1
5 17 -7 -0.3 0.3
-5 17 -7 0.1 0.9
-5 17 -7 0 0.4
-5 17 -7 0.5 0.4
-7 17 7 6.8 1
7 17 -7 5.9 0.7
7 17 -7 6.3 0.8
-7 17 -7 3.6 0.7
-7 17 -7 6 0.9
9 -17 7 -0.1 1.2
9 17 -7 0.1 0.4
9 17 -7 0.3 0.5
-9 17 7 1.1 1
-9 17 -7 -0.2 0.9
11 17 -7 0.5 0.4
11 -17 7 -0.9 1.1
-11 17 7 1.2 0.9
-11 17 -7 -0.9 0.9
0 18 -7 0.3 1
0 18 -7 0.4 0.3
0 18 7 0.3 0.4
2 18 -7 10.8 0.9
2 18 -7 11.3 1.9
-2 18 7 9.7 1
-2 18 -7 11.7 1.8
-2 18 -7 12.9 0.9
4 18 -7 9.8 0.9
4 18 -7 11.9 0.9
4 18 -7 11.9 2
-4 18 7 10.8 1.2
4 18 7 9.1 1.2
-4 18 -7 9.9 1.7
-4 18 -7 9.7 1
-4 18 -7 10.4 1
6 18 -7 1.8 1.3
-6 18 -7 3.9 0.7
-6 18 -7 5.2 0.7
-8 18 7 2.4 1
8 18 -7 1.5 0.5
-8 18 -7 2.1 0.8
10 -18 7 2.5 1.2
-10 18 7 2 1
10 18 -7 1.7 0.5
-10 18 -7 2.6 1
12 18 -7 1.8 0.7
12 -18 -7 1.7 0.9
-1 19 7 2.1 0.5
1 19 -7 0.9 1.1
1 19 -7 1.7 0.4
-1 19 7 1.9 0.7
-1 19 -7 2 1.2
-1 19 -7 2.3 0.4
-3 19 7 1.6 0.5
3 19 -7 1.8 0.5
3 19 -7 1.8 0.4
-3 19 7 3.6 0.6
3 19 -7 1.8 1.2
-3 19 -7 2.2 0.5
-3 19 -7 2.1 1.2
3 19 7 2.5 0.5
-3 19 -7 2.6 0.5
5 19 -7 1.6 1.3
5 19 -7 1.5 0.5
5 19 -7 1.9 0.4
-5 19 7 2.1 0.7
-5 19 -7 2.2 0.6
-5 19 -7 2.1 0.6
-5 19 -7 2.2 1.2
7 19 -7 0.8 0.5
7 19 -7 2.1 0.5
-7 19 7 2.2 0.9
-7 19 -7 1.7 0.8
-7 19 -7 1.3 0.6
9 -19 7 -0.1 1.2
9 19 -7 -0.3 0.5
-9 19 7 -1.6 1
-9 19 -7 0 0.9
11 19 -7 -0.4 0.4
11 -19 7 -0.4 1.1
-11 19 7 -0.3 1.3
-11 19 -7 -1 0.9
0 20 7 0 0.4
0 20 -7 -0.2 0.3
0 20 -7 0.5 0.4
0 20 7 0.3 0.4
0 20 -7 -0.8 1.1
2 20 -7 11.7 2.1
2 20 -7 10.5 1
-2 20 7 12.8 1.2
-2 20 7 13.4 1.2
-2 20 7 14.4 1.9
2 20 -7 13.1 1
-2 20 -7 12.9 1
-2 20 -7 15.4 1.1
-2 20 -7 13 2.1
2 20 7 14 1.1
4 20 -7 1.1 0.4
-4 20 7 1.5 0.6
4 20 -7 0.2 1.2
4 20 -7 0.8 0.5
-4 20 -7 0.9 0.5
-4 20 -7 1 1.1
4 20 7 1.3 0.5
-4 20 -7 0.9 0.5
6 20 -7 18.2 1.2
6 20 -7 16.4 1.2
-6 20 7 15.5 1.6
-6 20 -7 14.3 1.4
-6 20 -7 14.2 1.4
8 20 -7 0.9 0.5
8 20 -7 1.1 0.5
-8 20 7 1.6 1
-8 20 -7 2.2 0.8
10 -20 7 2.7 1.1
-10 20 7 3.9 1
-10 20 -7 4.7 1
1 21 -7 4.4 0.7
1 21 -7 5.1 0.7
1 21 -7 3.2 1.5
-1 21 7 6.2 0.7
-1 21 -7 6 0.8
-1 21 -7 5 0.7
1 21 7 6.2 0.7
-1 21 -7 5.1 1.6
-3 21 7 -0.2 0.5
3 21 -7 -0.1 0.4
-3 21 7 0.3 0.6
3 21 -7 0.3 0.4
3 21 -7 0.6 1.2
-3 21 -7 0.6 1.1
3 21 7 0.3 0.5
-3 21 -7 0.1 0.4
-3 21 -7 0.1 0.5
-5 21 7 2.9 0.8
5 21 -7 1.6 0.5
5 21 -7 2.9 0.5
5 21 -7 0.5 1.3
-5 21 -7 1.8 0.6
-5 21 -7 2.1 0.6
-7 21 7 6 1
7 21 -7 6.4 0.9
7 21 -7 8.5 0.9
-7 21 -7 6.1 0.9
-7 21 -7 3.7 0.8
9 21 -7 5.3 0.8
-9 21 7 3.3 1
9 -21 7 4.2 1.3
-9 21 -7 3.5 1
11 21 -7 0.8 0.4
11 -21 -7 0.2 0.9
-11 21 -7 1.8 0.8
0 22 -7 -0.2 0.4
0 22 7 -0.2 0.5
0 22 -7 0.1 0.4
0 22 7 -0.1 0.5
0 22 -7 -0.3 1.2
-2 22 7 -0.2 0.5
2 22 -7 -0.2 0.4
-2 22 7 0.8 1.1
-2 22 7 1.1 0.6
2 22 -7 -0.1 0.4
2 22 -7 0.8 1.3
2 22 7 1 0.5
-2 22 -7 0.5 0.4
-2 22 -7 0.6 0.5
-2 22 -7 -0.6 1.1
4 22 -7 0 0.4
4 22 -7 -0.6 0.5
4 22 -7 0.4 1.4
-4 22 7 0 0.6
4 22 7 0.1 0.5
-4 22 -7 -0.6 1
-4 22 -7 -0.4 0.5
-4 22 -7 -0.1 0.5
6 22 -7 -0.4 0.5
6 22 -7 -0.1 0.5
-6 22 7 -0.4 0.8
6 22 -7 0.2 1.3
-6 22 -7 0.2 0.6
-6 22 -7 -0.3 0.6
8 22 -7 0 0.4
-8 22 7 -0.7 1
8 22 -7 0.3 0.5
-8 22 -7 0.6 0.8
10 22 -7 0.4 0.4
-10 22 7 1 0.8
10 -22 7 1 1
10 -22 -7 1 0.9
-10 22 -7 1.4 0.8
1 23 -7 1 0.5
-1 23 7 0.4 1.3
-1 23 7 1.2 0.5
1 23 -7 1.2 1.4
-1 23 7 0.5 0.6
1 23 -7 0.8 0.4
1 23 7 1.6 0.6
-1 23 -7 0.1 1.3
-1 23 -7 1.9 0.5
-1 23 -7 1.2 0.4
-3 23 7 -0.1 0.6
3 23 -7 0.1 0.5
-3 23 7 -0.2 0.6
3 23 -7 0.5 1.4
3 23 -7 0.4 0.4
-3 23 -7 0.4 0.5
3 23 7 0.3 0.5
-3 23 -7 0 1.1
-3 23 -7 0 0.5
5 23 -7 4.2 0.6
5 23 -7 1.7 1.5
-5 23 7 7 1
-5 23 -7 5.2 0.8
-5 23 -7 3.9 0.7
7 23 -7 1.6 0.5
-7 23 7 2.3 0.9
7 23 -7 1.8 0.5
-7 23 -7 2.8 0.8
7 23 7 1.2 1.5
-9 23 7 2 0.9
9 23 -7 0.9 0.5
9 -23 7 1.7 1.1
-9 23 -7 1.7 0.8
9 -23 -7 0.9 1
0 24 7 0.1 0.5
0 24 -7 0.4 0.4
0 24 7 -0.5 1.2
0 24 7 0.2 0.6
0 24 -7 0.1 0.5
0 24 -7 0 1.3
-2 24 7 0.4 0.6
-2 24 7 -0.5 0.6
2 24 -7 -0.2 0.5
2 24 -7 0.5 1.3
-2 24 7 0.4 1.2
2 24 -7 -0.2 0.4
-2 24 -7 -0.3 1.2
-2 24 -7 -0.5 0.5
2 24 7 0.1 0.5
2 24 7 -0.6 1.2
-2 24 -7 0.1 0.4
4 24 -7 -1.2 0.5
-4 24 7 -0.7 0.6
4 24 -7 -0.3 0.4
4 24 -7 -1 1.2
-4 24 -7 -0.8 1
-4 24 -7 0 0.5
-4 24 -7 -1.1 0.5
6 24 -7 -0.8 1.5
-6 24 7 0 0.8
6 24 -7 0.2 0.5
6 24 -7 0.1 0.5
-6 24 -7 0.2 0.6
-6 24 -7 -0.7 0.6
6 24 7 -0.3 1.2
8 -24 7 0 1
8 24 -7 0.7 0.5
-8 24 7 0.8 0.9
-8 24 -7 0.9 0.8
1 25 -7 0.3 1.4
-1 25 7 1.8 0.6
-1 25 7 1 0.6
1 25 -7 1.6 0.5
-1 25 7 -0.4 1.2
1 25 -7 0.6 0.5
1 25 7 0.5 1.4
1 25 7 1.4 0.6
-1 25 -7 -0.5 1.2
-1 25 -7 0.9 0.6
-1 25 -7 1.1 0.5
3 25 -7 2 0.5
3 25 -7 1.9 0.6
-3 25 7 3.2 0.8
3 25 -7 1.4 1.5
-3 25 -7 3.8 0.6
-3 25 -7 0.1 1.2
-3 25 -7 2.4 0.6
3 25 7 2.7 0.6
3 25 7 1.2 1.4
5 25 -7 0.1 1.3
-5 25 7 0.1 0.8
5 25 -7 -0.3 0.5
5 25 -7 0 0.5
-5 25 -7 0.2 0.6
5 25 7 -0.2 1.2
-5 25 -7 0.6 0.6
7 25 -7 2.3 0.5
-7 25 7 3.3 0.9
7 25 -7 2.7 0.6
-7 25 -7 5 0.8
-9 25 7 0.2 0.8
9 25 -7 -0.2 0.4
-9 25 -7 0.1 0.8
0 26 -7 0.4 0.5
0 26 -7 0.7 0.5
0 26 7 0.3 0.6
0 26 7 -0.2 1.3
0 26 -7 -0.6 1.1
-2 26 7 1.9 0.7
2 26 -7 0.2 1.3
2 26 -7 1 0.5
2 26 -7 1.6 0.5
2 26 7 -0.2 1.3
-2 26 -7 0.5 0.6
2 26 7 1.6 0.6
-2 26 -7 1.8 0.5
-2 26 -7 0.4 1.2
-4 26 7 5.7 0.9
4 26 -7 3.2 0.6
4 26 -7 2.4 1.6
4 26 -7 3.4 0.6
4 26 7 2.5 1.5
-4 26 -7 5 0.7
6 26 -7 2.1 0.5
-6 26 7 3 0.8
6 26 -7 1.9 0.5
-6 26 -7 2.6 0.7
-8 26 7 1.1 0.8
8 26 -7 0.1 0.4
-8 26 -7 1 0.7
1 27 -7 0.1 0.4
-1 27 7 0.3 0.7
1 27 -7 -0.3 0.5
-1 27 7 0.3 1.3
1 27 -7 -0.1 1.2
1 27 7 -0.2 1.3
1 27 7 0.2 0.6
-1 27 -7 0.3 1.3
-1 27 -7 0 0.5
-1 27 -7 0.2 0.5
3 27 -7 0 0.5
3 27 -7 -0.1 0.5
-3 27 7 0.9 0.7
-3 27 -7 0.9 0.5
-3 27 -7 0.2 0.6
5 27 -7 1.7 0.5
5 27 -7 1.4 0.5
-5 27 7 2.8 0.8
-5 27 -7 3.5 0.7
-5 27 -7 1.9 0.6
7 27 -7 -0.3 0.4
-7 27 7 -0.3 0.8
-7 27 -7 0.7 0.7
0 28 -7 0.6 0.5
0 28 7 1 0.6
0 28 -7 0.9 0.5
-2 28 7 1.5 0.7
2 28 -7 0.5 0.5
2 28 -7 1.3 0.5
-2 28 -7 1.3 0.5
-2 28 -7 1.2 0.6
2 28 7 1.1 0.6
4 28 -7 2.7 0.6
4 28 -7 3.1 0.5
-4 28 7 5.7 0.8
-4 28 -7 4.1 0.7
6 28 -7 5.2 0.8
6 28 -7 6.3 0.8
-6 28 7 5.8 0.9
1 29 -7 0.1 0.5
1 29 -7 -0.8 0.5
-1 29 7 -0.2 0.6
-1 29 -7 0.1 0.5
-1 29 -7 0.4 0.5
1 29 7 -0.3 0.6
3 29 -7 0.1 0.5
3 29 -7 -0.3 0.5
-3 29 7 -0.2 0.6
-3 29 -7 0.9 0.5
-3 29 -7 -0.1 0.5
-5 29 7 1.2 0.7
5 29 -7 0.3 0.4
5 29 -7 -0.3 0.4
-5 29 -7 0.1 0.5
-5 29 -7 1.9 0.7
0 30 -7 0.5 0.5
0 30 -7 0.3 0.5
0 30 7 0.2 0.6
-2 30 7 2.6 0.7
2 30 -7 1.7 0.5
2 30 -7 0.7 0.5
-2 30 -7 1.5 0.6
-2 30 -7 1.7 0.6
-4 30 7 1.1 0.7
4 30 -7 0.6 0.4
4 30 -7 -0.4 0.4
-4 30 -7 0.5 0.5
-4 30 -7 -0.5 0.5
-1 31 7 2.5 0.8
1 31 -7 2.4 0.5
1 31 -7 1 0.5
-1 31 -7 1.7 0.5
-1 31 -7 1.2 0.5
-3 31 7 1.1 0.7
3 31 -7 1.5 0.4
3 31 -7 0.7 0.4
-3 31 -7 1.5 0.5
-3 31 -7 0.5 0.5
-2 0 8 257.97 14.5
2 0 -8 261.47 14.5
2 0 8 269.27 11.8
-2 0 -8 261.77 17.8
2 0 -8 278.67 14.2
4 0 8 255.67 12.1
-4 0 -8 267.37 17.7
4 0 -8 254.37 15
-4 0 -8 271.57 14.2
4 0 -8 271.77 14.6
-4 0 -8 271.77 14.4
6 0 8 423.96 18.4
-6 0 -8 406.26 21.8
6 0 8 380.06 22.9
-6 0 -8 362.66 21.9
-6 0 -8 431.56 27
-6 0 -8 433.06 22.1
-8 0 -8 145.29 8
-8 0 -8 114.39 8.7
8 0 8 153.78 8.2
-8 0 -8 139.89 9.8
10 0 -8 69.79 4
-10 0 -8 74.39 4.5
10 0 -8 73.19 3.9
-10 0 -8 57.09 5.3
-12 0 -8 43.5 4
-14 0 -8 5.8 1.4
-14 0 8 4.1 1.4
-1 1 8 26.9 2.2
1 1 -8 28.8 1.8
1 1 -8 29.6 2
-1 -1 -8 27.3 2
1 -1 -8 29.7 2.3
1 -1 -8 31.1 2
-3 1 8 21.4 2.2
-3 -1 -8 21.7 1.8
3 1 -8 22.5 1.8
3 1 -8 20.2 2.1
-3 -1 -8 23.6 2
-3 -1 -8 23.7 1.7
-3 1 8 24.4 2.4
3 -1 8 25 1.9
-3 1 -8 22.7 1.8
3 -1 -8 22.9 2.4
-3 -1 8 22.6 2.4
3 -1 -8 24.9 2
3 1 8 24.5 1.9
5 -1 8 49.5 3.3
-5 -1 -8 50.69 3.6
5 1 -8 48.3 3.6
-5 -1 -8 50.99 3.7
-5 -1 -8 51.49 3.4
5 1 -8 42.3 4
-5 1 -8 49.3 3.6
5 -1 -8 43 4.9
-5 1 -8 45.7 3.2
-5 1 -8 51.29 3.4
5 1 8 45.8 2.9
5 1 8 47.8 3.3
5 -1 -8 51.49 3.7
7 -1 8 27.7 1.9
-7 -1 -8 24.1 2.9
-7 -1 -8 29.4 2.5
7 -1 8 27.5 2.7
-7 -1 -8 24.2 2.6
-7 -1 -8 24.9 2.1
7 1 8 28.9 1.9
-7 1 -8 27.4 2.5
-7 1 -8 24.2 2.1
7 1 8 30.5 2.9
-7 1 -8 23.4 2.5
9 1 -8 12.6 1.3
-9 -1 -8 11.5 1.7
9 1 -8 8 0.8
-9 -1 -8 13.7 1.7
9 -1 8 12.3 1.4
-9 1 -8 10.3 1.8
-9 1 -8 15.4 1.9
9 -1 -8 9.4 1
-11 -1 -8 6.3 1.7
-11 -1 -8 10.9 1.9
-11 1 -8 4.8 1.7
-11 1 -8 11 1.9
11 -1 -8 7.8 1.3
-13 -1 -8 1.3 1.5
-13 1 8 0.5 1.4
-13 -1 -8 1.5 1.5
13 -1 -8 1.1 0.4
-13 1 -8 0.8 1.4
-13 1 -8 2.2 1.6
0 -2 -8 206.78 9.9
0 2 8 162.48 9.8
0 -2 -8 174.88 9.8
2 2 -8 296.97 15.8
-2 -2 -8 305.77 15.7
-2 -2 -8 306.57 15.8
-2 2 8 283.77 15.8
2 -2 8 293.57 13
2 2 -8 317.17 15.6
-2 2 8 278.57 16
2 -2 -8 300.77 15.9
2 -2 -8 303.47 16.1
2 2 8 306.07 13.1
-2 2 -8 267.07 19.6
4 -2 8 135.89 6.6
-4 -2 -8 132.09 9
4 2 -8 115.39 8
4 2 -8 141.09 7.7
-4 -2 -8 135.59 7.6
-4 -2 -8 147.49 8
4 -2 -8 120.69 8.2
4 2 8 127.69 6.6
-4 2 -8 139.39 9.1
4 -2 -8 133.19 7.8
-6 -2 -8 248.98 15.9
6 -2 8 231.88 11.2
-6 -2 -8 238.08 13.3
-6 -2 -8 259.97 13.8
6 -2 8 236.78 13.4
-6 -2 -8 214.48 12.9
-6 2 -8 259.07 15.9
6 2 8 236.28 13.4
-6 2 -8 225.48 12.9
6 2 8 235.38 11.3
-6 2 -8 207.98 12.9
8 2 -8 87.09 4.8
8 -2 8 74.19 5.9
-8 -2 -8 93.29 6.6
8 -2 8 98.89 5.4
-8 -2 -8 76.49 6.4
-8 -2 -8 90.59 5.3
-8 2 -8 95.09 6.6
-8 2 -8 90.89 5.3
-8 2 -8 80.19 5.9
10 2 -8 62.69 3.6
10 -2 8 64.19 3.9
-10 -2 -8 50.49 4.8
-10 -2 -8 67.29 4.1
-10 2 -8 64.29 4.1
-10 2 -8 53.09 4.8
-12 -2 -8 14 2.1
-12 -2 -8 6 1.8
12 2 -8 11.1 0.9
-12 2 -8 8.4 2
12 -2 -8 10.8 1.4
-12 2 -8 10.8 1.9
-14 2 8 7.8 1.5
-14 -2 -8 7 1.5
-14 2 -8 6.1 1.5
-14 -2 8 4.5 1.2
-1 -3 -8 55.29 3.3
-1 3 8 49.1 3.3
1 -3 8 46 2.6
-1 3 8 53.19 3.2
-1 -3 -8 53.79 3.1
1 3 -8 48 3.5
1 -3 -8 48.5 3.2
-1 3 -8 47.1 3.5
1 3 8 45.2 3.1
1 -3 -8 54.29 3.4
-1 3 -8 50.29 3.5
3 3 -8 196.18 10.5
-3 -3 -8 196.98 10.6
-3 -3 -8 205.18 10.9
-3 3 8 172.58 11
-3 -3 -8 187.68 12.9
3 -3 8 199.48 8.9
3 3 -8 206.28 10.9
-3 3 8 180.28 10.7
3 3 8 200.48 9.1
-3 3 -8 185.38 12.9
3 -3 -8 193.28 10.8
3 -3 -8 200.78 11.2
-5 -3 -8 301.67 16.1
-5 -3 -8 287.47 15.6
5 3 -8 291.17 15.7
-5 -3 -8 290.87 19
5 3 -8 251.97 16
5 -3 8 292.57 13
-5 3 -8 283.57 15.1
5 3 8 283.47 13.2
-5 3 -8 302.97 15.1
5 -3 -8 265.67 15.8
-5 3 -8 298.67 19
5 3 8 254.47 16.1
7 -3 8 187.68 10.5
7 -3 8 178.48 9.2
-7 -3 -8 194.88 12.6
-7 -3 -8 179.38 11.4
-7 -3 -8 176.78 10.2
-7 3 -8 205.08 12.7
7 3 8 180.78 9.5
-7 3 -8 177.08 10.4
-7 3 -8 173.58 10.2
-7 3 -8 183.38 10.5
9 3 -8 141.09 8.1
-9 -3 -8 127.29 9.9
9 -3 8 147.29 8.2
-9 -3 -8 145.09 8.1
-9 3 -8 132.79 9.9
-9 3 -8 146.09 8.1
11 -3 8 28.6 2.3
11 3 -8 25.6 1.6
-11 -3 -8 26.9 2.6
11 3 -8 25.8 1.6
-11 3 -8 29.5 2.6
-11 3 -8 19.7 2.7
-13 3 8 8 1.6
-13 -3 -8 6.4 1.9
-13 3 8 7.1 2.1
13 -3 -8 12 1.4
-13 3 -8 8 1.9
0 -4 -8 51.29 3.1
0 -4 -8 44.9 3
0 4 -8 40.6 3.2
0 4 8 49.4 3.1
0 4 8 40.3 3
0 4 -8 43.9 3.2
-2 -4 -8 43.1 3.1
2 4 -8 49.4 3.4
-2 -4 -8 50.09 3.5
2 4 -8 48.3 2.9
-2 4 8 44.3 3.3
-2 4 8 54.59 3.6
2 4 -8 48.3 3
2 -4 8 53.69 2.7
2 4 8 51.09 3
-2 4 -8 47 3.5
-2 4 -8 49.9 3.5
2 -4 -8 50.49 3.6
2 4 8 48.3 3.2
2 -4 -8 55.29 3.4
-4 -4 -8 11.1 1.9
4 4 -8 11.3 1.4
-4 -4 -8 9.7 1.5
4 -4 8 15.4 1.7
-4 -4 -8 10.1 1.2
4 4 -8 10.9 1.8
4 -4 -8 9.4 1.7
4 4 8 12.5 1.8
-4 4 -8 11.4 1.3
4 -4 -8 8.1 1.7
6 -4 8 9.7 1
-6 -4 -8 13.7 1.5
6 -4 8 8.7 1.6
6 4 -8 7.8 1.5
-6 -4 -8 9.8 1.4
-6 -4 -8 10.3 2.1
-6 -4 -8 7.8 1.7
-6 4 -8 10.2 1.3
-6 4 -8 13.2 1.5
-6 4 -8 8.6 1.2
6 4 8 9.3 1.9
-6 4 -8 10.9 1.5
-8 -4 -8 13 1.7
8 -4 8 10.7 1.2
-8 -4 -8 10.3 1.6
-8 4 -8 12.3 1.7
-8 4 -8 11 1.7
-10 -4 -8 5.6 1.7
10 -4 8 4.8 1.3
-10 -4 -8 3.6 1.4
10 4 -8 3.3 0.5
10 4 -8 4.1 0.5
-10 4 -8 3.6 1.6
-10 4 -8 3.2 1.4
-12 -4 -8 0.4 1.3
-12 4 8 0.1 1.3
-12 -4 -8 -1.3 1.5
12 4 -8 -1 0.4
12 -4 -8 -1.2 0.9
-12 4 -8 0.7 1.6
-12 4 -8 -0.4 1.3
-14 -4 -8 -1 1.4
-14 4 -8 -0.1 1.2
-1 -5 -8 706.73 34.8
1 5 -8 638.44 41.6
-1 -5 -8 661.03 34.6
-1 5 8 596.04 34.6
1 -5 8 687.23 27.8
-1 5 8 588.04 34.6
1 5 -8 660.53 43.4
-1 5 -8 660.33 43.4
-1 5 -8 658.43 41.6
1 -5 -8 718.93 34.8
1 5 8 688.23 34.8
1 5 8 654.13 34.6
3 5 -8 208.28 14.6
3 5 -8 233.18 12.3
-3 -5 -8 214.38 15.2
3 5 -8 223.98 12.5
3 -5 8 235.58 10.3
-3 -5 -8 234.48 12.7
-3 5 8 239.18 13.1
-3 -5 -8 249.58 13
-3 5 8 221.78 12.7
3 5 8 224.08 10.6
3 -5 -8 242.58 12.8
3 -5 -8 236.68 13.1
3 5 8 220.78 12.6
-3 5 -8 229.88 15.3
-5 -5 -8 282.27 14.9
5 -5 8 259.77 12.2
5 5 -8 240.48 15
-5 -5 -8 278.77 15.4
5 5 -8 250.97 14.6
-5 -5 -8 267.57 17.7
-5 5 -8 280.97 17.8
5 5 8 257.17 12.5
-7 -5 -8 189.68 12.5
7 -5 8 191.78 10.5
7 -5 8 182.48 9.2
-7 -5 -8 183.78 10.2
-7 5 -8 167.98 10
-7 5 -8 182.78 10.2
-7 5 -8 204.28 12.7
-7 5 -8 162.28 10
7 5 8 177.38 9.5
9 5 -8 86.59 5
-9 -5 -8 75.49 6.3
9 -5 8 88.39 5.2
9 5 -8 87.99 4.8
-9 -5 -8 89.79 5.3
-9 5 -8 85.49 6.5
-9 5 -8 85.19 5.1
-9 5 -8 87.59 5.3
-11 -5 -8 59.09 4
11 -5 8 56.29 3.8
11 5 -8 56.79 3.3
11 5 -8 58.39 3.4
-11 5 -8 61.89 4.1
-13 -5 -8 14.7 2
13 -5 -8 12.3 1.5
-13 5 -8 16.3 2
0 6 -8 786.42 52.39
0 -6 -8 797.92 41.7
0 -6 -8 874.21 41.9
0 6 8 803.72 41.7
0 6 -8 756.72 50.19
0 6 8 763.42 41.7
2 -6 8 142.79 6.2
2 6 -8 126.49 8.9
-2 -6 -8 147.39 7.9
2 6 -8 143.79 7.3
2 6 -8 133.29 7.4
-2 6 8 131.09 7.9
-2 -6 -8 151.38 8.2
-2 6 8 142.79 8.2
2 -6 -8 125.39 8
2 6 8 132.99 7.9
2 -6 -8 144.99 8.1
-2 6 -8 132.99 8.9
-2 6 -8 136.99 9.3
2 6 8 127.79 8.2
2 6 8 136.39 6.7
-2 -6 8 139.99 6.3
-4 -6 -8 151.38 9.1
-4 -6 -8 152.48 9.9
4 6 -8 134.49 8.6
4 6 -8 152.08 8.3
4 6 -8 128.49 9.5
-4 -6 -8 153.68 8.7
4 -6 8 151.58 7
4 6 8 138.49 7.3
-4 6 -8 151.78 9.9
4 -6 -8 147.49 8.8
6 6 -8 34.9 3.1
6 -6 8 37.4 2.9
-6 -6 -8 38.7 4
-6 -6 -8 39.2 3
-6 -6 -8 31.5 2.5
6 6 8 34.4 3.1
-6 6 -8 42.5 3.1
-6 6 -8 34.2 2.5
-8 -6 -8 11.8 1.7
8 -6 8 13.3 1.3
-8 -6 -8 13.5 1.8
8 6 -8 11.6 0.9
-8 6 -8 15.9 1.8
-8 6 -8 11.1 1.8
-10 -6 -8 17.5 2.1
-10 -6 -8 11.4 2
10 -6 8 15 1.7
10 6 -8 16 1.1
10 6 -8 16.7 1.1
-10 6 -8 13.3 2.2
-10 6 -8 15 2.1
-12 6 8 1.8 1.4
-12 -6 -8 4 1.5
12 -6 8 5.1 1.4
-12 -6 -8 5.3 1.7
-12 6 -8 5.6 1.7
-12 6 -8 2.9 1.6
-14 -6 -8 -0.5 1.3
-14 6 -8 1.1 1.2
14 -6 -8 1.3 0.8
-1 7 8 967.3 56.09
1 7 -8 1121.19 70.79
-1 -7 -8 1105.39 56.39
1 7 -8 1076.59 67.69
-1 -7 -8 1091.39 56.19
-1 7 8 1019.7 56.29
-1 7 -8 1132.09 67.69
1 7 8 1030.1 56.29
1 7 8 1011.3 56.09
-1 7 -8 1120.69 70.79
1 -7 -8 1165.58 56.39
-3 -7 -8 392.56 18.8
3 7 -8 341.37 17.9
-3 -7 -8 339.97 18.2
3 -7 8 350.56 14.5
3 7 -8 336.17 17.7
3 7 -8 297.87 21.2
-3 -7 -8 299.47 22.1
3 -7 -8 322.37 18.3
3 -7 -8 354.86 19.3
3 7 8 340.87 15.1
-3 7 -8 329.67 22.2
-3 7 -8 319.77 21.3
-5 -7 -8 243.38 15.7
5 7 -8 231.68 13.1
-5 -7 -8 237.28 13.9
5 7 -8 216.98 13.4
5 7 8 241.58 11.3
-5 7 -8 207.88 12.8
-5 7 -8 257.27 15.8
7 -7 8 19.7 1.5
7 7 -8 18.8 1.3
-7 -7 -8 18.6 1.9
-7 -7 -8 19.9 2
-7 7 -8 20.8 2.2
-7 7 -8 20.2 1.9
7 7 8 16.9 2.8
-9 -7 -8 33 3.3
9 7 -8 39.4 2.3
-9 -7 -8 43.7 3
9 7 -8 38.5 2.3
9 -7 8 39.6 2.6
-9 7 -8 38.1 3.5
-9 7 -8 35.3 2.5
-9 7 -8 40.8 3
11 7 -8 12.3 1
11 7 -8 15.2 1
11 -7 8 14 1.5
-11 -7 -8 9.1 2.1
-11 -7 -8 17.1 2.2
-11 7 -8 10.2 2.2
-11 7 -8 14.3 2.1
-13 -7 -8 5.9 1.6
-13 7 -8 4.9 1.5
13 -7 -8 4.3 1.1
0 8 -8 1467.25 97.49
0 -8 -8 1581.04 77.39
0 8 8 1466.35 77.29
0 8 -8 1451.95 93.19
0 -8 -8 1466.55 77.19
0 8 8 1474.75 77.19
-2 -8 -8 1218.58 65.29
2 8 -8 1208.68 78.69
-2 -8 -8 1304.17 65.69
-2 8 -8 1242.68 78.69
2 -8 -8 1307.77 65.59
-2 8 -8 1245.48 82.29
2 8 8 1242.38 53.19
4 8 -8 1232.98 64.89
-4 -8 -8 1295.17 65.69
4 8 -8 1276.87 64.69
-4 -8 -8 1209.08 81.69
4 8 -8 1191.78 78.09
4 8 8 1234.58 53.09
-4 8 -8 1309.37 81.79
-4 8 -8 1202.28 78.19
-6 -8 -8 119.79 7.9
-6 -8 -8 105.19 6.5
6 8 -8 109.99 7.1
-6 8 -8 108.69 6.5
6 8 8 108.89 6.5
-6 8 -8 126.09 8.1
8 8 -8 107.39 6.4
8 -8 8 119.99 6.6
-8 -8 -8 101.59 7.9
-8 -8 -8 113.69 6.5
8 8 -8 112.29 6.2
-8 8 -8 112.99 6.5
-8 8 -8 114.19 8.1
10 -8 8 18.1 1.7
10 8 -8 18.5 1.2
10 8 -8 17.7 1.2
-10 -8 -8 12.9 2.1
-10 -8 -8 19.7 2.2
-10 8 -8 17.4 2.2
-10 8 -8 15.8 2.3
-10 8 -8 17.2 1.6
-12 -8 -8 14.8 2.1
12 8 -8 15.1 1.1
12 -8 8 13.9 1.7
-12 8 -8 16.2 2.2
-14 -8 -8 2.9 1.3
14 -8 -8 4.9 0.9
-14 8 -8 4.6 1.4
-1 -9 -8 3.2 1.2
1 9 -8 8.1 1.3
-1 -9 -8 6.7 1.5
1 -9 -8 5.1 1.4
1 -9 -8 5.6 1.4
-1 9 -8 6.9 1
-1 9 -8 8.5 1.2
3 9 -8 61.89 3.9
-3 -9 -8 65.19 5
3 9 -8 61.59 4.1
3 9 -8 66.39 4.6
-3 9 -8 65.49 4.6
3 9 8 68.69 4
-3 9 -8 64.59 4.6
5 9 -8 1.8 1.2
5 9 -8 3 1
-5 -9 -8 3.9 0.9
5 9 -8 2.4 1
5 9 8 3.5 1.5
-5 9 -8 4.2 1.1
-5 9 -8 4 1.1
-7 -9 -8 6.9 1.4
7 9 -8 8.1 0.7
-7 -9 -8 7.8 1.4
-7 9 -8 8.7 1.4
-7 9 -8 7.8 1.5
9 9 -8 1.2 0.4
-9 -9 -8 0.3 1.1
9 -9 8 0.9 1
-9 -9 -8 1.1 1.4
-9 9 8 0.5 1.3
9 9 -8 0.7 0.4
-9 9 -8 2.5 1.4
-9 9 -8 0.5 0.9
-9 9 -8 0.2 1.3
-11 -9 -8 0 1.3
11 9 -8 -0.2 0.4
11 9 -8 -0.6 0.4
-11 -9 -8 -0.1 1.5
11 -9 8 -0.2 1.2
-11 9 -8 -0.1 1.4
-11 9 -8 -1.1 1.5
-13 -9 -8 -1.8 1.3
13 -9 8 -0.1 1.2
-13 9 -8 -0.1 1.3
13 -9 -8 0 0.9
0 10 -8 949.71 61.19
0 -10 -8 1050.89 51.49
0 10 -8 918.91 63.89
-2 -10 -8 2465.95 128.99
2 10 -8 2509.95 155.68
-2 10 -8 2543.45 155.68
2 10 8 2429.76 104.49
-2 10 -8 2458.85 162.78
4 10 -8 686.63 35
4 10 -8 656.03 35.2
4 10 -8 638.34 42.1
4 10 8 670.93 29.2
-4 10 -8 714.33 42.1
-4 10 -8 584.24 35.8
-4 10 -8 705.83 44
6 10 -8 396.66 23.2
6 10 -8 428.76 23.5
-6 10 -8 425.06 23.2
-6 10 -8 475.95 28.6
6 10 8 405.36 19.7
-8 -10 -8 91.69 5.2
8 -10 8 93.79 5.2
-8 -10 -8 76.29 6.3
8 10 -8 90.09 4.8
8 10 -8 84.89 5
-8 10 8 75.89 5.1
-8 10 -8 78.79 5.1
-8 10 -8 90.59 6.5
-8 10 -8 96.39 5.3
10 -10 8 25.6 2
-10 -10 -8 26.8 2.4
10 10 -8 24.6 1.5
10 10 -8 24.6 1.5
-10 -10 -8 17.5 2.5
-10 10 -8 19.5 2.7
-10 10 -8 22.9 2.4
-10 10 -8 23.7 1.9
12 10 -8 18.1 1.2
-12 -10 -8 18.3 2.1
12 -10 8 18.1 1.8
-12 10 -8 12.8 2.3
-12 10 -8 17.8 2.1
14 -10 -8 3.9 0.9
1 11 -8 762.42 47.5
-1 11 -8 742.53 49.5
-1 11 -8 749.13 47.5
3 11 -8 293.77 19.9
3 11 -8 308.47 16.5
3 11 -8 324.37 16.6
3 11 8 306.77 14.3
-3 11 -8 304.77 19.9
-3 11 -8 316.27 20.6
5 11 -8 213.28 12.8
5 11 -8 208.58 13
5 11 -8 228.08 14.8
5 11 8 227.88 11.3
-5 11 -8 255.07 15.4
-5 11 -8 221.68 12.5
-5 11 -8 232.58 14.8
7 11 -8 67.79 4.1
7 11 -8 69.79 3.9
-7 11 -8 72.19 5.3
-7 11 -8 71.79 4.4
-9 11 8 10 1.5
9 11 -8 12.4 1
9 11 -8 12.9 1
-9 -11 -8 13.8 2
9 -11 8 15.5 1.5
-9 11 -8 13 1.4
-9 11 -8 11.9 1.8
-9 11 -8 9.2 2
11 -11 8 14.6 1.6
11 11 -8 15.4 1.4
-11 -11 -8 11.6 1.9
11 11 -8 14.3 1
-11 11 -8 14.5 1.6
-11 11 -8 10.3 1.9
-11 11 -8 8.3 2.1
-13 -11 -8 1.3 1.4
13 -11 8 3.3 1.1
13 -11 -8 2.8 0.9
-13 11 -8 1.9 1.2
0 12 -8 929.71 56.79
0 12 -8 869.91 59.19
2 12 -8 151.98 9.6
2 12 8 125.89 7.1
-2 12 -8 151.58 9.6
-2 12 -8 136.89 9.7
4 12 -8 211.08 11.5
4 12 -8 208.18 13.5
4 12 -8 199.98 11.6
-4 12 -8 220.48 13.5
-4 12 -8 212.08 14
-4 12 -8 180.38 11.3
4 12 8 213.08 10.2
6 12 -8 62.49 3.5
6 12 -8 55.09 4.5
-6 12 -8 63.39 3.9
-6 12 -8 67.99 4.8
8 -12 8 28.4 2
8 12 -8 25.3 1.6
-8 12 8 26.9 2
8 12 -8 26.9 1.6
-8 12 -8 25.9 1.9
-8 12 -8 23 2.7
-8 12 -8 26 2.3
-10 12 8 20.5 2.2
10 12 -8 22.1 1.4
10 12 -8 21.1 1.4
10 -12 8 22.2 1.9
-10 12 -8 21.7 2.3
-10 12 -8 22.8 1.8
-10 12 -8 16.2 2.5
12 -12 8 8.7 1.3
12 12 -8 10.3 0.9
-12 12 -8 6.1 1.6
1 13 -8 859.71 53.09
-1 13 -8 825.82 55.29
-1 13 -8 831.12 53.09
3 13 -8 366.56 19
3 13 -8 359.76 19.1
3 13 -8 378.06 23.1
-3 13 -8 314.57 19.4
3 13 8 350.36 16.5
-3 13 -8 359.86 23.1
-3 13 -8 383.16 23.9
5 13 -8 214.28 14.1
5 13 -8 214.28 12.2
5 13 -8 209.88 11.8
5 13 -8 202.88 12.4
-5 13 -8 230.28 14.6
-5 13 -8 227.28 14.1
5 13 8 209.68 10.8
-5 13 -8 203.68 11.8
7 13 -8 92.59 5.3
7 13 -8 95.39 5.2
-7 13 8 88.09 5.5
-7 13 -8 93.99 6.8
-7 13 -8 89.09 5.5
-7 13 -8 95.09 5.5
9 13 -8 73.59 4.1
9 13 -8 76.79 4
9 -13 8 74.39 4.4
-9 13 8 67.59 4.3
-9 13 -8 56.59 5.4
-9 13 -8 70.39 4.3
-9 13 -8 69.29 4.5
11 -13 8 31.7 2.5
11 13 -8 34.6 2.1
-11 13 -8 36 2.4
-11 13 -8 28.4 2.7
13 -13 -8 5 1
0 14 -8 17.1 2
2 14 -8 24 2.3
-2 14 -8 23 2.3
-2 14 -8 22.9 2
2 14 8 21.2 2.6
-2 14 -8 20.1 1.7
4 14 -8 6.5 0.6
4 14 -8 6.1 1.3
4 14 -8 4.4 1.2
4 14 -8 7.2 1.2
-4 14 -8 5 1.2
-4 14 -8 6.7 1.2
-4 14 -8 6.7 1.2
4 14 8 4.3 1.7
6 14 -8 3.6 0.4
6 14 -8 3.4 0.4
-6 14 -8 2.8 1.1
-6 14 -8 2.2 0.5
-6 14 -8 2.1 1
-8 14 8 5.9 1
8 14 -8 3.8 0.5
8 14 -8 5.8 0.7
-8 14 -8 4 1.4
-8 14 -8 3.2 1.5
-8 14 -8 5.1 0.9
10 14 -8 2.2 0.5
10 -14 8 2.7 1.2
-10 14 8 2.3 1
-10 14 -8 2.8 1
-10 14 -8 2.1 1.7
12 14 -8 -0.2 0.4
12 -14 8 0.2 0.9
1 15 -8 133.09 8.1
1 15 -8 163.98 10
-1 15 -8 154.58 10
1 15 8 147.19 7.6
-1 15 -8 160.08 10
-1 15 -8 125.89 8.2
3 15 -8 248.68 14.6
3 15 -8 253.17 14.2
3 15 -8 280.47 17.5
-3 15 -8 263.37 18.3
3 15 8 258.77 12.8
-3 15 -8 297.67 17.5
5 15 -8 80.69 4.6
5 15 -8 81.89 6
-5 15 -8 84.39 5.9
-5 15 -8 81.29 4.6
7 15 -8 128.79 6.9
7 15 -8 122.09 7.2
-7 15 8 122.39 7.3
-7 15 -8 124.09 7.3
9 -15 8 67.49 4.2
9 15 -8 65.39 3.8
-9 15 8 66.09 4.1
9 15 -8 67.49 3.9
-9 15 -8 66.49 4.1
11 -15 8 16.8 1.8
11 15 -8 18.3 1.3
-11 15 -8 18.2 1.7
13 -15 -8 2.3 0.9
0 16 -8 136.19 8.5
0 16 -8 110.89 6.7
2 16 -8 26.8 1.7
2 16 -8 32.4 2.8
-2 16 -8 29.7 2.7
2 16 8 23.9 3
-2 16 -8 26.1 1.7
4 16 -8 79.79 5.7
4 16 -8 73.59 4.3
-4 16 -8 74.49 4.3
-4 16 -8 79.69 5.7
-6 16 8 43.4 2.9
6 16 -8 46 2.7
6 16 -8 48.1 2.6
-6 16 -8 45.1 2.7
-6 16 -8 42.6 2.8
-8 16 8 46 3.1
8 16 -8 49.8 2.9
8 16 -8 48.6 2.8
-8 16 -8 44.4 3
-10 16 8 10.5 1.5
10 -16 8 11.3 1.5
10 16 -8 14.1 1.1
10 16 -8 13.6 1.4
-10 16 -8 13.5 1.5
12 -16 8 4.1 1.1
12 16 -8 2.6 0.4
12 -16 -8 4.1 1
1 17 -8 47.4 3.8
1 17 -8 41.7 2.5
-1 17 -8 41.3 2.5
-1 17 -8 47.2 3.7
1 17 8 36.9 3.6
3 17 -8 19.1 2.3
3 17 -8 18.1 1.2
-3 17 8 18.3 1.3
-3 17 -8 20.6 2.3
-3 17 -8 17.9 1.3
5 17 -8 54.49 4.4
-5 17 8 54.39 3.4
5 17 -8 55.29 3.1
5 17 -8 49.6 3.2
-5 17 -8 56.69 3.2
-5 17 -8 54.89 4.3
7 17 -8 26.8 1.7
7 17 -8 25 1.7
-7 17 8 26.1 2
-7 17 -8 23.8 1.8
-7 17 -8 25.9 1.9
9 17 -8 13.7 1.1
9 17 -8 16.6 1.2
9 -17 8 13 1.7
-9 17 8 16.3 1.6
-9 17 -8 13.8 1.6
11 17 -8 7.2 0.8
11 -17 8 5.6 1.3
-11 17 -8 6.7 1
0 18 -8 122.79 8
0 18 -8 103.29 6.2
2 18 -8 143.79 8.3
-2 18 8 140.19 8.3
2 18 -8 168.68 10.5
-2 18 -8 146.09 8.3
-2 18 -8 156.98 10.3
4 18 -8 74.09 4
4 18 -8 70.09 5.5
4 18 -8 65.29 4.1
-4 18 8 69.29 4.3
-4 18 -8 74.29 5.4
-4 18 -8 72.39 4.1
6 18 -8 140.69 7.4
-6 18 8 132.19 7.8
6 18 -8 134.39 7.7
6 18 -8 114.29 9.4
-6 18 -8 137.69 7.4
-6 18 -8 132.59 7.8
-8 18 8 61.39 3.9
8 18 -8 60.29 3.6
8 18 -8 65.29 3.7
-8 18 -8 60.29 3.8
10 -18 8 38.1 2.9
10 18 -8 43.7 2.5
-10 18 8 40 2.8
-10 18 -8 41.6 2.7
12 18 -8 16 1.1
12 -18 -8 13.3 1.4
-1 19 8 6.2 0.9
-1 19 8 6.8 0.8
1 19 -8 7.1 0.7
1 19 -8 6.5 1.6
-1 19 -8 6.7 1.6
-1 19 -8 7.6 0.7
1 19 8 6.4 1
-3 19 8 9 1
-3 19 8 8.3 1.1
3 19 -8 12.7 2.1
3 19 -8 9.1 0.8
3 19 -8 10.6 0.9
-3 19 -8 10.5 0.9
-3 19 -8 7.6 1.6
5 19 -8 3.3 1.4
5 19 -8 2.8 0.5
5 19 -8 3.6 0.5
-5 19 8 3.2 0.8
-5 19 -8 2.9 1.2
-5 19 -8 2.1 0.6
-5 19 -8 2.6 0.6
7 19 -8 3.3 0.6
-7 19 8 5.5 1
-7 19 -8 3 0.7
-7 19 -8 3.9 0.8
-9 19 8 4.7 1.1
9 19 -8 5.8 0.8
9 -19 8 5.8 1.4
-9 19 -8 4.3 1
11 -19 8 1 1.1
11 19 -8 1 0.4
-11 19 -8 0.6 0.8
11 -19 -8 0.9 0.9
0 20 8 61.29 3.7
0 20 -8 65.89 3.6
0 20 -8 70.19 5.1
0 20 -8 54.99 3.6
2 20 -8 66.59 4.3
2 20 -8 79.89 5.8
-2 20 8 74.79 4.2
2 20 -8 78.49 4.2
-2 20 8 73.19 4.4
2 20 8 72.59 4.4
-2 20 -8 80.99 5.7
-2 20 -8 66.19 4.3
-2 20 -8 75.89 4.2
4 20 -8 96.89 7.1
4 20 -8 98.89 5.3
-4 20 8 92.39 5.6
4 20 -8 87.79 5.5
-4 20 -8 101.09 5.4
-4 20 -8 89.09 5.5
-4 20 -8 94.49 7
6 20 -8 32.9 3.8
6 20 -8 42.1 2.6
-6 20 8 42.8 2.9
6 20 -8 42.7 2.5
-6 20 -8 44.2 2.6
-6 20 -8 42.8 2.7
8 20 -8 79.49 4.4
-8 20 8 75.79 4.6
8 20 -8 71.29 4.3
-8 20 -8 72.69 4.5
10 -20 8 17.1 1.7
10 20 -8 19 1.4
-10 20 -8 21.1 1.7
1 21 -8 60.29 3.7
1 21 -8 65.79 3.6
1 21 -8 66.39 5.2
-1 21 8 61.39 3.7
-1 21 8 65.39 3.8
-1 21 -8 65.69 3.7
1 21 8 63.49 3.8
-1 21 -8 59.09 3.7
-1 21 -8 63.39 5.1
3 21 -8 51.49 3
3 21 -8 48.5 3
3 21 -8 55.89 4.6
-3 21 8 49.7 3.2
-3 21 -8 47.4 3.1
-3 21 -8 53.29 3
-3 21 -8 51.89 4.3
5 21 -8 70.49 3.8
5 21 -8 63.49 5.4
-5 21 8 63.69 4.1
5 21 -8 66.59 3.9
-5 21 -8 65.99 3.9
-5 21 -8 75.69 6.2
-5 21 -8 63.39 4
-7 21 8 41.5 2.9
7 21 -8 41.5 2.6
7 21 -8 48.3 2.6
-7 21 -8 39.9 2.8
-7 21 -8 40.8 2.6
9 -21 8 30.3 2.4
9 21 -8 34.1 2.1
-9 21 8 31.3 2.3
-9 21 -8 31 2.3
11 21 -8 13.7 1
-11 21 -8 13.5 1.3
11 -21 -8 10.8 1.3
0 22 8 17.1 1.3
0 22 -8 15.2 1.2
0 22 -8 17.7 1.3
0 22 -8 16.8 2.5
-2 22 8 7.9 1.1
-2 22 8 7.5 1.1
-2 22 8 8.1 1.6
2 22 -8 7.8 0.9
2 22 -8 7.8 0.8
2 22 -8 7.8 1.8
-2 22 -8 7.3 0.9
-2 22 -8 6.7 1.7
2 22 8 7.8 1
-2 22 -8 7.4 0.8
4 22 -8 8.5 2
4 22 -8 13.6 1.1
4 22 -8 13.9 1.1
-4 22 8 12.3 1.4
-4 22 -8 11.2 1.2
-4 22 -8 14.8 1.2
-4 22 -8 14 2.2
6 22 -8 15.2 1.2
-6 22 8 12 1.6
6 22 -8 12.9 1.1
-6 22 -8 13.2 1.4
-6 22 -8 14.8 1.3
8 22 -8 1.4 0.5
8 22 -8 0.7 0.5
-8 22 8 1.9 1
-8 22 -8 1.6 0.8
10 -22 8 2.7 1.3
10 22 -8 2.7 0.5
-10 22 -8 4.2 0.9
10 -22 -8 2.1 1
1 23 -8 129.79 8.2
1 23 -8 148.69 7.9
-1 23 8 137.39 7.9
-1 23 8 145.89 9.8
1 23 -8 147.79 10.1
-1 23 8 140.49 8.3
1 23 8 144.59 8.3
-1 23 -8 147.69 7.9
-1 23 -8 135.79 8.2
-1 23 -8 138.19 10
3 23 -8 64.19 3.9
-3 23 8 64.49 4
3 23 -8 66.89 5.5
3 23 -8 69.99 3.8
-3 23 -8 68.59 3.8
-3 23 -8 61.69 3.9
-3 23 -8 61.69 5.2
5 23 -8 68.79 6.4
5 23 -8 86.29 5
-5 23 8 86.79 5.2
5 23 -8 89.99 4.8
-5 23 -8 86.89 4.9
-5 23 -8 86.39 5.1
7 23 -8 41.2 2.4
-7 23 8 35.4 2.6
7 23 -8 36.7 2.3
-7 23 -8 37.1 2.5
9 23 -8 18 1.2
9 -23 8 13.5 1.5
-9 23 8 15.2 1.6
-9 23 -8 15 1.5
9 -23 -8 9.7 1.6
0 24 -8 28.4 3.3
0 24 -8 32.4 2
0 24 8 33.3 2.1
0 24 -8 30.5 2
0 24 8 30 3.2
2 24 -8 29 1.9
2 24 -8 28 1.8
2 24 -8 26.1 3.2
-2 24 8 30 2.1
-2 24 -8 30.4 1.9
-2 24 -8 23 3
-2 24 -8 28.6 1.9
2 24 8 28 2
-4 24 8 11.9 1.5
4 24 -8 10.6 2.1
4 24 -8 14.2 1.1
4 24 -8 15.4 1.2
-4 24 -8 11.7 1.2
-4 24 -8 13.6 1.2
-4 24 -8 8.3 1.9
6 24 -8 5.8 0.8
6 24 -8 7.3 0.9
-6 24 8 6.5 1
-6 24 -8 5.8 0.8
6 24 8 4 1.7
-6 24 -8 6.2 0.8
-8 24 8 4 0.9
8 24 -8 3.1 0.5
8 -24 8 5.4 1.2
8 24 -8 2.1 0.5
-8 24 -8 3.3 0.8
-1 25 8 113.09 6.4
1 25 -8 101.89 8.3
1 25 -8 117.89 6.4
-1 25 8 113.19 8.1
1 25 -8 109.09 6.6
-1 25 8 114.69 6.7
-1 25 -8 116.99 6.4
1 25 8 115.19 8.2
-1 25 -8 109.59 8.3
-1 25 -8 111.99 6.6
1 25 8 113.49 6.7
3 25 -8 86.09 4.7
3 25 -8 72.39 6.3
-3 25 8 84.09 4.9
3 25 -8 80.99 4.8
3 25 8 80.89 6.2
-3 25 -8 70.99 6.2
-3 25 -8 80.69 4.8
-3 25 -8 85.59 4.7
5 25 -8 5.9 2.7
5 25 -8 11.4 1
-5 25 8 9.3 1.4
5 25 -8 11.2 1
-5 25 -8 11.4 1.2
-5 25 -8 10.8 1.2
5 25 8 6 1.8
7 25 -8 11.4 1
7 25 -8 13.9 1.1
-7 25 8 11.3 1.5
-7 25 -8 12.2 1.3
9 25 -8 12.9 1.1
-9 25 -8 14.1 1.3
0 26 8 91.99 5.4
0 26 -8 80.59 6.8
0 26 -8 94.79 5.2
0 26 -8 91.09 5.3
0 26 8 89.19 6.7
2 26 -8 127.09 6.8
2 26 -8 126.19 7
-2 26 8 123.39 7.1
2 26 -8 100.99 8.7
2 26 8 116.39 8.6
-2 26 -8 105.79 8.6
-2 26 -8 127.29 6.8
-2 26 -8 123.19 7
4 26 -8 47.3 2.8
-4 26 8 45.7 3.1
4 26 -8 48.1 2.9
-4 26 -8 46.1 2.9
-4 26 -8 46.4 2.9
6 26 -8 15 1.2
-6 26 8 14 1.5
6 26 -8 14.6 1.2
-6 26 -8 14.8 1.4
-6 26 -8 12.6 1.3
8 26 -8 21.8 1.5
-8 26 -8 21 1.7
-1 27 8 14.6 1.4
1 27 -8 11.5 1.1
1 27 -8 6.9 1.8
1 27 -8 10.8 1.1
1 27 8 13 1.3
1 27 8 8.6 1.9
-1 27 -8 13.4 1.2
-1 27 -8 12.4 1.1
-3 27 8 14.7 1.5
3 27 -8 12.2 1.2
3 27 -8 14.3 1.2
-3 27 -8 15.5 1.3
-3 27 -8 16.1 1.3
-5 27 8 3.6 0.8
5 27 -8 1.8 0.5
5 27 -8 2.4 0.5
-5 27 -8 1.9 0.6
-5 27 -8 3.1 0.7
-7 27 8 3.6 1.4
7 27 -8 2.1 0.5
7 27 -8 1.2 0.4
-7 27 -8 2.9 0.7
0 28 8 76.09 4.6
0 28 -8 77.79 4.4
0 28 -8 76.99 4.6
2 28 -8 64.69 3.9
2 28 -8 66.99 4.1
-2 28 8 65.79 4.2
-2 28 -8 71.39 4.1
-2 28 -8 70.69 4
-4 28 8 71.39 4.4
4 28 -8 72.69 4.3
-4 28 -8 73.09 4.4
-4 28 -8 72.89 4.2
-6 28 8 56.19 3.5
-6 28 -8 54.89 3.4
-1 29 8 17.9 1.5
1 29 -8 19.6 1.4
1 29 -8 16.5 1.4
-1 29 -8 17.6 1.4
-1 29 -8 19 1.4
3 29 -8 16.8 1.4
3 29 -8 19.5 1.4
-3 29 8 19 1.6
-3 29 -8 19.1 1.5
-3 29 -8 20.6 1.5
5 29 -8 25 1.6
-5 29 8 24.6 2.2
-5 29 -8 24.3 1.8
-5 29 -8 24.8 1.7
0 30 -8 25.5 1.7
0 30 -8 24.2 1.7
2 30 -8 21.1 1.5
2 30 -8 18.3 1.5
-2 30 -8 21.3 1.5
-2 30 -8 22.2 1.6
4 30 -8 25.9 1.7
4 30 -8 23.7 1.7
-4 30 -8 27.8 1.7
-4 30 -8 25.9 1.8
1 31 -8 37.8 2.4
1 31 -8 41.3 2.5
-1 31 -8 41.8 2.5
-1 31 -8 39.3 2.4
2 0 -9 -1.4 0.8
2 0 9 -2 0.6
-2 0 -9 -1 0.5
2 0 -9 -1.2 0.5
4 0 -9 1.1 0.8
-4 0 -9 1.5 0.8
4 0 -9 1.2 1.1
-4 0 -9 1.9 0.6
4 0 9 3 1.1
-6 0 -9 0.9 0.8
6 0 9 0.7 1.3
-6 0 -9 1.3 1
-6 0 -9 0.7 1.1
6 0 9 2.9 0.7
-6 0 -9 2 1.1
-8 0 -9 0.4 1.1
-8 0 -9 4 1.3
-8 0 -9 1.6 1.2
8 0 9 3.2 1
10 0 -9 2.6 1.1
-10 0 -9 0.5 1.3
-10 0 -9 4.8 1.7
-12 0 -9 2.2 1.7
-12 0 -9 5.2 1.7
-14 0 9 0 1.2
-14 0 -9 0.7 1.3
1 1 -9 6.4 0.8
-1 1 -9 7.1 0.9
1 -1 -9 8.6 1.3
1 -1 -9 8.8 1
3 1 -9 10.9 1.7
-3 -1 -9 11.6 1.1
3 1 -9 9.9 1.3
3 -1 9 11.8 1.5
-3 -1 -9 10.4 1.1
-3 -1 -9 11.1 1.3
3 -1 -9 9.9 1.3
3 1 9 10.5 1.5
-3 1 -9 10.4 1.1
3 -1 -9 9.5 1.8
-5 -1 -9 2.3 0.9
5 1 -9 1.9 1.4
5 1 -9 0.6 0.9
-5 -1 -9 2.2 1.2
5 -1 9 3.8 0.7
5 -1 9 2.1 1.2
-5 -1 -9 1.7 0.9
-5 1 -9 2.5 0.9
5 1 9 3.3 0.7
-5 1 -9 1.6 0.7
5 1 9 0.2 1.1
5 -1 -9 2.5 1
-7 -1 -9 -0.6 1.1
-7 -1 -9 0.6 1
7 1 -9 -0.3 0.7
-7 -1 -9 -0.5 1
7 -1 9 -0.6 1
7 -1 9 0.2 0.7
-7 -1 -9 -0.4 1
7 1 9 -1.1 1.1
-7 1 -9 -0.1 1.1
-7 1 -9 0 1
-7 1 -9 0.7 0.8
7 1 9 0.2 0.7
9 -1 9 0.3 1
-9 -1 -9 0.6 1.2
-9 -1 -9 1.6 1.4
9 1 -9 1.4 0.9
-9 1 -9 2.1 1.3
9 -1 -9 0.5 0.4
-9 1 -9 2.3 1.4
-11 -1 -9 1.5 1.7
11 1 -9 0 0.5
-11 -1 -9 -0.6 1.2
11 -1 -9 0.6 1
-11 1 -9 1.9 1.7
-11 1 -9 1.1 1.4
13 1 -9 0.3 0.4
-13 -1 -9 0.7 1.6
-13 -1 -9 0 1.5
-13 1 -9 -0.3 1.4
-13 1 -9 -0.7 1.4
13 -1 -9 -0.4 0.4
0 -2 -9 1.2 0.7
0 2 -9 1.1 0.5
0 -2 -9 1.1 0.6
2 2 -9 9.8 1
-2 -2 -9 8.9 1.3
-2 -2 -9 9 1
2 2 -9 9.7 1.3
-2 -2 -9 10.5 1.1
-2 2 9 11.2 1.6
2 -2 9 10.9 1.2
2 -2 -9 11.4 1.6
-2 2 -9 9.4 1
2 -2 -9 10.1 1.2
2 2 9 12 1.3
4 2 -9 1.3 1.1
4 2 -9 1.3 0.8
-4 -2 -9 2.7 1.1
-4 -2 -9 1.2 0.7
-4 -2 -9 2.7 0.8
4 -2 9 0.5 0.9
4 -2 -9 1.1 0.9
4 2 9 1.5 1
4 -2 -9 1.2 1.3
-4 2 -9 2.7 0.8
6 -2 9 3.8 0.8
6 2 -9 1.8 1.2
-6 -2 -9 3.6 1.2
-6 -2 -9 3.5 1.1
6 -2 9 1.3 1.2
-6 -2 -9 3 1.1
-6 -2 -9 3.6 1.6
6 2 9 3 1.4
-6 2 -9 2.2 0.9
6 2 9 4.2 0.8
-6 2 -9 4.9 1.2
-6 2 -9 2.6 1.1
-6 2 -9 2.2 0.8
8 2 -9 3.5 0.9
-8 -2 -9 3.3 1.8
-8 -2 -9 6.1 1.4
8 -2 9 4.3 1
-8 -2 -9 3.1 1.3
-8 2 -9 5.1 1.4
-8 2 -9 2.7 1.3
-10 -2 -9 1.2 1.4
-10 -2 -9 4.3 1.6
10 -2 9 2 1.1
10 -2 -9 3.2 1
-10 2 -9 1.8 1.4
-10 2 -9 3.5 1.6
-12 -2 -9 1.3 1.6
12 2 -9 0.9 0.5
-12 -2 -9 1 1.4
12 -2 -9 0.7 1
-12 2 -9 -0.7 1.3
-12 2 -9 2 1.7
-14 -2 -9 0.9 1.3
-14 2 9 0.8 1.3
-14 2 -9 1.3 1.3
-14 -2 9 0.3 1
-1 -3 -9 20.7 1.8
1 3 -9 18.5 1.7
1 3 -9 20.9 1.7
1 -3 9 22.1 1.5
-1 -3 -9 23 1.7
-1 3 9 22 1.9
-1 3 -9 21.2 1.7
1 -3 -9 20 1.8
1 -3 -9 19.3 1.9
3 3 -9 20 1.6
-3 -3 -9 19.4 1.7
3 -3 9 22.3 1.8
-3 3 9 18.6 2.2
3 3 -9 19.9 1.9
-3 -3 -9 21.4 2.1
-3 -3 -9 19.7 1.6
-3 3 9 20.8 2.2
3 -3 -9 21.4 2
-3 3 -9 20.5 1.7
3 3 9 18.8 1.8
3 -3 -9 20.2 2.3
-5 -3 -9 21.8 1.9
5 -3 9 20.4 2.3
-5 -3 -9 20.8 2.1
5 3 -9 18.5 2.1
-5 -3 -9 16.2 2.3
5 3 -9 16.5 2.6
5 -3 9 17.6 1.5
-5 3 -9 20.2 1.9
-5 3 -9 19.9 2.3
5 3 9 18 1.5
5 -3 -9 19.7 2.3
5 3 9 16.6 2.2
-7 -3 -9 2.5 1.2
7 3 -9 1.3 0.8
-7 -3 -9 1.3 1.1
-7 -3 -9 1.5 1.6
7 -3 9 2 1.2
7 -3 9 3.5 0.8
-7 3 -9 1.3 1.1
7 3 9 -0.3 1.2
-7 3 -9 1.3 0.8
-7 3 -9 1.3 1.1
-7 3 -9 1.3 0.8
-9 -3 -9 2.6 1.5
-9 -3 -9 2.2 1.4
9 -3 9 3.8 1
-9 3 -9 4.1 1.5
-9 3 -9 2.2 1.4
-11 -3 -9 4.9 1.8
11 3 -9 9.2 0.8
11 3 -9 7.3 0.8
11 -3 9 5.9 1.5
-11 3 -9 7.6 1.9
-11 3 -9 4 1.7
11 -3 -9 4 1.2
-13 3 9 1.3 1.3
13 3 -9 1.3 0.6
-13 -3 -9 2.5 1.6
13 -3 -9 2 0.9
-13 3 -9 1.8 1.5
0 4 -9 8.3 0.9
0 4 9 8 1.2
0 -4 -9 8.9 1.2
0 4 -9 8.3 1.1
0 -4 -9 9.5 1.3
2 4 -9 3.9 0.7
-2 4 9 3.6 1
-2 -4 -9 2.8 0.8
-2 -4 -9 3.5 1.1
2 4 -9 3.1 0.7
2 -4 9 4 0.9
-2 4 9 3.3 1
2 -4 -9 2.5 0.8
2 4 9 2.9 1
2 -4 -9 4.7 1.3
-2 4 -9 4.1 0.8
-4 -4 -9 3.8 0.8
4 4 -9 1.6 1
4 -4 9 2.9 1.2
-4 -4 -9 1.7 0.9
-4 -4 -9 1.6 1.2
4 4 -9 2.7 0.9
-4 4 -9 3.2 0.9
4 -4 -9 1.5 1.1
4 4 9 2 1.1
4 -4 -9 2.1 0.9
6 -4 9 0.3 1
-6 -4 -9 0.2 0.8
-6 -4 -9 -0.2 0.9
6 4 -9 0.7 0.9
-6 -4 -9 0.4 1.2
6 -4 9 0.2 0.6
-6 -4 -9 1.2 1
6 4 9 0.2 1.2
-6 4 -9 -0.7 1
-6 4 -9 -0.3 0.9
-8 -4 -9 0.4 1.3
8 -4 9 1 0.9
-8 -4 -9 0.9 1
-8 4 -9 0.5 1.2
-8 4 -9 0.2 1.1
10 -4 9 1.6 1.2
-10 -4 -9 1.6 1.4
-10 -4 -9 3 1.6
10 4 -9 2.5 0.5
10 4 -9 2.4 0.5
-10 4 -9 3.5 1.6
-10 4 -9 1.5 1.4
-12 -4 -9 -1 1.5
12 4 -9 -0.5 0.5
-12 -4 -9 -0.1 1.3
12 -4 -9 0.1 1
-12 4 -9 1 1.5
-12 4 -9 -0.4 1.4
-14 -4 -9 -0.1 1.2
14 -4 -9 -1.3 0.6
-14 4 -9 0.4 1.2
-1 -5 -9 276.77 15
-1 5 9 276.47 15.2
1 5 -9 263.07 17.7
-1 -5 -9 288.37 15.2
-1 5 9 266.17 15.1
1 5 -9 287.17 18.4
1 -5 9 275.57 12
1 5 9 260.77 15
-1 5 -9 273.77 18.4
-1 5 -9 267.67 17.7
1 -5 -9 314.87 15.2
-3 -5 -9 2.4 0.9
-3 -5 -9 0.9 1.1
3 5 -9 1.3 0.7
3 -5 9 2.9 0.9
-3 -5 -9 3.1 0.7
3 5 -9 0.9 0.8
3 5 -9 2.1 0.7
-3 5 -9 2.3 0.7
3 -5 -9 2.3 1
3 5 9 3.2 1.1
3 -5 -9 4.8 1.5
-5 -5 -9 8.2 1.5
5 5 -9 8.6 1.6
5 -5 9 8.7 1.5
-5 -5 -9 10.6 1.3
-5 -5 -9 8.8 2.1
5 5 -9 6.6 1.7
-5 5 -9 9.4 1.2
5 5 9 9.4 1.8
-5 5 -9 9.5 1.4
-7 -5 -9 81.69 5.9
7 -5 9 84.39 4.8
-7 -5 -9 69.59 6.1
7 -5 9 76.19 4.9
-7 -5 -9 83.19 4.8
7 5 9 73.39 5.2
-7 5 -9 78.69 4.8
-7 5 -9 85.09 6
9 -5 9 21.2 1.9
-9 -5 -9 20 2.2
9 5 -9 24.4 1.5
9 5 -9 25.1 1.5
-9 5 -9 21.2 1.8
-9 5 -9 17 2.5
-9 5 -9 23.2 2.3
9 -5 -9 22.7 1.5
-11 -5 -9 0.8 1.4
-11 -5 -9 6.3 1.8
11 -5 9 3.5 1.2
-11 5 -9 3 1.6
-11 5 -9 1.1 1.5
-13 -5 -9 3.1 1.6
13 -5 -9 1.6 0.9
-13 5 -9 2.8 1.5
0 -6 -9 4 1.1
0 6 9 3.7 1
0 -6 -9 3.4 1
0 6 -9 3.2 0.8
0 6 -9 3.4 0.7
0 6 9 2.5 0.9
2 -6 9 56.89 2.9
-2 -6 -9 58.89 3.9
2 6 -9 56.69 4
-2 -6 -9 60.19 4.1
-2 6 -9 57.59 4.1
2 6 9 55.39 3.4
-2 6 -9 53.69 4
2 -6 -9 57.39 4
2 -6 -9 55.89 4
4 6 -9 3.2 1.2
-4 -6 -9 3.9 1.3
-4 -6 -9 4.2 0.9
4 -6 9 3.6 1
4 6 -9 2.1 0.8
-4 -6 -9 2.8 1.4
4 6 -9 2.7 1
4 -6 -9 2.9 1.4
-4 6 -9 4 1
4 6 9 2.8 1.3
6 6 -9 22.7 2.5
-6 -6 -9 25.4 2.2
-6 -6 -9 23 2
6 -6 9 24.8 2.4
-6 -6 -9 20.2 3.2
6 6 9 22.7 2.6
-6 6 -9 21.2 1.9
-6 6 -9 26 2.3
8 -6 9 2.3 0.9
-8 -6 -9 0.7 1.3
-8 -6 -9 0.7 1
8 6 -9 1.5 0.4
8 6 -9 0.6 0.5
-8 6 -9 -0.5 1.3
-8 6 -9 0.8 1.2
-10 -6 -9 0.3 1.5
10 -6 9 0 1.1
10 6 -9 0.3 0.4
-10 -6 -9 -0.1 1.3
10 6 -9 0.2 0.4
-10 6 -9 -0.9 1.4
-10 6 -9 -0.9 1.3
12 6 -9 -0.2 0.4
12 6 -9 -0.1 0.4
-12 -6 -9 0.3 1.3
-12 -6 -9 -0.3 1.5
12 -6 9 -1 1.2
-12 6 -9 0.3 1.3
12 -6 -9 -1.4 1
-12 6 -9 -0.4 1.4
-14 -6 -9 -1 1.2
-14 6 -9 0.5 1.2
14 -6 -9 -0.6 0.8
-1 -7 -9 132.29 7.8
1 7 -9 135.69 8.7
-1 -7 -9 135.39 8
1 7 -9 141.19 9
-1 7 -9 123.89 8.7
1 -7 -9 125.09 7.8
1 7 9 134.39 8.2
1 -7 -9 133.09 7.9
-1 7 -9 131.29 9
-3 -7 -9 167.88 9.6
3 7 -9 169.38 9.2
-3 -7 -9 172.78 10
3 7 -9 164.98 9
3 -7 9 167.48 7.6
-3 -7 -9 153.98 11.1
3 7 -9 161.98 10.8
-3 7 -9 169.78 11.2
-3 7 -9 162.48 10.8
3 -7 -9 171.68 9.8
3 7 9 166.08 8.1
-5 -7 -9 34.5 2.6
-5 -7 -9 30.7 3.5
5 7 -9 33.8 2.7
5 7 -9 28.8 3
5 -7 9 33.1 2.5
-5 7 -9 29.4 2.2
-5 7 -9 35.1 2.8
5 7 9 30.3 2.8
7 7 -9 2.3 0.4
-7 -7 -9 2.2 1.2
7 -7 9 3.7 0.8
-7 -7 -9 2 1
-7 7 -9 2.3 1.2
-7 7 -9 1.9 1.2
9 7 -9 2.5 0.5
9 -7 9 2.3 1.1
-9 -7 -9 1.3 1.3
-9 -7 -9 3.6 1.5
-9 7 -9 3.2 1.5
-9 7 -9 2.5 1.5
-9 7 -9 3.6 0.9
11 7 -9 2.2 0.5
-11 -7 -9 2.3 1.6
11 -7 9 1.9 1.3
-11 -7 -9 1 1.3
11 7 -9 1.1 0.5
-11 7 -9 1.2 1.4
-11 7 -9 2.4 1.6
-13 -7 -9 0.7 1.4
13 -7 -9 0.7 0.8
-13 7 -9 1 1.3
0 8 -9 5.5 1
0 -8 -9 5.4 1.4
0 -8 -9 6.7 1.6
0 8 -9 4.8 0.9
-2 -8 -9 335.67 19.7
2 8 -9 379.26 23.2
-2 8 -9 359.56 23.2
2 -8 -9 349.07 20.1
-2 8 -9 384.26 24.2
2 8 9 370.86 16.3
4 8 -9 3.1 0.9
4 8 -9 1.8 0.9
4 8 -9 3.1 1.1
-4 -8 -9 3.1 1.6
-4 -8 -9 3.2 0.8
-4 8 -9 3.3 1
-4 8 -9 3.6 1
4 8 9 2.4 1.3
6 8 -9 17.9 2.2
-6 -8 -9 20.8 1.9
-6 -8 -9 19.5 1.9
-6 8 -9 18.9 1.8
6 8 9 16 2.5
-6 8 -9 21.6 2.1
8 8 -9 17.9 1.2
8 -8 9 20.3 1.5
-8 -8 -9 18.2 2
-8 -8 -9 15.6 2
8 8 -9 17.4 1.2
-8 8 -9 18.1 2
-8 8 -9 14.8 2.1
-10 -8 -9 0.1 1.2
10 -8 9 1 1.1
10 8 -9 0.8 0.4
10 8 -9 1 0.4
-10 -8 -9 2.2 1.6
-10 8 -9 0.9 1.4
-10 8 -9 0.6 0.9
-10 8 -9 0.1 1.4
-12 -8 -9 0 1.5
12 8 -9 2.1 0.5
12 8 -9 1.7 0.5
-12 -8 -9 0.4 1.5
12 -8 9 1.6 1.1
-12 8 -9 2.8 1.5
12 -8 -9 1.2 1.1
-12 8 -9 1.3 1.5
-14 8 -9 -0.1 1.2
14 -8 -9 0.8 0.8
1 9 -9 6.4 1.1
-1 -9 -9 4.3 1.2
1 9 -9 5.8 0.9
-1 -9 -9 3.2 1.2
-1 9 -9 5.4 0.9
1 -9 -9 4.7 1.4
-1 9 -9 7.1 1.2
-3 -9 -9 3.6 1.4
3 9 -9 4.7 0.8
3 9 -9 3.6 0.8
3 9 -9 5 1.1
3 9 9 4.7 1.4
-3 9 -9 4.5 1
-3 9 -9 5.5 1
5 9 -9 0.1 1
5 9 -9 1.6 0.9
5 9 9 -0.6 1.1
-5 9 -9 -0.7 0.9
-5 9 -9 0 0.8
-7 -9 -9 4.8 1.3
-7 -9 -9 2.7 1.1
7 9 -9 2.7 0.4
-7 9 -9 3.5 1.2
-7 9 -9 3.6 1.3
-9 -9 -9 0.2 1.4
9 9 -9 -0.3 0.4
-9 -9 -9 -0.6 1.1
9 9 -9 -0.5 0.4
9 -9 9 -1 1
-9 9 -9 -1.5 1.2
-9 9 -9 -0.2 0.8
-9 9 -9 0.3 1.3
-11 -9 -9 -1.2 1.5
11 9 -9 -0.2 0.4
-11 -9 -9 -0.7 1.2
11 -9 9 -0.2 1.1
-11 9 -9 0 1.4
-11 9 -9 -0.2 1.4
-13 -9 -9 0.3 1.5
-13 9 -9 -1.1 1.3
13 -9 -9 -0.4 0.8
0 -10 -9 7.5 1.7
0 10 -9 9.7 1.4
0 10 -9 6.3 1.1
2 10 -9 11.9 1.6
-2 -10 -9 6.7 1.7
-2 10 -9 8.2 1.4
2 10 9 9.2 1.7
-2 10 -9 8.4 1.2
4 10 -9 47.6 3.5
4 10 -9 46 3.3
4 10 -9 44.9 3.1
-4 10 -9 46.1 3.5
4 10 9 44.7 3.4
-4 10 -9 38.5 2.8
-4 10 -9 47 3.5
6 10 -9 15.5 2.1
6 10 -9 19 1.2
-6 10 -9 17 2
6 10 9 14.1 3.2
-6 10 -9 16.2 1.8
8 -10 9 3 1
8 10 -9 3.8 0.6
8 10 -9 1.9 0.4
-8 -10 -9 2.2 1.4
-8 10 -9 1.1 1.2
-8 10 -9 2.5 0.8
-8 10 -9 1.3 1.3
10 10 -9 9.2 0.8
10 10 -9 8.5 0.8
-10 -10 -9 6.5 1.7
10 -10 9 7.7 1.5
-10 10 -9 5.1 1.1
-10 10 -9 6.2 1.7
12 -10 9 1.4 1.1
-12 -10 -9 0.6 1.5
12 10 -9 0.8 0.4
-12 10 -9 0.2 1.4
12 -10 -9 -0.2 1
-12 10 -9 0.3 1.4
14 -10 -9 0.8 0.7
1 11 -9 39.1 3.3
-1 11 -9 41.3 3.2
-1 11 -9 47 3.4
3 11 -9 5.3 1.2
-3 11 -9 4.8 1
-3 11 -9 5.4 1.1
-3 11 -9 4.7 1.1
3 11 9 4.3 1.5
5 11 -9 1.5 1
5 11 -9 3 1.1
5 11 -9 0.8 0.9
-5 11 -9 2.9 1.1
5 11 9 1.6 1.4
-5 11 -9 0.5 1
7 11 -9 2.2 0.4
7 11 -9 2 0.4
-7 11 -9 1.7 1.2
-7 11 -9 1 1.2
9 -11 9 6 1.2
9 11 -9 2.7 0.5
9 11 -9 3.6 0.5
-9 11 -9 4.3 1
-9 11 -9 1.5 1.5
-9 11 -9 2.9 1.4
11 -11 9 0.2 1.2
11 11 -9 0.3 0.4
-11 -11 -9 -0.2 1.6
11 11 -9 0.5 0.4
-11 11 -9 0.1 1
-11 11 -9 0.8 1.5
-11 11 -9 0.1 1.4
13 -11 9 0.7 1.1
13 -11 -9 -0.3 0.8
-13 11 -9 0.6 1.2
0 12 -9 6.8 1.1
0 12 -9 5.9 1.3
2 12 -9 17.5 2
2 12 -9 15.4 1.4
-2 12 -9 23.3 2.1
2 12 9 19.2 2.2
-2 12 -9 17.1 1.5
-2 12 -9 20.4 1.8
4 12 -9 8.1 1.4
4 12 -9 12.2 1.4
4 12 -9 9.7 1.6
-4 12 -9 13.7 1.5
-4 12 -9 13.4 1.7
4 12 9 11.6 2.2
-4 12 -9 12.1 1.5
-6 12 -9 0.3 1
-6 12 -9 0.4 1
8 12 -9 7.7 0.7
8 12 -9 5.7 0.7
8 -12 9 5.8 1.1
-8 12 9 5.8 1.1
-8 12 -9 4.3 0.9
-8 12 -9 2.4 1.5
-8 12 -9 5.1 1.5
10 12 -9 1.1 0.4
10 12 -9 1.5 0.5
10 -12 9 0.2 1.2
-10 12 -9 0.3 1
-10 12 -9 0 1.3
-10 12 -9 -1.4 1.3
12 12 -9 0.9 0.4
12 -12 9 0.8 1.2
-12 12 -9 0.9 1.3
12 -12 -9 0.4 1
1 13 -9 3.4 1.2
1 13 -9 4 0.8
-1 13 -9 3.2 1.1
-1 13 -9 3.2 0.9
-1 13 -9 5.5 0.9
3 13 -9 78.79 5.8
-3 13 -9 84.19 5.7
3 13 9 78.79 4.9
-3 13 -9 87.99 5.8
-3 13 -9 71.39 4.6
5 13 -9 7.2 1.5
5 13 -9 6.8 1.5
-5 13 -9 9.7 1.3
-5 13 -9 9.8 1.6
-5 13 -9 9.7 1.4
-7 13 9 18.9 1.7
7 13 -9 22.1 1.3
7 13 -9 22.8 1.3
-7 13 -9 18.2 1.7
-7 13 -9 15.6 2.2
-7 13 -9 19.6 2.1
9 13 -9 5.7 0.7
9 -13 9 3.8 1.2
-9 13 -9 1.2 1.4
-9 13 -9 3.3 0.9
-9 13 -9 0 1.4
11 -13 9 2.2 1.2
11 13 -9 1.8 0.5
11 13 -9 1.9 0.5
-11 13 -9 0.6 1.4
-11 13 -9 -0.1 2
-11 13 -9 2.5 1
13 -13 -9 0.7 0.8
0 14 -9 -0.6 0.6
0 14 -9 0 0.8
2 14 -9 5.5 0.9
2 14 -9 5.7 1.4
-2 14 -9 5.1 1
-2 14 -9 5.4 1
2 14 9 3.4 1.4
-2 14 -9 4.7 1.2
4 14 -9 2.8 0.4
4 14 -9 1.7 0.8
4 14 -9 3.6 1.2
-4 14 -9 3.5 1.1
-4 14 -9 3.5 1.1
4 14 9 2.5 1.6
-4 14 -9 4.2 1.2
6 14 -9 0.6 0.3
6 14 -9 0.1 0.3
-6 14 9 0.5 0.9
-6 14 -9 0.5 1
-6 14 -9 -0.6 1
8 14 -9 0.2 0.4
-8 14 9 -0.1 1
8 14 -9 -0.3 0.4
-8 14 -9 -0.6 0.8
-8 14 -9 -0.6 1.2
-8 14 -9 -1.9 1.1
10 -14 9 1.2 1.2
10 14 -9 1.8 0.5
10 14 -9 2 0.5
-10 14 -9 1 0.9
-10 14 -9 0.4 1.3
12 14 -9 0 0.4
12 -14 9 0.2 0.9
12 -14 -9 -1.7 0.9
1 15 -9 67.09 4.3
1 15 -9 82.09 5.6
-1 15 -9 75.79 5.3
-1 15 -9 69.89 4.3
-1 15 -9 82.79 5.6
1 15 9 72.19 4.6
3 15 -9 2.4 1.2
3 15 -9 4.9 0.5
-3 15 -9 4.3 1
-3 15 -9 3.1 0.5
-3 15 -9 3.4 1.1
3 15 9 3.8 1.6
-3 15 -9 5.1 1
5 15 -9 1.1 1.1
-5 15 -9 1.6 1
-5 15 -9 1.5 1
-5 15 -9 2.2 1.1
-5 15 -9 1 0.4
7 15 -9 9.8 0.8
7 15 -9 9.6 0.9
-7 15 9 9.8 1.4
-7 15 -9 6.7 1
-7 15 -9 5 1.4
9 15 -9 2 0.5
-9 15 9 4.8 1.6
9 -15 9 2 1.2
-9 15 -9 3 0.9
-9 15 -9 0.9 2.2
11 15 -9 0.9 0.4
11 -15 9 0 1.2
-11 15 -9 0.5 0.9
13 -15 -9 0.4 0.7
0 16 -9 -0.4 0.9
0 16 -9 0 0.6
0 16 -9 -0.4 0.3
2 16 -9 10.3 1.7
-2 16 9 8.5 0.9
2 16 -9 7 0.7
-2 16 -9 9.5 0.8
-2 16 -9 11.2 1.7
2 16 9 9.4 2
4 16 -9 1.7 1.2
4 16 -9 1.7 0.4
-4 16 -9 0.4 0.4
-4 16 -9 1.3 1
-6 16 9 0.6 0.7
6 16 -9 0.4 0.3
6 16 -9 -0.2 0.4
-6 16 -9 0.7 0.5
8 16 -9 2.1 0.5
8 16 -9 3 0.5
-8 16 9 2.9 1
-8 16 -9 2 0.8
10 16 -9 -0.1 0.4
10 16 -9 0.4 0.5
10 -16 9 -0.1 1.1
-10 16 -9 1.8 0.9
12 16 -9 -0.2 0.3
12 -16 9 0.3 0.9
12 -16 -9 -1.2 0.9
1 17 -9 1.1 0.4
1 17 -9 1.4 1.1
-1 17 9 1.7 0.5
-1 17 -9 1.3 0.4
1 17 9 0.9 1.2
-1 17 -9 1.3 1
3 17 -9 8.7 0.8
3 17 -9 8.8 1.8
-3 17 -9 12 1.8
-3 17 -9 11 0.9
-5 17 9 3.1 0.8
5 17 -9 2.5 1.3
5 17 -9 3.3 0.5
5 17 -9 2.9 0.4
-5 17 -9 1.7 1.1
-5 17 -9 1.8 0.5
-7 17 9 3 1
7 17 -9 3.6 0.5
7 17 -9 3 0.5
-7 17 -9 3.9 0.8
9 -17 9 0.2 1.1
9 17 -9 -0.1 0.4
9 17 -9 -0.1 0.4
-9 17 9 -0.1 1.1
-9 17 -9 0 0.9
11 -17 9 -1.2 1
11 17 -9 -0.2 0.4
11 -17 -9 0.9 1
-11 17 -9 0.3 0.9
0 18 -9 -0.1 1
0 18 -9 -0.1 0.3
2 18 -9 0 0.3
-2 18 9 -0.1 0.5
2 18 -9 0 1.1
-2 18 -9 0.3 0.3
-2 18 -9 -0.3 0.9
4 18 -9 23.5 2.7
4 18 -9 21.4 1.4
4 18 -9 17.6 1.4
-4 18 9 22.2 1.7
-4 18 -9 23.7 2.5
-4 18 -9 23.9 1.5
-6 18 9 20 1.7
6 18 -9 19.8 1.3
6 18 -9 20.7 1.3
-6 18 -9 16.8 1.5
-6 18 -9 15.9 1.5
8 18 -9 0.7 0.4
-8 18 9 1.4 1
-8 18 -9 1.3 0.8
10 -18 9 1.6 1.1
10 18 -9 0.9 0.5
10 18 -9 1.8 0.5
-10 18 -9 3.2 0.9
12 18 -9 0.7 0.3
12 -18 -9 -0.9 0.8
1 19 -9 0.1 0.3
1 19 -9 0 1.1
-1 19 9 0.3 0.5
1 19 -9 0.3 0.4
-1 19 9 -0.1 0.5
-1 19 -9 0.4 1
1 19 9 0.4 0.5
-1 19 -9 0.5 0.4
3 19 -9 0.3 0.4
3 19 -9 0.3 0.3
-3 19 9 0.8 0.6
3 19 -9 0.7 1.2
-3 19 -9 0.5 0.4
-3 19 -9 0.5 1
5 19 -9 -0.2 0.4
5 19 -9 1 0.4
5 19 -9 1.5 1.3
-5 19 9 1.2 0.8
-5 19 -9 1 0.6
-5 19 -9 2 1.2
-5 19 -9 0.9 0.5
7 19 -9 -1.1 0.4
-7 19 9 -1.3 0.9
7 19 -9 -0.1 0.4
-7 19 -9 -1.1 0.7
-7 19 -9 -0.6 0.6
9 19 -9 -0.1 0.4
9 19 -9 -0.2 0.4
9 -19 9 0.1 1.2
-9 19 -9 0.1 0.9
11 -19 9 -0.4 1
11 19 -9 0.1 0.4
-11 19 -9 0 0.8
11 -19 -9 0.4 0.9
0 20 -9 0.1 0.3
0 20 -9 -0.1 1.1
0 20 -9 0.2 0.4
0 20 9 0.5 0.5
-2 20 9 19.4 1.5
-2 20 9 17.3 1.5
2 20 -9 18.4 2.6
2 20 -9 19.6 1.3
-2 20 -9 20.5 1.4
-2 20 -9 23.8 2.6
-4 20 9 9.4 1.3
4 20 -9 8.8 0.8
4 20 -9 7.1 1.8
4 20 -9 7.1 0.9
-4 20 -9 6.4 1
-4 20 -9 6.5 1
-4 20 -9 7.6 1.7
6 20 -9 -0.2 0.4
6 20 -9 0.5 0.4
-6 20 9 -0.4 0.8
-6 20 -9 0.9 0.6
-6 20 -9 -0.3 0.6
-8 20 9 2.1 1
8 20 -9 1.1 0.4
8 20 -9 1.4 0.5
-8 20 -9 2.2 0.8
10 20 -9 5.3 0.8
10 -20 9 4.8 1.2
-10 20 -9 5.9 1
10 -20 -9 3.3 1.1
-1 21 9 18 1.5
1 21 -9 19.3 2.6
-1 21 9 18.4 1.5
1 21 -9 16.5 1.3
1 21 -9 19.5 1.3
-1 21 -9 18.7 1.3
1 21 9 20.7 1.5
-1 21 -9 19.2 2.5
-1 21 -9 21.6 1.4
3 21 -9 0.1 0.5
3 21 -9 1 1.3
-3 21 9 1.7 0.7
3 21 -9 1.5 0.4
-3 21 -9 0.8 0.5
-3 21 -9 1.3 0.5
-3 21 -9 1.6 1.2
-5 21 9 5 0.9
5 21 -9 3.4 1.5
5 21 -9 4.9 0.7
5 21 -9 4.6 0.6
-5 21 -9 3.6 1.4
-5 21 -9 3.2 0.6
-5 21 -9 4.1 0.7
7 21 -9 0.4 0.5
7 21 -9 0.2 0.5
-7 21 9 -0.7 0.9
-7 21 -9 0.6 0.7
-7 21 -9 -0.5 0.6
9 -21 9 -0.2 1.1
9 21 -9 0.4 0.4
9 21 -9 0.5 0.5
-9 21 -9 0.2 0.8
9 -21 -9 -0.3 1
11 21 -9 1.2 0.4
0 22 -9 -0.4 1.2
0 22 -9 -0.5 0.4
0 22 9 0.1 0.5
0 22 -9 0 0.4
-2 22 9 4.8 1.4
2 22 -9 4.3 0.5
2 22 -9 4.5 0.6
2 22 -9 3.8 1.6
-2 22 9 6.8 0.8
-2 22 -9 5.4 0.6
-2 22 -9 6 0.7
-2 22 -9 4.2 1.5
4 22 -9 0.7 0.4
-4 22 9 0.4 0.7
4 22 -9 0 0.5
4 22 -9 0.4 1.3
-4 22 -9 0.3 0.5
-4 22 -9 0 1.1
-4 22 -9 -0.3 0.5
-6 22 9 0 0.8
6 22 -9 0 0.5
6 22 -9 -0.3 0.4
-6 22 -9 -0.7 0.6
-6 22 -9 -0.5 0.6
-8 22 9 -0.4 1
8 22 -9 -0.6 0.4
8 22 -9 -0.5 0.4
8 -22 -9 -1.7 1
-8 22 -9 -0.5 0.7
10 22 -9 -0.4 0.4
10 -22 -9 -0.6 0.8
-10 22 -9 0 0.8
-1 23 9 1.9 1.3
-1 23 9 1.7 0.6
1 23 -9 0.4 1.2
1 23 -9 1.3 0.4
1 23 -9 1.8 0.5
-1 23 9 1 0.6
-1 23 -9 0.7 0.5
-1 23 -9 0.8 0.4
-1 23 -9 -0.3 1.2
1 23 9 1.2 0.6
-3 23 9 9 1.2
3 23 -9 6.5 0.9
3 23 -9 5 1.7
3 23 -9 6.7 0.8
-3 23 -9 9 0.9
-3 23 -9 4.8 1.6
-3 23 -9 7.5 1
-5 23 9 0.4 0.8
5 23 -9 -1.1 1.1
5 23 -9 0 0.4
5 23 -9 0.4 0.5
-5 23 -9 -0.3 0.5
-5 23 -9 1.1 0.6
-7 23 9 3.5 1
7 23 -9 3 0.5
7 23 -9 2 0.5
-7 23 -9 2.7 0.8
9 -23 9 0.1 1
9 23 -9 0.2 0.4
-9 23 -9 1 0.8
0 24 -9 -0.1 0.5
0 24 9 0 1.2
0 24 9 0.3 0.6
0 24 -9 -0.3 1.2
0 24 -9 0.5 0.4
2 24 -9 0.1 1.2
2 24 -9 -0.4 0.4
-2 24 9 -0.1 0.7
2 24 -9 -0.7 0.5
-2 24 -9 0.4 0.5
-2 24 -9 0.3 0.4
-2 24 -9 0.3 1.2
4 24 -9 1.6 0.5
4 24 -9 1.7 0.5
-4 24 9 2.2 0.8
4 24 -9 1.6 1.3
-4 24 -9 2.7 1.4
-4 24 -9 1.6 0.6
-4 24 -9 3.3 0.6
6 24 -9 -0.3 0.4
6 24 -9 -0.4 0.4
-6 24 9 -0.2 0.8
-6 24 -9 -0.4 0.6
-6 24 -9 0.2 0.6
8 -24 9 0 0.9
8 24 -9 -0.1 0.4
8 24 -9 -0.4 0.4
-8 24 -9 -0.8 0.7
1 25 -9 6.2 0.8
-1 25 9 6.5 1.7
1 25 -9 5.3 1.7
1 25 -9 6 0.8
-1 25 9 7.3 0.9
-1 25 -9 6 0.8
-1 25 -9 2.1 1.4
1 25 9 4.9 1.7
-1 25 -9 4.1 0.7
3 25 -9 2.9 0.5
-3 25 9 5.2 0.9
3 25 -9 2.7 0.6
3 25 -9 1.8 1.4
-3 25 -9 2.8 1.4
-3 25 -9 4 0.7
5 25 -9 0.4 0.5
5 25 -9 -0.3 0.5
-5 25 9 0 0.8
-5 25 -9 -0.2 0.6
-5 25 -9 0.4 0.6
7 25 -9 -0.1 0.4
7 25 -9 0.4 0.5
-7 25 -9 0 0.7
0 26 9 -0.4 1.2
0 26 -9 0.6 0.5
0 26 -9 0.1 1.3
0 26 -9 0.7 0.5
-2 26 9 2.2 0.7
2 26 -9 0.5 1.4
2 26 -9 1.9 0.5
2 26 -9 1.1 0.5
-2 26 -9 1.7 0.6
-2 26 -9 2 0.5
-2 26 -9 0.9 1.2
2 26 9 1.7 1.4
4 26 -9 1.7 0.6
4 26 -9 1.8 0.5
-4 26 9 2.9 0.8
-4 26 -9 1.1 0.6
-4 26 -9 2.1 0.6
-6 26 9 1.2 1
6 26 -9 -0.1 0.5
6 26 -9 0 0.4
-6 26 -9 -0.1 0.5
-6 26 -9 1.1 0.7
8 26 -9 0 0.4
-8 26 -9 1.3 0.7
-1 27 9 -0.7 1.1
1 27 -9 -0.7 0.5
1 27 -9 0 0.4
-1 27 -9 0 0.5
-1 27 -9 0 0.5
-3 27 9 7.1 1
3 27 -9 6.3 0.9
-3 27 -9 7.5 1
-3 27 -9 5 0.8
5 27 -9 -0.2 0.4
5 27 -9 -0.6 0.4
-5 27 -9 -0.7 0.5
-5 27 -9 0.2 0.6
7 27 -9 -0.7 0.4
7 27 -9 -0.2 0.4
-7 27 -9 1.3 0.7
0 28 -9 0.3 0.5
0 28 -9 0.7 0.5
2 28 -9 7 0.8
2 28 -9 5.3 0.7
-2 28 -9 4.5 0.7
-2 28 -9 6.7 0.9
4 28 -9 9.3 0.9
4 28 -9 6.6 0.9
-4 28 -9 11.1 1.1
-4 28 -9 7.4 1
6 28 -9 2.6 0.5
6 28 -9 1.8 0.4
1 29 -9 0.6 0.5
1 29 -9 -0.4 0.5
-1 29 -9 0.4 0.5
-1 29 -9 0 0.5
3 29 -9 0 0.4
3 29 -9 0.6 0.4
-3 29 -9 0.2 0.5
-3 29 -9 -0.1 0.5
5 29 -9 0.3 0.4
5 29 -9 -0.3 0.4
-5 29 -9 0.7 0.5
-5 29 -9 1.6 0.6
0 30 -9 0.5 0.5
0 30 -9 -0.1 0.4
2 30 -9 1.2 0.5
2 30 -9 0.8 0.5
-2 30 -9 1.3 0.5
-2 30 -9 0.8 0.5
4 30 -9 0.3 0.4
4 30 -9 0.3 0.4
-4 30 -9 1.4 0.5
-4 30 -9 0.8 0.5
1 31 -9 1 0.5
1 31 -9 0.6 0.4
-1 31 -9 0.8 0.5
-1 31 -9 1.2 0.5
0 0 -10 16.4 1.4
-2 0 -10 76.59 5.5
2 0 10 80.59 4.2
2 0 -10 78.89 5
2 0 -10 82.69 4.7
-4 0 -10 306.87 19.6
4 0 -10 278.27 16.5
4 0 10 295.67 13.4
4 0 -10 292.37 16.1
-6 0 -10 343.97 20.8
-6 0 -10 295.27 16.8
-6 0 -10 296.57 16.6
6 0 10 316.77 17.5
-6 0 -10 313.87 16.8
6 0 10 293.27 14.4
6 0 -10 298.87 15.7
8 0 10 112.69 6.4
-8 0 -10 106.99 6.3
-8 0 -10 101.99 7.8
8 0 -10 110.19 5.8
10 0 -10 67.59 3.9
-10 0 -10 56.69 5.3
-10 0 -10 72.49 4.4
10 0 -10 69.69 3.9
-12 0 -10 23 2.8
-14 0 10 6.6 1.3
1 1 -10 19.9 1.6
-1 -1 -10 18.5 1.6
1 -1 -10 22.4 1.6
-1 1 -10 18.9 1.6
1 -1 -10 19.3 1.6
1 -1 -10 20.4 1.8
-3 -1 -10 47.4 2.8
3 -1 10 44.2 2.8
-3 -1 -10 42.8 3.2
3 1 -10 40.2 3.2
3 1 -10 44.1 3
-3 -1 -10 44.2 2.7
-3 1 -10 42.4 3.2
3 1 10 40.3 2.8
3 -1 -10 40.9 3.4
3 -1 -10 49 3.1
-5 -1 -10 44.7 3.2
5 1 -10 35.3 3.7
5 1 -10 43.8 3.3
5 -1 10 38.9 2.5
5 -1 10 44.7 3.1
-5 -1 -10 46 3.2
-5 -1 -10 42.4 2.9
-5 1 -10 44.8 3.2
5 1 10 43 3.2
5 -1 -10 38 3.3
-5 1 -10 35.1 2.6
5 1 10 39.1 2.5
-7 -1 -10 20.3 2.5
7 -1 10 15.4 2.4
-7 -1 -10 23.5 2.3
7 -1 10 23.2 1.6
-7 -1 -10 23 2
7 1 -10 22.3 1.7
-7 -1 -10 19 2.2
-7 1 -10 21.8 2
7 -1 -10 21.7 1.7
-7 1 -10 19.9 2
-7 1 -10 21.3 2.2
7 1 10 23.2 3
7 1 10 23.4 1.7
-7 1 -10 20.7 2.1
-9 -1 -10 4.8 1.5
9 1 -10 5.4 0.7
9 -1 10 7.4 1.3
9 1 -10 7.6 1.1
-9 -1 -10 8.5 1.7
9 -1 -10 6.6 0.7
-9 1 -10 9.3 1.7
9 -1 -10 8.4 1.2
-9 1 -10 7.1 1.7
-11 -1 -10 5.3 1.7
-11 -1 -10 2.7 1.6
11 1 -10 3.8 0.5
11 -1 -10 4.5 1.1
11 -1 -10 3.9 0.6
-11 1 -10 2 1.5
-11 1 -10 7.4 1.9
13 1 -10 1.6 0.4
-13 -1 -10 2.3 1.4
-13 1 -10 3.8 1.5
13 -1 -10 1.4 0.4
0 2 -10 136.69 9.7
0 -2 -10 148.79 8
0 -2 -10 148.69 8
2 -2 10 149.69 7
-2 -2 -10 155.38 8.2
-2 -2 -10 152.98 8.4
-2 -2 -10 143.79 10.1
2 2 -10 160.48 8.2
2 2 -10 149.88 8.3
2 2 10 158.98 7.3
2 -2 -10 150.68 8.8
2 -2 -10 148.69 8.5
-2 2 -10 145.09 10.2
4 2 -10 199.88 12.5
-4 -2 -10 227.28 14.8
4 2 -10 224.08 12.2
-4 -2 -10 230.28 12.2
4 -2 10 212.48 10.2
-4 -2 -10 219.28 12
4 2 10 226.98 10.4
4 -2 -10 222.08 12.4
-4 2 -10 222.68 14.8
4 -2 -10 212.38 12.8
6 2 -10 132.99 8.6
-6 -2 -10 150.68 8.7
6 -2 10 137.09 8.1
-6 -2 -10 156.18 9.8
-6 -2 -10 129.89 7.9
6 -2 10 142.59 7.4
-6 -2 -10 141.49 8.4
6 2 10 141.69 8.2
6 2 10 144.19 7.6
-6 2 -10 151.28 9.9
-6 2 -10 132.19 7.9
8 2 -10 71.29 4
-8 -2 -10 72.69 4.4
-8 -2 -10 67.89 5.4
8 -2 10 74.69 4.4
-8 2 -10 72.09 5.5
-8 2 -10 70.09 4.4
10 -2 10 44.3 3.3
-10 -2 -10 51.39 3.6
10 2 -10 51.49 2.9
-10 2 -10 51.39 3.6
-10 2 -10 39.8 4.1
10 -2 -10 48.9 2.9
10 -2 -10 52.39 3.1
12 2 -10 23.2 1.5
-12 -2 -10 27.8 2.6
-12 2 -10 15.8 2.6
-12 2 -10 22.2 2.4
12 -2 -10 21.9 1.8
-14 2 10 1.9 1.3
-14 -2 -10 1.6 1.3
-14 2 -10 3.2 1.3
1 3 -10 189.68 13.1
1 -3 10 203.98 8.8
1 3 -10 175.28 12.6
-1 -3 -10 199.18 10.7
-1 -3 -10 206.78 10.8
1 -3 -10 212.48 10.9
-1 3 -10 190.18 13.1
1 -3 -10 197.48 10.9
3 3 -10 339.87 17.5
-3 -3 -10 312.37 21.8
3 3 -10 319.67 17.7
-3 -3 -10 345.27 17.6
-3 -3 -10 347.57 17.8
3 -3 10 328.97 14.5
-3 3 -10 317.17 21.8
3 3 10 323.77 14.8
3 -3 -10 315.47 18.1
3 -3 -10 336.87 17.8
5 -3 10 241.48 10.8
5 3 -10 206.98 13.1
5 3 -10 233.48 12.8
-5 -3 -10 247.88 15.3
5 -3 10 203.28 12.8
-5 -3 -10 244.78 13
-5 -3 -10 213.68 12.6
5 -3 -10 226.38 13
-5 3 -10 252.77 15.4
-5 3 -10 197.18 12.4
5 3 10 232.28 11
7 3 -10 133.49 7.1
-7 -3 -10 143.09 9.5
7 -3 10 141.89 7.8
-7 -3 -10 123.19 8.3
-7 -3 -10 134.49 7.7
-7 -3 -10 135.09 8.7
7 -3 10 119.49 7.2
7 3 10 131.09 7.6
-7 3 -10 134.69 7.7
-7 3 -10 148.39 9.6
-9 -3 -10 54.59 4.8
-9 -3 -10 63.89 4
9 -3 10 62.19 3.8
9 3 -10 62.19 3.6
9 -3 -10 62.19 3.6
-9 3 -10 63.09 4.1
-9 3 -10 56.49 4.9
-11 -3 -10 49 3.7
11 -3 10 56.29 3.5
11 3 -10 49.5 3
11 3 -10 51.79 3
-11 3 -10 54.09 3.8
11 -3 -10 47.8 3.2
-13 3 10 6.8 1.5
-13 -3 -10 8.6 1.8
13 3 -10 12.4 0.9
-13 3 -10 14.3 1.9
13 -3 -10 11.3 1.4
0 4 -10 8.4 1.2
0 -4 -10 9.7 1.4
0 4 -10 9.1 1
2 -4 10 23.7 1.7
2 4 -10 21.8 1.9
-2 -4 -10 26.6 2.3
-2 -4 -10 22.1 1.9
-2 4 10 22.7 2.3
-2 -4 -10 20.7 1.8
2 -4 -10 22.1 2.1
2 4 10 25.4 2
-2 4 -10 22.7 1.9
2 -4 -10 24.7 2.4
-4 -4 -10 1.9 0.9
4 4 -10 3.7 1
-4 -4 -10 5 0.9
4 4 -10 3.6 1.2
-4 -4 -10 3.4 1.4
4 -4 10 5.3 1.3
4 -4 -10 2.7 1
4 4 10 2.5 1.2
-4 4 -10 4.9 1.1
4 -4 -10 4.1 1.6
-6 -4 -10 16.9 2.2
6 4 -10 15 2.2
-6 -4 -10 19.7 1.8
-6 -4 -10 19.6 2
6 -4 10 13.4 2
-6 -4 -10 19.5 2.7
6 -4 10 20.4 1.4
6 4 10 15 2.3
-6 4 -10 19.9 2
-6 4 -10 18.2 1.8
-8 -4 -10 4.1 1.4
8 -4 10 7.1 1.1
-8 -4 -10 6.5 1.5
-8 4 -10 5.4 1.5
-8 4 -10 5.6 1.6
10 4 -10 7 0.8
10 4 -10 6.4 0.7
-10 -4 -10 3.1 1.5
10 -4 10 6.2 1.3
-10 -4 -10 7.1 1.7
-10 4 -10 3.3 1.6
10 -4 -10 6.3 1.2
10 -4 -10 5.2 0.7
-10 4 -10 6.2 1.8
12 4 -10 -0.5 0.5
-12 -4 -10 1.1 1.4
-12 -4 -10 0.9 1.6
12 4 -10 0.1 0.4
12 -4 -10 0.8 0.9
-12 4 -10 1.6 1.4
-12 4 -10 0.9 1.5
-14 -4 -10 -0.5 1.2
-14 4 -10 -0.6 1.1
14 -4 -10 -0.2 0.3
1 5 -10 745.83 50.79
1 -5 10 823.42 34.1
-1 -5 -10 806.62 42.2
-1 5 10 838.22 42.5
1 5 -10 789.42 53.09
-1 -5 -10 858.81 42.4
-1 5 -10 799.62 53.09
1 -5 -10 777.52 42.4
-1 5 -10 773.72 50.89
1 -5 -10 866.21 42.4
-3 -5 -10 788.62 40.4
3 -5 10 773.52 32.6
-3 -5 -10 815.32 40.1
3 5 -10 793.42 39.7
-3 -5 -10 712.23 50.19
3 5 -10 676.23 48.1
3 5 -10 755.52 39.8
3 -5 -10 777.42 40.7
3 -5 -10 785.62 40.3
-3 5 -10 766.32 50.29
3 5 10 763.82 33
5 -5 10 514.55 22.7
-5 -5 -10 545.85 34.3
-5 -5 -10 497.55 27.8
5 5 -10 487.15 27.9
5 5 -10 520.95 27.6
-5 -5 -10 550.44 28.3
-5 5 -10 562.24 34.3
5 5 10 519.05 23.1
-5 5 -10 454.35 27.9
-7 -5 -10 175.48 11.8
-7 -5 -10 187.58 10.7
7 -5 10 196.88 11
7 -5 10 171.08 9.5
-7 -5 -10 198.08 13.2
-7 5 -10 196.48 10.7
-7 5 -10 207.88 13.3
9 -5 10 120.49 6.5
9 5 -10 110.89 6
-9 -5 -10 112.69 6.4
9 5 -10 110.99 6.2
-9 -5 -10 92.99 7.8
-9 5 -10 100.39 6.4
9 -5 -10 108.89 6.2
-9 5 -10 99.69 7.9
-9 5 -10 114.19 6.5
11 5 -10 31.2 1.9
-11 -5 -10 34.9 2.9
11 5 -10 33.7 1.9
11 -5 10 31.2 2.4
-11 5 -10 31.5 2.9
11 -5 -10 33.1 2.3
-11 5 -10 23.5 3.1
-13 -5 -10 15.9 2
13 5 -10 14.4 1.1
13 -5 -10 14.7 1.5
-13 5 -10 15.6 2
0 6 -10 369.86 23.9
0 6 -10 379.66 24.9
0 -6 10 388.26 16
0 -6 -10 374.06 20.2
0 -6 -10 367.16 20.3
-2 -6 -10 129.59 7.4
2 -6 10 122.99 5.6
-2 -6 -10 121.89 7.1
2 6 -10 110.29 7.9
2 6 10 121.59 6.1
-2 6 -10 115.99 7.9
2 -6 -10 116.49 7.2
2 -6 -10 120.99 7.4
-2 6 -10 119.19 8.2
-4 -6 -10 395.86 21.8
-4 -6 -10 410.56 26.2
-4 -6 -10 381.36 21.4
4 6 -10 343.37 25
4 6 -10 397.46 21.3
4 6 -10 439.46 21.1
4 -6 10 406.76 17.4
4 6 10 409.16 17.9
-4 6 -10 429.36 26.3
-4 6 -10 338.87 21.4
-6 -6 -10 63.69 5.2
6 -6 10 56.99 3.9
6 6 -10 60.49 4.5
-6 -6 -10 62.29 3.9
-6 -6 -10 66.89 4.7
-6 6 -10 67.79 4.8
-6 6 -10 58.99 3.9
6 6 10 59.39 4.4
-8 -6 -10 46.8 4
8 -6 10 52.99 3.1
8 6 -10 45.3 2.9
-8 -6 -10 52.19 3.4
8 6 -10 50.19 2.8
-8 6 -10 47.1 4.1
-8 6 -10 49.7 3.4
-10 -6 -10 4.7 1.6
10 -6 10 9.5 1.4
10 6 -10 8.5 0.8
10 6 -10 7.5 0.7
-10 -6 -10 9.8 1.8
-10 6 -10 7 1.8
-10 6 -10 6.4 1.8
12 6 -10 3.9 0.5
-12 -6 -10 5.8 1.8
-12 -6 -10 3.4 1.7
12 -6 10 5.9 1.6
12 6 -10 5.1 0.7
-12 6 -10 5.2 1.7
-12 6 -10 2.6 1.6
12 -6 -10 4.2 1.1
-14 -6 -10 0 1.2
-14 6 -10 1.2 1.2
14 -6 -10 1.2 0.8
1 7 -10 646.44 44.2
-1 -7 -10 744.43 37.2
1 7 -10 720.83 46.2
-1 -7 -10 676.13 36.9
-1 7 -10 700.93 44.3
-1 7 -10 699.13 46.2
1 -7 -10 719.33 37.1
-3 -7 -10 582.24 31.2
3 7 -10 594.44 30.6
3 7 -10 544.85 37.1
-3 -7 -10 616.94 31.7
3 7 -10 600.34 30.5
-3 -7 -10 544.85 38.6
3 -7 10 591.14 25.1
3 7 10 602.34 25.7
3 -7 -10 585.04 31.5
-3 7 -10 605.34 38.8
-3 7 -10 590.64 37.2
5 7 -10 205.18 11.3
-5 -7 -10 213.48 12.3
-5 -7 -10 198.68 13.5
5 7 -10 183.98 11.5
-5 7 -10 215.48 13.6
-5 7 -10 185.38 11
5 7 10 194.98 10
-7 -7 -10 67.29 4.3
7 7 -10 70.19 3.9
-7 -7 -10 68.19 5.2
7 -7 10 71.59 4.2
-7 7 -10 71.29 4.3
-7 7 -10 69.99 5.3
9 7 -10 30.9 1.8
-9 -7 -10 32.3 2.6
9 -7 10 33.6 2.3
-9 -7 -10 26.6 2.9
9 7 -10 30.4 1.8
-9 7 -10 27.1 3
-9 7 -10 27.9 2.1
-9 7 -10 32.4 2.6
11 -7 10 3.8 1.3
11 7 -10 2.7 0.5
11 7 -10 4.4 0.6
-11 -7 -10 2.9 1.5
-11 -7 -10 4.6 1.8
11 -7 -10 4.9 1.2
-11 7 -10 6.1 1.8
-11 7 -10 1.4 1.5
-13 -7 -10 6.8 1.6
-13 7 -10 6.3 1.6
13 -7 -10 10.8 1.3
0 8 -10 1416.36 90.69
0 8 -10 1376.26 86.79
0 -8 -10 1363.66 72.09
0 -8 -10 1367.06 71.99
2 8 -10 1785.32 115.59
-2 -8 -10 1964.2 95.99
-2 -8 -10 1794.92 95.59
-2 8 -10 1818.02 115.59
-2 8 -10 1847.42 120.79
2 -8 -10 1832.32 95.79
2 8 10 1846.12 77.89
4 8 -10 494.15 34
4 8 -10 572.74 28.3
-4 -8 -10 552.04 29.4
4 8 -10 536.45 28.4
4 8 10 553.64 23.9
-4 8 -10 483.35 29
-4 8 -10 572.34 35.6
6 8 -10 220.48 12.3
-6 -8 -10 216.88 12.3
6 8 -10 209.18 12.7
-6 -8 -10 230.68 15.2
-6 8 -10 220.58 12.4
6 8 10 221.48 11.3
-6 8 -10 244.88 15.3
-8 -8 -10 76.19 4.6
8 8 -10 74.19 4.1
8 8 -10 71.09 4.2
-8 -8 -10 65.29 5.4
8 -8 10 76.59 4.4
8 -8 -10 74.49 4.2
-8 8 -10 75.19 4.6
-8 8 -10 72.69 5.6
-8 8 -10 65.79 4.4
-10 -8 -10 31.8 2.6
-10 -8 -10 21.5 2.8
10 8 -10 30.1 1.7
10 -8 10 32.1 2.2
10 8 -10 29.4 1.7
-10 8 -10 24.1 2.1
-10 8 -10 30.2 2.7
-10 8 -10 20.9 2.9
-12 -8 -10 19.8 2.2
12 8 -10 17.8 1.2
12 8 -10 18.6 1.2
12 -8 10 15.9 1.7
12 -8 -10 17 1.7
-12 8 -10 12.2 2.3
-12 8 -10 17 2.1
14 -8 -10 2.2 0.8
-1 -9 -10 56.89 4.5
-1 -9 -10 69.09 4.9
1 9 -10 65.19 4.7
1 9 -10 64.59 4.7
1 -9 -10 60.39 4.7
-1 9 -10 72.19 4.7
-1 9 -10 64.29 4.7
3 9 -10 5.1 1.1
-3 -9 -10 6.5 1.9
3 9 -10 7.3 1
-3 9 -10 9 1.4
-3 9 -10 8 1.1
3 9 10 5.9 1.5
-3 9 -10 8.1 1.2
5 9 -10 2.3 1
5 9 -10 1.8 1.1
-5 9 -10 3.5 1.1
-5 9 -10 2.9 1
5 9 10 2.3 1.4
-7 -9 -10 1.5 1.5
7 9 -10 1.2 0.4
-7 -9 -10 1.2 1
-7 9 -10 1.8 1.2
-7 9 -10 1.2 1.1
9 9 -10 -0.2 0.4
9 -9 10 -0.3 1
-9 -9 -10 0.1 1.4
-9 -9 -10 0.3 1.1
9 9 -10 -0.2 0.4
-9 9 -10 -1.3 1.3
-9 9 -10 -0.1 0.9
-9 9 -10 -0.6 1.3
-11 -9 -10 -0.1 1.7
11 9 -10 0.3 0.4
11 9 -10 0.4 0.4
11 -9 10 -0.6 1
-11 -9 -10 -1.8 1.4
-11 9 -10 -0.4 1.4
-11 9 -10 0.3 1.4
-13 -9 -10 -0.1 1.3
13 -9 -10 0 0.8
-13 9 -10 -0.9 1.2
0 10 -10 3244.78 214.98
0 10 -10 3313.87 205.58
2 10 -10 1257.27 73.89
-2 -10 -10 1457.75 72.59
2 10 -10 1353.56 86.69
-2 10 -10 1403.26 86.69
-2 10 -10 1415.36 90.59
2 10 10 1386.16 58.79
4 10 -10 276.07 18.4
4 10 -10 275.37 15.4
4 10 -10 294.57 15.3
-4 10 -10 257.67 15.6
-4 10 -10 310.07 19.2
4 10 10 292.77 13.6
-4 10 -10 293.37 18.5
6 10 -10 152.88 8.6
6 10 -10 141.59 9.2
-6 10 -10 169.68 11
-6 10 -10 160.68 8.9
8 10 -10 68.69 3.7
8 -10 10 71.29 4
8 10 -10 62.19 3.8
-8 10 -10 61.99 5.2
-8 10 -10 70.19 4.3
-8 10 -10 58.09 4
10 10 -10 51.29 3.1
-10 -10 -10 54.99 3.7
10 -10 10 51.39 3.4
10 10 -10 53.19 3
-10 10 -10 51.99 3.7
-10 10 -10 46.2 3.3
12 10 -10 15 1.1
12 -10 10 15.3 1.7
-12 -10 -10 15.5 2.1
12 10 -10 16.3 1.1
12 -10 -10 17.1 1.7
-12 10 -10 15.4 2.1
1 11 -10 587.64 36.3
1 11 -10 518.85 30.8
-1 11 -10 588.34 37.8
-1 11 -10 589.94 36.3
3 11 -10 190.48 12.4
-3 11 -10 165.78 10.4
3 11 10 183.58 9.4
-3 11 -10 198.88 12.5
-3 11 -10 203.88 12.8
5 11 -10 79.69 4.9
5 11 -10 72.19 5.1
5 11 -10 74.39 4.3
5 11 -10 73.79 5.5
-5 11 -10 76.09 4.6
-5 11 -10 86.89 5.7
5 11 10 69.59 5
7 11 -10 54.19 3
7 11 -10 50.59 3.1
-7 11 -10 53.19 3.6
-7 11 -10 56.39 4.4
9 -11 10 25.5 2
9 11 -10 23.5 1.6
9 11 -10 25.8 1.6
-9 11 -10 25.9 2.5
-9 11 -10 20.2 2.7
-9 11 -10 23.1 1.9
11 11 -10 10.8 0.9
11 -11 10 8.5 1.5
11 11 -10 10.5 0.9
-11 11 -10 8 1.7
-11 11 -10 5.5 1.9
13 -11 10 3 1.2
13 -11 -10 2 0.9
-13 11 -10 1.6 1.2
0 12 -10 288.17 17.5
0 12 -10 321.77 21.5
0 12 -10 358.56 20.9
2 12 -10 169.78 10.2
2 12 -10 199.28 12.4
2 12 10 178.68 9.3
-2 12 -10 213.48 12.4
-2 12 -10 193.78 12.7
-2 12 -10 165.38 10.3
4 12 -10 83.69 6.3
-4 12 -10 90.79 6.4
-4 12 -10 98.79 6.4
4 12 10 94.49 5.6
-4 12 -10 81.79 5.2
6 12 -10 58.99 3.3
-6 12 -10 60.19 3.7
-6 12 -10 55.69 4.5
8 -12 10 47.7 2.9
8 12 -10 42.8 2.7
8 12 -10 47.7 2.6
-8 12 -10 42.9 2.9
-8 12 -10 36.7 3.8
-8 12 -10 47.9 3.3
10 -12 10 15.2 1.7
10 12 -10 14.4 1.1
10 12 -10 15 1.1
-10 12 -10 15.8 2.2
-10 12 -10 15.6 1.6
12 -12 10 4.3 1.3
12 12 -10 6.1 0.7
-12 12 -10 3.7 1.3
12 -12 -10 5 1.2
1 13 -10 536.35 31.5
1 13 -10 443.26 26.5
-1 13 -10 439.76 26.5
-1 13 -10 532.35 31.5
-1 13 -10 507.25 32.6
3 13 -10 369.76 23.6
-3 13 -10 384.06 23.6
-3 13 -10 379.76 24.4
-3 13 -10 329.37 19.8
3 13 10 365.06 17
5 13 -10 240.58 13.5
5 13 -10 237.38 16.1
-5 13 -10 257.17 16.7
-5 13 -10 247.28 13.6
7 13 -10 152.48 8.1
7 13 -10 143.79 8.5
-7 13 -10 140.49 10.4
-7 13 -10 151.28 8.5
9 13 -10 66.89 3.9
9 -13 10 68.39 4.2
9 13 -10 68.29 3.8
-9 13 -10 68.49 4.4
-9 13 -10 60.99 4.1
11 -13 10 23.8 2
11 13 -10 21 1.5
11 13 -10 23.7 1.5
-11 13 -10 22.8 1.9
-11 13 -10 18.5 2.3
11 -13 -10 22.6 1.9
13 -13 -10 4.1 0.9
0 14 -10 19.3 1.6
0 14 -10 21.3 2.2
2 14 -10 16.5 2
2 14 -10 14 1.3
-2 14 -10 15.7 1.4
-2 14 -10 13.4 1.9
2 14 10 13.7 2.2
-2 14 -10 14.7 1.6
4 14 -10 10.4 0.8
4 14 -10 8.8 1.6
-4 14 -10 9.1 0.9
-4 14 -10 11.4 1.3
-4 14 -10 10.2 1.4
-4 14 -10 7.6 1.5
6 14 -10 6.4 0.7
6 14 -10 7.6 0.7
-6 14 -10 7 1.4
-6 14 -10 6.1 1.5
8 14 -10 3.3 0.5
8 14 -10 4.8 0.7
8 -14 10 5.7 1.2
-8 14 -10 1.8 1.4
-8 14 -10 3.6 0.9
-8 14 -10 3.7 1.4
10 14 -10 0.5 0.5
10 -14 10 0 1.2
10 14 -10 1.2 0.5
-10 14 -10 -0.5 1.2
-10 14 -10 0.6 1
12 -14 10 1 0.9
12 14 -10 0 0.4
12 -14 -10 0.7 0.9
1 15 -10 167.98 10.4
1 15 -10 137.39 8.3
1 15 -10 141.19 8.4
1 15 10 142.59 7.9
-1 15 -10 142.09 8.4
-1 15 -10 161.08 8.4
-1 15 -10 156.08 10.4
-1 15 -10 162.18 10.3
3 15 -10 190.68 10.9
3 15 -10 218.68 13.3
3 15 10 194.68 10.5
-3 15 -10 204.98 13.5
-3 15 -10 188.98 11
-3 15 -10 204.68 13.2
-3 15 -10 184.38 10.9
5 15 -10 152.18 10.2
5 15 -10 136.19 8.6
5 15 -10 153.38 8.3
-5 15 -10 158.88 10.2
-5 15 -10 145.59 8.3
-5 15 -10 154.38 10.5
-5 15 -10 149.19 8.5
7 15 -10 83.19 4.3
7 15 -10 75.19 4.5
-7 15 -10 78.49 4.8
-7 15 -10 65.29 5.8
-7 15 -10 76.99 4.8
9 15 -10 74.49 4.2
9 -15 10 70.79 4.5
9 15 -10 71.99 4.1
-9 15 -10 70.99 4.6
-9 15 -10 67.09 4.4
11 15 -10 17.7 1.3
11 -15 10 18.3 1.8
11 15 -10 20 1.3
11 -15 -10 19.2 1.8
-11 15 -10 20.9 1.7
0 16 -10 35.4 2.4
0 16 -10 34.1 2.1
0 16 -10 40 3.3
2 16 -10 163.18 10.5
2 16 -10 142.79 8.4
2 16 10 141.79 8.4
-2 16 -10 164.48 10.5
-2 16 -10 165.78 10.5
-2 16 -10 148.59 8.5
-2 16 -10 140.29 8.4
4 16 -10 56.69 4.6
4 16 -10 58.49 3.2
-4 16 -10 55.99 3.6
-4 16 -10 60.59 4.6
-4 16 -10 53.99 3.3
-6 16 10 49.1 3.3
6 16 -10 52.79 2.9
6 16 -10 50.19 3
-6 16 -10 49.4 3.4
8 16 -10 44.7 2.6
8 16 -10 43.2 2.5
-8 16 -10 37.3 2.8
10 16 -10 17.4 1.3
10 16 -10 20.1 1.3
10 -16 10 19.6 1.8
-10 16 -10 19.8 1.7
12 -16 10 2.7 1.2
12 16 -10 4.2 0.6
12 -16 -10 2.3 0.9
1 17 -10 19.7 1.3
1 17 -10 19.3 1.6
1 17 -10 23 2.5
-1 17 -10 20.1 1.3
-1 17 -10 25 2.5
3 17 -10 54.69 3.1
3 17 -10 56.99 4.6
-3 17 -10 53.49 3.2
-3 17 -10 55.69 4.4
5 17 -10 8.6 0.8
-5 17 10 8.1 1.2
5 17 -10 8.2 0.7
5 17 -10 6.8 1.6
-5 17 -10 9.2 0.9
-5 17 -10 8.9 1.7
-7 17 10 51.89 3.5
7 17 -10 50.99 2.9
7 17 -10 51.09 3
-7 17 -10 47.2 3.2
9 -17 10 13.2 1.6
9 17 -10 12.9 1.1
9 17 -10 12.2 1.1
-9 17 -10 14 1.5
11 -17 10 3.6 1.2
11 17 -10 5.6 0.7
11 -17 -10 3.9 1.1
-11 17 -10 4.8 0.9
0 18 -10 88.29 5.2
0 18 -10 99.49 6.9
2 18 -10 72.79 4.3
2 18 -10 78.69 5.9
-2 18 -10 72.49 4.3
-2 18 -10 84.49 5.9
4 18 -10 74.09 3.9
4 18 -10 62.39 4
-4 18 10 64.49 4.2
4 18 -10 68.89 5.4
-4 18 -10 74.59 5.4
-4 18 -10 70.49 3.9
-6 18 10 105.19 6.5
6 18 -10 113.29 6.1
6 18 -10 110.29 6.4
-6 18 -10 109.49 6.2
8 18 -10 89.79 5
8 18 -10 84.09 4.8
-8 18 -10 80.69 5.1
10 18 -10 22.3 1.6
10 -18 10 24.4 2
10 18 -10 26.7 1.6
-10 18 -10 25.5 1.9
10 -18 -10 23.1 2
1 19 -10 7.3 0.7
1 19 -10 4.9 1.5
-1 19 -10 6.7 0.8
-1 19 -10 6.3 1.5
-3 19 10 4.1 0.7
3 19 -10 4.1 0.5
3 19 -10 2.5 1.4
3 19 -10 4.4 0.5
-3 19 -10 3.1 1.3
-3 19 -10 3.6 0.6
5 19 -10 5.9 1.7
-5 19 10 5.6 0.9
5 19 -10 5.2 0.6
-5 19 -10 5 1.5
7 19 -10 3.2 0.6
-7 19 10 4.6 1.5
-7 19 -10 3.7 0.8
9 19 -10 3 0.5
9 -19 10 4.9 1.3
-9 19 -10 4.8 0.9
9 -19 -10 3.4 1.2
11 19 -10 0.7 0.4
11 -19 10 0.1 1.3
11 -19 -10 0.7 0.8
-11 19 -10 0.4 0.8
0 20 -10 157.18 8.8
0 20 -10 159.18 11
-2 20 10 9.6 1.2
2 20 -10 10.2 1.9
2 20 -10 8.8 0.8
2 20 -10 10 0.9
-2 20 -10 7.6 1.7
-2 20 -10 9.4 0.9
-4 20 10 90.69 5.6
4 20 -10 90.39 7
4 20 -10 98.39 5.3
4 20 -10 87.09 5.4
-4 20 -10 96.39 5.3
-4 20 -10 99.59 7
6 20 -10 72.49 4.2
6 20 -10 73.79 4.1
-6 20 10 68.39 4.4
-6 20 -10 71.59 4.1
-6 20 -10 70.49 4.3
8 20 -10 30.7 1.9
8 20 -10 27.3 1.8
-8 20 -10 29.1 2.1
8 -20 -10 26.8 2.2
10 -20 10 22 2
10 20 -10 23.7 1.7
10 20 -10 26.1 1.6
-10 20 -10 24.1 1.8
10 -20 -10 22.3 1.9
-1 21 10 63.89 3.8
1 21 -10 63.39 3.5
1 21 -10 65.19 5.2
1 21 -10 54.99 3.6
-1 21 -10 61.99 5.1
-1 21 -10 61.29 3.6
3 21 -10 39.7 2.5
-3 21 10 37.4 2.7
3 21 -10 43.1 2.5
3 21 -10 46.8 4.1
-3 21 -10 43.5 3.9
-3 21 -10 41.5 2.5
-5 21 10 32.7 2.4
5 21 -10 29.9 3.4
5 21 -10 38.1 2.2
5 21 -10 37.6 2.2
-5 21 -10 33.5 2.3
-5 21 -10 34.6 2.2
-5 21 -10 34 3.4
7 21 -10 24.2 1.5
7 21 -10 21 1.5
7 -21 -10 19.6 2.2
-7 21 -10 20.2 1.6
-7 21 -10 20.4 1.7
9 21 -10 14.8 1.2
9 -21 10 14.8 1.6
9 21 -10 17.9 1.2
9 -21 -10 12.9 1.6
-9 21 -10 14.8 1.5
0 22 -10 13.8 2.3
0 22 -10 13.3 1
0 22 -10 14.5 1.2
2 22 -10 20 2.8
-2 22 10 20.7 1.7
2 22 -10 22.6 1.4
2 22 -10 20.1 1.4
-2 22 -10 21.3 1.5
-2 22 -10 19.2 1.4
-2 22 -10 18.9 2.6
4 22 -10 10.7 1
4 22 -10 5.5 1.7
-4 22 10 11.1 1.2
4 22 -10 9.3 0.9
-4 22 -10 9.6 1.1
-4 22 -10 7.6 1.7
-4 22 -10 8.4 1
6 22 -10 2.4 0.5
-6 22 10 2.9 1
6 22 -10 1.4 0.5
-6 22 -10 2.6 0.6
-6 22 -10 2.6 0.7
8 22 -10 2.5 0.5
8 22 -10 2.1 0.5
8 -22 10 3.6 1.2
-8 22 -10 3.6 0.8
8 -22 -10 2.3 1.5
10 22 -10 1.3 0.4
-10 22 -10 2.6 0.8
10 -22 -10 2.2 0.9
-1 23 10 142.39 9.6
1 23 -10 130.49 8
1 23 -10 133.49 9.9
1 23 -10 145.39 7.7
-1 23 -10 136.69 9.8
-1 23 -10 143.49 7.7
-1 23 -10 132.79 8
3 23 -10 127.79 9.9
3 23 -10 149.69 7.7
-3 23 10 140.69 8.1
3 23 -10 135.09 8
-3 23 -10 133.19 8
-3 23 -10 136.29 9.8
-3 23 -10 143.09 7.8
-5 23 10 27.1 2.1
5 23 -10 29.3 1.8
5 23 -10 27.3 1.8
5 23 -10 20 2.9
-5 23 -10 26.5 1.8
-5 23 -10 27.9 1.9
7 23 -10 31.1 1.9
7 23 -10 28.6 1.9
-7 23 -10 28.8 2.1
9 -23 10 16.1 1.6
9 23 -10 13.8 1.2
9 23 -10 19.7 1.2
-9 23 -10 16 1.5
0 24 -10 27.5 1.8
0 24 -10 24.6 3.1
0 24 -10 26.7 1.7
0 24 10 26.1 2.9
-2 24 10 30.4 2.2
2 24 -10 28.1 1.8
2 24 -10 28.9 1.9
2 24 -10 26 3.2
-2 24 -10 23.5 3
-2 24 -10 29.9 1.9
-2 24 -10 27.8 1.9
4 24 -10 15.7 1.2
-4 24 10 15 1.7
4 24 -10 13.9 1.2
-4 24 -10 14.3 1.3
-4 24 -10 9.7 2
-4 24 -10 15.1 1.3
6 24 -10 7.4 0.9
6 24 -10 8.8 0.9
-6 24 -10 7.5 1
-6 24 -10 6.8 0.9
8 24 -10 1.5 0.4
8 24 -10 2.6 0.5
8 -24 10 3 1.1
-8 24 -10 2.5 0.8
1 25 -10 81.59 4.8
-1 25 10 77.09 6.1
1 25 -10 78.89 6.4
1 25 -10 85.39 4.7
-1 25 -10 80.79 4.8
1 25 10 83.19 6.2
-1 25 -10 71.69 6.3
-1 25 -10 84.99 4.7
3 25 -10 71.89 3.9
3 25 -10 56.79 5.4
3 25 -10 67.59 4
-3 25 -10 58.49 5.3
-3 25 -10 71.79 3.9
-3 25 -10 68.89 4
5 25 -10 45.2 2.8
5 25 -10 45.9 2.7
-5 25 -10 45 2.8
-5 25 -10 45.4 2.9
7 25 -10 17.5 1.3
7 25 -10 20.6 1.4
-7 25 -10 19.5 1.6
0 26 -10 104.59 5.5
0 26 -10 85.69 7.2
0 26 10 90.59 7
0 26 -10 96.79 5.6
2 26 -10 84.09 4.9
2 26 -10 73.89 6.5
2 26 -10 87.59 4.7
-2 26 -10 88.09 4.8
-2 26 -10 71.39 6.3
2 26 10 78.49 6.3
-2 26 -10 86.79 4.9
4 26 -10 80.49 4.8
4 26 -10 81.49 4.6
-4 26 -10 79.19 4.8
-4 26 -10 82.29 4.7
6 26 -10 42 2.4
6 26 -10 37.4 2.4
-6 26 -10 37.3 2.4
-6 26 -10 38.8 2.5
8 26 -10 13.8 1.1
8 26 -10 18.3 1.2
-8 26 -10 17.1 1.4
1 27 -10 10.1 1.1
1 27 -10 11 1
-1 27 -10 10.9 1.1
-1 27 -10 12.1 1.1
3 27 -10 12.6 1.1
3 27 -10 9.4 1.1
-3 27 -10 12.9 1.2
-3 27 -10 11.7 1.2
5 27 -10 9 0.9
5 27 -10 8.8 1
-5 27 -10 9.4 1.2
-5 27 -10 10.5 1.1
7 27 -10 1 0.4
7 27 -10 1.3 0.4
-7 27 -10 2.4 0.7
0 28 -10 71.39 4.1
0 28 -10 68.59 4.2
2 28 -10 78.59 4.8
2 28 -10 77.59 4.6
-2 28 -10 83.49 4.6
-2 28 -10 82.59 4.8
4 28 -10 79.99 4.7
-4 28 -10 78.29 4.7
-4 28 -10 79.89 4.6
-6 28 -10 40.8 2.6
1 29 -10 18.1 1.4
1 29 -10 21.6 1.5
-1 29 -10 19.4 1.5
-1 29 -10 20.4 1.5
3 29 -10 19.9 1.4
3 29 -10 17.6 1.4
-3 29 -10 20.8 1.4
-3 29 -10 19.1 1.5
5 29 -10 15.6 1.2
5 29 -10 16.2 1.2
-5 29 -10 16.6 1.4
-5 29 -10 16.5 1.3
0 30 -10 24.7 1.7
0 30 -10 24.8 1.6
2 30 -10 27.3 1.8
2 30 -10 25 1.7
-2 30 -10 27.3 1.8
-2 30 -10 27.2 1.8
1 31 -10 29.9 1.9
-1 31 -10 31.4 1.9
0 0 -11 0 0.5
-2 0 -11 0.4 0.5
2 0 -11 -0.4 0.5
2 0 -11 0 0.8
2 0 11 0 0.7
-4 0 -11 0.6 0.7
4 0 -11 -0.1 0.9
4 0 -11 1.3 0.9
4 0 11 0.2 0.9
6 0 -11 2.7 0.8
6 0 11 3.3 0.7
-6 0 -11 4.9 1.2
-6 0 -11 1.9 1.1
6 0 11 3.2 1.4
8 0 11 3.3 0.9
-8 0 -11 3.3 1.4
8 0 -11 1.2 0.9
-8 0 -11 2.1 1.3
-10 0 -11 1.5 1.5
10 0 -11 3.3 1.1
-10 0 -11 6 1.8
-12 0 -11 1.4 1.5
-12 0 -11 1.9 1.6
-14 0 -11 1.6 1.2
14 0 -11 1.4 0.4
-14 0 11 0.4 1.1
-1 -1 -11 5.6 0.8
1 1 -11 3.9 0.7
1 -1 -11 5.2 1.1
-1 1 -11 4.1 0.7
1 -1 -11 4.5 0.8
1 -1 -11 5.5 0.8
-3 -1 -11 3.2 0.8
3 1 -11 3.4 0.9
3 -1 11 2.3 1
3 1 -11 2.2 1.1
3 1 11 2.5 1.1
3 -1 -11 2.6 0.9
3 -1 -11 1.6 1.2
-3 1 -11 3.5 0.8
5 1 -11 3 1.5
-5 -1 -11 3.8 0.9
-5 -1 -11 6.6 1.2
5 -1 11 5.5 1.5
-5 -1 -11 8.3 1.3
-5 -1 -11 4.7 1.1
5 1 -11 3.5 1.2
-5 1 -11 5.2 1.1
5 1 11 3.9 1.5
-5 1 -11 7.1 1.3
5 -1 -11 4.4 1.4
-7 -1 -11 2.3 1.1
7 -1 11 2.1 1.4
-7 -1 -11 2.6 1.2
-7 -1 -11 1.7 0.9
-7 -1 -11 3.1 1.2
7 1 -11 3.1 0.9
7 -1 11 3.4 0.8
-7 1 -11 1.3 1.2
7 -1 -11 1.9 0.9
7 1 11 1.2 1.4
-7 1 -11 3.1 1.3
7 1 11 3.5 0.9
9 1 -11 3.2 0.5
-9 -1 -11 2.7 1.5
9 1 -11 3.5 1
-9 -1 -11 3.3 1.5
9 -1 11 3.9 1.1
-9 1 -11 4.1 1.6
9 -1 -11 4 0.5
-9 1 -11 2.3 1.4
9 -1 -11 3.4 1
11 1 -11 -0.5 0.5
-11 -1 -11 1.9 1.8
-11 -1 -11 -0.8 1.4
11 -1 -11 0.8 1
-11 1 -11 0.1 1.6
-11 1 -11 0.4 1.4
11 -1 -11 -0.7 0.5
-13 -1 -11 -0.6 1.4
13 1 -11 -0.3 0.4
-13 1 -11 0.2 1.3
13 -1 -11 -0.3 0.4
0 2 -11 0.8 0.5
0 -2 -11 1.5 0.8
0 -2 -11 1.1 0.6
0 -2 -11 1 0.5
-2 -2 -11 1.4 0.7
-2 -2 -11 0.7 0.5
2 -2 11 1.1 0.8
-2 -2 -11 0.9 0.5
2 2 11 1.2 0.9
2 -2 -11 0.6 0.9
2 -2 -11 1.1 0.7
-2 2 -11 0.7 0.6
-4 -2 -11 10.1 1.5
4 -2 11 11.2 1.7
4 2 -11 10.6 1.5
-4 -2 -11 9.5 1.2
-4 -2 -11 10.8 1.2
4 2 -11 9.1 1.9
4 2 11 9.2 0.9
4 -2 -11 8.7 1.5
4 -2 -11 7.2 1.9
4 2 11 11.7 1.8
-4 2 -11 10.5 1.3
6 -2 11 4.4 1.6
-6 -2 -11 3.6 1.1
6 2 -11 7.2 1
-6 -2 -11 6.7 1.4
-6 -2 -11 7.2 1.3
6 -2 11 6.2 0.9
6 2 -11 5.2 1.4
-6 -2 -11 5.8 1.5
-6 2 -11 8.9 1.4
-6 2 -11 6.5 1.4
6 2 11 7.6 1
6 -2 -11 5.4 1
6 2 11 5.5 1.7
8 2 -11 8.8 0.7
8 -2 11 7.2 1.1
-8 -2 -11 7.7 1.6
-8 -2 -11 5.8 1.6
8 2 -11 8.8 1.2
8 -2 -11 6.8 1.1
-8 2 -11 10.4 1.7
-8 2 -11 6.4 1.7
10 2 -11 2.5 1.5
-10 -2 -11 3.1 1.7
10 -2 11 3.4 1.2
-10 -2 -11 2.2 1.5
10 -2 -11 3.7 1.1
-10 2 -11 0.3 1.4
-10 2 -11 1.9 1.7
10 -2 -11 3.1 0.5
12 2 -11 2 0.5
-12 -2 -11 4.9 1.7
12 2 -11 2 0.5
-12 -2 -11 0.8 1.4
-12 2 -11 1.2 1.5
12 -2 -11 2.3 1
-12 2 -11 0.8 1.4
-14 -2 -11 0.5 1.2
14 -2 -11 0.4 0.3
-14 2 -11 0.3 1.2
-1 -3 -11 6.7 0.8
1 -3 11 8.7 1.2
-1 -3 -11 6.2 1.1
1 3 -11 7.1 0.9
1 -3 -11 9.6 1.5
1 -3 -11 9.3 1.3
-1 3 -11 6.8 0.9
-3 -3 -11 8.1 1.2
-3 -3 -11 8.8 1.5
-3 -3 -11 7.2 0.9
3 -3 11 10.8 1.5
3 3 -11 6.8 1.1
3 3 -11 6.6 1.3
3 -3 -11 5.2 1.5
-3 3 -11 7.1 1
3 3 11 6.3 1.4
3 -3 -11 8.7 1.5
5 3 -11 1.1 1.2
-5 -3 -11 4.4 1.1
-5 -3 -11 2 1
5 -3 11 3.2 1.4
5 3 -11 2.1 1
-5 -3 -11 2.5 1
5 -3 11 4.4 0.7
-5 -3 -11 1.7 1.2
-5 3 -11 3.3 1
5 -3 -11 1.7 1.1
5 -3 -11 2.5 1
5 3 11 1.6 1.3
-5 3 -11 4.8 1.1
7 -3 11 3.1 0.8
-7 -3 -11 1.6 1.4
-7 -3 -11 0.9 1
7 -3 11 0.7 1.3
-7 -3 -11 1.3 1.1
7 3 -11 1.6 0.8
-7 -3 -11 2.4 1.3
7 -3 -11 1.9 0.8
-7 3 -11 1.4 1.2
-7 3 -11 1.1 1.2
9 -3 11 13 1.5
9 3 -11 10.4 1.6
9 3 -11 12.3 0.9
-9 -3 -11 11.6 1.9
9 -3 -11 11.9 1.5
-9 3 -11 13.9 2
9 -3 -11 13.3 0.9
-9 3 -11 10.1 2.1
-11 -3 -11 1.4 1.5
-11 -3 -11 4.2 1.8
-11 3 -11 4 1.7
11 -3 -11 3.8 1.1
-11 3 -11 0.6 1.4
-13 -3 -11 1.6 1.4
13 3 -11 1.4 0.4
13 -3 -11 1.7 1
-13 3 -11 2.6 1.4
0 -4 -11 2.1 0.9
0 4 -11 2.9 0.7
0 -4 -11 3.1 0.9
2 4 -11 1.3 0.7
-2 -4 -11 1.8 0.6
2 -4 11 1.4 0.8
-2 -4 -11 1.1 0.7
-2 -4 -11 0.7 0.9
2 4 11 -0.2 0.8
2 -4 -11 0.8 1
2 -4 -11 1.8 0.9
-2 4 -11 1.8 0.7
4 -4 11 4.4 1.3
4 4 -11 2.9 1
-4 -4 -11 5.8 1
-4 -4 -11 2.5 1.5
-4 -4 -11 3.3 1.1
4 4 -11 2.5 1.2
4 -4 -11 4.4 1.3
4 4 11 5.2 1.5
4 -4 -11 2 1.8
-4 4 -11 5.5 1.1
-4 4 -11 3.8 1.1
6 4 -11 2.3 0.8
-6 -4 -11 1.6 1
6 -4 11 2.5 0.8
-6 -4 -11 0.9 1.3
6 -4 11 2.6 1.3
-6 -4 -11 1.9 1
6 4 -11 0.8 1.1
-6 -4 -11 2.7 1.2
-6 4 -11 2.4 1.1
-6 4 -11 1.2 1
6 4 11 1.3 1.4
8 4 -11 -0.7 1.1
-8 -4 -11 -0.6 1.3
-8 -4 -11 -0.3 1
8 4 -11 -0.6 0.3
8 -4 11 0.2 0.9
-8 4 -11 -0.4 1.2
-8 4 -11 -1.3 1.2
10 4 -11 0.7 0.5
10 -4 11 0 1
-10 -4 -11 0.3 1.3
10 4 -11 0.5 0.4
-10 -4 -11 0.6 1.5
-10 4 -11 0.3 1.4
10 -4 -11 -0.8 0.5
-10 4 -11 0.2 1.5
10 -4 -11 0.1 1.1
-12 -4 -11 1.1 1.4
12 4 -11 -0.8 0.4
-12 -4 -11 0.4 1.7
12 4 -11 -0.6 0.4
-12 4 -11 0.8 1.5
12 -4 -11 -0.5 1
-12 4 -11 0.4 1.4
-14 -4 -11 -1.1 1.2
-14 4 -11 -1 1.1
14 -4 -11 -0.4 0.3
-1 -5 -11 62.59 4.2
1 5 -11 69.29 4.6
1 5 -11 64.39 4.5
1 -5 11 67.69 3.3
-1 -5 -11 63.19 4.7
-1 -5 -11 66.69 4.3
1 -5 -11 72.89 4.4
-1 5 -11 57.89 4.5
-1 5 -11 61.39 4.6
1 -5 -11 63.39 4.4
3 5 -11 257.87 13.1
3 5 -11 251.37 13
3 -5 11 243.18 11.1
3 5 -11 233.18 15.7
-3 -5 -11 249.38 13.8
-3 -5 -11 233.28 16.3
-3 -5 -11 242.58 13.5
3 -5 -11 243.88 13.8
-3 5 -11 248.48 16.4
3 -5 -11 240.58 14.1
3 5 11 252.67 11.5
-5 -5 -11 12.7 1.6
-5 -5 -11 17 2.6
-5 -5 -11 10.5 1.9
5 5 -11 13.1 1.8
5 5 -11 9.6 1.9
5 -5 11 11.8 1.8
-5 -5 -11 14 1.5
5 5 11 12.1 2.1
-5 5 -11 12.7 1.6
-5 5 -11 12.6 1.4
7 -5 11 8.1 1
-7 -5 -11 4.7 1.9
-7 -5 -11 4.7 1.4
-7 -5 -11 12 1.6
-7 5 -11 5.3 1.5
-7 5 -11 7.7 1.5
-9 -5 -11 10.7 2
9 5 -11 13.5 1
9 -5 11 10.5 1.5
9 5 -11 14.9 1
9 -5 -11 12.7 1
9 -5 -11 13.3 1.6
-9 5 -11 9.3 1.9
11 5 -11 17.3 1.3
11 5 -11 20.2 1.3
11 -5 11 16.2 1.8
-11 -5 -11 18.4 2.3
-11 5 -11 17.8 2.3
11 -5 -11 18.1 1.8
-13 -5 -11 2.6 1.4
13 -5 -11 2.7 1
-13 5 -11 2.6 1.3
0 6 -11 3.5 0.8
0 -6 -11 3.1 1.1
0 6 -11 2.8 0.9
0 -6 11 3.7 0.7
0 -6 -11 1.4 0.8
2 6 -11 82.59 6
2 -6 11 93.19 4.4
-2 -6 -11 91.49 5.6
-2 -6 -11 98.79 5.9
-2 -6 -11 85.19 6.1
-2 6 -11 93.49 6.2
2 -6 -11 93.69 5.8
2 6 11 90.59 4.9
2 -6 -11 73.89 5.7
-4 -6 -11 3.8 1.5
4 6 -11 1.5 0.8
4 6 -11 2.3 1.1
-4 -6 -11 2.1 1
4 -6 11 1.4 1
4 6 -11 2 0.7
-4 -6 -11 4.1 0.9
-4 6 -11 4.1 1
4 6 11 4.2 1.5
-4 6 -11 3.4 1
-6 -6 -11 4.6 1.9
6 6 -11 2.9 1.3
6 6 -11 3.9 0.7
-6 -6 -11 6.4 1.3
-6 -6 -11 4.9 1.2
6 6 11 4 1.6
-6 6 -11 4 1.2
-6 6 -11 4.9 1.4
8 -6 11 2.6 0.9
8 6 -11 1.8 0.4
8 6 -11 2.3 0.4
-8 -6 -11 1.3 1.1
-8 -6 -11 2.4 1.4
-8 6 -11 1.1 1.3
8 -6 -11 1.9 0.4
-8 6 -11 0.6 1.2
-10 -6 -11 1.8 1.6
10 6 -11 0.9 0.5
10 -6 11 1.6 1
10 6 -11 1 0.4
-10 -6 -11 1.8 1.5
10 -6 -11 2.2 1.1
-10 6 -11 0.6 1.4
-10 6 -11 0.9 1.5
-12 -6 -11 0.7 1.7
12 6 -11 0.5 0.4
12 6 -11 1 0.4
-12 -6 -11 0.5 1.5
12 -6 11 0.8 1.3
-12 6 -11 0 1.3
12 -6 -11 1.3 1
-12 6 -11 0.6 1.4
14 -6 -11 -0.3 0.7
14 -6 -11 0 0.3
-14 6 -11 -0.5 1.1
1 7 -11 234.18 15.3
-1 -7 -11 239.28 13
-1 -7 -11 217.98 12.7
1 7 -11 222.38 14.7
-1 7 -11 229.08 15.3
1 -7 -11 240.08 12.9
-1 7 -11 213.88 14.7
-3 -7 -11 2.9 1
3 7 -11 3.6 0.9
3 7 -11 4.7 0.8
-3 -7 -11 3.8 0.9
-3 -7 -11 1.6 1.3
3 7 11 1.5 1.1
-3 7 -11 3.8 0.9
-3 7 -11 3.8 1
3 -7 -11 2.4 1.2
5 7 -11 12.1 1.6
-5 -7 -11 13.6 2.5
-5 -7 -11 12.3 1.4
5 7 -11 9.1 1.8
-5 7 -11 9.5 1.4
5 7 11 12 2.3
-5 7 -11 11.5 1.5
-7 -7 -11 3.5 1.3
7 7 -11 5.6 0.6
7 -7 11 6.1 1
-7 -7 -11 4.8 1.3
-7 7 -11 4.6 1.3
-7 7 -11 3.8 1.4
9 -7 11 3.5 1.1
9 7 -11 6.1 0.7
-9 -7 -11 1.2 1.3
-9 -7 -11 4.5 1.7
-9 7 -11 4.4 1.6
-9 7 -11 4.3 0.9
-9 7 -11 1.2 1.4
9 -7 -11 4.5 0.7
-11 -7 -11 2.6 1.6
11 -7 11 4.8 1.3
11 7 -11 5.3 0.8
11 7 -11 6.5 0.7
-11 -7 -11 4.5 1.7
-11 7 -11 1.7 1.6
-11 7 -11 4.9 1.6
11 -7 -11 4.5 1.3
-13 -7 -11 0.6 1.3
13 7 -11 0.6 0.4
13 -7 -11 0.5 0.9
-13 7 -11 0.5 1.3
0 -8 -11 0.8 1
0 8 -11 2.2 0.8
0 8 -11 2.8 1
0 -8 -11 2.2 1.1
2 8 -11 72.99 4.9
-2 -8 -11 73.49 5.1
-2 -8 -11 61.99 4.6
-2 8 -11 69.09 4.9
2 -8 -11 66.59 4.9
2 8 11 68.99 4.2
-2 8 -11 65.19 4.9
4 8 -11 1.5 0.7
4 8 -11 1.4 0.8
4 8 -11 1 0.7
-4 -8 -11 2.1 1.5
-4 8 -11 0.6 0.8
-4 8 -11 1.9 0.9
4 8 11 0 1.2
6 8 -11 1.3 1.3
6 8 -11 1.3 1.1
-6 -8 -11 1.7 1.1
-6 8 -11 2.1 1.1
-6 8 -11 2.5 1.2
8 -8 11 1.1 0.9
-8 -8 -11 3.1 1.4
-8 -8 -11 0.4 1.1
8 8 -11 1.5 0.4
8 8 -11 1.5 0.4
-8 8 -11 0.9 1.3
8 -8 -11 1.3 0.4
-8 8 -11 0 1.2
-8 8 -11 2.5 0.9
10 -8 11 10.3 1.5
10 8 -11 11.6 0.9
-10 -8 -11 8.3 1.8
10 8 -11 11.4 1
10 -8 -11 6.6 1.4
-10 8 -11 8.7 1.9
12 8 -11 1.1 0.4
12 8 -11 1 0.5
-12 -8 -11 2.1 1.7
12 -8 11 0.8 1
-12 8 -11 0.9 1.4
12 -8 -11 1.4 1
-12 8 -11 0.3 1.4
14 -8 -11 1.1 0.8
1 9 -11 44.7 3.4
-1 -9 -11 37.1 4.6
1 9 -11 47.8 3.5
-1 -9 -11 46.3 3.8
-1 9 -11 45.8 3.4
1 -9 -11 46 3.7
-1 9 -11 41.9 3.5
3 9 -11 7.2 1
-3 -9 -11 6 1.9
3 9 -11 6.1 1.2
-3 9 -11 6.1 1
-3 9 -11 6.4 1.2
3 9 11 3.9 1.5
-3 9 -11 5 1.1
5 9 -11 0.5 0.8
5 9 -11 0.6 0.8
5 9 11 -1.1 1.2
-5 9 -11 -0.3 0.9
-5 9 -11 -0.2 0.9
7 9 -11 0.2 0.3
7 9 -11 -0.3 0.3
-7 9 -11 0.6 1.1
-7 9 -11 -0.2 1.1
9 -9 11 0.7 1.1
9 9 -11 0.9 0.4
-9 -9 -11 0.4 1.3
-9 -9 -11 1.2 1.6
9 9 -11 0 0.4
-9 9 -11 0.1 1.4
-9 9 -11 -0.2 0.9
-9 9 -11 -0.1 1.4
11 9 -11 -0.8 0.4
-11 -9 -11 -0.3 1.6
11 -9 11 -0.8 1
11 9 -11 -0.5 0.4
-11 9 -11 0.5 1.4
-11 9 -11 -1.3 1.3
11 -9 -11 -0.9 1.1
-13 -9 -11 -0.7 1.2
13 -9 -11 0 0.8
-13 9 -11 -0.6 1.1
0 -10 -11 17.3 2.6
0 10 -11 16.2 1.8
0 10 -11 9.9 1.2
0 10 -11 13.8 1.5
2 10 -11 4.8 0.9
-2 -10 -11 3.1 1.5
2 10 -11 4.8 1.1
2 10 11 3.3 1.3
-2 10 -11 5.5 0.9
-2 10 -11 5.7 1.1
-2 10 -11 4.3 1.1
4 10 -11 101.79 6.9
-4 10 -11 91.79 5.7
4 10 11 99.89 5.9
-4 10 -11 107.99 7.1
6 10 -11 2.2 0.4
6 10 -11 0.9 1.2
-6 10 -11 3.6 1.2
-6 10 -11 2.7 1.2
8 10 -11 6.2 0.7
8 -10 11 4.5 1.1
8 10 -11 4.4 0.6
-8 10 -11 2.7 1.5
-8 10 -11 3.1 0.9
-8 10 -11 2.6 1.4
-10 -10 -11 0.3 1.6
10 10 -11 2.4 0.5
10 -10 11 2.4 1.3
-10 10 -11 -0.6 1.4
-10 10 -11 1.9 0.9
-10 10 -11 3.1 1.6
12 10 -11 1.8 0.4
12 10 -11 1.2 0.4
-12 -10 -11 0.7 1.6
12 -10 11 1.4 1.1
-12 10 -11 1.1 1.3
12 -10 -11 2.1 1
1 11 -11 10.1 1.1
1 11 -11 11.3 1.6
-1 11 -11 7.3 1.1
-1 11 -11 7.9 1.2
-1 11 -11 9.8 1.5
3 11 -11 14.1 1.8
3 11 11 11.4 2.1
-3 11 -11 13.2 1.4
3 -11 -11 15.1 1.6
-3 11 -11 13.7 1.8
-3 11 -11 15.7 1.6
5 11 -11 3.7 0.4
5 11 -11 1.9 1
-5 11 -11 2.3 1
-5 11 -11 3.4 1.2
7 11 -11 0.6 0.3
7 11 -11 1.1 0.4
7 -11 -11 0.8 0.5
-7 11 -11 0.1 1.2
-7 11 -11 0.2 1.1
9 11 -11 0.6 0.4
9 -11 11 1.1 1
9 11 -11 0.3 0.4
-9 11 -11 -0.7 1.3
-9 11 -11 -0.6 1.4
-9 11 -11 0.5 0.9
11 11 -11 1.4 0.5
11 11 -11 1.1 0.4
11 -11 11 1.9 1.2
-11 11 -11 0 1.3
11 -11 -11 0.6 1.1
-11 11 -11 0 1.4
13 11 -11 0 0.4
-13 11 -11 -0.3 1
13 -11 -11 0.5 0.8
0 12 -11 1.7 0.8
0 12 -11 2 1.1
0 12 -11 1.5 0.9
2 12 -11 19.3 1.5
2 12 -11 23.9 2.2
-2 12 -11 19.8 1.9
2 12 11 21.2 2.7
-2 12 -11 20 2.2
-2 12 -11 17.2 1.5
-2 12 -11 17.9 1.6
4 12 -11 4.9 0.5
4 12 -11 3.8 1.1
-4 12 -11 4.3 1.2
-4 12 -11 4.6 1.1
4 12 11 3.1 1.6
-4 12 -11 4.1 1.1
6 12 -11 0.8 0.3
6 12 -11 0.5 0.3
-6 12 -11 -0.8 1
-6 12 -11 -0.6 1
8 12 -11 2.5 0.5
8 12 -11 2.1 0.4
8 -12 11 2.8 1
-8 12 -11 1.5 0.9
-8 12 -11 2.2 1.4
-8 12 -11 0.2 1.3
10 12 -11 1.4 0.5
10 -12 11 0.8 1.4
10 12 -11 1.6 0.5
-10 12 -11 -0.2 1.4
-10 12 -11 0.1 0.9
-10 12 -11 1 1.5
12 12 -11 -0.1 0.4
12 -12 11 -0.2 1
12 12 -11 -0.2 0.4
12 -12 -11 -0.6 0.8
-12 12 -11 0 1.2
1 13 -11 12.7 1.7
1 13 -11 9.3 1.1
-1 13 -11 9.1 1.6
-1 13 -11 8.9 1
-1 13 -11 9.4 1.1
-1 13 -11 9.4 1.3
3 13 -11 4.6 0.5
3 13 -11 1.9 1
-3 13 -11 3.1 0.9
3 13 11 2.4 1.4
3 -13 -11 3.9 0.8
-3 13 -11 3 1
-3 13 -11 2.9 1.1
5 13 -11 6.8 0.6
5 13 -11 3.7 1.2
-5 13 -11 6.1 1.4
-5 13 -11 5.8 1.2
7 13 -11 10 0.8
7 13 -11 9.6 0.8
-7 13 -11 5.3 1.5
9 -13 11 3.2 1.3
-9 13 -11 2.8 1.5
-9 13 -11 3.2 1
-9 13 -11 -0.5 1.4
11 -13 11 3.6 1.3
11 13 -11 2.1 0.5
-11 13 -11 2.8 1
-11 13 -11 1.5 1.3
11 -13 -11 3 1.1
13 13 -11 0.2 0.3
13 -13 -11 0.9 0.8
0 14 -11 1.9 1
0 14 -11 1.4 0.8
0 14 -11 0.1 0.9
2 14 -11 4.7 0.9
2 14 -11 3.2 1.2
2 14 -11 3.7 0.5
-2 14 -11 5.3 1.1
-2 14 -11 4.8 1.3
-2 14 -11 5.7 1
2 14 11 4 1.5
4 14 -11 7 1.5
4 14 -11 7.5 0.7
-4 14 -11 7.5 0.8
-4 14 -11 10.3 1.7
-4 14 -11 9.2 1.4
-4 14 -11 8.7 1.4
6 14 -11 0.2 0.3
6 14 -11 0.2 0.3
-6 14 -11 0 1
-6 14 -11 -2 1
8 -14 11 1.4 1.1
8 14 -11 2.1 0.5
8 14 -11 2.2 0.5
-8 14 -11 1.9 1.4
-8 14 -11 1.6 1.4
-8 14 -11 1.9 0.9
10 -14 11 -2.3 1.1
10 14 -11 -0.5 0.4
10 14 -11 -0.5 0.4
-10 14 -11 -0.6 1.3
10 -14 -11 -1.2 1.1
-10 14 -11 -0.2 1.3
-10 14 -11 -1.1 0.9
12 -14 11 0.6 1.1
12 14 -11 -0.2 0.4
12 -14 -11 -0.7 0.8
1 15 -11 1.8 1.1
1 15 -11 1.8 0.8
1 15 -11 0.6 0.3
-1 15 -11 1.3 0.8
-1 15 -11 1.7 0.4
-1 15 -11 2.1 0.9
-1 15 -11 1.5 1
1 15 11 1.1 1.3
3 15 -11 51.49 3.1
3 15 -11 54.29 4.4
-3 15 -11 65.79 4.6
-3 15 -11 51.19 3.4
-3 15 -11 57.59 4.2
-3 15 -11 54.29 3.2
5 15 -11 2.6 0.4
5 15 -11 2.4 0.4
5 15 -11 1.3 1.1
-5 15 -11 0.8 1
-5 15 -11 2.1 1
7 15 -11 10.8 0.9
7 15 -11 9.4 0.9
-7 15 -11 6.1 1.6
9 15 -11 7.9 0.9
9 -15 11 6.9 1.4
-9 15 -11 7.9 1.1
-9 15 -11 4.6 1.5
11 15 -11 1.1 0.4
11 15 -11 1.4 0.4
11 -15 11 2.3 1.1
11 -15 -11 0.8 1.1
-11 15 -11 2.9 0.9
0 16 -11 -0.2 0.3
0 16 -11 0.1 0.7
0 16 -11 0.4 1
2 16 -11 13.2 1
2 16 -11 15.5 2.1
-2 16 -11 16.2 1.7
-2 16 -11 14.9 1.1
-2 16 -11 16.1 1.5
-2 16 -11 17.1 2.1
4 16 -11 3.2 0.5
4 16 -11 3.3 0.4
4 16 -11 2.6 1.3
-4 16 -11 3.2 1.1
-4 16 -11 4.2 1.2
4 -16 -11 5.2 1
-4 16 -11 3.5 0.5
-4 16 -11 4 1.3
6 16 -11 11.9 0.9
6 16 -11 10.3 0.9
-6 16 -11 8.7 1.6
-6 16 -11 7.4 2.3
8 16 -11 2 0.5
-8 16 -11 1.6 1.5
-8 16 -11 3.2 0.9
10 16 -11 1.4 0.5
10 16 -11 1.1 0.5
10 -16 11 0.9 1.2
-10 16 -11 1.8 0.9
10 -16 -11 -1.2 1.1
12 16 -11 0.1 0.4
12 -16 -11 0.9 0.9
1 17 -11 5 0.6
1 17 -11 7.4 1.1
1 17 -11 5.1 1.4
-1 17 -11 7.7 1.2
-1 17 -11 5.3 0.7
-1 17 -11 6.5 1.4
3 17 -11 4.7 1.4
3 17 -11 5.1 0.5
3 17 -11 4.7 0.6
-3 17 -11 5.9 0.7
-3 17 -11 4.8 1.4
-3 17 -11 6.5 1.2
5 17 -11 4.3 1.4
5 17 -11 4.7 0.6
5 17 -11 5.3 0.7
-5 17 -11 4.7 0.6
-5 17 -11 5 1.5
5 -17 -11 6.7 1.1
-5 17 -11 4.7 1.8
7 17 -11 0.8 0.5
7 17 -11 2 0.4
9 17 -11 1 0.5
9 -17 11 1.4 1.1
9 17 -11 1.1 0.5
-9 17 -11 1.8 0.9
9 -17 -11 -0.4 1.1
11 17 -11 -0.2 0.4
11 -17 11 -0.5 1
11 17 -11 -0.1 0.4
11 -17 -11 0.9 0.9
-11 17 -11 -0.3 0.8
0 18 -11 0.7 0.4
0 18 -11 0.9 1.1
0 18 -11 0.1 0.8
2 18 -11 35.8 3.3
2 18 -11 30.8 2
-2 18 -11 35.6 3.2
-2 18 -11 32.6 2
4 18 -11 12 0.9
4 18 -11 8.5 1.8
4 18 -11 11.9 0.9
-4 18 -11 9.6 1.8
-4 18 -11 10.1 1
6 18 -11 5.5 0.8
6 18 -11 7.4 0.7
-6 18 -11 6.2 0.8
6 -18 -11 9.9 1.3
8 18 -11 1.2 0.4
8 -18 -11 1.6 1.2
-8 18 -11 3 0.8
10 -18 11 1.9 1.2
10 18 -11 1.5 0.4
10 -18 -11 1.1 1
-10 18 -11 2.8 0.9
1 19 -11 1.8 1.2
1 19 -11 1.9 0.4
-1 19 -11 1.7 0.4
-1 19 -11 1.4 1.1
3 19 -11 0.7 0.3
3 19 -11 -0.5 0.4
3 19 -11 0.2 1.2
-3 19 -11 0.1 1.1
-3 19 -11 0.5 0.4
5 19 -11 0.2 1.2
5 19 -11 1.6 0.4
5 19 -11 0.6 0.4
-5 19 -11 0.4 1.2
-5 19 -11 0.6 0.5
7 19 -11 -0.3 0.4
7 19 -11 -0.9 0.4
-7 19 -11 -1 0.7
7 -19 -11 -1.9 1
9 19 -11 -0.4 0.4
9 19 -11 0 0.4
9 -19 11 -1.3 1
-9 19 -11 -0.1 0.9
9 -19 -11 -1.2 1
11 19 -11 0.1 0.4
11 -19 -11 -0.7 0.8
-11 19 -11 -0.9 0.8
0 20 -11 0.9 0.4
0 20 -11 1.1 1.2
2 20 -11 6.2 0.8
2 20 -11 5.5 0.7
2 20 -11 5.5 1.6
-2 20 -11 7 1.7
-2 20 -11 6.9 0.8
4 20 -11 4.2 1.5
4 20 -11 7.7 0.8
4 20 -11 6.4 0.7
-4 20 -11 6.6 1.6
-4 20 -11 8.4 0.9
6 20 -11 0.7 0.4
6 20 -11 1.3 0.4
-6 20 -11 -0.5 0.6
-6 20 -11 1.1 0.6
8 20 -11 0.6 0.4
8 20 -11 1.1 0.4
-8 20 -11 1.1 0.8
8 -20 -11 -0.8 1
10 20 -11 0.7 0.4
10 -20 11 0.8 1.1
10 20 -11 1.1 0.4
-10 20 -11 1.2 0.8
10 -20 -11 1.4 0.9
1 21 -11 2.4 0.4
1 21 -11 1.1 1.3
1 21 -11 1.4 0.5
-1 21 -11 0.9 1.2
-1 21 -11 1.3 0.5
3 21 -11 18.3 1.3
3 21 -11 15.3 1.2
3 21 -11 16.6 2.5
-3 21 -11 20.4 2.6
-3 21 -11 20.3 1.4
5 21 -11 0.6 0.4
5 21 -11 -0.3 1.2
5 21 -11 0.8 0.5
-5 21 -11 1.1 1.2
-5 21 -11 -0.3 0.5
7 21 -11 0.3 0.5
7 21 -11 1.3 0.5
-7 21 -11 0.7 0.7
9 21 -11 1.1 0.4
9 -21 11 1 1.1
9 -21 -11 -0.5 0.9
-9 21 -11 1.2 0.8
0 22 -11 0.3 0.5
0 22 -11 0.6 0.4
0 22 -11 0.5 1.2
2 22 -11 3 0.5
2 22 -11 2.5 1.4
2 22 -11 3.5 0.6
-2 22 -11 3.4 1.5
-2 22 -11 4.7 0.6
4 22 -11 0.7 1.3
4 22 -11 0.5 0.5
4 22 -11 0.6 0.4
-4 22 -11 1 0.6
-4 22 -11 1.5 1.2
6 22 -11 0 0.4
6 22 -11 0.2 0.5
-6 22 -11 -0.1 0.6
-6 22 -11 0.8 0.6
8 22 -11 -0.1 0.4
8 22 -11 -0.4 0.4
8 -22 11 -1.6 0.9
-8 22 -11 -0.7 0.7
10 22 -11 -0.2 0.4
-10 22 -11 0.3 0.7
10 -22 -11 -0.3 0.9
1 23 -11 8.5 2.1
1 23 -11 11.4 1.2
1 23 -11 12.1 1.1
-1 23 -11 16.9 1.2
-1 23 -11 16.3 2.4
-1 23 -11 15.8 1.1
3 23 -11 1.7 0.4
3 23 -11 0.4 1.3
3 23 -11 1.4 0.5
-3 23 -11 2.5 1.4
-3 23 -11 2 0.6
5 23 -11 -0.5 1.1
5 23 -11 0.7 0.5
5 23 -11 0 0.4
-5 23 -11 0.1 0.5
-5 23 -11 1.2 0.6
7 23 -11 2.4 0.5
7 23 -11 1.8 0.5
-7 23 -11 1.7 0.7
9 23 -11 0.4 0.4
9 23 -11 0.4 0.4
-9 23 -11 0.8 0.7
0 24 -11 -0.5 0.4
0 24 -11 -0.9 1.1
0 24 -11 -0.9 0.5
2 24 -11 -0.1 0.5
2 24 -11 1 0.4
2 24 -11 0.9 1.4
-2 24 -11 0.7 0.5
-2 24 -11 1.1 0.5
-2 24 -11 0.9 1.3
4 24 -11 -0.3 0.5
4 24 -11 -0.2 1.2
4 24 -11 -0.5 0.4
-4 24 -11 0.4 0.5
-4 24 -11 1.2 0.5
-4 24 -11 -0.2 1.1
6 24 -11 -0.2 0.5
6 24 -11 -0.3 0.5
-6 24 -11 0 0.5
-6 24 -11 0 0.6
8 -24 11 -0.2 0.9
8 24 -11 -0.3 0.4
8 24 -11 -0.7 0.4
-8 24 -11 -0.5 0.7
1 25 -11 6.8 0.8
-1 25 11 5.9 1.9
1 25 -11 5.4 1.7
1 25 -11 8 0.9
-1 25 -11 3.7 1.6
-1 25 -11 5.6 0.7
-1 25 -11 5.7 0.7
3 25 -11 2.6 0.5
3 25 -11 2.5 0.6
3 25 -11 0.3 1.3
-3 25 -11 2.7 0.6
-3 25 -11 2.1 1.3
-3 25 -11 2.1 0.6
5 25 -11 0.4 0.5
5 25 -11 0 0.5
-5 25 -11 -0.4 0.6
-5 25 -11 1.5 0.6
7 25 -11 -0.1 0.4
7 25 -11 0 0.4
-7 25 -11 1 0.7
0 26 -11 1.2 0.5
0 26 -11 1.3 0.4
0 26 -11 0.8 1.3
0 26 11 0.2 1.3
2 26 -11 13.8 1.2
2 26 -11 15.3 1.2
-2 26 -11 13.4 1.2
-2 26 -11 15 1.2
4 26 -11 3.2 0.5
4 26 -11 2.7 0.6
-4 26 -11 2.3 0.6
6 26 -11 0.2 0.4
6 26 -11 -0.3 0.4
-6 26 -11 1.9 0.7
-6 26 -11 0 0.5
1 27 -11 0 0.5
1 27 -11 0.1 0.4
-1 27 -11 0.2 0.5
-1 27 -11 -0.2 0.5
3 27 -11 1 0.5
3 27 -11 0 0.5
-3 27 -11 1.1 0.5
-3 27 -11 1 0.5
5 27 -11 0 0.4
5 27 -11 0.5 0.5
-5 27 -11 1.9 0.6
-5 27 -11 0.5 0.5
7 27 -11 -0.3 0.4
0 28 -11 0.3 0.4
0 28 -11 0.3 0.5
2 28 -11 3.2 0.5
2 28 -11 2.8 0.6
-2 28 -11 2.9 0.6
-2 28 -11 3 0.6
4 28 -11 14.2 1.1
4 28 -11 11.5 1
-4 28 -11 14.2 1.2
-4 28 -11 11.5 1.2
6 28 -11 0.5 0.4
6 28 -11 0.5 0.4
-6 28 -11 2 0.6
1 29 -11 0.2 0.4
1 29 -11 -0.3 0.5
-1 29 -11 -0.5 0.4
-1 29 -11 -0.1 0.4
3 29 -11 0.5 0.4
3 29 -11 0.1 0.4
-3 29 -11 0.8 0.5
-3 29 -11 0.5 0.5
0 30 -11 0.3 0.4
0 30 -11 0 0.4
2 30 -11 0.9 0.5
2 30 -11 1.3 0.4
-2 30 -11 1 0.5
-2 30 -11 1 0.5
0 0 -12 77.39 5.4
2 0 -12 408.16 22.3
-2 0 -12 423.16 27.9
2 0 12 440.56 18.6
2 0 -12 413.16 22.2
4 0 -12 438.36 22.5
-4 0 -12 424.36 27.7
4 0 12 418.06 18.7
4 0 -12 386.26 22.8
-6 0 -12 128.69 7.3
6 0 12 120.29 7
6 0 12 128.89 7.4
-6 0 -12 140.49 9
6 0 -12 128.79 6.7
6 0 -12 103.79 9.4
-8 0 -12 155.58 8.6
8 0 12 149.19 8.7
-8 0 -12 146.09 10.5
8 0 -12 141.69 8.5
8 0 -12 152.78 7.9
-10 0 -12 67.09 4.4
10 0 -12 65.59 3.8
10 0 -12 62.69 3.8
-12 0 -12 15 2.2
12 0 -12 14.7 1.1
-14 0 -12 5.6 1.4
14 0 -12 8.1 0.7
1 1 -12 11.4 1.2
-1 -1 -12 11.7 1.2
-1 1 -12 11.4 1.2
1 -1 -12 12.2 1.2
1 -1 -12 11.7 1.4
1 -1 -12 12.8 1.2
-3 -1 -12 48.8 3.6
3 -1 12 48.3 3.1
3 1 -12 47 3.5
3 1 -12 50.09 3.3
3 -1 -12 52.09 3.4
3 -1 -12 48.7 3.8
-3 1 -12 49.3 3.6
3 1 12 47.8 3.2
5 -1 12 38.4 2.4
5 -1 12 40 3.1
-5 -1 -12 40.8 3.1
-5 -1 -12 37.2 2.5
5 1 -12 38.9 2.5
5 1 -12 30.5 3.5
5 1 -12 37.7 3.1
5 -1 -12 41.7 3.3
5 1 12 38.2 3.2
5 1 12 40.9 2.4
5 -1 -12 34.9 2.3
-5 1 -12 42 3.2
-5 1 -12 35.9 2.6
7 1 -12 10.5 1.3
7 -1 12 9.9 1.1
-7 -1 -12 10.4 1.7
7 -1 12 8.4 2.1
-7 -1 -12 11.5 1.6
-7 1 -12 9.7 1.7
-7 1 -12 12.2 1.7
7 1 12 11.5 1.1
7 -1 -12 11.2 1.2
-9 -1 -12 19.3 2.2
-9 -1 -12 12.9 2.1
9 1 -12 15.4 1.7
9 1 -12 16.4 1.1
9 -1 12 14.6 1.6
9 -1 -12 18 1.7
9 -1 -12 16.8 1.1
-9 1 -12 15.4 2.1
-9 1 -12 13.8 2.2
-11 -1 -12 5 1.7
11 1 -12 3.8 1.4
11 1 -12 3.8 0.5
-11 -1 -12 3 1.6
-11 1 -12 2.7 1.5
11 -1 -12 3.2 0.5
11 -1 -12 4.6 1.2
-11 1 -12 3.7 1.7
13 1 -12 0.3 0.4
-13 -1 -12 0.6 1.4
13 -1 -12 0.6 0.4
-13 1 -12 1.1 1.3
0 -2 -12 204.58 10.5
0 -2 -12 191.78 10.4
0 2 -12 188.18 12.9
0 -2 -12 188.88 12.9
-2 -2 -12 173.38 12.1
2 -2 12 178.48 8.4
2 2 12 181.68 8.6
2 -2 -12 194.68 10.1
-2 2 -12 178.98 12.1
2 -2 -12 174.98 10.3
4 -2 12 229.38 10.4
-4 -2 -12 224.08 14.8
-4 -2 -12 239.88 11.9
4 2 -12 215.78 12.1
4 2 -12 216.08 12.5
-4 -2 -12 223.38 11.8
4 2 12 206.38 12.5
4 -2 -12 224.98 12.4
-4 2 -12 233.48 14.8
-4 2 -12 189.48 12
4 2 12 229.28 10.6
4 -2 -12 207.88 12.9
-6 -2 -12 192.68 11.2
6 -2 12 200.18 11.5
6 2 -12 186.98 11.7
-6 -2 -12 192.28 11.2
-6 -2 -12 214.88 13.9
6 2 -12 198.98 10.4
6 -2 12 198.68 10
-6 -2 -12 212.28 11.4
6 2 12 217.78 11.6
-6 2 -12 218.98 13.9
6 -2 -12 195.48 10.4
6 2 12 202.88 10.3
-6 2 -12 196.28 11.2
-8 -2 -12 36.9 2.9
8 2 -12 37.8 2.4
8 2 -12 36.8 2.2
8 -2 12 37.7 2.5
-8 -2 -12 36 3.3
8 -2 -12 39.5 2.5
-8 2 -12 37.5 2.8
-8 2 -12 35 3.3
8 -2 -12 36.1 2.2
10 2 -12 35.3 2.5
10 2 -12 38.9 2.3
-10 -2 -12 40.9 3.2
10 -2 12 40.7 2.8
-10 -2 -12 29.6 3.4
10 -2 -12 35.9 2.3
10 -2 -12 37.5 2.6
-10 2 -12 38.5 3.1
12 2 -12 21.4 1.4
-12 -2 -12 21.9 2.4
12 2 -12 20.4 1.4
12 -2 -12 19.7 1.8
-12 2 -12 21.4 2.4
-14 -2 -12 3.6 1.3
14 2 -12 2.7 0.4
14 -2 -12 4.4 0.5
-14 2 -12 2.3 1.2
-1 -3 -12 315.67 16.9
1 -3 12 317.17 14
1 3 -12 314.27 21.1
-1 -3 -12 296.87 21
-1 -3 -12 340.07 17
-1 3 -12 308.27 21.1
1 -3 -12 330.17 17.1
1 -3 -12 316.67 17.2
3 -3 12 318.37 14.2
-3 -3 -12 332.27 17.1
3 3 -12 305.47 16.9
-3 -3 -12 326.97 16.9
-3 -3 -12 312.27 21.1
3 3 -12 310.07 16.8
3 -3 -12 317.87 17.4
-3 3 -12 323.57 21.1
3 3 12 308.87 14.4
3 -3 -12 311.67 17.7
-5 -3 -12 382.96 22.9
-5 -3 -12 435.96 22.6
-5 -3 -12 455.35 22.9
5 -3 12 398.96 23.8
-5 -3 -12 462.65 28.2
5 3 -12 391.76 23.2
5 -3 12 429.46 19
5 3 -12 416.06 22.8
5 -3 -12 421.56 23.2
-5 3 -12 402.16 22.9
-5 3 -12 479.35 28.3
5 -3 -12 387.06 21.4
5 3 12 443.56 19.3
7 -3 12 76.99 5.6
7 3 -12 99.69 5.3
-7 -3 -12 99.39 7.2
-7 -3 -12 98.29 5.8
7 -3 12 101.19 5.8
-7 3 -12 97.09 5.8
7 -3 -12 101.59 5.3
-7 3 -12 103.29 7.2
9 3 -12 23.5 1.5
-9 -3 -12 24.6 2.4
-9 -3 -12 19.9 2.6
9 3 -12 23 1.9
9 -3 12 25.3 2
9 -3 -12 23 1.5
-9 3 -12 20.2 2.5
9 -3 -12 22.8 1.9
-9 3 -12 23.6 2.4
-11 -3 -12 46.2 3.4
11 3 -12 42.4 2.5
11 3 -12 44.3 2.6
-11 3 -12 40.9 3.3
11 -3 -12 42.5 2.8
11 -3 -12 41.9 2.6
13 3 -12 13.8 1
-13 -3 -12 14.6 2
-13 3 -12 15.8 2
13 -3 -12 14 1.5
0 -4 -12 28.9 2.3
0 4 -12 28.5 2.2
0 -4 -12 29.4 2.4
0 -4 -12 26 2.1
-2 -4 -12 85.59 5
2 -4 12 82.39 4.3
-2 -4 -12 79.59 5.7
-2 -4 -12 83.99 5.2
-2 4 -12 84.09 5.8
2 -4 -12 81.39 5.3
2 4 12 86.29 4.7
2 -4 -12 82.09 5.5
4 -4 12 41.6 2.9
4 4 -12 38.9 2.8
-4 -4 -12 45.1 3.4
4 4 -12 39.1 3.1
-4 -4 -12 38 3.1
-4 -4 -12 36.8 2.9
-4 4 -12 44.6 3.2
4 4 12 40.2 3.2
4 -4 -12 40.2 3.3
-4 4 -12 39.6 2.6
6 4 -12 19.3 2.3
-6 -4 -12 15.7 2.1
6 -4 12 17.6 2.4
6 -4 12 22.4 1.5
-6 -4 -12 19.8 2.6
-6 -4 -12 20.9 2.1
6 4 -12 20.6 1.6
-6 -4 -12 19.7 1.9
6 -4 -12 20.4 1.6
-6 4 -12 21.1 1.9
6 4 12 19.3 2.7
-6 4 -12 23 2.2
8 4 -12 2.5 1
8 -4 12 2.6 1
8 4 -12 2.1 0.4
-8 -4 -12 0.5 1.4
-8 -4 -12 2.3 1.3
8 -4 -12 1.9 0.4
-8 4 -12 1.9 1.3
-8 4 -12 2.4 1.3
8 -4 -12 2.5 1
-10 -4 -12 2.1 1.5
10 4 -12 2.3 0.5
10 -4 12 3.5 1.2
10 4 -12 3.3 0.5
-10 -4 -12 4.4 1.7
10 -4 -12 4.4 1.1
-10 4 -12 3.1 1.6
-10 4 -12 2.2 1.6
10 -4 -12 1.7 0.5
12 4 -12 0.6 0.5
-12 -4 -12 0.9 1.3
12 4 -12 1.4 0.4
-12 -4 -12 1.2 1.5
12 -4 -12 1.6 1.1
-12 4 -12 2.1 1.5
-12 4 -12 0.4 1.3
-14 -4 -12 0.3 1.3
14 -4 -12 0.1 0.3
-14 4 -12 -0.8 1
1 5 -12 449.46 28.4
-1 -5 -12 421.16 22.8
-1 -5 -12 423.36 22.9
1 -5 12 430.46 18.4
-1 -5 -12 411.66 28.2
1 5 -12 408.46 27.2
1 -5 -12 435.16 23
-1 5 -12 441.66 28.4
1 -5 -12 426.16 23.1
3 -5 12 1525.25 63.39
3 5 -12 1385.96 94.29
-3 -5 -12 1628.14 78.29
-3 -5 -12 1568.04 77.99
-3 -5 -12 1478.85 98.59
3 -5 -12 1482.55 78.29
-3 5 -12 1346.27 80.49
3 -5 -12 1460.95 78.59
3 5 12 1571.14 63.89
-3 5 -12 1572.44 98.69
5 -5 12 413.36 18.5
5 5 -12 380.76 22.5
-5 -5 -12 436.36 27.5
5 5 -12 422.06 22.3
-5 -5 -12 365.66 22.4
-5 -5 -12 443.86 22.9
-5 -5 -12 419.96 22.5
-5 5 -12 470.45 27.7
5 5 12 430.86 19.1
5 -5 -12 369.36 20.9
-5 5 -12 407.56 22.5
-7 -5 -12 179.78 12.6
7 -5 12 183.58 10.4
7 5 -12 179.18 9.5
7 5 -12 175.18 10
-7 -5 -12 178.98 10.2
7 -5 -12 183.88 9.5
-7 5 -12 185.78 10.2
-7 5 -12 190.38 12.7
9 5 -12 69.89 3.9
-9 -5 -12 76.49 4.5
-9 -5 -12 58.79 5.4
9 -5 12 73.79 4.3
9 5 -12 69.89 4.1
9 -5 -12 75.89 4.1
-9 5 -12 71.19 4.6
9 -5 -12 68.19 4.1
-9 5 -12 61.99 5.5
11 5 -12 28.5 1.7
11 5 -12 27.8 1.8
11 -5 12 23.4 2.2
-11 -5 -12 30.4 2.8
11 -5 -12 27.7 2.2
-11 5 -12 28.8 2.7
13 5 -12 22.4 1.4
-13 -5 -12 22.6 2.3
13 -5 -12 24.1 1.9
-13 5 -12 22.7 2.3
0 -6 12 96.59 4.6
0 6 -12 97.29 6.6
0 -6 -12 98.49 6
0 6 -12 87.89 6.4
-2 -6 -12 211.78 12.3
-2 -6 -12 221.38 12.1
-2 -6 -12 216.38 14.4
2 6 -12 199.78 14
2 6 12 223.88 10.4
-2 6 -12 222.98 14.6
2 -6 -12 229.68 12.4
2 -6 -12 205.78 12.5
4 6 -12 216.28 12
4 6 -12 218.98 11.8
-4 -6 -12 234.38 12.5
-4 -6 -12 218.28 12.8
-4 -6 -12 226.28 14.7
4 6 -12 209.18 14.2
4 -6 -12 194.78 11.2
-4 6 -12 222.28 11.2
4 6 12 219.98 10.7
-4 6 -12 246.58 14.8
-4 6 -12 200.68 12
6 -6 12 54.79 3.2
6 6 -12 49.9 3.9
6 6 -12 43.2 4.2
-6 -6 -12 59.09 4.2
-6 -6 -12 52.29 3.4
6 6 -12 53.49 3
-6 -6 -12 54.29 4.7
6 6 -12 54.29 3.1
-6 6 -12 60.29 4.3
-6 6 -12 53.89 3.5
6 -6 -12 50.89 3.1
6 6 12 49.2 4.6
-8 -6 -12 33.1 3.2
-8 -6 -12 39.8 2.8
8 -6 12 38 2.5
8 6 -12 38.5 2.2
8 6 -12 35.1 2.2
-8 6 -12 34.6 3.4
-8 6 -12 36 2.8
8 -6 -12 38.2 2.5
8 -6 -12 34.2 2.2
10 -6 12 5.2 1.2
-10 -6 -12 5.6 1.7
10 6 -12 4.7 0.7
-10 -6 -12 10.2 1.9
10 6 -12 5.5 0.8
10 -6 -12 7.4 1.3
-10 6 -12 3.6 1.7
10 -6 -12 5.5 0.7
-10 6 -12 6 1.8
-12 -6 -12 3.4 1.5
-12 -6 -12 2 1.5
12 6 -12 3.5 0.5
12 6 -12 3.8 0.5
-12 6 -12 3.3 1.6
12 -6 -12 3 1
-12 6 -12 2.7 1.5
14 -6 -12 1 0.3
14 -6 -12 2.1 1.3
1 7 -12 632.54 41
-1 -7 -12 602.44 32.9
-1 -7 -12 665.53 33.2
1 7 -12 600.84 39.3
1 -7 -12 577.24 33
-1 7 -12 628.34 41
-1 7 -12 618.34 39.3
1 -7 -12 636.24 33.1
-3 -7 -12 341.67 17.9
3 7 -12 303.17 20.3
3 7 -12 311.97 17.2
-3 -7 -12 314.67 17.4
-3 7 -12 339.67 21.2
-3 7 -12 272.57 17.2
3 -7 -12 317.47 17.8
3 7 12 343.57 14.8
-5 -7 -12 186.78 10.9
5 7 -12 173.98 10
-5 -7 -12 170.78 11.7
5 7 -12 166.68 9.7
5 7 12 169.58 9
-5 7 -12 191.58 11.9
-5 7 -12 165.98 9.6
5 -7 -12 160.38 8.9
7 7 -12 87.09 4.8
7 -7 12 84.79 5
-7 -7 -12 80.99 6.2
7 7 -12 81.99 5
-7 -7 -12 86.29 5.1
-7 7 -12 84.09 6.4
-7 7 -12 91.49 5.2
9 -7 12 53.29 3.2
-9 -7 -12 55.99 3.5
-9 -7 -12 38.9 4.1
9 7 -12 51.89 2.9
9 7 -12 50.39 2.9
-9 7 -12 41.3 4.2
-9 7 -12 53.09 3.6
9 -7 -12 55.59 3.2
9 -7 -12 48.9 2.9
-9 7 -12 42.5 3.1
11 -7 12 10.5 1.5
11 7 -12 11.3 0.8
-11 -7 -12 10.6 2.1
-11 -7 -12 5.6 1.8
11 7 -12 10.1 0.9
11 -7 -12 8.1 1.4
-11 7 -12 6.6 1.7
-11 7 -12 5.1 1.8
13 7 -12 4.1 0.6
13 7 -12 5.8 0.8
-13 -7 -12 2.9 1.3
13 -7 -12 3.6 1
-13 7 -12 3.4 1.3
0 8 -12 2214.88 139.09
0 8 -12 2065.29 132.99
0 -8 -12 2254.37 110.19
0 -8 -12 1940.91 109.89
2 8 -12 544.75 31.1
2 8 -12 577.94 36.7
-2 -8 -12 636.64 31.4
-2 -8 -12 586.64 31
-2 8 -12 592.94 36.7
-2 8 -12 498.55 31.1
-2 8 -12 615.54 38.3
2 -8 -12 572.54 31.2
2 8 12 587.04 25.5
-4 -8 -12 231.18 13.2
4 8 -12 208.38 14.2
-4 8 -12 201.28 12
4 -8 -12 194.18 11.2
-4 8 -12 231.98 11.3
4 8 12 225.38 10.9
-4 8 -12 249.08 14.9
-6 -8 -12 221.38 15.4
-6 -8 -12 221.08 15.3
6 8 -12 214.48 12.4
-6 8 -12 238.88 15.5
-6 8 -12 232.38 12.6
8 -8 12 88.89 5.1
-8 -8 -12 73.89 6.2
8 8 -12 88.09 4.7
-8 -8 -12 90.69 5.2
8 8 -12 81.19 4.9
-8 8 -12 92.59 5.3
-8 8 -12 79.09 6.4
8 -8 -12 81.59 4.9
10 -8 12 58.59 3.9
10 8 -12 59.19 3.6
10 8 -12 61.49 3.5
-10 -8 -12 62.39 4.1
10 -8 -12 63.69 3.8
-10 8 -12 61.09 4.2
-12 -8 -12 14.7 2
12 8 -12 14.9 1.1
12 8 -12 15.6 1.1
12 -8 12 15.1 1.7
12 -8 -12 15.5 1.7
-12 8 -12 9 1.8
1 9 -12 27.6 2
-1 -9 -12 28.1 3
1 9 -12 30.6 2.7
-1 9 -12 28.6 2
-1 9 -12 32.7 2.7
-1 9 -12 30.7 2.5
1 -9 -12 25.6 3
3 9 -12 2.4 0.9
3 9 -12 3.4 0.8
-3 -9 -12 2.9 1.4
-3 9 -12 3.9 0.9
3 9 12 2.5 1.3
-3 9 -12 3 1
-3 9 -12 4 0.7
-3 9 -12 2.7 1
5 9 -12 2.4 0.9
5 9 -12 2.2 0.8
5 9 -12 3 0.4
-5 9 -12 3.4 1.1
5 9 12 2.2 1.6
-5 9 -12 2.9 1.1
7 9 -12 1.7 0.4
7 -9 12 2.8 0.8
7 9 -12 2.1 0.4
-7 9 -12 2.1 1.2
7 -9 -12 1.9 0.4
-7 9 -12 2.7 1.3
9 9 -12 1.6 0.5
-9 -9 -12 2.2 1.6
9 9 -12 1.6 0.4
9 -9 12 2 1.1
-9 9 -12 0.5 1.4
-9 9 -12 1.4 1.4
9 -9 -12 1.1 1.1
-9 9 -12 0.6 0.9
11 9 -12 1.9 0.5
11 9 -12 1.3 0.5
-11 -9 -12 2.8 1.6
11 -9 12 2 1.3
11 -9 -12 0.9 1.1
-11 9 -12 1.2 1.4
-11 9 -12 1.1 1.5
13 9 -12 -0.4 0.4
-13 -9 -12 0.1 1.7
13 9 -12 0 0.3
-13 9 -12 -0.8 1.1
13 -9 -12 -0.2 0.8
0 10 -12 1222.28 72.39
0 10 -12 1416.76 88.89
0 10 -12 1385.66 85.09
0 -10 -12 1382.66 71.99
-2 -10 -12 726.83 37.6
2 10 -12 657.23 37.4
2 10 -12 716.43 44.1
-2 10 -12 661.93 35
-2 10 -12 622.94 37.4
-2 10 -12 737.13 45.9
-2 10 -12 726.23 44.1
2 10 12 715.33 30.6
4 10 -12 104.29 7
4 10 12 100.09 6
4 -10 -12 94.99 5.4
-4 10 -12 109.09 7.2
-4 10 -12 96.59 5.8
6 10 -12 91.19 5.2
-6 10 -12 96.39 5.6
-6 10 -12 95.19 6.9
8 -10 12 92.99 5.5
8 10 -12 95.49 5.1
8 10 -12 86.99 5.3
8 -10 -12 91.69 5.3
-8 10 -12 83.69 6.9
-8 10 -12 99.19 5.7
10 -10 12 48.6 3.4
10 10 -12 50.79 3
10 10 -12 49.99 2.9
-10 10 -12 45.8 3.2
-10 10 -12 52.59 3.7
10 -10 -12 54.19 3.3
12 10 -12 23.9 1.5
12 10 -12 25.4 1.5
12 -10 12 20.3 2
12 -10 -12 25 2
-12 10 -12 24.3 2.4
1 11 -12 284.37 16.6
1 11 -12 304.67 19.7
-1 11 -12 318.37 19.7
-1 11 -12 326.17 20.4
-1 11 -12 271.87 16.5
-1 11 -12 320.97 15.6
3 11 -12 205.98 13.4
3 11 -12 199.88 11.1
-3 11 -12 220.88 13.4
3 11 12 198.68 10.1
-3 11 -12 221.68 13.8
-3 11 -12 204.48 10.5
3 -11 -12 171.68 10.3
-3 11 -12 195.78 11.2
5 11 -12 31.3 1.9
-5 11 -12 34.2 2.4
-5 11 -12 35.4 2.9
7 11 -12 40.8 2.3
7 11 -12 37.5 2.4
7 -11 -12 39.1 2.4
-7 11 -12 39.6 3.5
-7 11 -12 41.6 3
9 11 -12 28.9 1.7
9 -11 12 29.5 2.2
9 11 -12 26.7 1.7
-9 11 -12 24.1 2
9 -11 -12 26.8 2.3
-9 11 -12 21.6 2.9
-9 11 -12 31.8 2.7
11 11 -12 11.6 0.9
11 11 -12 11.7 1
11 -11 12 9.9 1.5
11 -11 -12 7.9 1.4
-11 11 -12 8.2 1.8
13 11 -12 1.1 0.3
13 -11 -12 0.9 0.8
-13 11 -12 0 1.1
0 12 -12 249.28 17.2
0 12 -12 230.28 14
0 12 -12 271.97 13.3
0 12 -12 276.07 16.8
2 12 -12 231.88 15
2 12 -12 216.58 12.4
-2 12 -12 250.87 15
-2 12 -12 235.58 15.4
-2 12 -12 205.78 12.4
-2 12 -12 219.68 11.7
2 12 12 229.08 11.2
4 12 -12 63.69 4.8
4 12 -12 60.89 3.6
-4 12 -12 70.49 4.9
-4 12 -12 63.79 4
4 -12 -12 61.39 3.6
-4 12 -12 70.29 4.9
6 12 -12 28.4 1.6
6 12 -12 25.1 1.6
-6 12 -12 24.9 2.6
6 -12 -12 26.8 1.7
-6 12 -12 28.4 2.2
8 -12 12 39.4 2.6
8 12 -12 35.9 2.3
8 12 -12 40 2.3
-8 12 -12 38.3 3
10 12 -12 30.4 1.8
10 12 -12 27.6 1.8
10 -12 12 26.3 2.3
-10 12 -12 26.9 2.1
-10 12 -12 29 2.7
10 -12 -12 30.1 2.3
12 12 -12 0.7 0.4
12 12 -12 0.4 0.4
12 -12 12 1.7 1
12 -12 -12 2.3 1
-12 12 -12 1 1.2
1 13 -12 557.14 33.4
1 13 -12 499.65 28.1
-1 13 -12 475.75 26.3
-1 13 -12 550.54 34.6
-1 13 -12 484.75 28.1
-1 13 -12 559.04 33.4
3 13 -12 230.18 13.7
3 13 -12 261.87 16.5
3 13 12 266.97 13.8
-3 13 -12 274.87 16.9
-3 13 -12 239.88 13.7
-3 13 -12 276.07 16.5
3 -13 -12 211.68 12.7
5 13 -12 168.98 9.5
5 13 -12 177.38 12.7
-5 13 -12 176.08 12
-5 13 -12 171.88 9.7
7 13 -12 111.79 6
7 13 -12 104.39 6.2
-7 13 -12 112.79 6.4
-7 13 -12 98.69 7.8
9 13 -12 94.29 5.4
9 13 -12 93.59 5.2
9 -13 12 90.69 5.6
9 -13 -12 103.19 5.3
-9 13 -12 81.79 5.5
-9 13 -12 91.19 5.7
11 13 -12 10.6 0.9
11 -13 12 10.1 1.4
11 13 -12 10.2 0.9
11 -13 -12 8.6 1.4
-11 13 -12 8.4 1.7
13 13 -12 7.7 0.7
13 -13 -12 5.2 1
0 14 -12 12.6 0.9
0 14 -12 11.7 1.2
0 14 -12 11.8 1.3
0 14 -12 14.2 1.9
2 14 -12 10 0.8
2 14 -12 7.6 1.6
2 14 -12 10.4 1.2
2 14 12 7.9 2.2
-2 14 -12 8.9 1.6
-2 14 -12 10.9 1.3
-2 14 -12 10.3 1.4
-2 14 -12 8.7 0.9
4 14 -12 7.2 1.5
4 14 -12 10.8 0.8
-4 14 -12 10 1.4
-4 14 -12 8 1.6
-4 14 -12 8.6 1.5
4 -14 -12 10.3 1.2
6 14 -12 7.3 0.8
6 14 -12 8.5 0.7
-6 14 -12 6.1 1.4
-6 14 -12 5.1 1.5
8 14 -12 5.5 0.8
8 -14 12 5 1.2
-8 14 -12 3.2 1.3
8 -14 -12 7.5 1.3
-8 14 -12 2.5 1.5
-8 14 -12 4.8 1.5
10 14 -12 -0.2 0.4
10 -14 12 -0.1 1.1
10 14 -12 -0.2 0.4
-10 14 -12 -1.2 1.3
-10 14 -12 0.2 1.4
-10 14 -12 -0.6 0.9
10 -14 -12 -2 1.1
12 -14 12 0.6 1
12 14 -12 0.2 0.4
12 14 -12 0.2 0.4
-12 14 -12 0.8 1.7
12 -14 -12 0.1 0.9
1 15 -12 423.96 24.3
1 15 -12 355.86 20.3
1 15 -12 343.57 20.4
-1 15 -12 413.66 24.3
-1 15 -12 383.56 25
-1 15 -12 358.36 20.3
-1 15 -12 340.37 20.4
3 15 -12 140.29 7.9
3 15 -12 156.08 10
-3 15 -12 146.79 10
-3 15 -12 154.78 10
-3 15 -12 130.79 8
-3 15 -12 138.69 8.1
5 15 -12 80.89 5.1
5 15 -12 83.59 6.4
5 15 -12 91.89 4.9
-5 15 -12 88.79 6.5
5 -15 -12 91.39 4.9
-5 15 -12 92.99 5.3
7 15 -12 204.18 11.8
7 15 -12 214.18 11.4
-7 15 -12 215.88 11.7
7 -15 -12 217.58 10.8
-7 15 -12 176.48 14.2
9 15 -12 30.5 1.8
9 15 -12 28.6 1.8
9 -15 12 28.3 2.2
-9 15 -12 25.8 2.1
9 -15 -12 27.7 2.3
-9 15 -12 29.8 2.6
11 -15 12 20.8 1.9
11 15 -12 22.7 1.4
11 15 -12 20.4 1.4
-11 15 -12 22.4 1.8
11 -15 -12 20.7 1.8
0 16 -12 153.38 8.8
0 16 -12 169.38 11
0 16 -12 159.18 9
2 16 -12 143.39 9.5
2 16 -12 127.99 7.5
-2 16 -12 136.79 7.7
-2 16 -12 144.19 9.5
-2 16 -12 141.19 9.5
-2 16 -12 121.19 7.5
4 16 -12 37.7 2.5
4 16 -12 44.3 3.8
4 16 -12 44.9 2.5
-4 16 -12 45.5 3.8
-4 16 -12 46.2 3.6
-4 16 -12 40.3 2.5
4 -16 -12 41 2.6
-4 16 -12 46.5 3
6 16 -12 85.39 4.8
6 16 -12 82.59 5
-6 16 -12 78.49 6.4
6 -16 -12 90.89 4.8
-6 16 -12 90.49 5.3
8 -16 12 38 2.5
8 16 -12 35.5 2.2
8 16 -12 34.5 2.1
-8 16 -12 34.9 3
8 -16 -12 36.7 2.6
-8 16 -12 31.3 2.4
10 16 -12 21.6 1.5
10 -16 12 22.4 1.9
10 16 -12 24 1.5
10 -16 -12 23.5 2
-10 16 -12 22 1.8
12 16 -12 4.9 0.6
12 -16 -12 2.9 0.9
1 17 -12 22.3 1.4
1 17 -12 20 1.7
1 17 -12 25.5 2.7
-1 17 -12 26.1 2.6
-1 17 -12 21.2 1.4
-1 17 -12 20.2 1.8
3 17 -12 26.6 1.6
3 17 -12 21.6 1.6
3 17 -12 27.4 2.8
-3 17 -12 25.8 1.6
-3 17 -12 27.9 2.8
-3 17 -12 24.2 2
5 17 -12 33 3.5
5 17 -12 40.5 2.3
5 17 -12 35.9 2.3
-5 17 -12 37.4 2.8
5 -17 -12 38.9 2.6
-5 17 -12 43.8 2.4
7 17 -12 8.8 0.8
7 17 -12 8.1 0.9
7 -17 -12 8.6 1.4
-7 17 -12 7.3 1.9
9 -17 12 12.4 1.6
9 17 -12 15.6 1.1
9 17 -12 14.7 1.1
-9 17 -12 15 1.5
9 -17 -12 14.8 1.8
11 17 -12 1.9 0.4
11 -17 12 2.6 1.1
-11 17 -12 3.5 0.9
11 -17 -12 2.5 1
0 18 -12 131.29 8.8
0 18 -12 115.89 6.7
0 18 -12 118.99 6.9
2 18 -12 58.69 4.7
2 18 -12 54.19 3.1
-2 18 -12 50.09 3.1
-2 18 -12 59.59 4.6
-2 18 -12 53.79 3.5
4 18 -12 209.18 13.8
4 18 -12 212.08 11.2
4 18 -12 177.48 11.7
-4 18 -12 219.18 13.8
-4 18 -12 202.48 11.2
6 18 -12 47.2 2.9
6 18 -12 50.29 2.9
6 -18 -12 48.4 3.1
8 18 -12 61.59 3.6
8 -18 12 66.09 4
8 18 -12 66.79 3.8
8 -18 -12 62.89 3.8
-8 18 -12 59.09 3.9
10 18 -12 35.8 2
10 18 -12 30.4 2
10 -18 12 31.6 2.4
-10 18 -12 32.9 2.3
10 -18 -12 31.3 2.3
1 19 -12 14.6 2.4
1 19 -12 14.1 1
-1 19 -12 13.2 1.1
-1 19 -12 15.2 2.3
3 19 -12 8.7 0.7
3 19 -12 6 1.7
3 19 -12 8.6 0.8
-3 19 -12 6.3 1.6
-3 19 -12 6.2 0.9
5 19 -12 2.8 1.3
5 19 -12 6.3 0.8
5 19 -12 6.9 0.7
-5 19 -12 5.2 0.7
7 19 -12 8.4 0.8
7 -19 -12 6.7 1.3
-7 19 -12 6.5 1.5
9 -19 12 3.6 1.2
9 19 -12 3 0.5
9 19 -12 1.8 0.5
9 -19 -12 3.1 1.1
-9 19 -12 2.5 0.9
11 19 -12 1.1 0.4
-11 19 -12 1.3 0.8
11 -19 -12 0.1 0.8
0 20 -12 86.19 4.9
0 20 -12 88.19 6.7
2 20 -12 97.79 7.2
2 20 -12 99.59 5.4
2 20 -12 82.99 5.5
-2 20 -12 96.49 5.4
-2 20 -12 102.39 7.2
4 20 -12 21.5 2.8
4 20 -12 23.5 1.5
4 20 -12 19.3 1.4
-4 20 -12 23.4 2.7
-4 20 -12 19.5 1.5
6 20 -12 61.89 3.5
6 20 -12 63.39 3.6
-6 20 -12 58.29 3.7
8 -20 12 25.8 2.1
8 20 -12 27.4 1.7
8 20 -12 24.9 1.7
-8 20 -12 25.1 1.9
8 -20 -12 24.5 2
10 -20 12 13.9 1.5
10 20 -12 14.2 1.1
10 20 -12 17.9 1.2
10 -20 -12 13.7 1.5
-10 20 -12 16.2 1.4
1 21 -12 114.39 6.3
1 21 -12 111.49 8.3
-1 21 -12 110.79 6.3
-1 21 -12 109.89 8.2
3 21 -12 23.5 1.6
3 21 -12 22.8 3.1
3 21 -12 28.4 1.7
-3 21 -12 24.8 2.9
-3 21 -12 24.4 1.7
5 21 -12 22.8 3
5 21 -12 29.6 1.8
5 21 -12 29.6 1.8
-5 21 -12 27.3 1.9
7 21 -12 24.6 1.6
7 21 -12 26.4 1.6
-7 21 -12 22.7 1.9
9 -21 12 14.2 1.5
9 21 -12 17.6 1.2
9 21 -12 13.8 1.1
9 -21 -12 15.6 1.6
-9 21 -12 14.6 1.4
0 22 -12 27.9 3.2
0 22 -12 28.2 1.8
2 22 -12 22.9 1.6
2 22 -12 24.8 1.6
2 22 -12 23.8 3
-2 22 -12 24.8 1.6
-2 22 -12 23.6 2.9
4 22 -12 25.9 1.7
4 22 -12 28.6 1.7
4 22 -12 21.6 3
-4 22 -12 25.2 3
-4 22 -12 25.9 1.8
6 22 -12 4.1 0.6
6 22 -12 5.6 0.8
-6 22 -12 4.8 0.7
-6 22 -12 5.1 0.8
8 22 -12 5.5 0.8
8 22 -12 6.1 0.8
8 -22 12 5.3 1.2
-8 22 -12 5.6 0.9
1 23 -12 92.99 5
1 23 -12 82.39 5.2
1 23 -12 88.99 6.9
-1 23 -12 93.29 5
-1 23 -12 82.99 6.8
3 23 -12 169.98 12.9
3 23 -12 203.48 10.4
3 23 -12 180.48 10.8
-3 23 -12 197.68 10.4
-3 23 -12 181.48 12.9
5 23 -12 58.19 3.4
5 23 -12 58.39 3.3
-5 23 -12 54.39 3.5
-5 23 -12 57.19 3.4
7 23 -12 40.5 2.4
7 23 -12 36.4 2.3
-7 23 -12 37.3 2.5
9 23 -12 16.3 1.2
-9 23 -12 15 1.4
0 24 -12 4.6 1.6
0 24 -12 5.4 0.7
0 24 -12 5.5 0.6
2 24 -12 36.2 2.1
2 24 -12 25.7 3.4
2 24 -12 32.9 2.1
-2 24 -12 33.3 2.1
-2 24 -12 27.2 3.3
-2 24 -12 34 2.1
4 24 -12 21.8 1.5
4 24 -12 21.8 1.5
4 24 -12 14.6 2.6
-4 24 -12 21.8 1.5
-4 24 -12 20.7 1.6
-4 24 -12 17.3 2.6
6 24 -12 11.7 1
6 24 -12 10.7 1
-6 24 -12 12 1.3
-6 24 -12 11.3 1.1
8 24 -12 1.6 0.5
8 24 -12 1.2 0.4
8 -24 12 2 1.4
-8 24 -12 1.6 0.8
1 25 -12 32.8 3.7
1 25 -12 38.4 2.3
1 25 -12 35.7 2.3
-1 25 -12 34.8 3.7
-1 25 -12 40.9 2.4
-1 25 -12 37.9 2.4
3 25 -12 77.99 4.4
3 25 -12 73.79 4.5
3 25 -12 66.69 6.6
-3 25 -12 79.99 4.4
-3 25 -12 74.29 4.5
-3 25 -12 81.89 7.1
5 25 -12 74.49 4.4
5 25 -12 74.19 4.3
-5 25 -12 74.59 4.3
7 25 -12 16.3 1.2
7 25 -12 14.9 1.2
-7 25 -12 16.1 1.4
0 26 -12 110.29 6
0 26 -12 102.49 6.2
2 26 -12 21.8 1.5
2 26 -12 21.2 1.5
-2 26 -12 21.8 1.6
-2 26 -12 22.8 1.6
4 26 -12 107.09 5.9
4 26 -12 106.59 6.1
-4 26 -12 103.49 5.9
-4 26 -12 102.29 6.2
6 26 -12 42.6 2.5
6 26 -12 39.5 2.5
-6 26 -12 40.2 2.5
-6 26 -12 41.5 2.6
1 27 -12 7.9 0.9
1 27 -12 6.5 0.9
-1 27 -12 8.4 0.9
-1 27 -12 9.8 1
3 27 -12 8.3 0.9
3 27 -12 6.7 0.9
-3 27 -12 7.2 1
-3 27 -12 8.9 1
5 27 -12 7.9 0.9
5 27 -12 8.9 0.9
-5 27 -12 9.4 1
-5 27 -12 8.6 1.1
0 28 -12 48.2 2.9
0 28 -12 49.2 3
2 28 -12 88.09 5.1
2 28 -12 89.49 5.3
-2 28 -12 90.59 5.3
-2 28 -12 92.79 5.1
4 28 -12 24 1.7
4 28 -12 28.1 1.8
-4 28 -12 27 1.9
-4 28 -12 29.1 1.8
1 29 -12 14.9 1.2
1 29 -12 17.2 1.2
-1 29 -12 14.3 1.2
-1 29 -12 16.1 1.2
3 29 -12 17.5 1.3
3 29 -12 16.1 1.3
-3 29 -12 18.1 1.4
-3 29 -12 18.6 1.3
0 30 -12 21.6 1.4
0 30 -12 19 1.4
2 30 -12 24 1.6
2 30 -12 21.5 1.5
-2 30 -12 24.1 1.6
-2 30 -12 23.9 1.6
0 0 -13 3.2 0.8
2 0 -13 1.8 0.9
2 0 13 1.9 1
2 0 -13 1.5 0.6
-2 0 -13 2.7 0.8
-4 0 -13 1.1 0.8
4 0 13 1.1 1.1
-4 0 -13 2.3 0.9
4 0 13 2.1 0.6
4 0 -13 0.3 0.7
4 0 -13 1.1 1.2
6 0 -13 3.1 0.8
6 0 13 4.2 1.7
6 0 13 2.9 0.8
-6 0 -13 3.2 1.2
-6 0 -13 1.5 1.1
6 0 -13 2.2 1.3
8 0 -13 2.2 1
-8 0 -13 1.1 1.2
8 0 13 2.5 1.1
-8 0 -13 2.3 1.3
-10 0 -13 5.2 1.8
-10 0 -13 3 1.6
10 0 -13 4.3 1.2
-12 0 -13 2.8 1.7
12 0 -13 1.9 0.4
-12 0 -13 0.8 1.4
12 0 -13 1.7 0.5
14 0 -13 0.8 0.3
-14 0 -13 0.7 1.2
-1 -1 -13 11.3 1.2
1 1 -13 10.1 1.2
-1 1 -13 11.2 1.2
1 -1 -13 10.9 1.1
3 1 -13 3.3 1.2
3 1 -13 3.7 0.9
3 -1 13 5.1 1.4
-3 -1 -13 4.7 1
3 -1 -13 3 1
-3 1 -13 4.6 1
3 -1 -13 2.8 1.3
3 1 13 5 1.4
5 -1 13 4.9 0.8
-5 -1 -13 5.2 1.1
5 1 -13 1.6 1
5 1 -13 2.4 1.6
5 1 -13 4 0.8
-5 -1 -13 4.4 1.2
5 -1 13 3.3 1.4
-5 1 -13 4.2 1.2
-5 1 -13 5.6 1.1
5 1 13 5 0.8
5 1 13 2.9 1.5
5 -1 -13 4.4 0.9
-5 1 -13 4.2 1
5 -1 -13 3.7 1.3
-7 -1 -13 5.4 1.5
7 1 -13 5.3 1
7 -1 13 6.5 1.1
-7 -1 -13 5.7 1.4
7 1 13 7.5 1.2
7 -1 -13 6.9 1.1
-7 1 -13 4.8 1.5
-7 1 -13 4.7 1.4
-9 -1 -13 4.1 1.6
9 1 -13 4.6 0.6
9 -1 13 5.1 1.4
-9 -1 -13 5.9 1.6
9 1 -13 4.2 1.2
-9 1 -13 2.4 1.4
9 -1 -13 4.5 0.6
9 -1 -13 2.8 1.1
-9 1 -13 3.8 1.7
-11 -1 -13 0.9 1.4
-11 -1 -13 1.1 1.6
11 1 -13 0.5 1.1
11 1 -13 0.7 0.5
-11 1 -13 -0.3 1.3
11 -1 -13 1.6 1
11 -1 -13 0.6 0.5
-11 1 -13 -0.4 1.5
-13 -1 -13 -0.1 1.2
13 1 -13 -0.8 0.4
-13 1 -13 0.3 1.3
13 -1 -13 -0.5 0.4
0 2 -13 2.3 0.7
0 -2 -13 3.1 0.7
2 -2 13 8.6 1.4
-2 -2 -13 8 1
2 2 13 10.4 1.7
-2 2 -13 8 1.1
2 -2 -13 10 1.8
2 -2 -13 8.7 1.4
-4 -2 -13 35.8 2.6
4 -2 13 43.1 3.1
4 2 -13 38.6 3.2
4 2 -13 45.3 3
-4 -2 -13 42.1 3.1
4 -2 -13 37.3 3.7
4 -2 -13 35 2.6
-4 2 -13 37.8 2.6
-4 2 -13 42.1 3.2
4 2 13 42.4 3.1
4 -2 -13 39 3.2
6 -2 13 2.5 1.4
6 -2 13 6.2 0.9
-6 -2 -13 6.5 1.3
6 2 -13 3.2 1.3
6 2 -13 3.9 0.9
-6 -2 -13 5.8 1.4
-6 2 -13 4.5 1.4
-6 2 -13 6.7 1.3
6 -2 -13 6.8 1
6 2 13 2.5 1.4
-8 -2 -13 4.5 1.5
-8 -2 -13 2.2 1.4
8 2 -13 4.3 1
8 -2 13 5.3 1.1
8 -2 -13 3.3 0.5
-8 2 -13 2.8 1.4
-8 2 -13 3.9 1.5
8 -2 -13 4 1.1
-10 -2 -13 10.9 2.1
-10 -2 -13 8.4 2.1
10 2 -13 15.9 1
10 2 -13 13.7 1.7
-10 2 -13 12.1 2.1
10 -2 -13 12.4 1.7
-10 2 -13 8.7 2.1
10 -2 -13 14.3 1
12 2 -13 1.1 0.4
-12 -2 -13 0.6 1.5
-12 -2 -13 1.3 1.5
12 2 -13 0.9 0.4
12 -2 -13 0.4 0.9
-12 2 -13 2.1 1.5
-12 2 -13 1.3 1.4
14 2 -13 0.4 0.3
-14 2 -13 0.8 1.1
14 -2 -13 0.5 0.3
-1 -3 -13 137.69 7.5
1 -3 13 132.99 6.4
1 3 -13 135.99 9
-1 -3 -13 126.09 9
-1 -3 -13 138.39 7.4
1 -3 -13 131.89 7.6
1 -3 -13 127.19 7.8
-1 3 -13 129.19 9
-3 -3 -13 37.7 2.5
3 -3 13 36.6 2.7
-3 -3 -13 36.4 2.8
3 3 13 34.7 2.8
3 -3 -13 38.8 3
-3 3 -13 34.6 2.4
3 -3 -13 34.4 3.3
-3 3 -13 38.2 2.9
-5 -3 -13 3.5 1.1
-5 -3 -13 5.1 1.1
5 3 -13 4.3 0.9
-5 -3 -13 2.7 1.2
5 -3 13 5.1 0.8
5 3 -13 1.6 1.1
-5 -3 -13 2.7 0.9
5 -3 13 3.2 1.3
5 3 -13 1.5 1.3
5 -3 -13 0.9 1.1
-5 3 -13 2.6 1.1
5 3 13 2.8 1.4
5 -3 -13 4.5 0.8
-5 3 -13 4.9 1.1
-5 3 -13 3.6 0.8
-7 -3 -13 1.8 1.3
7 3 -13 4.6 1
7 -3 13 4.6 0.9
-7 -3 -13 6.6 1.4
7 -3 13 2.7 1.8
-7 3 -13 4 1.3
-7 3 -13 3.2 1.3
7 -3 -13 4 1
9 3 -13 7 1.2
9 -3 13 7.8 1.3
-9 -3 -13 4.8 1.7
-9 -3 -13 8.9 1.9
9 3 -13 8.9 0.8
-9 3 -13 7.3 1.8
-9 3 -13 6 1.8
9 -3 -13 7.3 1.3
9 -3 -13 8.3 0.8
-11 -3 -13 1.7 1.4
-11 -3 -13 4 1.7
11 3 -13 3.4 0.6
-11 3 -13 2.1 1.6
11 -3 -13 3.3 1.2
11 -3 -13 5.4 0.7
-11 3 -13 3.6 1.6
-13 -3 -13 2.6 1.4
13 3 -13 1.8 0.4
13 -3 -13 1.5 0.4
-13 3 -13 2.1 1.4
13 -3 -13 1.6 0.8
0 -4 -13 3.7 1.1
0 4 -13 3.6 0.9
0 -4 -13 2.5 1.1
0 -4 -13 4.9 0.9
-2 -4 -13 44.1 2.7
-2 -4 -13 35.2 2.8
2 -4 13 33.7 2.5
-2 -4 -13 34.2 2.8
2 -4 -13 36.3 3.2
2 -4 -13 35.9 2.9
2 4 13 34.4 2.8
-2 4 -13 36.5 2.9
-4 -4 -13 4.4 1.1
-4 -4 -13 5.5 1.5
4 4 -13 4.7 1
4 4 -13 3.9 1.1
4 -4 13 5.3 1.4
-4 -4 -13 7.3 1.2
-4 4 -13 5.4 0.9
4 -4 -13 2.9 1.1
-4 4 -13 6.9 1.3
-4 4 -13 7.2 1.2
4 4 13 7.2 1.7
4 -4 -13 6.3 0.9
-6 -4 -13 3.1 1.4
6 4 -13 1.7 0.8
6 4 -13 1.3 1.1
-6 -4 -13 0.5 0.9
6 -4 13 2.7 0.7
-6 -4 -13 1.2 1
-6 -4 -13 2.2 1.1
6 4 -13 1.2 1.7
6 4 13 2.7 1.6
-6 4 -13 2.3 1.1
6 -4 -13 2.3 0.8
-6 4 -13 1.4 1.1
8 -4 13 -0.9 0.9
-8 -4 -13 0.1 1.2
8 4 -13 -0.2 0.8
-8 -4 -13 -1.3 1.4
8 4 -13 -0.3 0.3
8 -4 -13 -0.2 0.3
-8 4 -13 -1.3 1.3
-8 4 -13 -0.6 1.2
8 -4 -13 -0.5 0.9
10 4 -13 -0.6 0.5
10 -4 13 -0.9 1
-10 -4 -13 0.2 1.3
-10 -4 -13 -0.9 1.5
-10 4 -13 -1 1.3
-10 4 -13 -2.2 1.5
10 -4 -13 -0.2 1.1
12 4 -13 -0.6 0.4
-12 -4 -13 -0.1 1.4
12 4 -13 -0.4 0.4
-12 -4 -13 -0.8 1.4
-12 4 -13 -0.7 1.3
-12 4 -13 -0.6 1.3
12 -4 -13 1 1
14 4 -13 -0.5 0.3
14 -4 -13 -0.3 0.3
-1 -5 -13 104.09 7.4
1 5 -13 114.39 7.6
-1 -5 -13 114.49 6.7
1 -5 13 102.69 5.2
-1 5 -13 108.39 7.5
1 -5 -13 107.29 6.8
1 -5 -13 111.89 6.7
3 -5 13 52.39 3.2
-3 -5 -13 48.8 3.5
-3 -5 -13 58.09 3.9
-3 -5 -13 48.9 3.6
3 5 -13 50.89 3
3 5 13 45.7 3.4
-3 5 -13 51.79 3.8
3 -5 -13 56.19 4
-3 5 -13 44 3
3 -5 -13 46.8 4.2
-5 -5 -13 21.7 2
-5 -5 -13 22.1 1.8
5 5 -13 19.8 1.6
-5 -5 -13 18.7 2.1
5 5 -13 18.2 2
5 5 -13 17.4 2.2
-5 -5 -13 19.8 2.5
-5 5 -13 22.6 2.1
5 -5 -13 21.7 1.6
5 5 13 24.7 3.1
-5 5 -13 20.8 1.8
7 5 -13 16.1 1.5
7 5 -13 17.2 1.2
7 5 -13 17.7 1.1
-7 -5 -13 15 2
7 -5 13 14.5 1.4
-7 -5 -13 11.9 1.9
-7 5 -13 13.2 2
-7 5 -13 14.9 1.9
7 -5 -13 18.8 1.3
7 -5 -13 15.2 1.6
-9 -5 -13 2.5 1.7
9 5 -13 1 0.5
-9 -5 -13 0.8 1.4
9 -5 13 2.5 1.1
9 -5 -13 2.1 1.1
-9 5 -13 1.9 1.5
9 -5 -13 1.7 0.4
-9 5 -13 0.3 1.3
-11 -5 -13 8.2 1.8
11 5 -13 9.2 0.8
11 -5 13 8 1.5
11 5 -13 6.7 0.9
11 -5 -13 5.2 1.3
-11 5 -13 4.8 1.7
-13 -5 -13 4 1.4
-13 5 -13 2.1 1.2
13 -5 -13 2.7 0.9
0 -6 -13 2.3 1.1
0 6 -13 3.2 0.9
0 6 -13 2.7 1
0 -6 -13 3.1 1.2
2 6 -13 6.2 1.2
-2 -6 -13 9.7 1.8
-2 -6 -13 5.2 0.9
2 6 -13 7.9 1
-2 -6 -13 7 1.4
2 6 13 6.8 1.5
2 -6 -13 6 1.4
2 -6 -13 7 1.9
-2 6 -13 7.2 1
-2 6 -13 6.3 1.1
-4 -6 -13 6.1 1.4
-4 -6 -13 6.1 1.7
-4 -6 -13 6.6 1.1
-4 6 -13 7 1.2
-4 6 -13 6.8 0.9
4 6 13 7.8 1.9
-4 6 -13 10.2 1.3
4 -6 -13 6.6 0.9
-6 -6 -13 3.1 1.1
6 6 -13 0.7 1
6 6 -13 3.9 0.6
6 6 -13 -0.1 1.2
6 6 -13 2.2 0.8
-6 -6 -13 3.1 1.5
-6 -6 -13 4.5 1.2
6 -6 13 4.7 0.8
-6 -6 -13 2.8 1.4
6 -6 -13 3 0.9
-6 6 -13 3.1 1.2
-6 6 -13 2.3 1.2
-8 -6 -13 0.9 1.3
-8 -6 -13 3.7 1.6
8 -6 13 2.7 1
8 6 -13 1.5 0.4
8 6 -13 2.1 0.4
-8 6 -13 1 1.3
8 -6 -13 2 0.4
8 -6 -13 2.4 1.1
-8 6 -13 1.4 1.4
10 6 -13 0.9 0.5
-10 -6 -13 2.2 1.5
10 -6 13 2.9 1.2
10 6 -13 0.5 0.4
-10 -6 -13 1.5 1.4
-10 6 -13 0.4 1.4
-10 6 -13 0.7 1.6
10 -6 -13 1 0.5
10 -6 -13 2.7 1.2
12 6 -13 0.5 0.5
-12 -6 -13 0.4 1.4
12 6 -13 0.6 0.4
-12 6 -13 -1.2 1.7
12 -6 -13 0.2 1
-12 6 -13 -0.5 1.4
1 7 -13 21.6 2
-1 -7 -13 25.5 2.5
-1 -7 -13 21.7 2.3
1 7 -13 20.5 2.1
1 7 -13 19.9 1.6
1 -7 -13 22.3 2.5
1 -7 -13 24.7 2.5
-1 7 -13 21.7 1.6
-1 7 -13 23.2 2
-1 7 -13 24.5 2.2
-3 -7 -13 11.8 1.8
-3 -7 -13 14.5 2.3
3 7 -13 10.5 1.1
3 7 -13 9.8 1.4
3 -7 -13 7.5 1.7
-3 7 -13 10.8 1.1
-3 7 -13 10.6 1.4
3 7 13 14.1 2.2
-3 7 -13 10.8 1.3
5 7 -13 8.4 1
-5 -7 -13 6.4 1.9
5 7 -13 5.6 1.3
-5 -7 -13 5.4 1.6
5 7 -13 7.9 1.2
5 7 -13 9 0.7
-5 -7 -13 7.5 1.2
5 7 13 6.1 1.8
-5 7 -13 8 1.4
5 -7 -13 9.6 1.1
-5 7 -13 11 1.4
7 -7 13 9 1.1
7 7 -13 9.5 0.8
-7 -7 -13 8.9 1.7
7 7 -13 11 0.8
-7 -7 -13 13.2 1.8
-7 7 -13 7.9 1.8
7 -7 -13 9.5 0.8
7 -7 -13 9.4 1.3
-7 7 -13 10.3 1.7
9 7 -13 15.8 1.1
-9 -7 -13 9.4 2
9 -7 13 12.9 1.5
-9 -7 -13 14.9 2.2
9 7 -13 15.2 1
9 -7 -13 15.2 1.8
-9 7 -13 8.7 2.1
9 -7 -13 14.1 1
-9 7 -13 14.7 2.1
11 7 -13 7.9 0.7
11 7 -13 6.5 0.8
11 -7 13 3.4 1.3
-11 -7 -13 5.9 1.7
-11 -7 -13 2.2 1.6
-11 7 -13 5 1.7
11 -7 -13 5.4 1.3
-13 -7 -13 1.2 1.2
13 7 -13 0.8 0.4
13 7 -13 0.7 0.4
-13 7 -13 1.3 1.2
13 -7 -13 0.3 0.8
0 8 -13 5.3 1.1
0 8 -13 5 0.9
0 -8 -13 3.8 1.2
0 8 -13 6 1.2
-2 -8 -13 23.2 2.4
-2 -8 -13 25.6 2.7
2 8 -13 22 1.7
2 8 -13 21.1 2.2
2 -8 -13 24.3 2.6
-2 8 -13 25.7 2.1
-2 8 -13 22.3 1.7
2 8 13 25.6 2.4
-2 8 -13 23 1.6
4 8 -13 1 0.8
-4 -8 -13 1.2 1.4
4 8 -13 0.9 0.7
4 8 13 0.9 1.4
-4 8 -13 1.1 0.8
4 -8 -13 2.3 0.7
-4 8 -13 1.4 0.7
-4 8 -13 1.3 0.9
-6 -8 -13 -1.1 2.1
6 8 -13 2.1 0.4
-6 8 -13 1.2 1.1
-6 8 -13 0.5 1.1
6 -8 -13 2 0.9
-8 -8 -13 9.1 1.8
8 8 -13 8.2 0.8
8 -8 13 5.6 1.1
8 8 -13 5.9 0.7
8 -8 -13 8.3 0.7
8 -8 -13 4.2 1.2
-8 8 -13 3.2 1.5
10 8 -13 25.7 1.6
-10 -8 -13 25.3 2.5
10 -8 13 24.2 2.1
10 8 -13 25.3 1.6
10 -8 -13 23.3 2.2
-10 8 -13 25.2 2.7
12 -8 13 2.8 1.3
-12 -8 -13 1 1.3
12 8 -13 1.6 0.5
-12 8 -13 1.4 1.3
12 -8 -13 1.7 1
1 9 -13 4.4 1.1
1 9 -13 5 0.9
-1 -9 -13 5.6 1.7
-1 9 -13 4.9 0.9
1 -9 -13 4.3 1.4
-1 9 -13 3.8 1
-1 9 -13 3.1 1.1
3 9 -13 2.1 1
-3 -9 -13 4.4 1.8
3 9 -13 3.8 0.8
3 -9 -13 3.9 0.8
-3 9 -13 3.4 0.8
3 9 13 3.3 1.4
-3 9 -13 3.4 0.9
-3 9 -13 3.5 1
5 9 -13 0.1 0.3
-5 -9 -13 0 1.5
-5 9 -13 -1.5 0.8
-5 9 -13 0.4 0.9
5 -9 -13 0.9 0.7
7 -9 13 0.9 0.8
7 9 -13 0.6 0.4
7 9 -13 0.2 0.3
7 -9 -13 -0.1 0.4
-7 9 -13 -0.8 1.2
7 -9 -13 0.3 1
-7 9 -13 1 1.2
9 9 -13 3.1 0.6
9 -9 13 4.7 1.3
9 9 -13 2.7 0.5
9 -9 -13 3.1 0.5
-9 9 -13 2.4 0.9
-9 9 -13 1.1 1.5
9 -9 -13 2 1.3
-9 9 -13 2 1.5
11 -9 13 1.5 1.2
11 9 -13 0.8 0.5
11 9 -13 1.6 0.5
-11 -9 -13 2.9 1.7
-11 9 -13 0.6 1.4
-11 9 -13 -0.8 1.3
11 -9 -13 0.4 1.1
13 9 -13 -0.4 0.3
13 9 -13 -0.6 0.3
13 -9 -13 -0.8 0.8
-13 9 -13 -0.5 1.1
0 10 -13 3.3 0.8
0 -10 -13 4.7 2.1
0 10 -13 2.8 1
0 10 -13 3.1 1
2 10 -13 101.69 6.6
-2 -10 -13 96.89 6.7
2 10 -13 94.19 5.4
-2 10 -13 85.69 5.4
-2 10 -13 89.99 5
-2 10 -13 98.29 6.7
2 10 13 86.39 5.4
-2 10 -13 94.69 6.6
4 10 -13 5.5 1.2
4 10 -13 5.6 0.6
-4 10 -13 6.3 1.3
4 10 13 6.8 2
-4 10 -13 6.6 1.2
4 -10 -13 5.6 0.9
6 10 -13 1.7 0.4
6 10 -13 1 0.3
6 -10 -13 1.7 0.9
6 -10 -13 1.6 0.4
-6 10 -13 1 1.1
-6 10 -13 1.7 1.1
8 -10 13 13.8 1.6
8 10 -13 16.8 1.2
8 10 -13 16.7 1.2
8 -10 -13 16.1 1.9
-8 10 -13 15.2 2.1
8 -10 -13 18.8 1.2
10 -10 13 3.6 1.4
-10 10 -13 1.8 1.6
10 -10 -13 5.2 1.4
-10 10 -13 5.7 1.7
12 10 -13 1.4 0.4
12 10 -13 0.9 0.4
12 -10 13 -0.1 0.8
12 -10 -13 1.8 1
-12 10 -13 0.8 1.3
1 11 -13 2.5 0.8
1 11 -13 2.7 1.1
1 11 -13 2.3 0.7
-1 11 -13 1.8 1
-1 11 -13 0.8 0.7
-1 11 -13 2.3 0.9
-1 11 -13 2.9 0.8
3 11 -13 43.4 2.7
3 11 -13 45.2 3.5
3 11 -13 42.3 2.4
3 11 13 42.1 3.5
3 -11 -13 36.6 2.5
-3 11 -13 40.1 2.8
-3 11 -13 45.2 2.6
-3 11 -13 45.2 3.4
-3 11 -13 44.5 3.6
5 11 -13 -0.1 0.3
-5 11 -13 -0.4 0.9
-5 11 -13 0 0.9
5 -11 -13 0.4 0.7
7 11 -13 3.1 0.5
7 11 -13 3.2 0.5
-7 11 -13 1.8 1.3
7 -11 -13 2.1 0.4
-7 11 -13 2.7 1.3
7 -11 -13 2.8 1.1
9 11 -13 2.5 0.5
9 11 -13 2.8 0.5
9 -11 13 4.5 1.3
-9 11 -13 3.1 1
-9 11 -13 1.8 1.5
-9 11 -13 4.9 1.7
9 -11 -13 3.6 1.4
11 11 -13 1.9 0.4
11 11 -13 1.3 0.5
11 -11 13 0.5 1
11 -11 -13 0.4 1
-11 11 -13 0.6 1.4
-11 11 -13 -0.3 1.4
13 11 -13 0 0.3
13 -11 -13 -0.2 0.8
0 12 -13 1 0.7
0 12 -13 1.3 0.8
0 12 -13 1.4 0.9
0 12 -13 1.9 1
2 12 -13 8.6 1.1
2 12 -13 9.4 0.9
2 12 -13 9.9 1.6
-2 12 -13 7.8 1.3
2 12 13 7.1 1.9
-2 12 -13 9.2 1.1
2 -12 -13 10 1.1
-2 12 -13 9 1.6
-2 12 -13 8.1 1.2
4 12 -13 12 1.7
4 12 -13 12.1 0.9
4 -12 -13 10.1 1.2
-4 12 -13 12.9 1.6
-4 12 -13 11.9 1.5
6 12 -13 1.5 0.4
6 12 -13 1.8 0.4
-6 12 -13 0.8 1.1
-6 12 -13 0.8 1.1
6 -12 -13 2.1 1
6 -12 -13 1.3 0.4
8 12 -13 1.5 0.4
8 12 -13 2.6 0.5
8 -12 13 1.2 1.1
8 -12 -13 2.2 1.3
-8 12 -13 1.6 1.5
-8 12 -13 2.1 1.4
10 12 -13 6.9 0.9
10 12 -13 9.2 0.8
10 -12 13 6.6 1.5
-10 12 -13 4.3 1.5
-10 12 -13 7 1.1
10 -12 -13 7.1 1.4
12 12 -13 0.1 0.4
12 12 -13 0.1 0.4
12 -12 13 1.3 1
-12 12 -13 -0.9 1.1
12 -12 -13 0.3 0.9
1 13 -13 7.9 1.1
1 13 -13 7.3 1.5
1 13 -13 6.4 0.9
1 13 -13 5.4 0.6
-1 13 -13 10.8 1.7
-1 13 -13 9.7 1.2
-1 13 -13 7.8 1
-1 13 -13 9 1.3
3 13 -13 6.2 0.6
3 13 -13 4.9 1.3
-3 13 -13 8.5 1.2
-3 13 -13 7.5 1.4
-3 13 -13 7.3 1.5
3 -13 -13 8.5 1
5 13 -13 6 0.6
5 13 -13 6.7 0.7
5 -13 -13 6.4 0.7
-5 13 -13 6.1 1.5
5 -13 -13 5.6 1.1
-5 13 -13 6.1 1.3
7 13 -13 1.5 0.4
7 13 -13 1.8 0.5
-7 13 -13 0.4 1.3
7 -13 -13 2.5 1.1
-7 13 -13 1.8 1.3
9 13 -13 23.4 1.7
9 13 -13 27.9 1.6
9 -13 13 24.4 2.1
9 -13 -13 29.5 2.3
-9 13 -13 23.3 2
-9 13 -13 22.7 2.6
11 13 -13 1 0.4
11 -13 13 1.1 1.1
11 13 -13 0.7 0.4
-11 13 -13 0 1.3
11 -13 -13 1.3 1
0 14 -13 0.9 1
0 14 -13 -0.6 0.7
0 14 -13 -0.8 0.6
0 14 -13 -0.6 0.3
2 14 -13 3.4 0.4
2 14 -13 3.7 0.9
2 14 -13 2.6 1.2
-2 14 -13 3.1 0.4
-2 14 -13 4 1
-2 14 -13 3.8 1.2
-2 14 -13 3.8 1.1
4 14 -13 3.1 0.4
4 14 -13 2.6 1.1
-4 14 -13 3.5 1.2
4 -14 -13 4.2 0.9
-4 14 -13 4 1.1
4 -14 -13 3.3 0.4
6 14 -13 1.8 0.4
6 14 -13 1.9 0.4
6 -14 -13 2.7 1
-6 14 -13 1.1 1.3
-6 14 -13 1.8 1.3
6 -14 -13 2.2 0.5
8 -14 13 0.2 1
8 14 -13 -0.4 0.4
8 14 -13 1.2 0.4
-8 14 -13 -0.4 1.4
8 -14 -13 0.8 1.2
-8 14 -13 -0.4 1.3
10 -14 13 -1.3 1.1
10 14 -13 -0.2 0.4
10 14 -13 -0.4 0.4
10 -14 -13 -0.9 1
-10 14 -13 -0.4 1.3
-10 14 -13 -0.6 1.3
-10 14 -13 -0.9 0.9
12 14 -13 -0.1 0.4
12 14 -13 0.2 0.3
12 -14 13 0.7 1.2
12 -14 -13 0 0.9
-12 14 -13 -0.9 1.3
1 15 -13 15.4 2.1
1 15 -13 13.6 0.9
1 15 -13 12.9 1.3
-1 15 -13 10.4 0.9
-1 15 -13 11.6 1.3
-1 15 -13 12.4 1.6
-1 15 -13 13.1 2
3 15 -13 40.7 3.6
3 15 -13 39 2.4
-3 15 -13 48.4 3.7
-3 15 -13 41.3 2.8
-3 15 -13 41.2 2.4
-3 15 -13 43.7 3.4
3 -15 -13 37.9 2.5
5 15 -13 2.9 0.4
5 15 -13 3.5 0.5
-5 15 -13 2.3 1.2
-5 15 -13 3.1 1.2
5 -15 -13 2.4 1
5 -15 -13 4.1 0.6
7 15 -13 9.1 0.9
-7 15 -13 9.2 1.8
-7 15 -13 4.7 1.7
7 -15 -13 13.7 1.7
9 -15 13 1.8 1.2
9 15 -13 0.3 0.5
9 15 -13 1.6 0.4
-9 15 -13 0.1 1.4
9 -15 -13 1.1 1.2
-9 15 -13 2.5 0.9
-9 15 -13 0.9 1.4
11 -15 13 1.8 1.1
11 15 -13 4.8 0.7
11 15 -13 5.1 0.7
11 -15 -13 3.2 1.1
-11 15 -13 1.7 1.3
0 16 -13 1.3 0.8
0 16 -13 0.5 0.3
0 16 -13 0.2 1
2 16 -13 1.1 1.1
2 16 -13 0.7 0.3
-2 16 -13 1.2 0.8
-2 16 -13 1.1 0.4
-2 16 -13 1.2 1.1
-2 16 -13 1.7 1
4 16 -13 3.3 0.5
4 16 -13 3.5 0.4
4 16 -13 2 1.2
-4 16 -13 2.9 0.5
-4 16 -13 3.1 1.3
4 -16 -13 3.5 0.5
-4 16 -13 3.9 1.2
-4 16 -13 3.3 1.1
4 -16 -13 4.8 1
6 16 -13 2.1 0.5
-6 16 -13 2.3 1.4
-6 16 -13 3.3 1.4
6 -16 -13 3.8 1.2
8 16 -13 2.3 0.4
8 16 -13 1 0.5
8 -16 13 1.3 1.1
8 -16 -13 1.5 1.2
-8 16 -13 1.2 1.3
10 -16 13 2.7 1.2
10 16 -13 2.1 0.5
10 -16 -13 1 1.1
-10 16 -13 1.9 1.7
-10 16 -13 2.8 0.9
12 16 -13 0.3 0.3
12 -16 -13 0.1 0.8
1 17 -13 2.2 0.4
1 17 -13 3.1 0.9
1 17 -13 1.5 1.3
-1 17 -13 3 0.5
-1 17 -13 3.3 1
-1 17 -13 3.3 1.4
3 17 -13 2.3 0.4
3 17 -13 1.4 1.2
-3 17 -13 2.1 1.1
-3 17 -13 2.3 1
-3 17 -13 1.6 0.4
3 -17 -13 2.3 0.4
-3 17 -13 2.4 1.2
5 17 -13 0.7 1.2
5 17 -13 1.9 0.4
5 17 -13 1.4 0.4
-5 17 -13 1.2 1.2
5 -17 -13 1.3 0.9
7 17 -13 0.9 0.5
7 17 -13 1.3 0.4
7 -17 -13 -0.7 1
-7 17 -13 -0.8 1.2
9 17 -13 1.9 0.5
9 17 -13 1.5 0.5
9 -17 13 0.3 1.1
9 -17 -13 1 1
-9 17 -13 2.4 0.9
11 17 -13 0.4 0.4
11 17 -13 0.1 0.3
11 -17 13 -0.5 1
11 -17 -13 -0.5 0.9
0 18 -13 0.8 0.8
0 18 -13 0.2 1.1
0 18 -13 0.8 0.4
2 18 -13 19.8 2.6
2 18 -13 17.3 1.2
-2 18 -13 18.9 1.7
-2 18 -13 17.1 1.3
-2 18 -13 22.5 2.6
4 18 -13 1 0.3
4 18 -13 1.5 0.4
4 18 -13 0.8 1.2
-4 18 -13 1 0.5
-4 18 -13 1.5 1.3
-4 18 -13 1 1.1
6 18 -13 2.1 0.5
6 18 -13 2.4 0.4
6 -18 -13 0.9 1
8 -18 13 0.5 1
8 18 -13 1.3 0.5
8 -18 -13 2 1.1
-8 18 -13 2.1 0.9
10 18 -13 1.1 0.4
10 -18 13 2.3 1.1
-10 18 -13 2.3 0.8
10 -18 -13 -0.3 0.9
1 19 -13 1 0.4
1 19 -13 1.2 1.3
-1 19 -13 2 1
-1 19 -13 1.7 0.5
-1 19 -13 1.8 1.3
3 19 -13 1.7 0.4
3 19 -13 0.7 0.4
3 19 -13 1.6 1.3
-3 19 -13 1.3 0.5
-3 19 -13 1.2 1.3
5 19 -13 0 1.1
5 19 -13 -0.1 0.4
5 19 -13 0.4 0.4
-5 19 -13 -0.3 0.5
7 19 -13 -0.7 0.4
7 19 -13 -0.1 0.4
7 -19 -13 0.1 1
9 19 -13 -0.4 0.4
9 -19 13 0.1 1.1
9 19 -13 0.4 0.4
-9 19 -13 0.2 0.8
9 -19 -13 0 1
11 19 -13 0 0.3
11 19 -13 0.1 0.3
0 20 -13 0.5 0.4
0 20 -13 1.2 1.3
2 20 -13 62.29 5.5
2 20 -13 64.49 3.9
-2 20 -13 73.09 5.6
-2 20 -13 72.99 3.9
4 20 -13 -0.2 1.2
4 20 -13 0.4 0.4
4 20 -13 0.4 0.4
-4 20 -13 0.2 1.2
-4 20 -13 -0.1 0.5
6 20 -13 0.7 0.4
6 20 -13 0.2 0.4
8 20 -13 1.2 0.4
8 20 -13 2.2 0.5
8 -20 13 2.3 1.1
8 -20 -13 1.1 1
-8 20 -13 2.3 0.8
10 20 -13 0.2 0.3
10 20 -13 0.6 0.4
10 -20 -13 -0.1 0.9
-10 20 -13 0.3 0.7
1 21 -13 8.3 0.9
1 21 -13 7.2 1.8
-1 21 -13 11.9 2.2
-1 21 -13 10.3 1
3 21 -13 6.4 0.9
3 21 -13 4.3 1.6
3 21 -13 6.4 0.8
-3 21 -13 4.7 1.6
-3 21 -13 8.1 0.9
5 21 -13 6.1 2
5 21 -13 12.6 1
5 21 -13 9.5 0.9
-5 21 -13 10.3 1.1
7 21 -13 1.8 0.5
7 21 -13 2.3 0.4
9 21 -13 0.7 0.4
9 -21 13 -0.6 1
9 21 -13 -0.3 0.4
9 -21 -13 -0.9 0.9
-9 21 -13 -0.1 0.7
0 22 -13 -1.2 1.1
0 22 -13 -0.1 0.5
2 22 -13 2 0.4
2 22 -13 1.2 1.4
2 22 -13 0.8 0.5
-2 22 -13 1.7 0.5
-2 22 -13 0.1 1.2
4 22 -13 2.4 1.4
4 22 -13 4.1 0.6
-4 22 -13 3.9 1.5
-4 22 -13 5 0.7
6 22 -13 0 0.4
6 22 -13 0.8 0.5
8 -22 13 0.4 0.9
8 22 -13 -0.6 0.4
8 22 -13 -0.3 0.4
-8 22 -13 -1 0.7
1 23 -13 53.39 4.7
1 23 -13 58.19 3.1
1 23 -13 52.09 3.2
-1 23 -13 46.3 4.6
-1 23 -13 50.89 3.1
3 23 -13 2.2 0.5
3 23 -13 1.6 1.4
3 23 -13 2.6 0.5
-3 23 -13 3.6 1.5
5 23 -13 0.5 0.5
5 23 -13 0.9 0.4
-5 23 -13 0.7 0.6
7 23 -13 0.3 0.4
7 23 -13 0.3 0.4
-7 23 -13 1.3 0.7
9 23 -13 0 0.4
9 23 -13 0.3 0.4
-9 23 -13 1.1 0.7
0 24 -13 -0.1 0.4
0 24 -13 0.4 0.5
0 24 -13 -1.2 1.1
2 24 -13 1.4 1.4
2 24 -13 2.7 0.5
2 24 -13 2.6 0.6
-2 24 -13 2.6 1.4
-2 24 -13 2.4 0.6
4 24 -13 2.6 0.5
4 24 -13 1.4 0.6
-4 24 -13 2.4 0.6
6 24 -13 0.2 0.4
6 24 -13 -0.6 0.4
-6 24 -13 0.4 0.6
-6 24 -13 1.1 0.7
8 24 -13 -0.3 0.3
8 24 -13 -0.6 0.4
-8 24 -13 -0.4 0.7
1 25 -13 17 1.3
1 25 -13 12.5 2.4
1 25 -13 14.6 1.2
-1 25 -13 20.3 1.3
-1 25 -13 16.1 2.5
-1 25 -13 17 1.3
3 25 -13 21.3 1.5
3 25 -13 21.9 1.5
-3 25 -13 21.9 1.6
5 25 -13 -0.5 0.4
5 25 -13 0.3 0.5
-5 25 -13 0.2 0.5
-5 25 -13 1.8 0.6
7 25 -13 0.5 0.4
7 25 -13 -0.2 0.4
-7 25 -13 1.1 0.6
0 26 -13 0.2 0.4
0 26 -13 -0.1 0.5
2 26 -13 0.4 0.4
2 26 -13 0 0.5
-2 26 -13 0.4 0.5
-2 26 -13 0.5 0.5
4 26 -13 14.7 1.2
4 26 -13 16.6 1.2
-4 26 -13 15.7 1.3
-4 26 -13 13.6 1.3
6 26 -13 0.9 0.4
6 26 -13 0.8 0.4
-6 26 -13 2.4 0.6
1 27 -13 2.6 0.5
1 27 -13 2.2 0.5
-1 27 -13 1.7 0.5
-1 27 -13 2.9 0.6
3 27 -13 0 0.5
3 27 -13 0.4 0.4
-3 27 -13 0.8 0.5
-3 27 -13 1.8 0.5
5 27 -13 -0.5 0.4
5 27 -13 -0.3 0.4
-5 27 -13 1.3 0.6
-5 27 -13 -0.1 0.5
0 28 -13 0.4 0.5
0 28 -13 0.2 0.4
2 28 -13 11 0.9
2 28 -13 10.1 1
-2 28 -13 9.2 1
-2 28 -13 10.7 1
4 28 -13 0.3 0.4
4 28 -13 0.1 0.4
-4 28 -13 0.8 0.5
-4 28 -13 0.6 0.5
1 29 -13 0.4 0.4
1 29 -13 -0.2 0.4
-1 29 -13 -0.1 0.4
-1 29 -13 -0.1 0.4
3 29 -13 0.9 0.4
3 29 -13 1.8 0.4
-3 29 -13 2.4 0.5
-3 29 -13 2.1 0.5
0 30 -13 0 0.4
0 30 -13 0.2 0.4
0 0 -14 814.82 53.69
-2 0 -14 185.88 12.9
2 0 14 198.38 9.2
-4 0 -14 667.03 38.2
4 0 14 761.02 31.1
-4 0 -14 781.92 46.9
4 0 -14 682.63 37.8
4 0 -14 676.33 35.7
4 0 14 687.03 39.9
4 0 -14 715.03 37.4
6 0 14 356.56 19.9
6 0 -14 373.26 17.9
-6 0 -14 373.16 23.7
-6 0 -14 364.06 19.2
6 0 -14 292.17 19.4
6 0 14 337.67 16.5
-8 0 -14 20.5 2.2
-8 0 -14 16.3 2.3
8 0 -14 21.8 1.8
8 0 -14 19.8 1.3
-10 0 -14 92.59 5.9
10 0 -14 97.79 5.5
10 0 -14 90.09 5.3
12 0 -14 27.2 1.7
12 0 -14 27.8 1.7
-12 0 -14 28.3 2.6
14 0 -14 7.4 0.7
-1 -1 -14 54.79 4
1 1 -14 57.59 4.1
1 -1 -14 55.39 4
-1 1 -14 55.79 4.1
3 1 -14 57.49 3.8
3 1 -14 58.99 3.6
3 -1 14 57.29 3.7
-3 -1 -14 61.19 4.2
3 -1 -14 59.39 4.2
3 -1 -14 55.89 3.8
-3 1 -14 60.99 4.3
-3 1 -14 52.09 3.4
3 1 14 54.89 3.4
3 1 14 60.69 3.8
5 1 -14 75.89 4
5 -1 14 73.99 4.7
-5 -1 -14 70.19 4
-5 -1 -14 74.29 4.3
-5 -1 -14 79.69 5.4
5 1 -14 59.29 5.2
5 1 -14 67.79 4.8
5 -1 14 71.39 4.2
-5 1 -14 78.29 5.4
5 -1 -14 71.69 4
5 1 14 69.09 4.7
-5 1 -14 65.99 4
5 -1 -14 65.29 4.9
5 1 14 73.39 4.3
-5 1 -14 72.49 4.3
-7 -1 -14 9.8 1.8
7 -1 14 12.5 1.2
-7 -1 -14 13.5 1.8
7 1 -14 13.9 1.4
7 1 -14 10.5 0.9
7 -1 -14 12.7 1.4
-7 1 -14 16.8 2
-7 1 -14 9.9 1.8
7 -1 -14 12.1 0.9
-9 -1 -14 3.5 1.6
9 1 -14 4.1 1.2
9 1 -14 4.8 0.6
-9 -1 -14 6.6 1.7
9 -1 -14 4.8 1.3
-9 1 -14 2.8 1.5
-9 1 -14 5.6 1.9
9 -1 -14 5.3 0.6
-11 -1 -14 6.9 1.9
11 1 -14 4.2 1.1
11 1 -14 6.3 0.7
11 1 -14 4.1 0.6
-11 -1 -14 4 1.6
11 -1 -14 3.7 1.2
-11 1 -14 6.1 1.7
11 -1 -14 5.9 0.7
-11 1 -14 4.1 1.7
13 1 -14 0.2 0.4
-13 -1 -14 0.3 1.3
-13 1 -14 0.5 1.2
13 -1 -14 0.1 0.4
0 2 -14 30.5 2.4
0 -2 -14 28.2 2.3
-2 -2 -14 593.94 39
2 -2 14 578.24 25.7
2 -2 -14 564.54 31.1
2 2 14 628.74 26
-2 2 -14 604.94 39.1
2 -2 -14 577.24 31.3
4 2 -14 397.36 22.2
4 2 -14 393.86 21.9
4 2 -14 402.76 20.9
-4 -2 -14 380.36 22.3
-4 -2 -14 451.05 27.5
4 -2 14 428.36 18.6
4 -2 -14 388.36 20.9
-4 2 -14 398.16 22.3
4 -2 -14 398.06 22.8
-4 2 -14 456.65 27.5
4 -2 -14 424.66 22.5
-4 2 -14 408.16 20.9
4 2 14 438.26 18.8
6 -2 14 116.09 7.1
-6 -2 -14 124.09 7
6 2 -14 126.49 6.5
6 -2 14 116.09 6.8
-6 -2 -14 130.39 8.7
6 2 -14 100.79 7.5
6 -2 -14 122.29 6.5
-6 2 -14 130.19 7.1
6 2 14 111.39 7
-6 2 -14 132.29 8.8
8 2 -14 57.89 3.5
-8 -2 -14 63.49 4
-8 -2 -14 53.79 4.8
8 -2 14 59.69 3.8
8 2 -14 61.59 3.6
8 -2 -14 63.19 3.6
8 -2 -14 59.79 3.5
-8 2 -14 53.69 4.8
-8 2 -14 66.99 4.1
10 2 -14 26.2 1.5
10 2 -14 23.2 2
-10 -2 -14 17.4 2.6
-10 -2 -14 23.2 2.6
-10 2 -14 24.8 2.6
10 -2 -14 25.1 2.1
-10 2 -14 17.8 2.6
10 -2 -14 24.9 1.5
-12 -2 -14 5.2 2
12 2 -14 11.4 0.9
12 2 -14 11.3 0.9
-12 -2 -14 8.5 1.8
12 -2 -14 13.2 1.5
-12 2 -14 7.6 1.7
14 2 -14 3.9 0.5
14 -2 -14 3.6 0.5
1 3 -14 214.38 14.3
-1 -3 -14 208.58 14.2
1 -3 14 212.38 9.8
1 -3 -14 206.98 11.8
1 -3 -14 215.78 11.7
-1 3 -14 214.38 14.3
-3 -3 -14 998.7 63.09
3 3 -14 910.71 51.39
3 -3 14 992.3 41.1
-3 3 -14 1026.7 63.19
3 -3 -14 967.9 50.69
3 3 14 968.7 41.4
3 -3 -14 966.9 50.29
-3 3 -14 836.12 51.39
5 3 -14 163.18 10.7
5 3 -14 172.88 10.5
5 -3 14 180.08 10.5
5 -3 14 179.38 9.2
-5 -3 -14 203.38 12.7
-5 -3 -14 182.28 10.2
5 3 -14 195.48 9.6
-5 3 -14 188.98 10.3
5 3 14 182.38 9.5
5 -3 -14 166.88 10.9
5 -3 -14 177.38 9.6
-5 3 -14 188.98 9.6
-5 3 -14 211.28 12.8
7 3 -14 135.09 6.8
7 3 -14 119.69 7.3
-7 -3 -14 135.59 7.4
7 -3 14 118.79 7.4
-7 -3 -14 126.09 9.1
-7 3 -14 124.69 9.1
-7 3 -14 134.39 7.4
7 -3 -14 122.39 7.3
7 -3 -14 128.89 6.8
9 3 -14 41.9 2.7
-9 -3 -14 44.1 3.2
9 -3 14 41 2.8
-9 -3 -14 31.6 3.6
9 3 -14 41.9 2.4
-9 3 -14 34.3 3.7
9 -3 -14 41.5 2.4
9 -3 -14 44.8 2.8
-9 3 -14 41.9 3.2
-11 -3 -14 9.4 1.9
-11 -3 -14 4.8 1.8
11 3 -14 9.2 0.8
11 3 -14 7.5 0.9
11 -3 -14 8.7 0.8
11 -3 -14 7.9 1.4
-11 3 -14 5.1 1.8
-11 3 -14 6.8 1.8
13 3 -14 11 0.8
-13 -3 -14 7.4 1.6
13 -3 -14 9.7 1.3
-13 3 -14 5.6 1.5
13 -3 -14 11.2 0.8
0 -4 -14 41.7 3.2
0 -4 -14 45.5 3.1
0 -4 -14 40.4 3.1
0 4 -14 42.9 3.3
-2 -4 -14 48.2 3.1
2 4 -14 40.5 2.6
-2 -4 -14 41.5 3.2
2 -4 14 42.4 2.8
-2 -4 -14 42.9 3
-2 4 -14 44.5 3.3
2 -4 -14 46.7 3.3
2 4 14 48.4 3.3
-2 4 -14 38.1 2.6
2 -4 -14 39 3.5
-4 -4 -14 69.99 4.2
4 -4 14 55.69 4
-4 -4 -14 70.89 4.8
-4 -4 -14 57.49 3.9
-4 -4 -14 73.99 4.4
4 4 -14 66.19 3.7
-4 4 -14 63.49 3.7
-4 4 -14 63.49 4
4 -4 -14 64.29 4.8
4 -4 -14 59.59 3.6
-4 4 -14 73.29 4.9
4 4 14 76.49 4.5
-6 -4 -14 11.7 1.7
6 4 -14 7.6 2
6 -4 14 14 1.2
6 4 -14 13.6 1.4
6 4 -14 8 1.9
-6 -4 -14 14 1.6
-6 4 -14 14.8 1.6
6 -4 -14 10.9 1.4
-6 4 -14 14.7 1.8
8 4 -14 11.1 1.5
8 -4 14 12.7 1.3
-8 -4 -14 12.5 1.9
8 4 -14 10.5 0.8
8 4 -14 10.9 0.9
-8 -4 -14 8.5 1.8
8 -4 -14 13.5 1.6
-8 4 -14 12.8 1.9
-8 4 -14 7.7 1.9
8 -4 -14 11.5 0.9
-10 -4 -14 0.3 1.3
10 -4 14 -0.2 0.9
-10 -4 -14 0.5 1.6
10 4 -14 -1.1 0.5
-10 4 -14 -1.8 1.5
-10 4 -14 -0.1 1.4
10 -4 -14 -0.3 1.1
-12 -4 -14 -0.2 1.3
12 4 -14 0.1 0.4
12 4 -14 0.3 0.4
12 -4 -14 1.4 1
-12 4 -14 -0.1 1.4
-1 -5 -14 842.02 43.6
-1 -5 -14 822.22 54.69
1 5 -14 861.61 54.79
1 5 -14 764.52 44.7
-1 -5 -14 882.81 43.7
1 -5 -14 885.11 43.8
-1 5 -14 736.73 44.7
-1 5 -14 854.01 54.79
1 -5 -14 838.02 43.9
-3 -5 -14 418.86 20.5
-3 -5 -14 390.06 25.3
3 5 -14 367.26 20.6
-3 -5 -14 421.86 20.7
-3 5 -14 410.66 25.4
3 -5 -14 319.37 19.2
3 -5 -14 427.46 21.1
3 -5 -14 354.46 21.1
-3 5 -14 361.06 19.3
-3 5 -14 337.37 20.6
3 5 14 394.56 17.5
-5 -5 -14 357.06 19.7
-5 -5 -14 341.77 19.8
5 5 -14 327.17 19.6
5 5 -14 342.47 19.4
-5 -5 -14 389.66 24.3
-5 -5 -14 375.56 19.9
5 5 -14 362.46 19.9
5 5 -14 372.86 18.5
-5 5 -14 374.66 19.9
5 -5 -14 351.66 18.5
5 5 14 371.46 17.2
-5 5 -14 399.06 24.5
7 5 -14 103.69 6.3
7 5 -14 112.09 5.9
7 5 -14 112.19 6.1
-7 -5 -14 104.29 7.9
-7 -5 -14 111.89 6.4
7 -5 14 108.69 6.4
-7 5 -14 119.59 6.6
-7 5 -14 110.89 8
7 -5 -14 111.59 6
7 -5 -14 106.19 6.3
-9 -5 -14 22.5 2.8
-9 -5 -14 30.8 2.7
9 5 -14 28.4 1.7
9 -5 14 27.1 2.1
9 5 -14 27.6 1.8
-9 5 -14 29.2 2.6
9 -5 -14 27.7 1.7
9 -5 -14 35 2.3
-9 5 -14 23.2 2.9
11 5 -14 29.3 1.8
-11 -5 -14 33.8 2.8
11 -5 14 30 2.4
11 5 -14 30.3 1.8
11 -5 -14 27 1.9
11 -5 -14 30.5 2.3
-11 5 -14 28.8 2.8
-13 -5 -14 14.7 1.9
13 5 -14 16.3 1.1
13 5 -14 16.3 1.1
-13 5 -14 12.2 1.8
13 -5 -14 15.6 1.5
0 6 -14 160.88 10.2
0 -6 -14 196.88 10.8
0 -6 -14 192.98 10.8
0 6 -14 198.38 12.7
-2 -6 -14 96.99 6.3
2 6 -14 94.39 5.8
-2 -6 -14 114.39 6.7
-2 -6 -14 108.19 7.3
-2 6 -14 104.19 5.5
2 -6 -14 109.99 6.6
2 6 14 99.39 5.8
2 -6 -14 105.09 6.9
-2 6 -14 89.39 5.8
-2 6 -14 109.99 7.2
-4 -6 -14 45.7 3.3
4 6 -14 42.4 2.6
-4 -6 -14 46.9 3.7
-4 -6 -14 44.5 3.4
4 6 14 37.3 3.4
-4 6 -14 40.8 2.6
-4 6 -14 48.5 3.5
4 -6 -14 39.8 2.5
-4 6 -14 40.6 2.8
-6 -6 -14 53.99 4.3
6 6 -14 59.39 3.3
6 -6 14 53.59 3.3
-6 -6 -14 55.29 3.5
6 6 -14 55.99 3.2
-6 6 -14 61.39 4.5
-6 6 -14 52.79 3.6
6 -6 -14 54.09 3.3
-8 -6 -14 10.4 1.7
8 6 -14 7.4 0.8
8 6 -14 5.1 0.7
-8 -6 -14 7 1.7
8 -6 14 8.5 1.1
8 -6 -14 7.7 1.3
-8 6 -14 8.5 1.8
-8 6 -14 6.5 1.7
8 -6 -14 6.4 0.7
-10 -6 -14 6 1.9
10 -6 14 10.6 1.5
10 6 -14 9.2 0.9
10 6 -14 11.2 1
-10 -6 -14 12.4 2
10 -6 -14 13.3 1.6
-10 6 -14 6.9 1.9
10 -6 -14 10.6 0.9
-10 6 -14 12.1 2
-12 -6 -14 5.5 1.6
12 6 -14 6.7 0.7
12 6 -14 7.4 0.8
-12 6 -14 3.4 1.5
12 -6 -14 7.1 1.3
-1 -7 -14 265.17 14.3
1 7 -14 252.47 16.3
1 7 -14 234.98 13.7
1 7 -14 261.77 16.9
1 -7 -14 264.37 14.3
-1 7 -14 264.57 16.9
1 -7 -14 245.08 14.3
-1 7 -14 222.18 13.7
3 7 -14 144.89 7.9
-3 -7 -14 157.18 8.9
-3 -7 -14 136.09 8.5
3 7 -14 137.99 9.5
3 7 -14 137.49 7.4
-3 7 -14 146.99 7.5
3 -7 -14 152.48 9
-3 7 -14 132.09 7.9
3 -7 -14 123.09 7.4
-3 7 -14 154.48 9.9
3 7 14 153.18 7.7
-5 -7 -14 78.79 5.8
-5 -7 -14 89.89 6.3
-5 -7 -14 88.79 6.2
5 7 -14 87.69 4.8
5 7 -14 84.09 4.9
-5 7 -14 90.09 5.2
-5 7 -14 96.49 6.5
5 -7 -14 82.49 4.7
7 -7 14 61.29 3.8
7 7 -14 63.79 3.5
-7 -7 -14 57.59 4.8
-7 -7 -14 63.59 4
7 7 -14 57.99 3.6
7 -7 -14 60.79 3.6
-7 7 -14 63.09 4.1
7 -7 -14 67.39 3.7
-7 7 -14 62.39 5
9 -7 14 21.8 1.9
9 7 -14 21.9 1.4
-9 -7 -14 15.8 2.4
-9 -7 -14 23.2 2.4
9 7 -14 23.1 1.5
-9 7 -14 16.7 2.6
-9 7 -14 23.5 2.5
9 -7 -14 22.6 1.4
9 -7 -14 25.1 2.1
11 -7 14 29.7 2.5
11 7 -14 35.2 2.1
11 7 -14 35.1 2.1
-11 -7 -14 36.6 3
-11 7 -14 35.3 3
11 -7 -14 35.6 2.5
-13 -7 -14 3.9 1.3
13 -7 -14 4.6 1
-13 7 -14 2.2 1.2
0 -8 -14 243.68 14.9
0 8 -14 255.67 17.2
0 8 -14 234.08 14.4
0 -8 -14 277.17 15.2
0 8 -14 308.87 13.9
0 8 -14 270.47 17.8
-2 -8 -14 223.78 12.7
2 8 -14 214.18 12.2
2 8 -14 237.38 11.7
2 8 -14 220.48 14.5
-2 -8 -14 225.68 13
-2 8 -14 197.18 12.2
-2 8 -14 238.58 15
2 8 14 229.38 10.9
-2 8 -14 212.88 11.4
2 -8 -14 222.08 12.9
4 8 -14 165.78 9.6
-4 -8 -14 188.28 10.8
4 8 -14 169.88 9
-4 -8 -14 172.78 10.5
4 8 -14 159.38 11.4
-4 8 -14 165.58 9.7
-4 8 -14 181.58 9.1
-4 8 -14 193.48 12
4 -8 -14 165.18 9
4 8 14 182.48 9.2
6 8 -14 100.99 5.7
-6 8 -14 105.59 7.5
6 -8 -14 100.99 5.6
6 -8 -14 99.09 5.9
-6 8 -14 106.69 6.1
8 8 -14 113.89 6.2
8 8 -14 106.79 6.5
8 -8 14 111.39 6.6
-8 -8 -14 117.29 7.4
8 -8 -14 119.89 6.2
-8 8 -14 99.39 8.2
-8 8 -14 123.69 6.8
8 -8 -14 108.19 6.5
10 8 -14 73.99 4.5
10 8 -14 79.69 4.3
10 -8 14 70.29 4.7
-10 -8 -14 78.39 5
-10 8 -14 75.69 5
10 -8 -14 82.29 4.6
-12 -8 -14 19.5 2.1
12 8 -14 19.8 1.3
12 8 -14 21.3 1.3
12 -8 -14 19.7 1.8
-12 8 -14 17.5 2.2
1 9 -14 7.3 0.9
1 9 -14 7.5 1
1 9 -14 6.3 1.3
-1 -9 -14 7 1.8
-1 9 -14 7.4 1.2
-1 9 -14 7.3 1.4
1 -9 -14 5.7 1.7
-1 9 -14 7.9 1
-1 9 -14 7.3 1
-3 -9 -14 6.8 1.9
3 9 -14 8 1
3 9 -14 6.7 1
3 9 -14 6.1 1.3
-3 9 -14 8.4 1.2
-3 9 -14 6.7 1.3
3 9 14 6.4 1.8
3 -9 -14 7.6 1
-3 9 -14 7.9 1
5 9 -14 6 0.6
-5 -9 -14 4.1 2
5 -9 -14 5 0.9
-5 9 -14 3.7 1.2
-5 9 -14 3.9 1.1
7 9 -14 2.9 0.4
7 9 -14 2.1 0.4
7 -9 14 2.3 0.9
7 -9 -14 3.2 1.1
7 -9 -14 2.5 0.4
-7 9 -14 2.1 1.3
-7 9 -14 3.9 1.4
9 9 -14 6.9 0.8
9 9 -14 9.6 0.9
9 -9 14 9.6 1.4
-9 9 -14 3.4 1.8
-9 9 -14 6.5 1.8
-9 9 -14 7 1.1
9 -9 -14 8.4 1.4
9 -9 -14 10.2 0.8
11 -9 14 1.1 1.1
11 9 -14 0.1 0.5
11 9 -14 1.2 0.4
-11 9 -14 -1 1.3
-11 9 -14 0 1.4
11 -9 -14 0.3 1.1
13 9 -14 -0.4 0.3
13 9 -14 -0.3 0.3
13 -9 -14 -0.5 0.7
-13 9 -14 -0.5 1
0 10 -14 743.03 39.7
0 -10 -14 814.32 42.9
0 10 -14 819.22 50.09
0 10 -14 748.33 42.5
0 10 -14 825.72 52.19
2 10 -14 151.18 10
2 10 -14 136.79 7.7
-2 -10 -14 151.18 9.5
2 10 -14 142.99 8.2
-2 10 -14 157.18 10.1
-2 10 -14 140.59 8.3
2 10 14 153.98 8
-2 10 -14 146.19 7.7
-2 10 -14 154.78 10.2
4 10 -14 127.49 9
4 10 -14 127.89 7.4
-4 -10 -14 148.39 11.1
-4 10 -14 135.19 7.6
4 -10 -14 124.59 7
-4 10 -14 147.79 9.4
6 10 -14 103.29 6.5
6 10 -14 116.19 6.3
-6 10 -14 118.89 6.7
-6 10 -14 111.19 8.2
6 -10 -14 119.59 6.1
6 -10 -14 109.89 6.5
8 10 -14 183.38 9.8
8 -10 14 179.38 10.2
8 10 -14 175.38 10.1
8 -10 -14 167.48 10.1
-8 10 -14 146.39 12.4
8 -10 -14 193.88 9.4
-8 10 -14 189.38 10.2
10 -10 14 85.19 5.4
10 10 -14 88.49 5.2
10 10 -14 90.09 5
10 -10 -14 93.59 5.1
-10 10 -14 86.39 5.6
12 -10 14 3.2 1.2
12 10 -14 4.3 0.6
12 10 -14 2.3 0.5
12 -10 -14 4.1 1.1
-12 10 -14 3.1 1.3
1 11 -14 243.08 13.5
1 11 -14 231.38 12.6
1 11 -14 253.47 16.2
-1 11 -14 264.37 16.6
-1 11 -14 242.88 12.6
-1 11 -14 228.78 13.5
-1 11 -14 257.97 16.2
3 11 -14 55.89 3.4
3 11 -14 59.89 4.6
3 11 -14 62.89 3.7
-3 11 -14 66.69 4.6
-3 11 -14 60.19 3.7
-3 11 -14 63.79 3.5
3 -11 -14 54.99 3.4
5 11 -14 33.9 2
-5 11 -14 36 3.1
5 -11 -14 34.4 2.1
-5 11 -14 36.4 2.6
5 -11 -14 33.1 2.3
7 11 -14 70.39 3.9
7 11 -14 67.49 4
7 -11 14 70.09 4.1
7 -11 -14 73.69 4.1
7 -11 -14 65.59 4
-7 11 -14 72.89 4.5
-7 11 -14 58.89 5.4
9 11 -14 38.1 2.2
9 -11 14 38.6 2.6
9 11 -14 36.5 2.2
9 -11 -14 37.6 2.7
-9 11 -14 38.8 3.1
-9 11 -14 29.8 2.5
11 -11 14 7.9 1.4
11 11 -14 8.2 0.7
11 11 -14 6.9 0.8
-11 11 -14 4.2 1.5
11 -11 -14 5.6 1.2
13 11 -14 1.7 0.3
13 11 -14 2 0.4
13 -11 -14 1.9 0.8
0 12 -14 163.98 9.6
0 12 -14 162.58 9
0 12 -14 179.48 11.9
0 12 -14 187.98 11.7
2 12 -14 176.18 10.5
2 12 -14 180.98 9.9
2 12 -14 203.98 12.8
2 12 -14 193.28 10.6
-2 12 -14 194.38 9.9
-2 12 -14 216.28 12.9
2 -12 -14 164.98 9.8
-2 12 -14 185.58 10.6
-2 12 -14 205.48 13.1
4 12 -14 13.8 1
4 12 -14 13.3 1.9
-4 12 -14 14.2 1.5
4 -12 -14 13.6 1.4
-4 12 -14 14.6 1.8
6 12 -14 44.9 2.5
6 12 -14 41.1 2.6
-6 12 -14 45.7 3.2
6 -12 -14 41.6 2.6
6 -12 -14 44.3 2.8
-6 12 -14 44.1 3.8
8 12 -14 56.29 3.4
8 -12 14 58.59 3.7
8 12 -14 60.59 3.3
-8 12 -14 60.29 4
-8 12 -14 46.6 4.8
8 -12 -14 64.59 3.7
10 12 -14 2.2 0.5
10 -12 14 2.5 1.2
-10 12 -14 2.8 0.9
-10 12 -14 1.6 1.6
-10 12 -14 2.7 1.5
10 -12 -14 2.9 1.2
12 12 -14 8.3 0.7
12 12 -14 8 0.7
12 -12 14 5.3 1.1
12 -12 -14 6.4 1.1
-12 12 -14 5.3 1.4
1 13 -14 415.66 22.9
1 13 -14 405.76 21.4
1 13 -14 383.26 23
1 13 -14 453.85 27.3
-1 13 -14 431.26 22.9
-1 13 -14 449.26 28.1
-1 13 -14 389.56 23
-1 13 -14 406.46 21.4
-1 13 -14 458.15 27.3
3 13 -14 292.37 18.5
3 13 -14 260.07 15.4
3 -13 -14 248.08 14.3
-3 13 -14 304.97 18.5
-3 13 -14 284.27 15.5
-3 13 -14 301.27 19.1
5 13 -14 50.29 2.8
5 13 -14 43.3 2.9
-5 13 -14 50.59 4
-5 13 -14 52.49 3.3
5 -13 -14 48.3 2.9
5 -13 -14 49.7 3
7 13 -14 147.69 9.1
7 13 -14 163.08 8.8
-7 13 -14 143.19 11.3
7 -13 -14 160.58 9.1
-7 13 -14 170.48 9.2
7 -13 -14 168.38 8.5
9 -13 14 33.6 2.4
9 13 -14 32.6 2
9 13 -14 34.1 2
-9 13 -14 24.7 3.2
-9 13 -14 29.4 2.3
9 -13 -14 34.5 2.5
11 13 -14 23.9 1.5
11 -13 14 21.7 1.9
11 13 -14 25.3 1.5
11 -13 -14 22.9 2
-11 13 -14 23.8 2.3
0 14 -14 5.2 1.4
0 14 -14 8.6 1.2
0 14 -14 8.3 1.1
0 14 -14 8.6 0.7
2 14 -14 18.7 1.2
2 14 -14 17.5 2.4
2 14 -14 20 1.6
-2 14 -14 20.7 1.7
-2 14 -14 17.3 1.2
-2 14 -14 18.6 2.3
-2 14 -14 20.8 2
4 14 -14 5.8 1.5
4 14 -14 7.1 0.7
4 -14 -14 8.7 1.1
4 -14 -14 8.4 0.7
-4 14 -14 8 1.6
-4 14 -14 8.3 1.3
6 14 -14 3.8 0.6
6 14 -14 3.3 0.5
-6 14 -14 3.3 1.4
6 -14 -14 3.3 1
6 -14 -14 4.5 0.6
-6 14 -14 3.8 1.3
8 14 -14 2.9 0.5
8 -14 14 4.5 1.2
8 14 -14 4 0.5
8 -14 -14 3.5 1.2
-8 14 -14 2 1.5
-8 14 -14 2.8 1.6
10 14 -14 1.3 0.5
10 -14 14 1.7 1.2
10 14 -14 1.2 0.5
10 -14 -14 1.8 1.2
-10 14 -14 1.1 0.9
-10 14 -14 0.8 1.3
12 14 -14 -0.2 0.3
12 14 -14 -0.4 0.3
12 -14 -14 -0.1 0.8
1 15 -14 181.68 10.7
1 15 -14 194.98 10.9
1 15 -14 211.88 13.3
-1 15 -14 216.28 13.3
-1 15 -14 201.98 13.4
-1 15 -14 179.08 10.7
-1 15 -14 195.18 10.9
-1 15 -14 186.88 10.1
3 15 -14 93.29 5.3
3 15 -14 96.39 7
3 -15 -14 92.49 5.5
-3 15 -14 97.79 5.6
-3 15 -14 108.09 7.1
-3 15 -14 97.09 6.9
-3 15 -14 86.89 5.3
5 15 -14 136.29 8.8
5 15 -14 160.68 8.5
-5 15 -14 162.68 8.8
5 -15 -14 152.18 8.8
5 -15 -14 153.78 8.1
-5 15 -14 154.18 10.8
7 15 -14 39.3 2.4
7 15 -14 42.7 2.4
7 -15 -14 41.8 2.7
-7 15 -14 30.9 3.5
-7 15 -14 39.5 3
9 15 -14 58.89 3.5
9 15 -14 59.59 3.4
9 -15 14 57.69 3.8
-9 15 -14 63.49 4.1
9 -15 -14 61.59 3.6
-9 15 -14 52.39 3.6
11 15 -14 11.8 0.9
11 15 -14 9.9 0.9
11 -15 14 10.4 1.4
11 -15 -14 7.4 1.3
-11 15 -14 6.5 1.4
0 16 -14 186.08 12.1
0 16 -14 178.78 9.9
0 16 -14 164.98 9.7
2 16 -14 33.7 2.1
2 16 -14 34.5 2.4
2 16 -14 37.4 3.4
-2 16 -14 38.5 3.4
-2 16 -14 37 2.5
-2 16 -14 36.2 3
-2 16 -14 31.2 2.1
4 16 -14 71.79 4.7
4 16 -14 88.09 4.6
4 16 -14 79.99 6.2
4 -16 -14 77.29 4.6
-4 16 -14 87.09 5
-4 16 -14 83.39 6.1
4 -16 -14 81.99 4.7
6 16 -14 50.19 3
6 16 -14 52.29 3
6 -16 -14 53.19 3.2
-6 16 -14 47.3 4.2
-6 16 -14 51.79 3.6
8 16 -14 39.1 2.2
8 16 -14 37.3 2.3
8 -16 14 35.9 2.6
-8 16 -14 26.3 3.9
8 -16 -14 38.9 2.7
-8 16 -14 37.5 3
10 16 -14 13.1 1
10 16 -14 11.4 1
10 -16 14 12 1.5
-10 16 -14 7.8 1.6
-10 16 -14 10.4 1.3
10 -16 -14 12.5 1.6
1 17 -14 41 2.8
1 17 -14 43 2.5
1 17 -14 46.5 4
-1 17 -14 40.7 2.5
-1 17 -14 46 3.9
-1 17 -14 41.9 2.9
3 17 -14 17.5 1.1
3 17 -14 16.3 2.4
-3 17 -14 14 1.9
3 -17 -14 13.1 1.1
-3 17 -14 14.6 1.1
-3 17 -14 15.7 1.7
-3 17 -14 18.9 2.4
5 17 -14 24 1.5
5 17 -14 21.5 1.4
-5 17 -14 21 2.1
-5 17 -14 20.9 2.4
5 -17 -14 23.7 1.9
7 17 -14 23.4 1.6
7 17 -14 25.8 1.6
7 -17 -14 25.9 2.1
-7 17 -14 23.4 2.3
9 -17 14 9.3 1.4
9 17 -14 8.9 0.9
9 17 -14 10.8 0.9
9 -17 -14 8.6 1.4
-9 17 -14 9.4 1.3
11 17 -14 5 0.6
11 17 -14 4.7 0.6
11 -17 -14 3.1 1
0 18 -14 334.17 18.7
0 18 -14 329.57 18.7
0 18 -14 360.96 22.5
2 18 -14 208.58 11.8
2 18 -14 219.18 14.6
-2 18 -14 210.38 12
-2 18 -14 220.78 14.6
4 18 -14 47.2 4.3
4 18 -14 54.99 2.8
4 18 -14 43 2.9
-4 18 -14 49.99 3.3
-4 18 -14 46.7 2.9
6 18 -14 108.39 6.5
6 18 -14 118.09 6.3
-6 18 -14 113.39 6.7
6 -18 -14 110.39 6.1
8 18 -14 31.9 2
8 -18 14 32.7 2.3
8 18 -14 31.3 2
8 -18 -14 31.4 2.3
10 18 -14 24.4 1.7
10 18 -14 30.7 1.7
10 -18 14 26.2 2.1
-10 18 -14 27 1.9
10 -18 -14 23.7 2
1 19 -14 30.1 3.4
1 19 -14 32.2 1.9
-1 19 -14 29.7 1.9
-1 19 -14 30.3 3.3
-1 19 -14 31.4 2.4
3 19 -14 19.2 1.2
3 19 -14 14.7 1.1
3 19 -14 15.8 2.5
-3 19 -14 18.7 2.6
-3 19 -14 16.5 1.7
-3 19 -14 14.7 1.2
5 19 -14 7.6 0.9
5 19 -14 8.8 0.8
7 19 -14 2.8 0.5
7 19 -14 1.7 0.5
7 -19 -14 3.8 1.1
9 19 -14 2 0.5
9 -19 14 3.2 1.2
9 -19 -14 2.7 1.1
-9 19 -14 3.5 0.8
0 20 -14 138.39 9.8
0 20 -14 132.19 7.5
2 20 -14 188.48 10.1
2 20 -14 181.18 12.7
-2 20 -14 176.98 10.1
-2 20 -14 179.78 12.6
4 20 -14 120.59 6.1
4 20 -14 101.49 8
4 20 -14 101.29 6.3
-4 20 -14 108.99 6.1
6 20 -14 18.7 1.3
6 20 -14 17.6 1.3
8 20 -14 35.6 2.1
8 20 -14 33.1 2.1
8 -20 14 33.1 2.4
8 -20 -14 31 2.4
10 20 -14 8 0.8
10 20 -14 10 0.8
10 -20 -14 5.3 1
-10 20 -14 9.3 1.1
1 21 -14 73.29 5.9
1 21 -14 72.19 4.1
-1 21 -14 72.39 5.8
-1 21 -14 70.39 4.1
3 21 -14 179.48 10.9
3 21 -14 206.48 10.5
3 21 -14 175.08 13.1
-3 21 -14 193.78 10.5
-3 21 -14 190.78 13.1
5 21 -14 28.3 1.8
5 21 -14 31.4 1.9
-5 21 -14 26.4 1.9
7 21 -14 33.7 2.1
7 21 -14 32.4 2.1
9 21 -14 11.4 0.9
9 -21 14 11 1.4
9 21 -14 9.4 0.9
9 -21 -14 10.2 1.3
-9 21 -14 10.3 1.2
0 22 -14 5.8 1.8
0 22 -14 5.9 0.7
2 22 -14 32.7 2
2 22 -14 30.1 2
2 22 -14 28 3.5
-2 22 -14 31.3 3.4
-2 22 -14 32.9 2
4 22 -14 11.6 1
4 22 -14 14.7 1.1
-4 22 -14 13 1.2
6 22 -14 14.6 1.1
6 22 -14 14 1.2
8 -22 14 3.7 1.1
8 22 -14 2.4 0.5
8 22 -14 2.1 0.5
-8 22 -14 4.7 0.8
1 23 -14 74.69 4.2
1 23 -14 68.59 5.9
-1 23 -14 69.29 5.9
-1 23 -14 76.79 4.2
3 23 -14 68.39 3.7
3 23 -14 61.59 3.8
3 23 -14 54.79 5.3
-3 23 -14 67.79 3.7
-3 23 -14 61.49 5.3
5 23 -14 155.08 8.3
5 23 -14 149.49 8.6
-5 23 -14 143.79 8.3
7 23 -14 32.7 2
7 23 -14 28.5 1.9
0 24 -14 20.5 2.9
0 24 -14 27 1.7
2 24 -14 3.2 0.5
2 24 -14 2.3 0.6
2 24 -14 1.5 1.4
-2 24 -14 2.9 0.6
-2 24 -14 1.9 1.4
4 24 -14 23 1.5
4 24 -14 21.4 1.5
-4 24 -14 21.9 1.6
6 24 -14 11.2 1
6 24 -14 12.7 1
8 24 -14 1.6 0.4
8 24 -14 2.2 0.4
-8 24 -14 2.8 0.7
1 25 -14 32.7 2
1 25 -14 30.1 2
-1 25 -14 31.7 2
3 25 -14 35.8 2.2
3 25 -14 34.9 2.2
-3 25 -14 35.7 2.2
5 25 -14 52.39 3.2
5 25 -14 52.59 3.1
-5 25 -14 52.09 3.1
7 25 -14 14.2 1.1
7 25 -14 16.9 1.2
-7 25 -14 16.6 1.4
0 26 -14 6.9 0.8
0 26 -14 6.9 0.9
2 26 -14 86.79 4.9
2 26 -14 84.19 5
-2 26 -14 86.49 4.9
4 26 -14 24.6 1.6
4 26 -14 24.2 1.6
-4 26 -14 23.5 1.7
6 26 -14 36.2 2.2
6 26 -14 33.5 2.2
-6 26 -14 39.2 2.7
1 27 -14 5.7 0.7
1 27 -14 4 0.6
-1 27 -14 4.6 0.7
-1 27 -14 6.2 0.8
3 27 -14 11.1 1
3 27 -14 10.1 1
-3 27 -14 12.2 1.3
-3 27 -14 12.1 1.1
5 27 -14 7.4 0.8
5 27 -14 7.4 0.8
-5 27 -14 8.5 0.9
-5 27 -14 7.2 1.1
0 28 -14 58.09 3.5
0 28 -14 59.59 3.4
2 28 -14 31.3 2
2 28 -14 31.3 2
-2 28 -14 31.8 2.1
-2 28 -14 34.2 2
4 28 -14 72.89 4.3
-4 28 -14 71.99 4.3
-4 28 -14 73.09 4.2
1 29 -14 14.1 1.1
1 29 -14 14.7 1.1
-1 29 -14 15.1 1.1
-1 29 -14 14.1 1.1
0 0 -15 -0.1 0.7
2 0 15 5.1 1.4
-2 0 -15 7.2 1.2
4 0 -15 1.8 1.3
4 0 15 4.7 0.7
4 0 -15 2.9 0.8
-4 0 -15 3.4 0.8
4 0 -15 1.6 0.9
-4 0 -15 2.8 1
-4 0 -15 5.3 1.1
4 0 15 4.8 1.6
6 0 15 1.9 2.4
6 0 15 3.8 0.8
-6 0 -15 2.7 1.2
-6 0 -15 6.5 1.3
6 0 -15 2 1.2
6 0 -15 5.8 1
8 0 -15 0.7 1
-8 0 -15 0.3 1.2
-8 0 -15 1.5 1.4
8 0 -15 1.1 0.4
10 0 -15 0.9 1
-10 0 -15 3.5 1.6
-10 0 -15 1.6 1.5
-12 0 -15 1.8 1.4
-1 -1 -15 67.89 4.9
1 1 -15 70.09 4.9
-1 1 -15 68.69 4.9
-3 -1 -15 10.9 1.3
3 -1 15 16.4 2.2
3 1 -15 12.7 1.2
3 1 -15 9.2 1.2
-3 -1 -15 14.7 1.5
3 1 15 21.2 2.6
-3 1 -15 10.5 1.3
3 -1 -15 12.5 1.9
3 -1 -15 12.1 1.2
3 -1 -15 13.5 1.6
-3 1 -15 14.2 1.5
5 1 -15 2.1 1.4
5 -1 15 2.4 0.7
-5 -1 -15 2.2 1.1
5 1 -15 1.7 0.8
5 -1 15 2.8 1.4
-5 -1 -15 4.2 1.2
5 1 -15 2.8 1.1
-5 -1 -15 1.4 0.8
5 -1 -15 1.1 1.4
5 -1 -15 3 1.2
-5 1 -15 0.7 1.1
-5 1 -15 2.4 1.1
5 -1 -15 2.8 0.8
5 1 15 1.8 1.5
-5 1 -15 1 0.8
7 1 -15 4.5 1.1
-7 -1 -15 6.9 1.5
7 -1 15 5.7 1
-7 -1 -15 5.4 1.5
7 1 -15 4.8 0.5
7 -1 -15 4.6 0.6
7 -1 -15 5.2 1.1
-7 1 -15 4.7 1.5
-7 1 -15 5.9 1.5
-9 -1 -15 0.8 1.6
-9 -1 -15 -0.1 1.2
9 1 -15 0 0.4
9 1 -15 -1.1 0.9
-9 1 -15 0 1.3
-9 1 -15 -1.9 1.4
9 -1 -15 0.3 0.4
9 -1 -15 -0.6 1
11 1 -15 0.6 1
11 1 -15 1 0.5
-11 -1 -15 0.5 1.5
-11 -1 -15 0.9 1.4
11 1 -15 0.3 0.5
-11 1 -15 1.2 1.5
11 -1 -15 0.9 0.4
11 -1 -15 0.9 1
-11 1 -15 0.7 1.5
-13 -1 -15 0.1 1.2
13 1 -15 -0.6 0.4
-13 1 -15 -0.3 1.1
0 2 -15 3.8 1
0 -2 -15 4 0.9
2 -2 15 37.9 2.7
-2 -2 -15 35.5 2.7
2 2 -15 33.9 2.2
2 -2 -15 33.6 2.8
-2 2 -15 36.8 2.8
2 -2 -15 36 2.6
2 2 15 35.9 2.9
-2 2 -15 29.2 2.2
4 2 -15 27.2 2.4
4 2 -15 26.5 2.2
-4 -2 -15 27.3 2
-4 -2 -15 29.2 2.5
4 2 -15 26.2 1.9
4 -2 15 26.5 2.6
4 2 15 29.5 2.8
4 -2 -15 29.8 1.9
-4 2 -15 28.9 1.9
-4 2 -15 30.9 2.5
-4 2 -15 28.6 2.1
4 -2 -15 28.2 2.7
4 -2 -15 25 3
6 2 -15 9.4 1.3
6 -2 15 6.9 1
-6 -2 -15 8.8 1.7
6 -2 15 8.1 2.1
6 2 -15 5.2 3
-6 -2 -15 11 1.5
-6 2 -15 7.3 1.6
-6 2 -15 10.8 1.6
6 -2 -15 9.8 1.3
8 -2 15 2.7 0.9
-8 -2 -15 2 1.3
8 2 -15 0.6 0.9
8 2 -15 4 0.5
-8 -2 -15 4 1.6
-8 2 -15 1.6 1.4
-8 2 -15 1.3 1.4
8 -2 -15 3.2 1.1
8 -2 -15 2.2 0.4
-10 -2 -15 1.9 1.6
-10 -2 -15 1.2 1.4
10 2 -15 1.6 1.1
10 2 -15 1.7 0.5
10 2 -15 2.9 0.5
-10 2 -15 0.4 1.4
-10 2 -15 0.6 1.6
10 -2 -15 1.3 0.5
10 -2 -15 1.4 1.1
12 2 -15 1.6 0.4
12 2 -15 1.1 0.5
-12 -2 -15 0.6 1.4
12 -2 -15 0.8 0.5
-12 2 -15 1.2 1.4
12 -2 -15 1.4 0.9
1 -3 15 3 1.1
1 3 -15 3.8 0.8
1 3 -15 3.7 1
-1 -3 -15 3.5 0.8
1 -3 -15 3.6 0.9
1 -3 -15 2.1 1.1
-1 3 -15 3.3 0.9
-1 3 -15 3.3 0.8
3 3 -15 5 0.8
-3 -3 -15 3.4 1
3 3 -15 5.3 1
3 -3 15 4.6 1.4
-3 -3 -15 4.5 1
-3 3 -15 3 0.8
3 -3 -15 4.3 1.2
-3 3 -15 4.1 1
3 -3 -15 2.6 0.7
3 3 15 2.5 1.3
-3 3 -15 5.5 1.1
3 -3 -15 2.9 1.5
5 3 -15 9.6 1.3
-5 -3 -15 10.6 1.4
-5 -3 -15 8.4 1.4
5 3 -15 4.3 1.4
5 -3 15 7.3 1
5 -3 -15 12.6 1.3
-5 3 -15 8.4 1.5
5 -3 -15 6.6 1.8
-5 3 -15 10.2 1.4
-5 3 -15 9.4 1.2
5 3 15 7.7 1.9
7 -3 15 2.7 0.9
-7 -3 -15 1.8 1.2
7 3 -15 2.3 1
-7 -3 -15 4.2 1.4
7 3 -15 3.9 0.5
-7 3 -15 1.1 1.2
7 -3 -15 3.2 1
7 -3 -15 4.5 0.5
-7 3 -15 2.7 1.3
-9 -3 -15 2.8 1.5
9 3 -15 2.9 0.6
9 3 -15 3.4 1.1
-9 -3 -15 5.3 1.8
9 -3 15 3.1 1
9 -3 -15 3.8 1.2
-9 3 -15 3.7 1.6
-9 3 -15 2.9 1.5
-11 -3 -15 2 1.5
-11 -3 -15 2.7 1.6
11 3 -15 3.7 0.5
11 3 -15 2.9 0.5
11 -3 -15 3.4 0.5
-11 3 -15 1.4 1.5
11 -3 -15 2.7 1.1
-11 3 -15 3.7 1.6
-13 -3 -15 1.3 1.3
13 3 -15 1.9 0.4
13 3 -15 1.9 0.5
-13 3 -15 0.8 1.1
13 -3 -15 1.3 0.4
13 -3 -15 1.1 0.8
0 -4 -15 6.1 1.2
0 -4 -15 5.1 1.3
0 4 -15 6.6 1.2
0 -4 -15 6.5 1.1
0 4 -15 6.4 1
2 4 -15 0.7 0.6
-2 -4 -15 2 0.8
2 4 -15 1.9 0.7
2 -4 -15 0.7 1.2
2 -4 -15 0.9 0.9
-2 4 -15 1.5 0.6
2 -4 -15 1.7 0.9
-2 4 -15 1.4 0.8
-2 4 -15 2.5 0.9
2 4 15 2.5 1.2
4 4 -15 5.2 1
-4 -4 -15 5.7 1.1
-4 -4 -15 5.4 1.1
-4 4 -15 3.2 0.8
-4 4 -15 4.9 1.2
4 -4 -15 4.6 0.9
4 4 15 4.6 1.6
-4 4 -15 5.9 1.1
4 -4 -15 3.4 1.2
6 -4 15 3.5 0.8
-6 -4 -15 3.5 1.2
-6 -4 -15 2.2 1.1
6 4 -15 2.4 0.9
6 4 -15 2.7 0.4
-6 4 -15 2.8 1.2
-6 4 -15 2.8 1.2
6 -4 -15 3.7 1
8 4 -15 -0.3 0.4
8 4 -15 -1.1 0.9
8 -4 15 0.7 0.8
-8 -4 -15 1.8 1.5
8 4 -15 0.3 0.4
-8 -4 -15 0.6 1.3
-8 4 -15 0.5 1.3
-8 4 -15 -0.9 1.3
8 -4 -15 0.4 0.4
8 -4 -15 0.6 1.1
-10 -4 -15 -1.6 1.2
10 4 -15 -0.1 0.4
10 -4 15 -2.1 1.3
-10 -4 -15 -0.8 1.6
10 -4 -15 -0.7 0.4
10 -4 -15 -1.4 1.1
-10 4 -15 -0.8 1.5
-10 4 -15 -0.1 1.4
12 4 -15 -0.4 0.4
-12 -4 -15 -1.3 1.3
12 4 -15 -0.4 0.4
12 -4 -15 0.4 1
-12 4 -15 -1.5 1.2
1 5 -15 2.5 0.7
1 5 -15 2.8 0.9
-1 -5 -15 2 1
-1 -5 -15 2.2 0.7
-1 -5 -15 2 1.1
1 -5 -15 2.5 1.1
-1 5 -15 2.4 0.8
-1 5 -15 2.3 0.7
-1 5 -15 3 0.9
1 -5 -15 2.4 1.3
3 5 -15 1.3 0.6
3 5 -15 2.7 0.7
-3 -5 -15 1.9 0.8
-3 -5 -15 2 1
3 5 15 1.5 1.3
-3 5 -15 1.5 0.7
3 -5 -15 1.9 0.7
-3 5 -15 1.6 0.8
3 -5 -15 -0.5 1.3
3 -5 -15 0.8 0.9
-3 5 -15 1.8 0.8
-5 -5 -15 8.3 1.4
-5 -5 -15 10.5 1.4
-5 -5 -15 5.2 1.3
5 5 -15 10.1 1.3
5 5 -15 10.5 0.8
-5 5 -15 8.8 1.1
-5 5 -15 10.7 1.5
5 -5 -15 7.1 1.1
-5 5 -15 9 1.5
7 5 -15 2.5 0.9
-7 -5 -15 4.1 1.4
-7 -5 -15 1.4 1.1
7 -5 15 2.8 0.9
7 -5 -15 3.6 1
-7 5 -15 1.4 1.3
-7 5 -15 1.6 1.3
-9 -5 -15 23.3 2.5
9 -5 15 20.8 1.9
9 5 -15 23.4 1.5
9 5 -15 21.1 1.4
9 -5 -15 23.2 1.4
-9 5 -15 23.9 2.5
-9 5 -15 16.1 2.6
9 -5 -15 25.6 2.1
-11 -5 -15 2.8 1.6
-11 -5 -15 5.1 1.6
11 -5 -15 5.6 1.3
-11 5 -15 3.7 1.6
-11 5 -15 2.6 1.6
-13 -5 -15 0.7 1.2
13 5 -15 1.7 0.4
13 -5 -15 1.6 0.4
-13 5 -15 0.9 1.2
13 -5 -15 1 0.8
0 -6 -15 0.3 0.8
0 6 -15 0 0.5
0 6 -15 -0.3 0.6
0 6 -15 0.4 0.7
0 -6 -15 0.1 1
2 6 -15 4.3 0.8
2 6 -15 4.7 0.9
-2 -6 -15 5 1.4
2 -6 -15 3.8 0.8
-2 6 -15 4.5 0.9
2 -6 -15 2.1 1.5
2 -6 -15 3.4 1.3
-2 6 -15 3.9 0.8
-2 6 -15 4.5 1.1
2 6 15 5.3 1.6
-4 -6 -15 1.2 0.8
-4 -6 -15 1.4 0.9
4 6 -15 0.9 0.7
-4 -6 -15 2.4 1.3
4 -6 -15 0.3 1.4
4 -6 -15 0.9 0.7
-4 6 -15 1.3 0.7
-4 6 -15 1.6 0.9
-4 6 -15 0.8 0.9
4 6 15 1.3 1.4
6 6 -15 1.9 0.7
6 -6 15 5.7 0.9
-6 -6 -15 3.7 1.2
-6 -6 -15 3.3 1.2
6 6 -15 3.7 0.4
-6 6 -15 2.3 1.2
6 -6 -15 3.1 0.4
-6 6 -15 2.9 1.3
6 -6 -15 2.8 0.9
8 6 -15 2.2 0.4
-8 -6 -15 1.1 1.3
-8 -6 -15 3.9 1.6
8 6 -15 3.3 0.5
8 -6 15 3.7 1
8 -6 -15 3.6 1.2
-8 6 -15 2.3 1.4
-8 6 -15 2.9 1.5
8 -6 -15 3.9 0.5
10 -6 15 1 1.1
10 6 -15 -0.1 0.5
-10 -6 -15 2 1.7
10 6 -15 1.9 0.5
-10 -6 -15 1 1.5
-10 6 -15 -0.3 1.5
-10 6 -15 0.1 1.3
10 -6 -15 2.4 0.5
10 -6 -15 1.1 1.2
12 6 -15 0.1 0.4
12 6 -15 0.5 0.4
-12 -6 -15 -0.1 1.3
-12 6 -15 -1.3 1.3
12 -6 -15 -0.2 0.9
1 7 -15 7.8 1
1 7 -15 8.2 1
-1 -7 -15 5.9 1.5
1 7 -15 7.5 1.2
-1 -7 -15 8.4 1.8
-1 7 -15 8.4 1
-1 7 -15 6.6 1.1
1 -7 -15 5.9 1.7
-1 7 -15 7.8 1.1
1 -7 -15 8 1.7
3 7 -15 2.9 0.8
3 7 -15 2.3 0.7
-3 -7 -15 1.1 1.1
-3 -7 -15 1.4 1
3 7 15 0 1.1
3 -7 -15 1.1 1.2
3 -7 -15 1.3 0.7
-3 7 -15 1.5 0.8
-3 7 -15 1.7 0.7
-3 7 -15 2 0.9
5 7 -15 0.8 0.7
-5 -7 -15 0.6 1
5 7 -15 2.1 0.4
5 -7 -15 1.3 0.7
-5 7 -15 0.7 1
-5 7 -15 1.6 1
-7 -7 -15 9.9 1.8
-7 -7 -15 13 2.3
7 7 -15 14.9 1
7 -7 15 10.3 1.3
7 7 -15 13 0.9
7 -7 -15 13.6 0.9
-7 7 -15 13.8 1.9
7 -7 -15 12.1 1.6
-7 7 -15 11.4 1.9
9 7 -15 5.8 0.8
9 -7 15 7.9 1.3
-9 -7 -15 3.9 1.6
9 7 -15 8.2 0.9
-9 -7 -15 8.8 2
-9 7 -15 7.7 1.8
9 -7 -15 9.5 0.8
9 -7 -15 7.1 1.4
-9 7 -15 5.2 1.8
-11 -7 -15 1.8 1.5
11 -7 15 3.1 1.2
11 7 -15 2.2 0.5
-11 7 -15 0.3 1.4
-11 7 -15 1.9 1.5
11 -7 -15 2.7 1.2
13 7 -15 0.5 0.3
13 7 -15 0.4 0.3
13 -7 -15 1 0.8
-13 7 -15 0.7 1
0 -8 -15 1.2 1
0 8 -15 1.2 0.6
0 8 -15 1.1 0.8
0 8 -15 0.8 0.7
0 -8 -15 -0.1 0.9
2 8 -15 4.5 0.8
-2 -8 -15 4.8 1.4
-2 -8 -15 6.6 1.8
2 8 -15 4.6 0.9
2 8 -15 3.6 1.1
-2 8 -15 5.8 1
2 8 15 5.8 1.6
-2 8 -15 5.4 0.9
2 -8 -15 5.5 0.9
2 -8 -15 4.7 1.5
-2 8 -15 5.7 1.2
-4 -8 -15 5.7 1.9
4 8 -15 9.6 1.1
-4 -8 -15 5.2 1.5
4 8 -15 6.4 0.6
-4 8 -15 6.4 1
-4 8 -15 8 1.3
4 -8 -15 6.7 1
-4 8 -15 7.7 1.3
6 8 -15 2 0.4
6 8 -15 2 0.4
6 -8 15 2.8 0.7
6 -8 -15 2 0.9
-6 8 -15 1.4 1.1
-6 8 -15 1.8 1.2
6 -8 -15 1.6 0.4
8 8 -15 26.1 1.5
8 -8 15 23.6 1.8
8 8 -15 19.7 1.5
8 -8 -15 25.7 1.5
8 -8 -15 22.5 2.1
-8 8 -15 24.1 2.5
-8 8 -15 17.2 2.6
-10 -8 -15 4.6 1.8
10 -8 15 3.7 1.3
-10 8 -15 0.5 1.4
-10 8 -15 1.5 1.6
10 -8 -15 4.2 1.3
12 8 -15 0.9 0.4
12 -8 -15 1 0.9
-12 8 -15 0.9 1.3
1 9 -15 7.7 1.5
1 9 -15 7.8 1.1
1 9 -15 9.4 1
-1 -9 -15 6.7 1.8
-1 9 -15 7.7 1.1
-1 9 -15 7.5 1.3
1 -9 -15 10.2 2.3
-1 9 -15 7.5 1
1 -9 -15 6 0.9
-3 -9 -15 0.9 1.3
3 9 -15 0.1 0.6
3 9 -15 0.1 0.3
3 9 -15 -0.6 0.5
3 9 -15 -0.1 0.8
-3 9 -15 0.6 0.8
-3 9 -15 0 0.6
-3 9 -15 0.2 0.7
3 -9 -15 0.2 0.7
3 9 15 0.4 1.2
5 9 -15 0.4 0.3
-5 9 -15 0.1 1
-5 9 -15 0.7 1
5 -9 -15 -0.1 0.4
5 -9 -15 1.6 0.8
7 9 -15 0.9 0.4
7 -9 15 1.1 0.8
7 9 -15 -0.2 0.4
-7 9 -15 1.2 1.4
7 -9 -15 0.9 0.4
7 -9 -15 1.8 1.1
-7 9 -15 1.5 1.3
9 9 -15 1 0.5
9 -9 15 0.7 1.1
9 9 -15 -0.3 0.5
9 -9 -15 1.4 0.4
9 -9 -15 -0.2 1.3
-9 9 -15 -0.7 1.4
-9 9 -15 -0.9 1.6
11 9 -15 -0.3 0.4
11 -9 15 0 1
11 9 -15 -0.5 0.4
-11 9 -15 -0.6 1.4
-11 9 -15 -0.7 1.3
11 -9 -15 -0.6 1
13 9 -15 -0.4 0.3
13 9 -15 0 0.3
13 -9 -15 0.4 0.7
0 10 -15 4.6 1.3
0 10 -15 5.3 1
0 -10 -15 4.1 1.5
0 10 -15 5.9 0.9
0 10 -15 5.3 1.2
-2 -10 -15 1.4 1.3
2 10 -15 2.3 1
2 10 -15 2.6 0.8
2 10 -15 3.3 0.7
-2 10 -15 2.1 0.7
2 -10 -15 2.5 0.8
2 10 15 1.4 1.3
-2 10 -15 2.3 1
-2 10 -15 2.6 0.9
-4 -10 -15 3.5 1.7
4 10 -15 1.2 0.9
4 10 -15 1.8 0.4
-4 10 -15 2.9 1
4 -10 -15 3.7 0.9
-4 10 -15 2.5 1.1
6 10 -15 3.8 0.6
6 10 -15 5 0.7
-6 10 -15 2 1.2
6 -10 -15 4.8 0.6
6 -10 -15 3 1
-6 10 -15 2.8 1.3
8 -10 15 10.5 1.3
8 -10 -15 8 1.5
-8 10 -15 4.4 1.7
10 -10 15 4.7 1.2
-10 10 -15 0.7 1.4
-10 10 -15 1.8 1.5
10 -10 -15 3.4 1.3
12 10 -15 0.4 0.4
12 10 -15 0.8 0.4
12 -10 15 1 1.2
12 -10 -15 0.9 0.9
-12 10 -15 0.3 1.2
1 11 -15 8.2 1.1
1 11 -15 7.7 1.1
1 11 -15 10.1 1.7
-1 11 -15 7.5 1.3
-1 11 -15 8 1.1
-1 11 -15 10.7 1.1
-1 11 -15 7.3 1.5
3 11 -15 2 1
3 11 -15 2.9 0.7
3 11 -15 3.4 0.9
3 11 -15 2.6 0.4
-3 11 -15 2.5 1
-3 11 -15 4.9 1
3 -11 -15 3.7 0.9
-3 11 -15 2.5 0.8
5 11 -15 0.8 0.3
5 11 -15 1.2 0.4
5 -11 -15 1.3 0.9
5 -11 -15 0.4 0.3
-5 11 -15 0.5 1
-5 11 -15 1.6 1.1
7 -11 15 1.3 0.9
7 11 -15 0.9 0.4
7 -11 -15 -0.3 0.4
7 -11 -15 1.6 1.1
-7 11 -15 0.7 1.3
-7 11 -15 -0.6 1.3
9 11 -15 7 0.7
9 -11 15 5.6 1.3
9 11 -15 6.4 0.8
-9 11 -15 1.9 1.6
-9 11 -15 3.3 1.6
9 -11 -15 5 1.5
11 -11 15 -0.1 1
11 11 -15 0.1 0.4
11 11 -15 -0.1 0.4
-11 11 -15 -0.2 1.3
11 -11 -15 0.3 1
0 12 -15 0.4 0.8
0 12 -15 0.5 0.6
0 12 -15 0.8 0.3
0 12 -15 0.5 0.9
0 12 -15 0.1 0.9
2 12 -15 8.4 1.2
2 12 -15 6.7 0.6
2 12 -15 8.8 1.6
2 12 -15 7.6 1
-2 12 -15 6.7 1.4
2 -12 -15 6.9 1
-2 12 -15 6.6 1.5
-2 12 -15 7.8 1.2
-2 12 -15 6.5 1
4 12 -15 0.5 0.9
4 12 -15 1.5 0.4
-4 12 -15 1.3 1.1
4 -12 -15 1.1 0.3
-4 12 -15 0.8 0.9
4 -12 -15 0.6 0.8
6 12 -15 2.3 0.4
6 12 -15 2.6 0.4
6 -12 -15 3.4 1.1
-6 12 -15 2 1.3
6 -12 -15 1.6 0.4
-6 12 -15 2.2 1.3
8 12 -15 4 0.6
8 -12 15 2.1 1.1
-8 12 -15 1.4 1.4
-8 12 -15 2.8 1.6
8 -12 -15 2.4 0.5
8 -12 -15 4.2 1.4
10 -12 15 -0.4 1.1
10 12 -15 -0.1 0.5
10 12 -15 -0.1 0.4
10 -12 -15 -0.4 1
-10 12 -15 -0.6 1.3
-10 12 -15 0.1 1.4
12 12 -15 0.3 0.3
12 12 -15 0.5 0.3
12 -12 15 1.2 1.2
12 -12 -15 -0.4 0.8
-12 12 -15 -0.7 1.1
1 13 -15 2.2 1.1
1 13 -15 2.4 0.8
1 13 -15 1.7 0.3
1 13 -15 1.4 0.8
-1 13 -15 1.4 1
-1 13 -15 1.6 0.9
-1 13 -15 1.1 0.8
-1 13 -15 0.6 0.3
-1 13 -15 1.9 0.7
3 13 -15 21.2 1.3
3 13 -15 20.6 2.4
-3 13 -15 21.8 1.8
3 -13 -15 17.5 1.6
-3 13 -15 21.7 2.2
5 13 -15 0.4 0.3
5 13 -15 0.1 0.4
-5 13 -15 0.6 1.1
5 -13 -15 0.1 0.3
5 -13 -15 1.6 0.8
-5 13 -15 1.9 1.1
7 13 -15 9.1 0.9
7 13 -15 12 0.8
7 -13 -15 8.7 0.9
-7 13 -15 5.6 1.8
7 -13 -15 10 1.5
-7 13 -15 6.9 1.7
9 13 -15 1.6 0.4
9 13 -15 1.2 0.5
9 -13 15 1.3 1.1
-9 13 -15 1 1.4
-9 13 -15 -0.4 1.3
9 -13 -15 2.3 1.3
11 13 -15 7.1 0.7
11 -13 15 6.3 1.3
11 13 -15 6.2 0.7
11 -13 -15 4.3 1.2
-11 13 -15 4.4 1.5
0 14 -15 0.3 1
0 14 -15 -0.6 0.6
0 14 -15 -0.3 0.7
0 14 -15 -0.7 0.3
2 14 -15 0.5 0.3
2 14 -15 0.8 0.8
2 14 -15 0.8 1.1
-2 14 -15 0.2 1
-2 14 -15 -0.2 0.6
-2 14 -15 0.3 0.3
-2 14 -15 0.6 0.8
-2 14 -15 0.7 0.9
4 14 -15 0.6 1
4 14 -15 0.5 0.3
-4 14 -15 0.2 1
-4 14 -15 1.1 1.1
4 -14 -15 0.4 0.8
4 -14 -15 0.3 0.3
6 14 -15 0.4 0.3
6 14 -15 0.2 0.4
-6 14 -15 -0.4 1.2
6 -14 -15 -0.7 1.1
-6 14 -15 -0.4 1.2
8 14 -15 -0.3 0.4
8 14 -15 -0.2 0.4
8 -14 15 -1.2 1
-8 14 -15 -2.8 1.4
8 -14 -15 1.2 1.2
-8 14 -15 -1.1 1.2
10 14 -15 -0.2 0.4
10 14 -15 -0.9 0.4
10 -14 15 -1.5 1.1
10 -14 -15 0.1 1.1
-10 14 -15 -1.1 1.4
12 14 -15 -0.7 0.3
12 14 -15 0.1 0.3
12 -14 -15 -0.1 0.7
1 15 -15 1.2 1.1
1 15 -15 1.8 0.4
1 15 -15 3 0.9
-1 15 -15 4.1 0.9
-1 15 -15 2.7 0.4
-1 15 -15 3.2 1.2
-1 15 -15 2.8 1
-1 15 -15 3.3 1.3
3 15 -15 -0.4 1
3 15 -15 1.6 0.4
-3 15 -15 1.3 0.9
-3 15 -15 0.8 1
3 -15 -15 0.8 0.3
5 15 -15 1.6 0.4
5 15 -15 2.5 0.4
-5 15 -15 0.4 1.1
5 -15 -15 1.1 1
-5 15 -15 2 1.3
5 -15 -15 1.2 0.4
7 15 -15 0.4 0.5
7 15 -15 1.1 0.4
7 -15 -15 1.7 1.2
-7 15 -15 -0.2 1.2
-7 15 -15 0.9 1.3
9 15 -15 9.2 0.8
9 15 -15 7 0.8
9 -15 15 6.5 1.3
9 -15 -15 6.4 1.3
-9 15 -15 5.4 1.5
-9 15 -15 3.3 1.7
11 15 -15 0.9 0.4
11 -15 15 1 0.9
11 15 -15 1.1 0.4
-11 15 -15 1.4 1.2
11 -15 -15 1.4 1
0 16 -15 1.8 1.2
0 16 -15 0.8 0.8
0 16 -15 1.6 0.9
0 16 -15 0.7 0.4
2 16 -15 10.7 0.9
2 16 -15 11.2 2.1
2 16 -15 9 1.3
-2 16 -15 13.9 2.2
-2 16 -15 10.2 0.9
-2 16 -15 12.6 1.4
-2 16 -15 13.9 1.7
4 16 -15 1.1 0.4
4 16 -15 1.4 0.4
4 16 -15 1.1 1.2
4 -16 -15 1.5 1.2
-4 16 -15 0.7 1.1
-4 16 -15 2.1 1.2
4 -16 -15 1 0.4
6 16 -15 4.9 0.7
6 16 -15 5.4 0.6
-6 16 -15 4.9 1.4
-6 16 -15 3.5 1.5
6 -16 -15 6 1.2
8 16 -15 0.8 0.5
8 16 -15 2.1 0.4
8 -16 15 0.9 1.1
8 -16 -15 1.9 1.2
-8 16 -15 1 1.3
-8 16 -15 0.3 1.4
10 -16 15 -0.8 1.1
10 16 -15 0.5 0.4
10 16 -15 0.2 0.4
-10 16 -15 0 0.8
-10 16 -15 -0.4 1.1
10 -16 -15 -0.2 1
1 17 -15 3.7 0.5
1 17 -15 5 1.1
1 17 -15 3.8 1.5
-1 17 -15 5.4 0.6
-1 17 -15 4.6 1.1
-1 17 -15 5.6 1.6
3 17 -15 4.5 1.6
3 17 -15 4.9 0.7
-3 17 -15 6.2 1.7
-3 17 -15 6.9 1.5
3 -17 -15 4.7 0.7
-3 17 -15 7.5 1.3
-3 17 -15 5.8 0.6
5 17 -15 1.5 0.5
5 17 -15 2 0.4
-5 17 -15 1.3 1.2
5 -17 -15 2.7 1.1
-5 17 -15 1.4 1.2
7 17 -15 -0.1 0.4
7 17 -15 -0.2 0.4
-7 17 -15 -1.6 1.2
7 -17 -15 -0.7 1.1
9 17 -15 0.4 0.4
9 -17 15 0.3 1
9 17 -15 -0.4 0.4
-9 17 -15 -0.2 1.2
9 -17 -15 -1 1
11 17 -15 0.5 0.3
11 17 -15 0.5 0.3
11 -17 -15 0.3 0.8
0 18 -15 1.8 1.3
0 18 -15 1.9 1
0 18 -15 1.3 0.4
2 18 -15 27.4 1.8
2 18 -15 28.1 3.3
-2 18 -15 32 2.4
-2 18 -15 33.9 3.3
-2 18 -15 30.2 1.9
4 18 -15 3 1.5
4 18 -15 4.5 0.5
4 18 -15 6.1 0.8
-4 18 -15 6.3 1.3
6 18 -15 2.9 0.5
6 18 -15 4.5 0.6
6 -18 -15 4 1.2
-6 18 -15 5.1 1.4
8 18 -15 1.4 0.5
8 -18 15 2.9 1.1
8 -18 -15 1 1.1
10 18 -15 1.7 0.4
10 18 -15 0.6 0.4
10 -18 15 0.8 1
-10 18 -15 1.8 0.8
10 -18 -15 1 1
1 19 -15 0.5 1.3
-1 19 -15 1 1.3
-1 19 -15 0 0.4
-1 19 -15 1 1
3 19 -15 3.4 1.6
3 19 -15 4 0.6
-3 19 -15 5.5 1.3
-3 19 -15 4.6 0.6
-3 19 -15 4.9 1.7
5 19 -15 0.9 0.4
5 19 -15 1.9 0.5
-5 19 -15 0.2 1.1
7 19 -15 -0.4 0.4
7 19 -15 0.1 0.4
7 -19 -15 -1 0.9
9 19 -15 0.6 0.4
9 19 -15 -0.1 0.4
9 -19 15 0.4 0.9
9 -19 -15 0.5 1
-9 19 -15 0.2 1
0 20 -15 0 0.4
0 20 -15 0.4 1
0 20 -15 0.5 1.2
2 20 -15 2.6 1.5
2 20 -15 2.6 0.5
-2 20 -15 2.3 1.4
-2 20 -15 2.6 1.5
-2 20 -15 1.6 0.5
4 20 -15 20.7 1.5
-4 20 -15 21.7 1.5
6 20 -15 2.3 0.5
6 20 -15 2.7 0.4
8 20 -15 0.7 0.4
8 20 -15 1.1 0.4
8 -20 15 1.1 1.1
8 -20 -15 1.2 0.9
10 20 -15 0.3 0.3
10 20 -15 1.3 0.4
-10 20 -15 0 0.7
10 -20 -15 1 1.1
1 21 -15 7.5 1.9
1 21 -15 6 0.9
-1 21 -15 6.7 0.9
-1 21 -15 4.9 1.6
3 21 -15 0.8 0.4
3 21 -15 0.4 1.4
3 21 -15 1.1 0.5
-3 21 -15 2.1 0.5
-3 21 -15 2.2 1.5
5 21 -15 1 0.5
5 21 -15 1.2 0.4
7 21 -15 -0.2 0.4
7 21 -15 -0.3 0.4
9 21 -15 0.4 0.4
9 21 -15 0.8 0.4
-9 21 -15 1.6 0.8
9 -21 -15 -0.3 0.9
0 22 -15 -0.1 0.5
0 22 -15 0.8 1.3
2 22 -15 0.2 1.3
2 22 -15 -0.4 0.5
-2 22 -15 0.3 0.5
-2 22 -15 0.6 1.3
4 22 -15 2.9 0.6
4 22 -15 2.4 1.4
4 22 -15 3.4 0.5
-4 22 -15 2.2 0.6
6 22 -15 -0.4 0.4
8 22 -15 -0.2 0.4
8 22 -15 -0.6 0.4
8 -22 15 -0.3 1
1 23 -15 12.8 1.2
-1 23 -15 15.8 2.5
-1 23 -15 17.2 1.2
3 23 -15 29.8 1.9
3 23 -15 27.1 3.2
3 23 -15 30.8 1.9
-3 23 -15 27.8 1.9
5 23 -15 2.1 0.5
5 23 -15 1.8 0.5
7 23 -15 0.1 0.4
7 23 -15 0.3 0.4
0 24 -15 -0.3 0.5
0 24 -15 -1.1 1.1
2 24 -15 0 1.5
2 24 -15 -0.2 0.4
2 24 -15 -0.5 0.5
-2 24 -15 0.4 0.5
-2 24 -15 -0.1 1.4
4 24 -15 0.1 0.5
4 24 -15 0.9 0.4
-4 24 -15 0.6 0.5
6 24 -15 -0.5 0.4
6 24 -15 0.2 0.4
1 25 -15 9.5 0.9
1 25 -15 10.7 1
-1 25 -15 7.5 1
3 25 -15 -0.2 0.5
3 25 -15 0 0.4
-3 25 -15 1.4 0.5
5 25 -15 1 0.4
5 25 -15 1 0.5
-5 25 -15 0.3 0.7
7 25 -15 0.1 0.4
7 25 -15 -0.2 0.4
0 26 -15 -0.5 0.4
0 26 -15 0 0.5
2 26 -15 6 0.8
2 26 -15 6 0.8
-2 26 -15 3.8 0.6
4 26 -15 -0.9 0.4
4 26 -15 -0.2 0.4
-4 26 -15 0.3 0.5
6 26 -15 0.5 0.4
6 26 -15 0.7 0.4
1 27 -15 -0.3 0.4
1 27 -15 0.1 0.4
-1 27 -15 0.5 0.5
3 27 -15 -0.3 0.4
3 27 -15 -0.5 0.4
-3 27 -15 0.6 0.5
5 27 -15 -0.8 0.4
0 28 -15 -0.1 0.4
0 28 -15 0 0.4
2 28 -15 0.4 0.4
2 28 -15 0.1 0.3
-2 28 -15 0.3 0.4
1 29 -15 0.8 0.4
1 29 -15 0.4 0.4
-1 29 -15 0.5 0.4
-1 29 -15 0.4 0.4
0 0 -16 335.77 22.4
2 0 -16 1509.85 73.09
-2 0 -16 1401.06 73.09
2 0 -16 1391.06 78.09
-2 0 -16 1580.44 95.89
-2 0 -16 1286.47 78.09
2 0 16 1584.34 62.19
4 0 -16 680.13 38.5
-4 0 -16 707.53 39.6
-4 0 -16 814.42 48.7
4 0 16 769.62 32.4
4 0 16 747.23 41.3
4 0 -16 734.83 37
4 0 -16 711.43 38.8
-4 0 -16 711.63 37
6 0 -16 329.17 17
6 0 16 334.47 18.9
-6 0 -16 326.07 22.4
-6 0 -16 338.57 18.2
8 0 -16 44.4 2.7
-8 0 -16 42.1 4
8 0 -16 48.5 3
-8 0 -16 49 3.4
10 0 -16 24.3 1.5
-10 0 -16 24 2.6
10 0 -16 21.8 2
-12 0 -16 22.4 2.4
12 0 -16 25.4 1.6
12 0 -16 24.5 1.5
-1 -1 -16 88.69 5.9
1 1 -16 92.09 5.9
1 -1 16 91.09 4.8
1 1 -16 78.49 4.5
1 1 -16 77.09 4.7
-1 1 -16 76.39 4.5
-1 1 -16 88.89 5.9
1 -1 -16 81.19 4.5
-1 1 -16 73.59 4.7
3 -1 16 157.88 7.8
3 1 -16 156.88 7.9
3 1 -16 146.99 8.4
-3 -1 -16 167.18 10.4
-3 -1 -16 142.19 7.9
-3 -1 -16 139.89 8.4
3 -1 -16 148.89 8.7
-3 1 -16 142.29 7.9
3 1 16 160.78 8
-3 1 -16 137.99 8.4
3 -1 -16 156.48 8.5
-3 1 -16 165.58 10.5
3 -1 -16 150.08 7.9
5 1 -16 63.39 5.3
-5 -1 -16 66.69 3.8
5 1 -16 52.79 4.7
5 -1 16 69.39 4
5 -1 16 68.19 4.6
-5 -1 -16 73.19 5.2
5 1 -16 73.59 3.9
-5 -1 -16 72.79 4.2
5 1 16 63.89 4.7
-5 1 -16 71.39 4.2
-5 1 -16 71.79 5.2
5 -1 -16 59.39 5.2
5 -1 -16 60.59 4.7
5 -1 -16 68.69 3.9
-5 1 -16 64.69 3.8
-7 -1 -16 16.6 2
7 1 -16 14.9 1
7 1 -16 16.7 1.6
-7 -1 -16 13.4 2
7 -1 16 14.6 1.4
7 -1 -16 15.1 1
-7 1 -16 17.9 2
-7 1 -16 13.4 2
7 -1 -16 16.3 1.7
9 1 -16 2.3 1.2
-9 -1 -16 3.8 1.6
9 1 -16 4.2 0.5
-9 -1 -16 2.7 1.6
-9 1 -16 2.3 1.5
-9 1 -16 2.1 1.6
9 -1 -16 3.2 1.2
9 -1 -16 4.2 0.5
11 1 -16 2.6 1.1
-11 -1 -16 2.5 1.5
-11 -1 -16 3.1 1.6
11 1 -16 2 0.5
11 1 -16 2.8 0.5
11 -1 -16 3 1.1
-11 1 -16 2.1 1.5
-11 1 -16 0.9 1.5
11 -1 -16 2.9 0.5
-13 -1 -16 0.5 1.1
13 1 -16 0 0.3
13 -1 -16 0.3 0.4
-13 1 -16 0.1 1.2
0 -2 -16 683.73 42.4
0 2 -16 585.74 32.3
0 2 -16 704.73 42.5
0 2 -16 592.84 34.5
2 -2 16 342.57 14.9
2 2 -16 335.17 16.7
-2 -2 -16 348.77 21.8
-2 -2 -16 275.57 17.7
2 2 -16 323.67 17.7
-2 2 -16 302.47 17.7
2 2 16 362.26 15.3
2 -2 -16 307.17 16.6
2 -2 -16 333.27 17.4
2 -2 -16 329.17 17.6
-2 2 -16 357.06 21.9
-2 2 -16 316.07 16.6
-4 -2 -16 657.63 41.3
4 -2 16 620.64 27.5
-4 -2 -16 597.34 33.6
4 2 -16 639.04 31.4
-4 -2 -16 570.74 31.4
4 -2 -16 617.94 33.1
4 -2 -16 567.74 33.4
4 -2 -16 611.84 31.4
-4 2 -16 625.64 31.4
4 2 16 650.83 27.8
-4 2 -16 680.93 41.3
-4 2 -16 624.84 33.6
6 -2 16 136.99 7.8
-6 -2 -16 134.79 9.6
6 2 -16 137.09 7.2
-6 -2 -16 142.29 7.8
-6 2 -16 130.09 9.6
6 -2 -16 137.99 7.2
-6 2 -16 141.49 7.8
6 -2 -16 121.69 7.8
8 -2 16 28.9 2.1
8 2 -16 30.1 2.2
-8 -2 -16 24.2 2.8
-8 -2 -16 28.2 2.6
8 2 -16 27.7 1.7
-8 2 -16 23.1 2.9
-8 2 -16 31.6 2.7
8 -2 -16 31.2 2.3
8 -2 -16 28.5 1.7
10 2 -16 15.4 1.8
10 2 -16 17.9 1.3
-10 -2 -16 18.3 2.3
10 2 -16 17 1.2
-10 2 -16 17.8 2.4
10 -2 -16 18.1 1.2
10 -2 -16 20.2 1.9
-12 -2 -16 6.9 1.7
12 2 -16 8.7 0.8
12 2 -16 8.4 0.7
12 -2 -16 8.4 0.7
12 -2 -16 5.6 1.2
12 -2 -16 7.7 0.8
-12 2 -16 4.9 1.5
-1 -3 -16 459.65 28.7
1 3 -16 408.86 21.9
1 3 -16 420.16 23.4
1 -3 16 458.55 19.2
1 3 -16 475.95 28.8
1 -3 -16 404.66 21.9
-1 3 -16 403.06 21.9
-1 3 -16 468.85 28.8
-1 3 -16 401.56 23.4
3 3 -16 395.46 21.5
-3 -3 -16 345.57 21.4
3 3 -16 413.96 20.2
-3 -3 -16 424.96 26.4
-3 3 -16 363.86 21.5
3 3 16 416.86 18.3
3 -3 -16 368.66 20.1
-3 3 -16 395.56 20.1
-3 3 -16 438.06 26.5
3 -3 -16 391.36 21.8
3 -3 -16 412.06 21.4
-5 -3 -16 343.07 19.3
5 3 -16 375.66 18.1
5 -3 16 334.47 20
-5 -3 -16 362.66 23.8
-5 3 -16 366.56 19.4
5 -3 -16 321.07 19.7
-5 3 -16 352.16 18.1
-5 3 -16 386.66 24
5 -3 -16 348.27 18.1
7 3 -16 55.49 3.2
-7 -3 -16 48.5 4.2
7 3 -16 48.2 3
-7 -3 -16 55.19 3.6
7 -3 16 47.7 3.2
-7 3 -16 55.39 3.6
-7 3 -16 50.89 4.3
7 -3 -16 49.6 3
7 -3 -16 56.79 3.2
9 -3 16 43.9 3
9 3 -16 42.3 2.5
9 3 -16 41 2.5
-9 -3 -16 46.2 3.3
9 3 -16 40.6 2.8
9 -3 -16 43 2.5
-9 3 -16 35 3.8
9 -3 -16 46.3 2.9
-9 3 -16 41.5 3.4
-11 -3 -16 10.9 2
11 3 -16 14.5 1.1
11 3 -16 14.9 1.1
11 -3 -16 15.9 1.7
11 -3 -16 15.1 1
-11 3 -16 8.3 1.9
13 3 -16 9.4 0.8
13 3 -16 9.2 0.7
-13 -3 -16 4.6 1.4
-13 3 -16 5.4 1.4
13 -3 -16 9.4 0.8
0 -4 -16 46.6 3.4
0 -4 -16 43.2 3.2
0 4 -16 45.5 2.7
0 4 -16 49 3.6
0 4 -16 43.8 2.8
0 -4 -16 46.1 3.1
2 4 -16 22.3 1.7
-2 -4 -16 23.1 2
2 4 -16 22.8 1.6
2 -4 -16 18.9 2.5
-2 4 -16 22.6 1.6
-2 4 -16 21 1.7
-2 4 -16 25.2 2.1
2 -4 -16 22.7 1.6
2 -4 -16 23.4 2.2
2 4 16 24.6 2.5
4 4 -16 34.7 2.3
-4 -4 -16 37 3
-4 -4 -16 36.8 2.5
4 -4 -16 33.9 3.3
-4 4 -16 38.8 3.1
4 4 16 37.4 3.3
-4 4 -16 37.4 2.5
-4 4 -16 38.4 2.3
4 -4 -16 36.1 2.3
-6 -4 -16 7.5 1.6
6 4 -16 10 1.3
6 4 -16 9 0.8
-6 -4 -16 9.3 1.6
6 -4 16 8.4 1
6 -4 -16 9 0.7
-6 4 -16 8.1 1.7
6 -4 -16 8.2 1.2
-6 4 -16 9.7 1.6
-8 -4 -16 5.9 1.7
8 4 -16 5.5 0.7
-8 -4 -16 8.2 1.7
8 4 -16 6.9 0.8
8 4 -16 5.5 1.3
8 -4 16 8.5 1.2
-8 4 -16 6.5 1.7
8 -4 -16 6.8 1.4
-8 4 -16 4.1 1.6
8 -4 -16 8.6 0.7
10 4 -16 -0.3 0.4
-10 -4 -16 0.4 1.5
10 4 -16 0.6 0.5
-10 -4 -16 1.7 1.5
10 -4 -16 1.1 0.4
-10 4 -16 -0.4 1.4
-10 4 -16 -1.2 1.4
10 -4 -16 1.8 1.1
-12 -4 -16 1 1.4
12 4 -16 0.9 0.4
12 4 -16 0.6 0.4
12 -4 -16 1.1 0.9
-12 4 -16 1.3 1.4
-1 -5 -16 325.37 17.4
-1 -5 -16 325.27 21.4
-1 -5 -16 329.17 17.3
1 5 -16 310.67 17.5
1 5 -16 307.87 16.3
1 5 -16 344.37 21.5
1 -5 -16 335.77 17.8
-1 5 -16 299.97 17.5
-1 5 -16 346.27 21.5
-1 5 -16 307.77 16.4
1 -5 -16 283.47 16.3
1 -5 -16 340.77 17.6
3 5 -16 437.26 21.2
-3 -5 -16 435.26 27.7
3 5 -16 420.06 22.6
-3 5 -16 450.25 27.9
-3 5 -16 416.36 21.2
3 -5 -16 376.66 21.1
3 -5 -16 428.16 22.8
3 -5 -16 387.46 23.1
3 5 16 443.76 19.3
-3 5 -16 380.06 22.6
-5 -5 -16 101.89 6.3
-5 -5 -16 114.89 7.8
5 5 -16 107.19 6.1
-5 5 -16 118.99 8
-5 5 -16 111.49 6.5
5 -5 -16 111.29 6
-5 5 -16 109.89 6
7 5 -16 143.69 7.7
7 5 -16 131.29 7.9
-7 -5 -16 122.09 9.7
-7 -5 -16 143.79 8
7 5 -16 145.79 7.4
7 -5 16 133.69 8
-7 5 -16 124.89 9.9
7 -5 -16 134.99 8
7 -5 -16 148.99 7.5
-7 5 -16 154.88 8.1
9 5 -16 35.7 2.2
9 -5 16 33.7 2.6
-9 -5 -16 38.3 3
9 5 -16 35 2.2
9 -5 -16 41.3 2.8
-9 5 -16 40.8 3.2
9 -5 -16 38.3 2.2
11 5 -16 43 2.4
-11 -5 -16 36.4 3.1
11 5 -16 39.2 2.4
-11 5 -16 36.1 3.2
11 -5 -16 40 2.8
11 -5 -16 42.1 2.4
13 5 -16 12.2 0.9
13 5 -16 12.4 0.8
13 -5 -16 9.8 1.3
13 -5 -16 10.9 0.9
0 6 -16 41.7 3.1
0 6 -16 38 2.5
0 6 -16 37.6 2.4
0 -6 -16 38.5 3.2
0 -6 -16 39.3 3.3
-2 -6 -16 79.89 5.1
2 6 -16 76.09 4.5
-2 -6 -16 77.79 4.9
2 6 -16 78.49 4.2
-2 6 -16 84.39 5.6
-2 6 -16 71.09 4.5
2 -6 -16 68.99 4.1
-2 6 -16 76.39 4.2
2 -6 -16 69.89 5.5
2 -6 -16 80.89 5.3
2 6 16 78.29 4.9
-4 -6 -16 29.6 2.3
4 6 -16 27 1.9
4 6 -16 23.9 1.6
4 -6 -16 24.7 1.8
-4 6 -16 24.9 2
-4 6 -16 27 1.9
4 -6 -16 24.6 2.9
-4 6 -16 30.2 2.5
6 6 -16 37 2.1
-6 -6 -16 36.6 2.9
6 6 -16 36.4 2.4
6 -6 16 35.2 2.3
-6 -6 -16 32.9 3.1
6 6 -16 34 2.1
6 -6 -16 35.2 2.4
-6 6 -16 39.6 2.8
6 -6 -16 35.8 2.1
-6 6 -16 35.9 3.3
8 6 -16 14.1 1.1
-8 -6 -16 11.5 2
-8 -6 -16 15.4 2
8 -6 16 14.6 1.5
8 -6 -16 14.1 1.8
-8 6 -16 13.7 2.1
8 -6 -16 14.5 1
-8 6 -16 10.8 2.2
10 6 -16 11.8 1
10 6 -16 9.1 0.9
-10 -6 -16 8.5 1.9
-10 -6 -16 6 1.9
10 -6 16 9 1.4
10 -6 -16 10.5 1.6
10 -6 -16 12.3 0.9
-10 6 -16 5.9 1.9
-10 6 -16 7 1.9
12 6 -16 2.6 0.5
-12 -6 -16 3 1.4
12 6 -16 4 0.6
-12 6 -16 2.2 1.3
12 -6 -16 1.7 0.9
-1 -7 -16 143.09 8.7
1 7 -16 140.89 8
1 7 -16 143.29 7.5
-1 -7 -16 147.79 8.7
1 -7 -16 126.49 7.5
1 -7 -16 150.98 8.9
1 -7 -16 138.79 9
-1 7 -16 158.18 10
-1 7 -16 141.29 8.1
-1 7 -16 150.48 7.6
-3 -7 -16 54.79 4.1
3 7 -16 54.19 3.3
3 7 -16 53.99 3.1
-3 7 -16 57.09 4.1
-3 7 -16 51.09 3.3
3 -7 -16 51.99 4.3
3 -7 -16 48.3 3.1
3 7 16 51.59 4
-3 7 -16 54.19 3.1
5 7 -16 92.59 5
5 7 -16 90.09 5.1
5 -7 -16 87.89 5
-5 7 -16 89.19 5.4
-5 7 -16 94.99 6.8
7 7 -16 45.4 2.6
7 7 -16 41.9 2.7
7 -7 16 45 2.9
7 -7 -16 45.7 3
7 -7 -16 45.1 2.7
-7 7 -16 41.9 3.9
-7 7 -16 51.09 3.4
9 7 -16 37.7 2.4
-9 -7 -16 36.8 3.1
9 -7 16 35.1 2.7
9 7 -16 42.3 2.4
-9 7 -16 43.7 3.4
9 -7 -16 41.3 2.4
9 -7 -16 44.3 3
-11 -7 -16 21.4 2.5
11 7 -16 24.8 1.5
11 -7 16 25.6 2.1
11 7 -16 22 1.5
11 -7 -16 21.8 2
-11 7 -16 21.3 2.4
13 7 -16 2.6 0.4
13 7 -16 2.4 0.4
13 -7 -16 2.8 0.8
-13 7 -16 2 1.5
0 -8 -16 270.37 14.7
0 8 -16 243.58 13.9
0 -8 -16 244.78 14.5
0 8 -16 264.17 17.2
0 8 -16 248.28 13
-2 -8 -16 124.99 7.7
2 8 -16 121.29 6.8
2 8 -16 122.09 6.3
2 -8 -16 119.89 7.8
-2 8 -16 113.59 6.8
-2 8 -16 122.09 6.4
2 8 16 118.79 6.8
-2 8 -16 128.79 8.4
2 -8 -16 106.29 6.3
4 8 -16 107.59 6.3
-4 -8 -16 111.39 7.3
4 8 -16 115.79 6.1
-4 8 -16 118.29 6.2
-4 8 -16 122.89 8.2
-4 8 -16 114.09 6.6
4 -8 -16 110.69 6.1
6 8 -16 112.39 6.9
6 -8 16 114.29 6.9
6 8 -16 120.39 6.6
-6 8 -16 122.49 8.7
6 -8 -16 116.49 6.9
-6 8 -16 128.69 7.1
6 -8 -16 123.69 6.5
8 8 -16 85.79 5.5
8 -8 16 89.79 5.6
8 8 -16 97.69 5.3
-8 8 -16 99.39 5.9
8 -8 -16 101.59 5.4
8 -8 -16 94.39 5.5
10 -8 16 57.19 4
10 8 -16 64.19 3.6
10 8 -16 63.19 3.7
10 -8 -16 63.99 3.9
-10 8 -16 60.69 4.3
10 -8 -16 61.89 3.6
12 8 -16 10.4 0.8
12 8 -16 10.1 0.8
-12 8 -16 5.4 1.5
12 -8 -16 6.6 1.2
1 9 -16 7.5 1
1 9 -16 7.8 1.1
-1 -9 -16 7.1 1.8
1 -9 -16 7 1
-1 9 -16 7.8 1.3
1 -9 -16 5.7 1.8
-1 9 -16 9.4 1.1
-1 9 -16 7.8 1
3 9 -16 3.8 0.9
-3 -9 -16 0.9 1.8
-3 -9 -16 4 1.7
3 9 -16 4.1 0.8
3 9 -16 5.1 0.5
-3 9 -16 4.5 1.1
-3 9 -16 3.9 0.8
-3 9 -16 4.2 1.2
3 -9 -16 4.3 0.9
5 9 -16 3.6 0.9
5 9 -16 2.7 0.4
5 -9 -16 2.5 0.4
-5 9 -16 3 1.2
5 -9 -16 3.1 0.9
-5 9 -16 2.3 1.1
7 9 -16 8.5 0.8
7 9 -16 6.4 0.8
7 -9 16 8.5 1.1
7 -9 -16 9.7 0.8
7 -9 -16 4.8 1.3
-7 9 -16 5.1 1.5
9 9 -16 4.3 0.7
9 -9 16 2 1.2
9 9 -16 2.6 0.6
-9 9 -16 2.1 1.6
-9 9 -16 2.2 1.6
9 -9 -16 2.5 1.4
11 9 -16 -0.1 0.4
11 9 -16 0.2 0.4
11 -9 16 1 0.9
-11 9 -16 0.2 1.3
11 -9 -16 0.5 1
0 10 -16 273.27 17.7
0 10 -16 252.17 14.4
0 -10 -16 255.67 15.3
0 10 -16 263.47 13.4
2 10 -16 171.58 9.3
2 10 -16 150.88 9.1
2 10 -16 167.88 11.2
2 10 -16 167.48 8.7
-2 -10 -16 180.88 10.6
2 -10 -16 148.99 8.6
-2 10 -16 171.78 8.7
-2 10 -16 179.98 11.5
-2 10 -16 165.88 9.3
4 10 -16 97.29 5.3
4 10 -16 91.99 5.4
-4 10 -16 98.79 5.7
4 -10 -16 96.39 5.3
-4 10 -16 103.89 7.1
4 -10 -16 94.29 5.6
6 10 -16 102.89 6.3
6 10 -16 112.59 6.1
-6 10 -16 106.69 8.1
-6 10 -16 118.29 6.6
6 -10 -16 112.79 6
6 -10 -16 105.89 6.3
8 10 -16 168.38 9.1
8 -10 16 156.88 9.5
8 10 -16 162.78 9.5
8 -10 -16 158.68 9.5
8 -10 -16 171.68 8.8
-8 10 -16 170.68 9.6
10 10 -16 42.5 2.5
10 10 -16 41.7 2.4
10 -10 16 35.2 2.8
-10 10 -16 39.4 3.3
10 -10 -16 44.3 2.9
12 10 -16 15.6 1.1
12 10 -16 17.9 1.1
12 -10 -16 15.8 1.6
-12 10 -16 16.5 1.9
1 11 -16 89.69 6.4
1 11 -16 88.79 4.8
1 11 -16 88.49 5.2
1 11 -16 76.29 4.9
-1 11 -16 90.39 4.8
-1 11 -16 87.89 5.2
-1 11 -16 97.99 6.4
3 11 -16 42.2 3.6
3 11 -16 45.8 2.8
3 11 -16 40.8 2.5
3 11 -16 41 2.6
-3 11 -16 46.3 3.6
-3 11 -16 46 2.9
3 -11 -16 44.1 2.7
-3 11 -16 42.5 2.7
5 11 -16 36.4 2.4
5 11 -16 38.9 2.3
-5 11 -16 42 3
5 -11 -16 39.6 2.4
5 -11 -16 42.4 2.6
-5 11 -16 41.9 3.5
7 11 -16 49.7 2.9
7 11 -16 49.4 3
7 -11 16 51.39 3.2
7 -11 -16 48.1 3
-7 11 -16 46 4.3
-7 11 -16 51.89 3.7
7 -11 -16 52.89 3.3
9 11 -16 33.7 2
9 11 -16 34.4 2
9 -11 16 33.1 2.4
9 -11 -16 30.3 2
9 -11 -16 35.2 2.6
-9 11 -16 24.1 3.2
-9 11 -16 32.9 2.9
11 -11 16 6.4 1.2
11 11 -16 8.9 0.8
11 11 -16 9.5 0.8
11 -11 -16 5.3 1.2
-11 11 -16 6.5 1.6
0 12 -16 111.79 6
0 12 -16 117.89 8
0 12 -16 101.09 6.2
0 12 -16 110.89 6.4
0 12 -16 121.29 8
2 12 -16 53.09 4.2
2 12 -16 47.8 2.9
2 12 -16 51.79 3
2 12 -16 52.39 3.2
2 -12 -16 46 3
-2 12 -16 53.49 3.1
-2 12 -16 52.89 3.3
-2 12 -16 54.89 4.1
4 12 -16 20.8 1.3
4 12 -16 18.7 2.3
-4 12 -16 19.8 2.2
-4 12 -16 20.4 1.9
4 -12 -16 19 1.3
4 -12 -16 19 1.7
6 12 -16 34.1 1.9
6 12 -16 29.6 1.9
6 -12 -16 29.1 2.4
6 -12 -16 31.6 1.9
-6 12 -16 34.1 2.8
-6 12 -16 29.6 3.1
8 12 -16 31.3 2
8 -12 16 31.7 2.3
8 12 -16 34.6 2
8 -12 -16 34.6 2.5
-8 12 -16 23.7 3.1
8 -12 -16 31.5 2
-8 12 -16 35.6 2.9
10 12 -16 19.2 1.2
10 -12 16 16.5 1.7
10 12 -16 17.3 1.3
10 -12 -16 18.6 1.9
-10 12 -16 15.8 2.2
12 12 -16 1 0.4
12 12 -16 1.7 0.4
-12 12 -16 0.4 1.4
12 -12 -16 1 0.8
1 13 -16 253.17 13.5
1 13 -16 274.57 17.4
1 13 -16 239.08 14.4
1 13 -16 265.87 14.4
-1 13 -16 263.07 13.5
-1 13 -16 234.78 14.4
-1 13 -16 269.27 14.5
-1 13 -16 287.07 17.5
-1 13 -16 277.17 17.8
3 13 -16 96.59 5.7
3 13 -16 107.79 7.4
-3 13 -16 109.69 6.1
3 -13 -16 95.89 5.5
-3 13 -16 105.39 7.5
5 13 -16 59.29 3.3
5 13 -16 50.49 3.4
-5 13 -16 66.59 3.9
-5 13 -16 61.19 4.8
5 -13 -16 59.49 3.5
5 -13 -16 56.89 3.4
7 13 -16 106.99 5.7
7 -13 16 104.39 6
7 13 -16 94.59 5.8
-7 13 -16 114.19 6.3
-7 13 -16 85.49 7.5
7 -13 -16 105.19 5.7
7 -13 -16 98.39 5.9
9 -13 16 57.29 3.8
9 13 -16 59.99 3.6
9 13 -16 59.59 3.5
9 -13 -16 64.99 3.8
-9 13 -16 60.09 4.2
11 13 -16 19.7 1.3
11 13 -16 20.6 1.3
11 -13 16 17.6 1.7
-11 13 -16 17 2
11 -13 -16 17.2 1.7
0 14 -16 8.8 0.7
0 14 -16 9.4 1.3
0 14 -16 10 1.2
0 14 -16 5 1.5
2 14 -16 16.4 1.1
2 14 -16 16 2.3
2 14 -16 15.7 1.5
-2 14 -16 14.8 1.9
-2 14 -16 17.3 1.5
-2 14 -16 16 1.6
4 14 -16 1.3 1.1
4 14 -16 2.3 0.4
4 -14 -16 3 0.4
-4 14 -16 3.4 1.3
-4 14 -16 3.8 1.2
4 -14 -16 2.9 0.9
6 14 -16 2.2 0.5
6 14 -16 2.9 0.4
6 -14 -16 2.6 0.5
-6 14 -16 3 1.5
-6 14 -16 2.3 1.4
6 -14 -16 2.8 1.2
8 14 -16 2.7 0.5
8 14 -16 2.8 0.5
8 -14 16 5 1.2
-8 14 -16 1.5 1.4
8 -14 -16 4.1 1.4
-8 14 -16 2 1.3
10 14 -16 1 0.4
10 14 -16 1.5 0.4
10 -14 16 0.9 1.1
10 -14 -16 1.2 1.1
-10 14 -16 1.6 1.2
1 15 -16 275.47 15.9
1 15 -16 314.47 15.4
1 15 -16 289.57 15.9
1 15 -16 313.37 19.2
-1 15 -16 312.67 19.2
-1 15 -16 257.87 15.9
-1 15 -16 289.77 19.6
-1 15 -16 285.27 15.9
-1 15 -16 272.67 14.9
3 15 -16 77.29 6
3 15 -16 77.29 4.4
-3 15 -16 81.49 4.8
3 -15 -16 77.59 4.6
-3 15 -16 79.99 6
5 15 -16 36.1 2
5 15 -16 28.6 2
-5 15 -16 30.7 3.1
5 -15 -16 32.8 2
5 -15 -16 36.2 2.4
-5 15 -16 35.5 2.7
7 15 -16 65.59 3.5
7 15 -16 58.99 3.6
-7 15 -16 52.19 5
-7 15 -16 64.59 4.2
7 -15 -16 65.49 3.8
9 15 -16 28.9 1.8
9 -15 16 26.3 2.1
9 15 -16 28.7 1.8
9 -15 -16 29.4 2.3
-9 15 -16 28.3 2.6
11 15 -16 9.8 0.9
11 15 -16 11.4 0.8
11 -15 -16 10.6 1.4
-11 15 -16 7.5 1.5
0 16 -16 299.67 15.9
0 16 -16 298.47 17
0 16 -16 318.27 17.1
0 16 -16 326.47 20.6
2 16 -16 68.59 3.8
2 16 -16 66.89 5.4
-2 16 -16 60.09 3.8
-2 16 -16 66.69 5.2
-2 16 -16 70.99 5.5
-2 16 -16 71.09 4.2
4 16 -16 51.89 3
4 16 -16 49.9 4.4
-4 16 -16 50.69 4.2
4 -16 -16 50.69 3.1
-4 16 -16 54.39 3.5
6 16 -16 28.7 1.9
6 16 -16 34.3 1.9
-6 16 -16 31.3 2.6
-6 16 -16 25.3 2.9
6 -16 -16 29 2
6 -16 -16 32.9 2.3
8 16 -16 18.9 1.3
8 -16 16 19.5 1.7
8 16 -16 19.7 1.3
8 -16 -16 21.6 2
-8 16 -16 19.4 2.1
-8 16 -16 13.9 2.3
10 16 -16 11.7 1
10 16 -16 13.2 1
10 -16 16 11.7 1.4
-10 16 -16 11.7 1.7
10 -16 -16 12.4 1.5
1 17 -16 92.19 6.8
1 17 -16 88.39 4.9
1 17 -16 83.69 5.2
-1 17 -16 83.49 4.9
-1 17 -16 92.99 6.8
-1 17 -16 87.19 5.3
3 17 -16 22 2.8
3 17 -16 22.9 1.4
-3 17 -16 21.1 2.4
3 -17 -16 23.1 1.4
-3 17 -16 22.4 2
-3 17 -16 18 1.6
5 17 -16 40.2 2.2
5 17 -16 31.2 2.1
5 -17 -16 35.6 2.5
-5 17 -16 36.9 2.7
-5 17 -16 29.3 3.2
5 -17 -16 35.2 2.2
7 17 -16 4.3 0.6
7 17 -16 3.9 0.6
-7 17 -16 4.4 1.4
7 -17 -16 3.7 1.2
9 17 -16 9.4 0.9
9 17 -16 8.9 0.8
9 -17 16 9.1 1.3
-9 17 -16 5.9 1.5
9 -17 -16 8 1.4
0 18 -16 289.47 15.8
0 18 -16 274.77 15.7
0 18 -16 296.67 19.2
2 18 -16 280.87 19
2 18 -16 284.57 15.7
-2 18 -16 295.87 15.8
-2 18 -16 266.57 15.7
-2 18 -16 299.47 19.1
4 18 -16 144.29 10.5
4 18 -16 164.98 8.3
4 18 -16 128.29 8.6
4 -18 -16 155.68 8.6
-4 18 -16 139.49 11.6
-4 18 -16 158.28 8.6
6 18 -16 57.49 3.6
6 18 -16 64.09 3.5
6 -18 -16 59.39 3.6
-6 18 -16 62.59 4
8 18 -16 32.3 2
8 18 -16 33.3 2
8 -18 16 32.9 2.3
8 -18 -16 32.2 2.4
-8 18 -16 26.4 2.6
10 18 -16 12.4 1
10 18 -16 15.1 1
10 -18 -16 12.4 1.5
1 19 -16 20.5 1.4
1 19 -16 18 2.8
-1 19 -16 18.3 2.8
-1 19 -16 19.9 1.4
-1 19 -16 20.6 1.9
3 19 -16 33.7 2
3 19 -16 25.9 3.3
3 -19 -16 31 2
-3 19 -16 32.8 2.5
-3 19 -16 27.8 1.9
5 19 -16 8.1 0.9
5 19 -16 7.2 0.7
-5 19 -16 4.6 1.3
7 19 -16 8 0.8
7 19 -16 7.2 0.9
7 -19 -16 8 1.3
9 -19 16 1 1
9 19 -16 0.8 0.4
9 -19 -16 1.4 0.9
0 20 -16 70.49 4.1
0 20 -16 74.79 5.9
0 20 -16 69.39 4.4
2 20 -16 202.58 14.4
2 20 -16 216.98 11.6
-2 20 -16 206.58 11.6
-2 20 -16 212.88 14.4
-2 20 -16 209.58 11.8
4 20 -16 97.39 4.9
4 20 -16 79.89 5
4 20 -16 81.09 6.6
6 20 -16 68.89 3.8
6 20 -16 62.49 3.9
8 -20 16 21.3 1.8
8 20 -16 22.7 1.5
8 20 -16 24.5 1.5
8 -20 -16 22 1.9
1 21 -16 95.69 7.4
1 21 -16 98.79 5.5
-1 21 -16 92.99 7.3
-1 21 -16 96.59 5.5
3 21 -16 78.89 6.6
3 21 -16 78.69 5
3 21 -16 94.59 4.8
-3 21 -16 86.09 4.8
5 21 -16 99.89 5.3
5 21 -16 86.69 5.4
7 21 -16 27.4 1.7
7 21 -16 27 1.7
9 21 -16 15.4 1.2
9 21 -16 17.6 1.2
0 22 -16 9.8 1
0 22 -16 7.1 1.9
2 22 -16 10 0.9
2 22 -16 7.6 1.9
-2 22 -16 6.7 1.8
-2 22 -16 8.5 1
4 22 -16 28.9 1.8
4 22 -16 22.2 3.4
4 22 -16 26.8 1.8
-4 22 -16 28.5 1.8
6 22 -16 11.2 1
6 22 -16 10.3 1
8 22 -16 2.7 0.4
8 22 -16 2.1 0.4
1 23 -16 45.4 4.4
1 23 -16 51.29 2.9
-1 23 -16 45 4.4
-1 23 -16 49.8 2.9
3 23 -16 95.89 5.1
3 23 -16 82.29 5.2
-3 23 -16 89.09 5.1
5 23 -16 96.59 5.4
5 23 -16 92.69 5.5
7 23 -16 35.4 2.2
7 23 -16 37.3 2.2
0 24 -16 5.4 0.7
2 24 -16 13.7 1.1
2 24 -16 13.4 1.2
-2 24 -16 13.2 1.2
4 24 -16 11.1 1
4 24 -16 11.8 1
-4 24 -16 10.7 1.1
6 24 -16 9.9 0.8
6 24 -16 8.3 0.9
1 25 -16 22.2 1.6
-1 25 -16 22.8 1.6
3 25 -16 39.5 2.5
3 25 -16 41.1 2.5
-3 25 -16 40.9 2.5
5 25 -16 39.2 2.4
5 25 -16 39.3 2.4
0 26 -16 34.6 2.2
2 26 -16 23 1.6
2 26 -16 22.4 1.5
-2 26 -16 23.9 1.6
4 26 -16 37.4 2.3
4 26 -16 39 2.3
-4 26 -16 36.3 2.3
1 27 -16 2.8 0.5
1 27 -16 2.8 0.5
-1 27 -16 3.6 0.6
3 27 -16 6.9 0.8
3 27 -16 7.3 0.8
-3 27 -16 7.2 0.9
0 28 -16 21.9 1.6
0 28 -16 21.1 1.5
2 28 -16 43.3 2.6
2 28 -16 43.6 2.6
-2 28 -16 44 2.6
0 0 -17 0.3 0.6
0 0 -17 0.8 0.8
0 0 -17 0.7 0.6
-2 0 -17 5.8 0.8
2 0 -17 4.3 0.9
2 0 17 4.5 1.4
-2 0 -17 4.6 1.1
-2 0 -17 4.5 0.9
2 0 -17 3.2 0.7
4 0 -17 13.4 1.4
-4 0 -17 10.9 1.3
-4 0 -17 13 1.6
4 0 -17 7.8 1.9
-4 0 -17 16 1.5
4 0 17 9 2.1
-6 0 -17 3.3 1.2
6 0 -17 2.9 1
-6 0 -17 2.3 1.2
8 0 -17 0.9 0.4
-8 0 -17 -0.2 1.2
-8 0 -17 1.4 1.5
8 0 -17 0.1 1
10 0 -17 -0.4 0.4
-10 0 -17 -0.1 1.4
10 0 -17 0.4 1
-10 0 -17 -1.2 1.4
12 0 -17 1.4 0.4
12 0 -17 2.1 0.4
-12 0 -17 0.6 1.2
-1 -1 -17 4.6 0.9
1 -1 17 4.6 1.4
1 1 -17 3.2 0.7
-1 -1 -17 3.9 0.7
1 1 -17 4.5 0.9
-1 -1 -17 4.9 1
-1 1 -17 5.4 1.1
-1 1 -17 5.3 0.9
1 -1 -17 3.6 0.8
1 -1 -17 4.4 0.8
-1 1 -17 3.9 0.7
3 1 -17 6.4 1.1
-3 -1 -17 6.8 1.2
-3 -1 -17 7.8 1
3 -1 17 7.1 1.8
-3 -1 -17 8 1.4
3 1 -17 7.6 1.1
3 1 17 5.7 1.7
3 -1 -17 5.7 1
-3 1 -17 5.3 0.9
-3 1 -17 7.7 1.4
-3 1 -17 7.4 1.2
5 1 -17 5.2 1.1
-5 -1 -17 9.1 1.5
-5 -1 -17 4.4 1.4
-5 -1 -17 4.7 0.9
5 -1 17 7.3 0.9
-5 1 -17 6.1 1.3
-5 1 -17 6.6 1.5
-5 1 -17 4.9 1
5 -1 -17 6 1.1
-7 -1 -17 0.7 1.2
7 1 -17 0.8 1
-7 -1 -17 0.2 1.2
7 1 -17 0.7 0.4
7 -1 -17 1 0.9
7 -1 -17 0.8 0.4
-7 1 -17 0.8 1.3
-7 1 -17 0.9 1.2
9 1 -17 -0.8 1
-9 -1 -17 -0.4 1.3
-9 -1 -17 -1.9 1.4
9 -1 -17 -0.8 0.4
-9 1 -17 -2.3 1.4
-9 1 -17 -0.5 1.3
9 -1 -17 -0.6 1
-11 -1 -17 0.2 1.4
11 1 -17 -1.4 1
11 1 -17 -0.5 0.4
11 1 -17 -0.2 0.5
-11 -1 -17 -0.6 1.3
-11 1 -17 -1.2 1.3
11 -1 -17 0.2 0.9
11 -1 -17 -0.4 0.4
-11 1 -17 -1.2 1.3
11 -1 -17 -0.4 0.4
-13 -1 -17 0.3 1.2
13 1 -17 -0.5 0.3
13 -1 -17 -0.8 0.3
-13 1 -17 -0.1 1.1
0 -2 -17 2.5 0.9
0 2 -17 2.3 0.9
0 -2 -17 1.3 0.7
0 2 -17 1.9 0.6
0 -2 -17 1.5 0.6
0 2 -17 2.2 0.8
-2 -2 -17 8.7 1.2
-2 -2 -17 9.1 1
2 -2 17 10.7 1.8
2 2 -17 8.6 1.1
2 2 -17 7.2 1
-2 -2 -17 7.4 1.1
2 -2 -17 11 1.2
-2 2 -17 7.7 1.1
2 -2 -17 8.5 1
-2 2 -17 10.1 1.3
-2 2 -17 7.6 1
2 2 17 12.8 2.1
-4 -2 -17 4.4 0.9
-4 -2 -17 7.3 1.2
-4 -2 -17 6 1.3
4 2 -17 5.5 1
4 2 17 8.1 2
4 -2 -17 6.2 1
-4 2 -17 6 1
4 -2 -17 2.8 1.1
4 -2 -17 3.7 1.5
-4 2 -17 6.4 1.4
-4 2 -17 6.4 1.2
-6 -2 -17 0.6 1.1
-6 -2 -17 1 1.1
6 2 -17 1.6 0.3
6 2 -17 1.4 0.9
6 -2 17 1.4 0.8
-6 2 -17 1.2 1.1
-6 2 -17 1.8 1.2
6 -2 -17 2 0.9
6 -2 -17 1.3 0.3
-8 -2 -17 -0.3 1.4
8 2 -17 -0.1 0.4
8 2 -17 0.2 1
-8 -2 -17 0 1.2
8 -2 -17 0.4 0.4
-8 2 -17 -1.3 1.3
-8 2 -17 0.6 1.3
8 -2 -17 0.7 1.1
10 2 -17 0.6 0.5
10 2 -17 -0.5 1.1
10 2 -17 0.1 0.4
-10 -2 -17 0.5 1.4
-10 -2 -17 0 1.5
-10 2 -17 -0.6 1.3
-10 2 -17 -0.6 1.4
10 -2 -17 1.1 0.4
10 -2 -17 0 1
-12 -2 -17 1.2 1.3
12 2 -17 1.8 0.4
12 -2 -17 2.5 0.4
12 -2 -17 1.4 0.9
-12 2 -17 1.9 1.4
12 -2 -17 1.2 0.4
-1 -3 -17 14.3 1.4
-1 -3 -17 12.4 1.1
1 3 -17 13.1 1.2
1 3 -17 11.3 1.1
-1 3 -17 9.6 1.1
1 -3 -17 11.8 1.1
-1 3 -17 11.5 1.2
-1 3 -17 13.5 1.5
-3 -3 -17 19.2 1.6
-3 -3 -17 22.5 2
-3 -3 -17 19.1 1.5
3 3 -17 16.6 1.5
3 3 -17 22 1.6
-3 3 -17 19.5 1.6
-3 3 -17 24 2.1
3 -3 -17 17.2 2
3 -3 -17 21.1 1.6
3 3 17 27.8 3.2
-3 3 -17 17.2 1.7
3 -3 -17 19 2.4
-5 -3 -17 1.6 1.1
-5 -3 -17 4.6 1.2
5 3 -17 2.9 0.9
-5 3 -17 2.2 1.2
-5 3 -17 2.5 0.9
-5 3 -17 3.4 1.1
5 -3 -17 3.5 0.9
7 3 -17 0.4 1
-7 -3 -17 0.5 1.2
-7 -3 -17 3.3 1.4
7 3 -17 0.6 0.4
7 -3 17 1.4 0.8
7 3 -17 0.9 0.4
7 -3 -17 1.2 0.3
-7 3 -17 1.3 1.3
7 -3 -17 1.7 1
-7 3 -17 0 1.2
-9 -3 -17 3.6 1.6
9 3 -17 0.8 1
-9 -3 -17 1.8 1.5
9 3 -17 1.3 0.5
9 3 -17 1.4 0.4
-9 3 -17 0.7 1.5
-9 3 -17 0.9 1.4
9 -3 -17 2.9 1.2
-11 -3 -17 2.7 1.4
-11 -3 -17 1.5 1.5
-11 3 -17 4.4 1.6
11 -3 -17 4.7 1.2
-11 3 -17 2.7 1.6
13 3 -17 0.8 0.3
13 3 -17 0.9 0.3
-13 3 -17 0.2 1
13 -3 -17 0.6 0.3
13 -3 -17 0.6 0.8
0 4 -17 1.8 0.9
0 -4 -17 1.3 0.8
0 4 -17 0.6 0.7
0 4 -17 1 0.6
0 -4 -17 1.1 0.6
-2 -4 -17 2.2 0.8
-2 -4 -17 2.1 0.7
2 4 -17 2.4 0.8
2 4 -17 1.4 0.7
2 -4 -17 0.6 0.7
-2 4 -17 2.1 0.8
2 4 17 2.1 1.4
2 -4 -17 1.7 1.2
-2 4 -17 1.1 0.7
2 -4 -17 1.3 0.9
-2 4 -17 3.1 1
-4 -4 -17 6.5 1.1
4 4 -17 4.8 0.5
-4 -4 -17 5.9 1.3
4 4 -17 3.1 0.9
4 -4 -17 3.5 1.4
4 -4 -17 2.4 1.7
-4 4 -17 5.1 1.3
-4 4 -17 4.1 0.9
4 -4 -17 6 1
-4 4 -17 4.5 1.1
6 4 -17 3.1 0.4
6 4 -17 2.4 1
6 -4 17 3.3 0.9
6 4 -17 2.6 0.4
-6 -4 -17 2.9 1.2
-6 -4 -17 2.6 1.2
6 -4 -17 2.1 1
-6 4 -17 1.7 1.2
-6 4 -17 3.2 1.3
6 -4 -17 2.5 0.4
8 4 -17 1.1 1
-8 -4 -17 0.8 1.5
8 -4 17 2.4 1
8 4 -17 0.1 0.4
8 4 -17 1.3 0.5
-8 -4 -17 0.1 1.2
8 -4 -17 1.2 0.4
-8 4 -17 0.9 1.4
8 -4 -17 2.6 1.1
-8 4 -17 1.5 1.4
-10 -4 -17 -0.5 1.3
-10 -4 -17 0.2 1.5
10 4 -17 1.8 0.5
10 4 -17 0.5 0.4
10 -4 -17 0.5 1.2
10 -4 -17 2 0.5
-10 4 -17 0.7 1.4
-10 4 -17 0 1.5
12 4 -17 -0.4 0.4
-12 -4 -17 -1.4 1.1
12 4 -17 -0.2 0.4
-12 4 -17 -0.8 1.2
12 -4 -17 -1.3 0.9
1 5 -17 3.1 0.8
1 5 -17 2.7 0.7
-1 -5 -17 4.2 1
-1 -5 -17 3.8 0.7
-1 5 -17 5.1 0.8
-1 5 -17 4 0.9
1 -5 -17 2 1.3
1 -5 -17 3.4 1.1
1 -5 -17 2.2 0.6
-1 5 -17 3.5 1
-3 -5 -17 3.8 1
3 5 -17 2.6 0.8
3 5 -17 2.4 0.8
-3 5 -17 3.6 0.8
3 -5 -17 4 0.8
3 -5 -17 0.8 1.4
-3 5 -17 3.3 0.9
3 -5 -17 3.2 1.2
-3 5 -17 3.3 1
3 5 17 3.3 1.5
5 5 -17 11.9 0.9
5 5 -17 11.8 1.3
-5 -5 -17 9.3 1.5
-5 -5 -17 12.5 1.7
5 -5 -17 10.9 0.8
-5 5 -17 10.2 1.3
-5 5 -17 10.6 1.5
-5 5 -17 9.5 1.6
5 -5 -17 10.1 1.3
7 5 -17 4.6 1
7 -5 17 7.5 1.1
-7 -5 -17 4.3 1.5
7 5 -17 8.9 0.8
-7 -5 -17 3.5 1.5
7 5 -17 7.7 0.7
-7 5 -17 4.2 1.7
-7 5 -17 6.4 1.7
7 -5 -17 9.6 0.7
7 -5 -17 5.1 1.2
9 -5 17 22.2 2.1
9 5 -17 30.9 1.8
-9 -5 -17 28 2.8
9 5 -17 25.1 1.7
9 -5 -17 29.5 1.7
9 -5 -17 26.6 2.3
-9 5 -17 30.8 2.8
-11 -5 -17 2.1 1.4
-11 5 -17 -0.3 1.5
11 -5 -17 3.2 1.1
-11 5 -17 2.6 1.4
13 5 -17 0.7 0.3
13 5 -17 1.1 0.3
-13 5 -17 1 1.6
0 -6 -17 0.8 0.9
0 -6 -17 0.4 1.1
0 6 -17 0.1 0.8
0 6 -17 0.1 0.5
0 -6 -17 -0.1 0.5
2 6 -17 9.7 1.1
2 6 -17 8.6 1.2
-2 6 -17 7.8 1.3
-2 6 -17 9.3 1.1
2 6 17 8.9 2
2 -6 -17 8.7 1.1
2 -6 -17 8.1 1.7
-2 6 -17 10 1.2
2 -6 -17 5.3 1.8
4 6 -17 8.5 0.8
4 6 -17 9.7 1.2
-4 6 -17 10.4 1.5
-4 6 -17 10.2 1.2
-4 6 -17 13.4 1.6
4 -6 -17 11.3 1.2
4 -6 -17 8 1.9
6 -6 17 3.6 0.8
6 6 -17 1.8 0.4
-6 -6 -17 1.8 1.1
6 6 -17 2.7 0.4
6 6 -17 0.9 0.8
-6 6 -17 2.2 1.2
-6 6 -17 1.2 1.2
6 -6 -17 2.6 0.9
6 -6 -17 1.8 0.4
-8 -6 -17 3.5 1.6
-8 -6 -17 8.8 1.8
8 -6 17 8 1.2
8 6 -17 7.8 0.8
-8 6 -17 5.2 1.8
8 -6 -17 6 1.5
-8 6 -17 3.7 1.7
8 -6 -17 8.1 0.8
10 -6 17 0 1.2
10 6 -17 0.4 0.5
10 6 -17 -0.1 0.4
-10 -6 -17 -1 1.5
-10 6 -17 -1.3 1.3
-10 6 -17 -0.3 1.3
10 -6 -17 -1.3 1.1
10 -6 -17 1.3 0.5
12 6 -17 -0.4 0.4
12 6 -17 -0.6 0.3
-12 -6 -17 -0.2 1.2
-12 6 -17 -0.3 1.1
12 -6 -17 0.1 0.9
-1 -7 -17 8.4 1
1 7 -17 9.3 1.1
-1 -7 -17 12.3 2
-1 -7 -17 13 2.1
1 7 -17 9.1 1.1
-1 7 -17 10.9 1.4
1 -7 -17 11.6 2
1 -7 -17 10 1.1
-1 7 -17 10.2 1.1
1 -7 -17 10.3 2.2
-1 7 -17 9.6 1.1
3 7 -17 10.6 1.1
3 7 -17 10.2 1.2
-3 -7 -17 9.3 1.9
3 7 -17 8.4 0.7
-3 7 -17 9.3 1.4
-3 7 -17 10.8 1.2
-3 7 -17 9.9 1.3
3 -7 -17 9.7 2
3 -7 -17 8.2 1.1
5 7 -17 0.6 0.7
5 7 -17 1 0.3
-5 7 -17 1.2 1.1
-5 7 -17 0.7 1.1
5 -7 -17 1.2 0.8
5 -7 -17 1 0.3
7 -7 17 5.5 1.1
7 7 -17 8.5 0.8
7 7 -17 4.1 1
7 7 -17 6.2 0.7
-7 7 -17 6.4 1.7
-7 7 -17 2.7 1.5
7 -7 -17 4.6 1.3
9 7 -17 2.1 0.4
9 -7 17 0.7 1.2
9 7 -17 2 0.5
-9 7 -17 1.8 1.5
9 -7 -17 0.6 1.2
-9 7 -17 2.2 1.6
11 7 -17 2.1 0.5
11 7 -17 1.2 0.5
11 -7 -17 0.5 1.1
-11 7 -17 0.4 1.2
0 -8 -17 0.5 1.2
0 8 -17 0.4 0.8
0 -8 -17 0.3 1
0 8 -17 0.2 0.6
0 8 -17 0.3 0.7
0 -8 -17 0.4 0.6
2 8 -17 3.2 0.8
2 8 -17 4 0.9
2 8 -17 3.1 0.4
-2 -8 -17 2.5 1.4
-2 -8 -17 2.2 1.2
2 -8 -17 1.6 0.7
-2 8 -17 2.4 0.8
-2 8 -17 3.1 0.9
2 -8 -17 2.9 1.3
-2 8 -17 1.9 0.9
4 8 -17 1.9 0.8
4 8 -17 1.5 0.3
-4 8 -17 1.1 0.7
-4 8 -17 0.9 1
-4 8 -17 0.6 1
4 -8 -17 0.8 0.3
4 -8 -17 0.8 0.8
6 8 -17 13.5 1
6 8 -17 10.3 0.9
6 8 -17 11.4 1.4
6 -8 -17 12.7 1.6
6 -8 -17 12.1 0.9
-6 8 -17 11.6 1.9
-6 8 -17 13.9 1.9
8 8 -17 5.9 0.7
8 -8 17 3.6 1.1
8 8 -17 6.6 0.8
8 -8 -17 3.6 1.4
-8 8 -17 2.7 1.5
8 -8 -17 7.8 0.8
10 8 -17 9.1 0.8
10 8 -17 7.5 0.9
10 -8 -17 5.1 1.3
10 -8 -17 8.3 0.8
-10 8 -17 3.7 1.6
12 8 -17 0.6 0.4
12 8 -17 1 0.4
-12 8 -17 -1.1 1
12 -8 -17 1.5 0.9
-1 -9 -17 2.6 1.4
-1 -9 -17 2.1 1.4
1 9 -17 1.8 0.8
1 9 -17 1.9 0.7
-1 9 -17 2.2 0.8
-1 9 -17 1.7 0.8
1 -9 -17 2.4 1.4
-1 9 -17 2.1 1
1 -9 -17 0.7 0.7
3 9 -17 0.6 0.7
3 9 -17 0 0.6
3 9 -17 0.5 0.3
3 -9 -17 -0.4 0.6
-3 9 -17 0.7 0.9
-3 9 -17 0.8 0.9
-3 9 -17 -0.1 0.6
5 9 -17 2 0.8
5 9 -17 1.8 0.4
5 9 -17 1.7 0.3
-5 9 -17 2.2 1.2
-5 9 -17 2.1 1.2
5 -9 -17 1 0.3
5 -9 -17 3.1 0.9
7 -9 17 -0.5 0.8
7 9 -17 -0.8 0.4
7 9 -17 0.5 0.4
7 -9 -17 -1 1.1
-7 9 -17 0.3 1.3
7 -9 -17 0.4 0.4
-7 9 -17 0.5 1.3
9 -9 17 -1.1 1.1
9 9 -17 -0.1 0.4
9 9 -17 0 0.5
-9 9 -17 -0.8 1.5
-9 9 -17 0.5 1.4
9 -9 -17 -1.8 1.2
9 -9 -17 0.1 0.4
11 9 -17 -0.7 0.4
11 -9 17 -0.1 1.1
-11 9 -17 -1.5 1.2
11 -9 -17 -0.2 1
0 10 -17 1.5 1
0 10 -17 1.8 0.7
0 10 -17 1.4 0.8
0 -10 -17 1.5 1.3
2 10 -17 1 0.3
2 10 -17 1.6 0.8
2 10 -17 0.8 0.7
2 -10 -17 1.2 0.7
-2 10 -17 1.8 1
-2 10 -17 2.4 0.9
-2 10 -17 1.4 0.7
4 10 -17 3.8 0.5
4 10 -17 4.1 0.9
-4 10 -17 4.7 1.2
-4 10 -17 4.4 0.9
-4 10 -17 4.8 1.3
4 -10 -17 5.7 1
4 -10 -17 3.7 0.5
6 10 -17 1.2 0.4
6 10 -17 1.4 0.4
6 -10 -17 0.5 1
6 -10 -17 1.2 0.4
-6 10 -17 1 1.3
-6 10 -17 0.8 1.2
8 -10 17 6.6 1.2
8 10 -17 10.3 0.9
-8 10 -17 3.3 1.7
8 -10 -17 7.5 1.6
-8 10 -17 6.5 1.8
10 10 -17 5.5 0.7
10 -10 17 3.9 1.2
10 10 -17 5.1 0.8
10 -10 -17 3.3 1.1
-10 10 -17 1.6 1.4
12 10 -17 0.7 0.4
-12 10 -17 0.2 1.1
12 -10 -17 0.7 0.9
1 11 -17 1.8 0.8
1 11 -17 2 0.3
1 11 -17 2.2 0.8
-1 11 -17 1 0.7
-1 11 -17 1.9 0.8
-1 11 -17 2 1
3 11 -17 2 0.9
3 11 -17 2 0.8
3 11 -17 1.8 0.4
3 -11 -17 2.5 0.8
-3 11 -17 3.3 1
-3 11 -17 2.9 1.1
-3 11 -17 2.6 0.8
5 11 -17 3.5 0.4
5 11 -17 3.2 0.5
5 -11 -17 2.9 1
-5 11 -17 2 1.2
-5 11 -17 3.1 1.3
5 -11 -17 2.5 0.4
7 11 -17 0.9 0.4
7 11 -17 0 0.4
7 -11 17 1.3 0.9
7 -11 -17 -0.7 0.4
-7 11 -17 -0.5 1.4
-7 11 -17 0.3 1.4
7 -11 -17 0.1 1.1
9 -11 17 1.4 1.1
9 11 -17 -0.4 0.4
9 11 -17 0.8 0.5
9 -11 -17 0.2 0.4
-9 11 -17 -0.9 1.3
9 -11 -17 0.4 1.2
-9 11 -17 -0.6 1.4
11 11 -17 0.4 0.4
11 -11 17 0.2 0.9
11 11 -17 0.6 0.4
11 -11 -17 0.5 0.9
-11 11 -17 -0.4 1.2
0 12 -17 0.5 0.7
0 12 -17 0.8 0.8
0 12 -17 0.9 0.3
2 12 -17 3.9 0.9
2 12 -17 3.4 0.4
2 12 -17 5.4 0.9
2 12 -17 3.9 1.3
2 -12 -17 3.2 0.9
-2 12 -17 4.7 1.1
-2 12 -17 3.1 1.2
-2 12 -17 3.3 0.8
4 12 -17 2.2 0.4
-4 12 -17 3.2 1.3
-4 12 -17 3.4 1.2
4 -12 -17 2.2 0.4
4 -12 -17 2.4 0.9
6 12 -17 0.3 0.4
6 12 -17 0.4 0.3
6 -12 -17 -0.7 0.4
-6 12 -17 -0.6 1.2
-6 12 -17 -1 1.1
6 -12 -17 -0.5 1.1
8 12 -17 2.2 0.5
8 12 -17 2.3 0.4
8 -12 17 2.3 1.1
-8 12 -17 1.3 1.6
-8 12 -17 1.4 1.5
8 -12 -17 2.1 0.5
8 -12 -17 2.8 1.3
10 -12 17 0.2 0.9
10 12 -17 0.7 0.4
10 12 -17 1.4 0.4
10 -12 -17 0.2 1
-10 12 -17 -0.6 1.4
12 12 -17 -0.1 0.3
12 12 -17 0.1 0.3
12 -12 -17 0.9 0.8
1 13 -17 3.9 0.9
1 13 -17 3.1 0.4
1 13 -17 2.6 0.9
1 13 -17 3.9 1.4
-1 13 -17 1.7 0.8
-1 13 -17 1.9 1.1
-1 13 -17 3.2 1
-1 13 -17 1.8 0.4
3 13 -17 2.7 0.4
3 13 -17 3.7 1.3
3 -13 -17 1.1 0.8
-3 13 -17 2.4 1
-3 13 -17 2.9 1.2
5 13 -17 5.6 0.7
5 13 -17 5.5 0.6
-5 13 -17 4.7 1.4
5 -13 -17 3.5 1.1
-5 13 -17 4.8 1.5
5 -13 -17 5 0.7
7 -13 17 3.1 1
7 13 -17 1.7 0.4
7 13 -17 1.3 0.5
7 -13 -17 2.6 1.2
-7 13 -17 0.8 1.4
7 -13 -17 1 0.4
-7 13 -17 0.9 1.4
9 13 -17 1.9 0.5
9 -13 17 2.8 1.1
-9 13 -17 0.8 1.4
9 -13 -17 2.5 1.2
-9 13 -17 0.7 1.3
11 -13 17 1.2 0.9
11 13 -17 0.9 0.4
11 13 -17 1 0.4
-11 13 -17 1.6 1.2
11 -13 -17 1.3 0.9
0 14 -17 -0.1 0.3
0 14 -17 0.3 0.7
0 14 -17 0.4 1.1
0 14 -17 -0.7 0.8
2 14 -17 3 1.3
2 14 -17 3 0.4
2 14 -17 2.4 1
-2 14 -17 2.9 1.2
-2 14 -17 3.2 0.9
4 14 -17 1 1.1
4 14 -17 0.7 0.4
4 -14 -17 0.8 0.9
-4 14 -17 0.6 1
-4 14 -17 0.1 1.1
4 -14 -17 0.3 0.3
6 14 -17 0 0.4
6 14 -17 -0.5 0.3
-6 14 -17 -0.3 1.2
-6 14 -17 -0.4 1.2
6 -14 -17 0.7 1.1
8 14 -17 0.4 0.4
8 14 -17 -0.1 0.4
8 -14 17 -0.4 1
-8 14 -17 -0.8 1.3
8 -14 -17 -1.8 1.1
-8 14 -17 -1.9 1.3
10 14 -17 -0.1 0.4
10 -14 17 0.1 1
10 14 -17 -0.1 0.4
10 -14 -17 0.5 1
-10 14 -17 -1.5 1.2
1 15 -17 29.8 2.3
1 15 -17 30.1 3.2
1 15 -17 27.3 2.1
1 15 -17 26.6 1.8
-1 15 -17 33.2 2.3
-1 15 -17 30.8 1.9
-1 15 -17 33 2.2
-1 15 -17 38.5 3.5
3 15 -17 19.5 2.6
3 15 -17 19.8 1.3
-3 15 -17 17.5 1.8
3 -15 -17 19.3 1.3
-3 15 -17 17.5 2.2
5 15 -17 -0.2 0.3
5 15 -17 0.5 0.4
-5 15 -17 -0.2 1.1
5 -15 -17 -0.5 0.4
5 -15 -17 -0.5 0.9
-5 15 -17 -0.3 1.1
7 -15 17 0.6 0.9
7 15 -17 1.3 0.4
7 15 -17 0.5 0.4
-7 15 -17 -0.5 1.3
7 -15 -17 1 0.5
7 -15 -17 0.7 1.1
-7 15 -17 0.2 1.2
9 -15 17 0.2 1.2
9 15 -17 0.5 0.4
9 15 -17 1.6 0.4
9 -15 -17 1.3 1
-9 15 -17 1.3 1.3
11 15 -17 1.1 0.4
11 15 -17 0.5 0.4
11 -15 -17 0 0.8
0 16 -17 1.8 1
0 16 -17 1.6 1.3
0 16 -17 1.8 0.9
0 16 -17 0.9 0.4
2 16 -17 9.9 0.9
2 16 -17 10.9 2.1
-2 16 -17 11.5 1.5
-2 16 -17 10.8 1.7
-2 16 -17 8.8 0.9
4 16 -17 1.4 0.4
4 16 -17 1.4 1.3
4 -16 -17 0.7 0.4
-4 16 -17 2.1 1.2
-4 16 -17 1.4 1.3
6 16 -17 -0.2 0.4
6 16 -17 -0.4 0.4
6 -16 -17 0.9 1
6 -16 -17 -0.6 0.4
-6 16 -17 0.7 1.2
-6 16 -17 0.2 1.2
8 16 -17 -0.2 0.4
8 16 -17 1.3 0.4
8 -16 17 0.1 1.1
-8 16 -17 0.6 1.3
-8 16 -17 0.2 1.3
8 -16 -17 1.8 1
10 16 -17 0 0.4
10 -16 17 -0.8 0.9
10 16 -17 0.3 0.4
-10 16 -17 -0.4 1.1
10 -16 -17 -0.3 0.9
1 17 -17 3.4 1.5
1 17 -17 2.1 0.5
1 17 -17 2 1.1
-1 17 -17 2.5 1.4
-1 17 -17 0.5 0.5
-1 17 -17 1.2 1.1
3 17 -17 2.2 1.4
3 17 -17 3.1 0.5
3 -17 -17 3.8 0.5
-3 17 -17 4.6 1.3
-3 17 -17 4.3 1.4
5 17 -17 -0.3 0.4
5 17 -17 0.7 0.4
-5 17 -17 0.3 1.2
-5 17 -17 0.2 1.2
5 -17 -17 0.7 0.4
5 -17 -17 -0.6 1
7 -17 17 0.8 1
7 17 -17 0.1 0.4
7 17 -17 -0.1 0.4
-7 17 -17 0.1 1.7
7 -17 -17 0 1
-7 17 -17 -0.9 1.1
9 -17 17 -0.4 1
9 17 -17 0.1 0.4
9 17 -17 -0.1 0.4
-9 17 -17 -1.5 1
9 -17 -17 0.2 1
0 18 -17 2 1.4
0 18 -17 1.8 1.1
0 18 -17 1.2 0.5
2 18 -17 3.4 1.6
2 18 -17 4 0.5
-2 18 -17 3.7 1.2
-2 18 -17 2.3 0.5
4 18 -17 36.2 3.9
4 18 -17 45.7 2.6
-4 18 -17 40.5 3.8
4 -18 -17 45.3 2.6
-4 18 -17 47.4 3.2
6 18 -17 3.1 0.5
6 18 -17 4.4 0.6
6 -18 -17 3.2 1.1
-6 18 -17 3.2 1.3
8 18 -17 0.3 0.4
8 18 -17 1.4 0.4
8 -18 17 2.5 1.1
8 -18 -17 -0.2 1
-8 18 -17 0.6 1.1
10 18 -17 0.7 0.4
10 18 -17 -0.2 0.3
10 -18 -17 0.8 0.9
1 19 -17 -0.6 0.4
1 19 -17 1 1.4
-1 19 -17 0.2 1.3
-1 19 -17 -0.7 1.1
-1 19 -17 -0.3 0.5
3 19 -17 1.1 0.5
3 19 -17 0.4 1.4
3 -19 -17 0.5 0.4
-3 19 -17 1.9 1.1
-3 19 -17 0.6 0.5
5 19 -17 0.7 0.4
5 19 -17 1.2 0.4
-5 19 -17 0.9 1.1
7 19 -17 -0.7 0.4
7 -19 17 -0.5 0.9
7 19 -17 -0.6 0.4
7 -19 -17 0 0.9
9 19 -17 -0.3 0.4
9 19 -17 -0.5 0.3
9 -19 -17 -0.3 0.8
0 20 -17 0 0.5
0 20 -17 0.3 1.3
0 20 -17 0 1
2 20 -17 2.3 1.5
2 20 -17 2.1 0.5
2 -20 -17 2.1 0.4
-2 20 -17 0.9 1.1
-2 20 -17 1.6 0.5
4 20 -17 2.4 1.4
4 20 -17 2.9 0.4
4 20 -17 3.2 0.5
-4 20 -17 1.6 1.1
6 20 -17 0.5 0.4
6 20 -17 0.8 0.4
8 20 -17 0 0.4
8 20 -17 0.7 0.4
8 -20 17 1 1
8 -20 -17 0.5 0.9
1 21 -17 0 0.5
1 21 -17 1.4 1.4
-1 21 -17 1 1.4
-1 21 -17 1.9 0.5
-1 21 -17 1.1 1.1
3 21 -17 16.6 2.6
3 21 -17 16.3 1.2
-3 21 -17 14.3 1.2
5 21 -17 1.7 0.4
5 21 -17 2 0.5
7 21 -17 0.4 0.4
7 21 -17 0.2 0.4
7 -21 17 1.3 0.9
0 22 -17 -0.8 1.2
0 22 -17 -0.5 0.5
2 22 -17 0 1.3
2 22 -17 -0.2 0.5
-2 22 -17 0.2 0.5
4 22 -17 0.6 0.4
4 22 -17 1.1 0.5
6 22 -17 -0.6 0.4
6 22 -17 -0.5 0.4
8 22 -17 -0.1 0.3
8 22 -17 0.1 0.4
1 23 -17 0.5 0.5
1 23 -17 1.3 1.4
-1 23 -17 0.3 0.5
3 23 -17 3.2 0.6
3 23 -17 4.5 0.5
-3 23 -17 2.5 0.6
5 23 -17 2.4 0.4
5 23 -17 1.9 0.5
7 23 -17 0.1 0.4
7 23 -17 0.2 0.4
0 24 -17 -0.7 0.4
2 24 -17 -0.7 0.5
-2 24 -17 0.1 0.5
4 24 -17 -0.8 0.4
4 24 -17 -0.6 0.4
6 24 -17 0.2 0.4
6 24 -17 -0.1 0.4
1 25 -17 -0.5 0.4
-1 25 -17 0.2 0.5
3 25 -17 0.1 0.4
3 25 -17 -0.4 0.4
-3 25 -17 1.2 0.5
5 25 -17 -0.2 0.4
5 25 -17 0.3 0.4
0 26 -17 0 0.4
2 26 -17 -0.1 0.4
2 26 -17 -0.5 0.4
-2 26 -17 0.1 0.4
4 26 -17 -0.4 0.4
4 26 -17 0.1 0.4
1 27 -17 -0.2 0.4
-1 27 -17 -0.4 0.4
3 27 -17 -0.5 0.3
3 27 -17 -0.9 0.4
-3 27 -17 0.5 0.4
0 28 -17 0 0.4
0 0 -18 802.82 48.6
0 0 -18 705.73 37
0 0 -18 696.13 39.6
2 0 -18 820.12 40.5
2 0 18 831.62 35.1
-2 0 -18 744.43 43.2
2 0 -18 782.52 43.2
-2 0 -18 872.31 53.09
-2 0 -18 765.92 40.4
4 0 18 905.21 40.5
-4 0 -18 999.1 61.29
-4 0 -18 899.81 46.6
-4 0 -18 877.31 49.9
4 0 -18 948.31 46.7
6 0 -18 211.58 10.4
-6 0 -18 211.58 11.1
-6 0 -18 189.78 13.7
6 0 -18 178.08 11.3
-8 0 -18 24.1 3
-8 0 -18 36.4 2.9
8 0 -18 31.4 1.9
8 0 -18 34.2 2.4
10 0 -18 2.3 0.5
10 0 -18 1.4 0.5
-10 0 -18 1.6 1.5
10 0 -18 2.5 1.1
-10 0 -18 2 1.5
-12 0 -18 13.3 1.9
12 0 -18 14.2 1
12 0 -18 13.5 1
1 -1 18 109.19 5.8
-1 -1 -18 99.59 5.4
1 1 -18 98.79 5.4
1 1 -18 93.79 5.7
-1 -1 -18 104.99 7.1
-1 -1 -18 99.49 5.7
1 -1 -18 97.89 5.4
1 -1 -18 100.19 5.7
-1 1 -18 107.69 7.1
-1 1 -18 99.69 5.4
-1 1 -18 94.69 5.7
1 1 18 102.69 5.9
-3 -1 -18 126.19 7.4
-3 -1 -18 123.69 6.9
3 1 -18 136.09 7
3 1 -18 125.79 7.3
-3 -1 -18 138.49 9.1
-3 1 -18 128.69 7.4
3 -1 -18 133.19 6.9
3 1 18 126.29 7.3
-3 1 -18 137.69 9.2
-3 1 -18 126.49 6.9
-5 -1 -18 61.09 4.8
-5 -1 -18 65.39 3.9
5 1 -18 68.79 3.7
-5 -1 -18 57.29 3.6
5 -1 -18 57.09 3.7
-5 1 -18 59.49 3.6
5 -1 -18 64.99 3.7
-5 1 -18 65.09 4
-5 1 -18 61.89 4.9
-7 -1 -18 14.8 1.9
7 1 -18 11.4 0.9
7 1 -18 14.8 1.7
-7 -1 -18 10.7 1.9
7 -1 -18 12.5 0.9
7 -1 -18 14 1.7
-7 1 -18 11.3 2
-7 1 -18 14.3 2
9 1 -18 -0.1 0.5
-9 -1 -18 0.6 1.4
9 1 -18 1 0.4
-9 -1 -18 0.3 1.4
9 1 -18 1.3 1.1
-9 1 -18 1.6 1.5
9 -1 -18 1.2 1.1
-9 1 -18 0.2 1.4
9 -1 -18 1.3 0.4
11 1 -18 0.8 0.5
11 1 -18 0.5 0.9
-11 -1 -18 -0.5 1.4
11 1 -18 0.5 0.4
11 -1 -18 0.9 1
-11 1 -18 1 1.5
11 -1 -18 0.7 0.4
11 -1 -18 0.8 0.5
13 1 -18 0.8 0.4
13 1 -18 0.5 0.3
13 -1 -18 0.2 0.3
0 2 -18 355.86 21.8
0 2 -18 311.77 16.5
0 -2 -18 300.67 17.6
0 -2 -18 353.56 21.7
0 -2 -18 301.97 16.5
0 2 -18 322.87 17.7
2 2 -18 450.55 22.3
2 2 -18 443.56 23.8
-2 -2 -18 409.76 22.2
-2 -2 -18 387.86 23.7
-2 -2 -18 464.85 29.3
-2 2 -18 443.26 22.3
2 2 18 467.25 20.2
-2 2 -18 476.45 29.3
-2 2 -18 414.86 23.8
4 2 -18 333.37 19.1
-4 -2 -18 369.76 23.5
-4 -2 -18 326.07 19
-4 -2 -18 332.77 17.8
4 2 -18 347.87 17.9
-4 2 -18 357.46 17.8
-4 2 -18 347.97 19.1
4 -2 -18 355.36 17.9
-4 2 -18 375.06 23.6
6 2 -18 84.09 5.4
-6 -2 -18 90.09 6.9
-6 -2 -18 100.09 5.7
6 2 -18 99.09 5.2
6 -2 18 90.29 5.5
-6 2 -18 101.59 5.7
-6 2 -18 93.39 7
6 -2 -18 86.69 5.4
6 -2 -18 101.99 5.3
-8 -2 -18 16.5 2.4
8 2 -18 19.3 1.3
-8 -2 -18 19.9 2.3
8 2 -18 20 2
8 2 -18 18.2 1.3
8 -2 -18 22.3 2
-8 2 -18 20.7 2.4
8 -2 -18 20.7 1.3
-8 2 -18 14.4 2.4
-10 -2 -18 11.3 2
10 2 -18 13.2 1
10 2 -18 8.8 1.4
10 2 -18 10.9 0.9
-10 -2 -18 6.5 2
-10 2 -18 12.4 2.1
10 -2 -18 13.6 1.7
10 -2 -18 13.4 0.9
-12 -2 -18 14.1 2
12 2 -18 13.8 1.1
12 2 -18 16.7 1
12 -2 -18 15.1 1
12 -2 -18 15 1.1
12 -2 -18 11.8 1.5
-1 -3 -18 423.86 26.3
1 3 -18 388.56 20
-1 -3 -18 365.06 20
1 3 -18 384.16 21.4
-1 3 -18 428.86 26.4
-1 3 -18 375.66 21.4
-1 3 -18 392.76 20.1
3 3 -18 340.47 18.2
-3 -3 -18 350.66 22.4
-3 -3 -18 320.67 17
-3 -3 -18 310.37 18.2
3 3 -18 355.66 17.1
-3 3 -18 326.87 18.2
3 -3 -18 309.87 18.2
-3 3 -18 360.46 22.5
3 3 18 341.87 15.9
3 -3 -18 326.57 17
-3 3 -18 329.17 17.1
5 -3 18 138.69 8.6
5 3 -18 148.19 8.2
-5 -3 -18 153.88 10.5
5 3 -18 144.59 7.9
-5 -3 -18 156.58 8.5
-5 3 -18 147.69 7.9
5 -3 -18 135.69 8.6
-5 3 -18 157.18 8.6
-5 3 -18 157.88 10.6
5 -3 -18 156.58 7.9
7 3 -18 45.6 2.9
-7 -3 -18 40.4 4.1
7 3 -18 50.89 2.9
7 3 -18 54.79 3.2
7 -3 18 48.5 3.1
-7 -3 -18 53.39 3.5
-7 3 -18 53.79 3.6
-7 3 -18 43.5 4.2
7 -3 -18 53.99 3.2
7 -3 -18 48.5 2.9
9 3 -18 31.7 2.1
-9 -3 -18 35.8 3
9 3 -18 33.9 2.5
9 3 -18 35 2.1
9 -3 -18 35.3 2.1
9 -3 -18 35.7 2.6
-9 3 -18 37.3 3.2
11 3 -18 33.9 1.9
11 3 -18 32.3 1.9
-11 -3 -18 28.7 2.7
11 -3 -18 27.1 2.3
-11 3 -18 26.6 2.7
11 -3 -18 32.6 1.9
0 4 -18 37.5 2.9
0 4 -18 33.6 2.2
0 -4 -18 32.7 2.2
0 4 -18 34.4 2.3
2 4 -18 17.7 1.4
-2 -4 -18 15.3 1.6
2 4 -18 14.1 1.3
-2 -4 -18 14.1 1.3
-2 4 -18 13.6 1.4
-2 4 -18 14.7 1.3
2 -4 -18 12.6 1.6
-2 4 -18 14 1.7
2 -4 -18 16.8 1.4
2 4 18 18 2.7
2 -4 -18 11.3 1.9
4 4 -18 27 1.7
-4 -4 -18 27 2.5
4 4 -18 29.9 2
-4 -4 -18 26.8 2.1
-4 4 -18 29.1 2.7
-4 4 -18 31.9 2.3
-4 4 -18 29.7 2
4 -4 -18 30.1 2
6 -4 18 8.1 1
6 4 -18 5.4 1
6 4 -18 7.3 0.8
6 4 -18 6.1 0.7
-6 -4 -18 5.1 1.5
-6 -4 -18 7.9 1.6
-6 4 -18 7.5 1.5
-6 4 -18 5.7 1.6
6 -4 -18 6.5 1.2
6 -4 -18 8 0.7
8 4 -18 3.5 0.5
8 -4 18 3 1
-8 -4 -18 1.9 1.5
-8 -4 -18 2.8 1.5
8 4 -18 3.3 0.5
8 4 -18 2.1 0.8
-8 4 -18 2.5 1.6
8 -4 -18 4.1 1.3
-8 4 -18 2.6 1.5
10 4 -18 8.2 0.9
-10 -4 -18 2.8 1.6
10 4 -18 6.8 0.8
10 -4 -18 4.1 1.3
-10 4 -18 4.2 1.6
10 -4 -18 10 0.8
12 4 -18 1.5 0.4
-12 -4 -18 1.7 1.3
12 4 -18 1.4 0.5
12 -4 -18 0.6 0.4
12 -4 -18 0.5 0.9
-12 4 -18 0.4 1.1
1 5 -18 262.77 13.1
1 5 -18 251.47 14
-1 -5 -18 232.68 13
1 -5 -18 259.27 13.9
1 -5 -18 252.57 14.1
-1 5 -18 250.57 14
1 -5 -18 249.08 13.1
-1 5 -18 276.17 17.3
-1 5 -18 259.47 13.1
3 5 -18 195.68 10.5
3 5 -18 166.08 10.3
3 5 -18 191.68 9.8
-3 -5 -18 198.68 12.9
-3 5 -18 205.18 13
-3 5 -18 189.08 10.5
3 -5 -18 186.38 9.8
-3 5 -18 192.98 9.8
3 -5 -18 167.28 11.2
5 5 -18 185.58 10.6
-5 -5 -18 191.78 13.3
5 5 -18 197.78 10.1
-5 5 -18 193.68 13.4
-5 5 -18 204.28 10.9
5 -5 -18 197.28 10.1
-5 5 -18 196.98 10.1
5 -5 -18 180.58 11.1
7 5 -18 96.29 5.2
7 -5 18 88.29 5.5
7 5 -18 91.39 5.2
-7 -5 -18 77.19 6.8
-7 -5 -18 96.29 5.7
7 5 -18 89.49 5.4
7 -5 -18 103.09 5.3
7 -5 -18 95.99 5.4
-7 5 -18 84.89 7
-7 5 -18 106.49 5.9
-9 -5 -18 97.49 6.3
9 5 -18 99.39 5.9
9 -5 18 100.69 6.2
9 5 -18 103.59 5.7
-9 5 -18 104.69 6.4
9 -5 -18 110.49 5.9
9 -5 -18 102.09 5.9
11 5 -18 40.9 2.4
11 5 -18 40.6 2.4
-11 -5 -18 36.2 3.1
-11 5 -18 35.2 3
11 -5 -18 41.2 2.4
11 -5 -18 36.9 2.7
0 -6 -18 42.7 3.6
0 -6 -18 52.79 3.6
0 -6 -18 45.4 2.9
0 6 -18 49.1 3.1
0 6 -18 51.59 3
0 6 -18 54.29 3.9
2 6 -18 49 2.8
-2 -6 -18 44.5 3
2 6 -18 45.5 2.9
2 -6 -18 46.2 2.8
-2 6 -18 43.4 2.8
-2 6 -18 47.7 3.7
2 -6 -18 42 3.9
2 -6 -18 44.6 4.2
-2 6 -18 46.8 3
4 6 -18 23.7 1.5
4 6 -18 28.7 1.9
-4 6 -18 26.2 2.1
4 -6 -18 25.9 1.9
4 -6 -18 22.7 1.6
-4 6 -18 26.3 1.9
-4 6 -18 27 2.5
6 6 -18 35.8 2.4
6 -6 18 33.3 2.3
6 6 -18 36.4 2.1
6 6 -18 32.9 2.1
-6 6 -18 32.7 3.3
-6 6 -18 37.7 2.9
6 -6 -18 36 2.5
6 -6 -18 34.8 2.1
-8 -6 -18 21.4 2.4
8 6 -18 18.4 1.9
8 6 -18 24.1 1.5
8 -6 18 23.6 1.9
8 6 -18 20.3 1.4
-8 6 -18 23.9 2.4
8 -6 -18 21.5 2.2
-8 6 -18 15.2 2.6
8 -6 -18 23.9 1.4
10 6 -18 13.1 1
10 6 -18 13.9 1.1
10 -6 -18 8 1.5
-10 6 -18 7.4 1.8
10 -6 -18 13.6 1
12 6 -18 0.7 0.4
12 6 -18 0.3 0.3
12 -6 -18 0.7 0.8
-12 6 -18 -0.8 1.1
-1 -7 -18 64.39 4.1
1 7 -18 78.19 4.5
-1 -7 -18 83.59 5.3
1 7 -18 77.39 4.2
-1 7 -18 73.19 4.5
1 -7 -18 71.99 5.4
-1 7 -18 83.39 5.6
1 -7 -18 70.49 4.2
-1 7 -18 77.59 4.2
1 -7 -18 78.89 5.5
3 7 -18 98.29 5.9
3 7 -18 111.59 6.2
3 7 -18 109.39 5.8
-3 7 -18 110.09 5.8
3 -7 -18 103.09 5.8
-3 7 -18 108.39 6.2
-3 7 -18 111.79 7.7
5 7 -18 57.69 3.8
5 7 -18 66.29 3.7
5 7 -18 69.59 3.9
-5 7 -18 71.69 4.3
5 -7 -18 66.89 3.9
5 -7 -18 65.19 3.9
-5 7 -18 69.69 5.2
7 -7 18 86.59 5.4
7 7 -18 93.79 5.1
7 7 -18 85.69 5.2
7 7 -18 86.29 5.1
-7 7 -18 78.29 6.9
-7 7 -18 104.89 5.8
7 -7 -18 93.39 5.2
7 -7 -18 93.69 5.2
9 -7 18 30.5 2.5
9 7 -18 34.9 2.1
9 7 -18 33.8 2.1
-9 7 -18 35 3
9 -7 -18 35.5 2.1
9 -7 -18 33.4 2.7
11 7 -18 7.7 0.8
11 7 -18 9.4 0.8
11 -7 -18 7.1 0.8
11 -7 -18 6.2 1.2
-11 7 -18 6.4 1.6
0 -8 -18 161.28 10.4
0 8 -18 169.88 9.6
0 8 -18 171.38 9
0 8 -18 183.08 11.9
2 8 -18 204.38 10.9
2 8 -18 169.08 10.7
2 8 -18 203.58 10.2
-2 8 -18 208.48 10.2
-2 8 -18 204.78 13.4
-2 8 -18 191.88 10.9
2 -8 -18 186.48 10.1
4 8 -18 91.09 4.9
4 8 -18 83.19 4.9
-4 8 -18 90.79 6.6
-4 8 -18 89.39 5.3
4 -8 -18 86.29 4.9
-4 8 -18 92.79 4.9
4 -8 -18 85.29 5.1
6 8 -18 90.29 5.7
6 8 -18 100.49 5.5
6 8 -18 101.09 5.4
-6 8 -18 103.99 6
6 -8 -18 103.79 5.5
-6 8 -18 94.09 7.4
6 -8 -18 94.79 5.7
8 8 -18 98.99 6
8 8 -18 106.79 5.8
8 -8 18 93.99 6.1
8 -8 -18 101.89 6
-8 8 -18 109.89 6.4
8 -8 -18 108.49 5.9
10 8 -18 20.6 1.4
10 -8 18 18.9 1.8
10 8 -18 20.8 1.4
-10 8 -18 19.8 2.4
10 -8 -18 20.1 1.3
10 -8 -18 21.2 2.1
12 8 -18 9.5 0.8
12 8 -18 10.8 0.8
12 -8 -18 10.3 1.3
-12 8 -18 6.9 1.5
1 9 -18 7.9 1.2
-1 -9 -18 5.6 2.8
1 9 -18 7.9 0.7
1 9 -18 8.7 1.1
-1 9 -18 8.1 1.4
1 -9 -18 7.1 1
-1 9 -18 8.6 1.2
-1 9 -18 9 1.2
3 9 -18 6.4 1.1
3 9 -18 6.2 1
3 9 -18 6.7 0.6
3 -9 -18 6.6 1
-3 9 -18 6.6 1.2
-3 9 -18 5.9 1.4
-3 9 -18 6.6 1
5 9 -18 2.7 0.4
5 9 -18 2.2 0.4
5 9 -18 2.9 0.9
5 -9 -18 1.9 1
-5 9 -18 1.3 1.1
5 -9 -18 2.1 0.4
-5 9 -18 1.9 1.2
7 9 -18 5.8 0.7
7 -9 18 5.4 1.1
7 9 -18 5.4 0.8
7 -9 -18 6.5 0.7
-7 9 -18 5.1 1.6
7 -9 -18 2.6 1.3
-7 9 -18 3.9 1.6
9 -9 18 1.2 0.9
9 9 -18 -0.5 0.4
9 9 -18 0.1 0.5
9 -9 -18 1 1.3
-9 9 -18 -1.1 1.4
9 -9 -18 0.7 0.4
-9 9 -18 0.4 1.4
11 9 -18 -0.4 0.4
11 9 -18 0.1 0.4
-11 9 -18 0.4 1.2
11 -9 -18 0.5 1
0 10 -18 176.18 10.2
0 10 -18 184.08 9.6
0 10 -18 187.48 12.6
2 10 -18 112.79 5.9
2 10 -18 97.39 6
2 10 -18 110.09 6.2
-2 10 -18 114.09 5.9
-2 10 -18 113.29 7.8
-2 10 -18 107.79 6.3
2 -10 -18 100.89 5.8
4 10 -18 42.9 2.6
4 10 -18 39 2.4
-4 10 -18 42.2 2.7
-4 10 -18 41.5 3.5
-4 10 -18 41.7 2.9
4 -10 -18 38.3 2.6
4 -10 -18 39.8 2.4
6 10 -18 90.99 5
6 10 -18 83.39 5.1
6 -10 -18 89.89 5.1
6 -10 -18 87.39 5.2
-6 10 -18 101.39 5.7
-6 10 -18 82.49 6.8
8 -10 18 61.59 4
8 10 -18 67.29 3.7
8 10 -18 64.09 3.8
8 -10 -18 63.09 3.8
8 -10 -18 66.59 4.1
-8 10 -18 69.19 4.5
10 10 -18 35.7 2.1
10 -10 18 30.7 2.5
10 10 -18 34.9 2.1
-10 10 -18 34.1 2.9
10 -10 -18 36.2 2.6
12 10 -18 14.7 1
12 10 -18 13.4 1
12 -10 -18 12 1.4
1 11 -18 46.4 3
1 11 -18 46.7 2.8
1 11 -18 40.4 2.6
-1 11 -18 44.9 3
-1 11 -18 47.9 3.7
-1 11 -18 48.7 2.8
3 11 -18 12.4 1.3
3 11 -18 10.9 0.9
3 -11 -18 10 1.3
-3 11 -18 12.9 1.5
-3 11 -18 12.6 1.7
-3 11 -18 14 1.4
5 11 -18 30.9 1.9
5 11 -18 28.4 1.9
5 -11 -18 32.5 1.9
-5 11 -18 34 2.6
-5 11 -18 34.1 3.1
5 -11 -18 30.8 2.3
7 11 -18 29 1.8
7 -11 18 28.9 2
7 11 -18 27.7 1.8
-7 11 -18 33.6 2.9
-7 11 -18 25.2 3
7 -11 -18 31 2.4
7 -11 -18 26.8 1.8
9 -11 18 24.1 1.9
9 11 -18 24.2 1.5
9 11 -18 26.5 1.6
-9 11 -18 23.6 2.6
-9 11 -18 16.8 2.7
9 -11 -18 22.5 2.1
9 -11 -18 23.3 1.5
11 11 -18 10.3 0.8
11 11 -18 9.5 0.8
11 -11 18 9.8 1.4
-11 11 -18 6.5 1.5
11 -11 -18 5.4 1.2
0 12 -18 73.59 4
0 12 -18 72.79 4.3
0 12 -18 65.39 3.9
2 12 -18 11.6 1.3
2 12 -18 12.6 1.4
2 12 -18 11.2 0.9
-2 12 -18 14.9 1.5
2 -12 -18 11.8 1.4
-2 12 -18 13.1 1.7
-2 12 -18 14.1 1.4
4 12 -18 24.5 1.5
-4 12 -18 22.5 2.5
4 -12 -18 21.8 1.9
4 -12 -18 23 1.5
-4 12 -18 23.5 2.1
6 12 -18 34 2.2
6 12 -18 38 2.2
6 -12 -18 37.6 2.2
-6 12 -18 36.1 3
-6 12 -18 34.2 3.4
6 -12 -18 36.7 2.6
8 -12 18 25.2 2
8 12 -18 28.8 1.7
8 12 -18 26.9 1.7
-8 12 -18 26.7 2.6
8 -12 -18 24.8 2.3
8 -12 -18 26.7 1.7
10 12 -18 17.2 1.3
10 12 -18 20.5 1.3
10 -12 18 19.1 1.8
10 -12 -18 19.8 1.9
-10 12 -18 15.4 2
1 13 -18 173.68 9.6
1 13 -18 167.58 8.9
1 13 -18 154.08 9.3
-1 13 -18 175.88 11.8
-1 13 -18 172.88 9
-1 13 -18 174.08 9.6
3 13 -18 41.6 2.5
3 -13 -18 39.2 2.7
-3 13 -18 46.2 3
-3 13 -18 43.2 3.6
5 13 -18 88.49 5.6
5 13 -18 101.99 5.5
-5 13 -18 91.79 7.3
-5 13 -18 105.19 6
5 -13 -18 98.29 5.7
5 -13 -18 102.59 5.5
7 13 -18 71.89 4.4
7 13 -18 81.19 4.3
7 -13 18 73.49 4.5
-7 13 -18 64.39 5.9
-7 13 -18 83.29 5
7 -13 -18 77.49 4.5
7 -13 -18 75.99 4.4
9 13 -18 71.39 4
9 -13 18 70.09 4.4
9 13 -18 72.79 4.1
-9 13 -18 68.49 4.6
9 -13 -18 69.09 4.2
11 13 -18 18.3 1.1
11 13 -18 16.2 1.2
11 -13 -18 15 1.6
-11 13 -18 15.9 1.9
0 14 -18 26.3 2.1
0 14 -18 24.4 1.9
0 14 -18 24.2 1.5
2 14 -18 10.7 1.3
2 14 -18 12 1.5
2 14 -18 11.5 0.9
-2 14 -18 12.4 1.5
-2 14 -18 10.5 1.7
-2 14 -18 13.4 1.5
4 14 -18 2.4 0.4
-4 14 -18 2.5 1.2
4 -14 -18 2.5 0.4
-4 14 -18 2.1 1.4
4 -14 -18 3.4 1
6 14 -18 2.1 0.5
6 14 -18 1.6 0.4
6 -14 -18 1.7 0.4
6 -14 -18 1.9 1.1
-6 14 -18 2.2 1.4
-6 14 -18 1.3 1.3
8 -14 18 3.1 1.1
8 14 -18 2.8 0.5
-8 14 -18 3.4 1.5
8 -14 -18 3.7 1.3
8 -14 -18 2.7 0.7
-8 14 -18 2.6 1.6
10 14 -18 1 0.4
10 14 -18 0.9 0.4
10 -14 18 0.6 0.8
-10 14 -18 0.8 1.2
10 -14 -18 1.1 1.1
1 15 -18 434.46 22.5
1 15 -18 391.36 21
1 15 -18 450.95 27
1 15 -18 401.66 22.5
-1 15 -18 406.76 21
-1 15 -18 422.06 22.5
-1 15 -18 374.36 22.5
3 15 -18 147.39 8.2
3 15 -18 143.59 10.3
3 -15 -18 148.89 8.5
-3 15 -18 140.19 10.4
-3 15 -18 153.68 8.5
5 15 -18 24.8 1.5
-5 15 -18 20 2.5
-5 15 -18 23.6 2.2
5 -15 -18 20.8 2
5 -15 -18 21.5 1.5
7 15 -18 63.79 3.5
7 -15 18 59.89 3.7
7 15 -18 56.09 3.5
7 -15 -18 57.99 3.5
-7 15 -18 61.99 4.1
7 -15 -18 58.89 3.7
9 -15 18 37.4 2.6
9 15 -18 38.7 2.3
9 15 -18 39.7 2.3
-9 15 -18 36.3 3
9 -15 -18 38.9 2.7
0 16 -18 252.57 13.4
0 16 -18 245.88 14.2
0 16 -18 279.47 14.4
2 16 -18 232.68 15.9
2 16 -18 236.18 12.9
-2 16 -18 241.28 13.1
-2 16 -18 227.68 16.1
4 16 -18 55.99 3.2
-4 16 -18 57.09 3.7
4 -16 -18 54.59 3.2
-4 16 -18 47.7 4.4
6 16 -18 20.6 1.4
6 16 -18 24.4 1.5
-6 16 -18 23.2 2.3
-6 16 -18 17.4 2.5
6 -16 -18 21.5 1.4
6 -16 -18 23.4 2
8 16 -18 23 1.5
8 16 -18 21 1.5
8 -16 18 23.6 1.8
8 -16 -18 23.3 2.1
-8 16 -18 22.8 2.2
10 16 -18 7.9 0.8
10 16 -18 9 0.7
-10 16 -18 6.1 1.3
10 -16 -18 5.9 1.1
1 17 -18 104.89 5.7
1 17 -18 103.39 7.8
1 17 -18 102.19 6.1
-1 17 -18 103.99 6.1
-1 17 -18 97.19 5.7
3 17 -18 44.2 4.3
3 17 -18 51.39 2.9
-3 17 -18 40.6 4
3 -17 -18 50.99 2.9
-3 17 -18 50.29 3.4
5 17 -18 13.9 1
5 17 -18 8.8 0.9
-5 17 -18 7.8 1.9
5 -17 -18 11.8 0.9
5 -17 -18 8.1 2
-5 17 -18 12.7 1.8
7 17 -18 7.2 0.8
7 17 -18 10.3 0.9
-7 17 -18 8.1 1.6
7 -17 -18 8.1 1.3
-7 17 -18 5.5 1.8
9 -17 18 2.4 1.1
9 17 -18 2.7 0.5
9 17 -18 3.3 0.5
-9 17 -18 1.9 1.2
9 -17 -18 3.2 1.1
0 18 -18 208.08 14
0 18 -18 195.28 11.2
0 18 -18 206.78 11.4
2 18 -18 219.58 15.4
2 18 -18 226.18 12.4
-2 18 -18 235.98 12.7
2 -18 -18 229.58 12.9
-2 18 -18 215.18 12.4
4 18 -18 189.88 9.7
4 -18 -18 174.18 10
-4 18 -18 154.88 12.2
6 18 -18 89.39 4.6
6 18 -18 75.09 4.7
6 -18 -18 73.19 4.6
-6 18 -18 84.09 5.1
8 -18 18 24.9 1.9
8 18 -18 26.5 1.6
8 18 -18 25.3 1.6
-8 18 -18 24.9 2.3
8 -18 -18 23.4 2
1 19 -18 8.6 0.9
1 19 -18 6.3 2
-1 19 -18 8.4 0.9
-1 19 -18 9.1 1.5
3 19 -18 18.5 1.4
3 19 -18 15.7 2.7
3 -19 -18 19.2 1.3
-3 19 -18 19.7 2
5 19 -18 20.2 1.4
5 19 -18 17.3 1.3
-5 19 -18 20.9 2
7 19 -18 6 0.7
7 19 -18 5.5 0.8
7 -19 18 8.1 1.2
-7 19 -18 3 1.2
7 -19 -18 4.2 1.2
9 19 -18 1.1 0.4
9 19 -18 0.9 0.4
9 -19 -18 1.6 0.9
0 20 -18 61.89 3.6
0 20 -18 60.79 5.3
0 20 -18 60.49 3.9
2 20 -18 52.09 4.9
2 20 -18 56.79 3.2
-2 20 -18 57.59 3.7
2 -20 -18 54.99 3.3
-2 20 -18 54.49 3.2
4 20 -18 109.39 5.7
4 20 -18 90.49 5.9
-4 20 -18 106.79 6.1
6 20 -18 58.49 3.6
6 20 -18 64.89 3.6
8 20 -18 14.5 1.1
8 20 -18 15.4 1.1
1 21 -18 46.2 2.7
1 21 -18 42 4.3
-1 21 -18 44.3 2.7
-1 21 -18 45.8 3.1
1 -21 -18 45.6 2.7
3 21 -18 44.6 4.6
3 21 -18 54.89 3
5 21 -18 62.69 3.9
5 21 -18 70.79 3.9
7 21 -18 24.2 1.6
7 -21 18 24.6 1.9
7 21 -18 25 1.6
0 22 -18 13.4 1.1
2 22 -18 10.8 2.7
2 22 -18 17.2 1.2
-2 22 -18 15.3 1.2
4 22 -18 18.8 1.3
4 22 -18 20.1 1.4
6 22 -18 7.9 0.8
6 22 -18 7 0.8
1 23 -18 78.29 4.4
-1 23 -18 76.29 4.4
3 23 -18 90.99 4.9
-3 23 -18 80.89 4.9
5 23 -18 51.99 3.1
5 23 -18 53.69 3.1
7 23 -18 28.7 1.7
7 23 -18 26 1.7
0 24 -18 10.4 1
2 24 -18 15 1.2
-2 24 -18 14.1 1.2
4 24 -18 11.7 1.1
4 24 -18 14 1
6 24 -18 7.2 0.7
6 24 -18 5.2 0.7
1 25 -18 21 1.5
-1 25 -18 22.4 1.5
3 25 -18 41.1 2.5
3 25 -18 45.2 2.5
-3 25 -18 40.3 2.5
5 25 -18 30 1.9
5 25 -18 29.9 1.9
0 26 -18 14.5 1.1
2 26 -18 28.3 1.8
-2 26 -18 26.5 1.8
4 26 -18 37.9 2.3
4 26 -18 37.8 2.3
1 27 -18 1.3 0.4
-1 27 -18 1.4 0.5
0 0 -19 2.2 0.8
0 0 -19 2.1 1
0 0 -19 2.2 0.7
2 0 -19 4.6 0.9
2 0 -19 2.1 0.7
-2 0 -19 4.2 1.1
-2 0 -19 3.7 0.8
2 0 19 1.7 1.4
-2 0 -19 3.6 1
-4 0 -19 7.4 1.3
-4 0 -19 5.1 1
4 0 -19 7.8 1.2
-4 0 -19 6.9 1.5
6 0 -19 1.7 1
-6 0 -19 1.5 1.2
-6 0 -19 1.4 1.2
6 0 -19 1.7 0.3
-8 0 -19 0.8 1.5
8 0 -19 0.1 1.1
8 0 -19 1 0.4
-8 0 -19 0.3 1.3
-10 0 -19 0.6 1.4
10 0 -19 -0.8 0.4
10 0 -19 -1.1 0.5
10 0 -19 -0.1 0.9
-10 0 -19 -0.2 1.3
12 0 -19 0.7 0.4
-12 0 -19 1.8 1.2
12 0 -19 1.5 0.4
-1 -1 -19 1.6 0.6
1 1 -19 1.8 0.8
-1 -1 -19 1.8 0.8
1 1 -19 1.4 0.7
-1 -1 -19 2.7 1
1 -1 -19 2 0.7
1 -1 -19 1.4 0.7
-1 1 -19 1.8 0.8
-1 1 -19 1.4 0.7
-1 1 -19 2.4 1
1 1 19 0.5 1.3
-3 -1 -19 2.7 0.8
3 1 -19 1.2 0.8
3 1 -19 3.5 0.4
-3 -1 -19 3.1 1
-3 -1 -19 3.7 1.1
3 1 19 2.1 1.6
-3 1 -19 3.9 1.2
3 -1 -19 1.8 0.8
-3 1 -19 2 0.8
-3 1 -19 2.7 1.1
5 1 -19 3.9 0.6
-5 -1 -19 6.1 1.3
-5 -1 -19 3.9 0.9
-5 -1 -19 4 1.4
5 1 -19 4.5 1.1
-5 1 -19 4.3 1.3
-5 1 -19 4.7 1.5
-5 1 -19 4.7 1
5 -1 -19 4.8 0.5
5 -1 -19 4.6 1.2
7 1 -19 -0.3 0.3
-7 -1 -19 -0.2 1.2
7 1 -19 0.3 1
-7 -1 -19 0 1.2
7 -1 -19 -0.5 0.9
7 -1 -19 0.2 0.4
-7 1 -19 0.4 1.3
-7 1 -19 0.1 1.2
9 1 -19 -0.8 0.5
-9 -1 -19 -0.9 1.2
-9 -1 -19 -0.4 1.5
9 1 -19 -1.1 0.9
9 -1 -19 -0.8 0.4
-9 1 -19 -2.1 1.3
9 -1 -19 -1.6 1
-9 1 -19 0.4 1.4
11 1 -19 -0.3 0.7
11 1 -19 -0.8 0.4
11 1 -19 -0.8 0.4
-11 -1 -19 -0.7 1.2
11 -1 -19 -0.1 0.4
11 -1 -19 0.1 0.9
11 -1 -19 -0.5 0.4
-11 1 -19 -1.2 1.3
0 -2 -19 2 0.7
0 -2 -19 1.9 0.9
0 2 -19 2.7 1
0 -2 -19 2 0.7
0 2 -19 1.8 0.8
0 2 -19 1.5 0.7
-2 -2 -19 5.3 0.9
2 2 -19 4.1 0.9
-2 -2 -19 6 1.2
-2 -2 -19 5.8 1.1
2 2 -19 4.8 1
-2 2 -19 5 1.1
-2 2 -19 5.5 1.3
2 2 19 6.2 1.8
-2 2 -19 6 0.9
2 -2 -19 4.1 0.8
4 2 -19 2.5 0.8
-4 -2 -19 2 0.8
-4 -2 -19 4.5 1.1
4 2 -19 2.4 0.4
-4 -2 -19 4 1.2
-4 2 -19 3 1.1
4 -2 -19 2.5 0.9
-4 2 -19 2.7 0.9
-4 2 -19 2.9 1.2
-6 -2 -19 3.5 1.4
-6 -2 -19 4.8 1.4
6 2 -19 6.2 1.3
6 2 -19 5.4 0.7
6 2 -19 4.6 0.6
6 -2 -19 3.3 1.1
-6 2 -19 3.2 1.5
6 -2 -19 5.2 0.6
-6 2 -19 4.7 1.4
-8 -2 -19 7.5 1.9
-8 -2 -19 11.4 2
8 2 -19 10.5 0.9
8 2 -19 9.3 1.5
8 2 -19 9.3 0.8
8 -2 -19 11.8 0.9
-8 2 -19 12.4 2.1
8 -2 -19 9.4 1.5
-8 2 -19 9.2 2.1
10 2 -19 -0.2 0.4
-10 -2 -19 0 1.5
10 2 -19 0 0.7
-10 -2 -19 0.3 1.4
10 2 -19 0.7 0.5
-10 2 -19 1.1 1.4
-10 2 -19 1.3 1.5
10 -2 -19 -0.9 1
10 -2 -19 0.9 0.4
12 2 -19 1.5 0.4
-12 -2 -19 1.3 1.1
-12 2 -19 1 1.2
12 -2 -19 0.8 0.4
12 -2 -19 -0.1 0.8
-1 -3 -19 7.4 1
1 3 -19 6.8 1
-1 -3 -19 8.5 1.4
1 3 -19 7.8 1.2
1 -3 -19 7.3 1
-1 3 -19 7.7 1
-1 3 -19 8.1 1.4
1 3 19 6.1 1.8
-1 3 -19 8.3 1.2
-3 -3 -19 5.3 0.9
3 3 -19 4.5 1
-3 -3 -19 5 1.2
3 3 -19 2.7 0.9
3 3 -19 2.9 0.4
-3 -3 -19 5.8 1.1
-3 3 -19 3.9 0.9
3 -3 -19 4.7 1
-3 3 -19 4.2 1.1
-3 3 -19 5.2 1.3
5 3 -19 1.9 0.3
-5 -3 -19 1.3 1.1
5 3 -19 1.8 0.8
-5 -3 -19 2 1.1
5 3 -19 2.8 0.4
5 -3 -19 1.4 0.9
-5 3 -19 3.5 1.2
-5 3 -19 2.1 1.2
5 -3 -19 1.9 0.4
-5 3 -19 1.6 0.8
-7 -3 -19 4.2 1.5
7 3 -19 3.6 0.9
7 3 -19 3.7 0.5
7 -3 19 5.9 1.3
-7 -3 -19 4.6 1.5
-7 3 -19 6 1.6
-7 3 -19 4.2 1.6
7 -3 -19 5.6 1.3
9 3 -19 1.2 0.5
-9 -3 -19 0.5 1.4
9 3 -19 1 0.8
-9 -3 -19 0.6 1.6
9 -3 -19 1.1 1.2
-9 3 -19 0.9 1.4
-9 3 -19 1 1.5
9 -3 -19 1.5 0.4
-11 -3 -19 2.7 1.4
11 -3 -19 2.2 1
11 -3 -19 1.6 0.5
-11 3 -19 2.6 1.4
0 -4 -19 0.3 0.7
0 4 -19 1.1 0.7
0 4 -19 1.6 0.9
0 4 -19 1.2 0.8
2 4 -19 2.8 0.9
-2 -4 -19 4.7 1.1
-2 -4 -19 2.9 0.8
2 4 -19 3.3 0.9
-2 4 -19 2.1 0.8
-2 4 -19 4.2 1
2 -4 -19 1.1 0.6
-2 4 -19 3.7 1.1
-4 -4 -19 0.6 0.9
4 4 -19 0.4 0.3
4 4 -19 0.4 0.8
-4 4 -19 0.3 0.7
4 -4 -19 0.2 0.8
4 -4 -19 -0.1 0.3
-4 4 -19 0.9 1.1
-4 4 -19 1.3 1
6 4 -19 2.2 0.4
-6 -4 -19 3 1.3
6 4 -19 3.1 0.5
6 -4 19 4.1 0.9
6 4 -19 3.5 1
-6 -4 -19 2.2 1.3
6 -4 -19 3.2 0.4
-6 4 -19 2 1.4
6 -4 -19 2.6 1.1
-6 4 -19 3.7 1.4
-8 -4 -19 1.1 1.6
8 -4 19 1.5 1.3
8 4 -19 0.9 0.4
8 4 -19 0.4 0.9
8 4 -19 1.8 0.5
-8 -4 -19 0.8 1.3
-8 4 -19 1.8 1.5
8 -4 -19 1.7 0.4
-8 4 -19 2.7 1.5
8 -4 -19 2.2 1.2
-10 -4 -19 0.2 1.5
-10 -4 -19 -1.5 1.5
10 4 -19 0.5 0.4
10 4 -19 0.6 0.5
-10 4 -19 -0.5 1.4
10 -4 -19 0.8 0.4
-10 4 -19 -0.3 1.4
10 -4 -19 -1.6 1
12 4 -19 -0.2 0.3
12 4 -19 -0.3 0.4
-12 -4 -19 0.4 1.1
12 -4 -19 -0.4 0.8
-12 4 -19 0.8 1.1
12 -4 -19 -0.9 0.4
12 -4 -19 -0.5 0.4
1 5 -19 5.1 1
-1 -5 -19 4.3 0.8
1 5 -19 4.5 0.9
-1 5 -19 5.2 0.9
-1 5 -19 5.7 1.3
1 -5 -19 4.5 0.8
-1 5 -19 4.4 1
3 5 -19 20.7 1.7
3 5 -19 21.9 1.7
-3 5 -19 23.4 2.3
3 -5 -19 20.9 1.7
-3 5 -19 21.2 1.7
-3 5 -19 23.8 1.9
5 5 -19 12.1 1.4
5 5 -19 12 0.9
5 5 -19 8.5 0.8
-5 -5 -19 9.4 1.5
5 -5 -19 10.7 1.4
5 -5 -19 11.4 0.8
-5 5 -19 9.3 1.3
-5 5 -19 10.3 1.7
-5 5 -19 12.3 1.7
-7 -5 -19 3.3 1.4
7 5 -19 5.1 0.7
7 5 -19 2.1 0.9
7 5 -19 3 0.4
7 -5 19 2.9 1
-7 -5 -19 1.3 1.3
7 -5 -19 3.6 1.2
-7 5 -19 3.4 1.5
-7 5 -19 2.3 1.5
-9 -5 -19 4.1 1.7
9 5 -19 1 1.1
-9 -5 -19 1.7 2
-9 5 -19 1.7 1.5
-9 5 -19 3 1.5
11 5 -19 5.5 0.8
11 5 -19 6.9 0.6
-11 -5 -19 2.3 1.4
11 -5 -19 5.3 0.7
-11 5 -19 1.6 1.4
11 -5 -19 1.9 1
0 -6 -19 1.6 0.7
0 6 -19 0.4 0.7
0 6 -19 0.6 0.7
0 6 -19 1.2 0.9
-2 -6 -19 6.2 0.9
2 6 -19 6.4 1
2 6 -19 5 0.5
2 6 -19 6.3 1.1
-2 6 -19 5.9 1
2 -6 -19 6.8 1.1
-2 6 -19 6.9 1.4
-2 6 -19 7.2 1.1
4 6 -19 1.9 1
4 6 -19 1.5 0.4
4 -6 -19 2 0.9
-4 6 -19 1.9 1
-4 6 -19 1.9 1.1
-4 6 -19 2.3 0.8
4 -6 -19 1.6 0.3
6 6 -19 5 0.7
6 -6 19 5.2 1.1
6 6 -19 4 0.6
6 6 -19 3.9 1.1
6 -6 -19 5.6 1.2
-6 6 -19 3.9 1.5
6 -6 -19 5.4 0.6
-6 6 -19 6 1.6
8 -6 19 0.7 1
8 6 -19 0.9 0.4
8 6 -19 0.3 1
8 6 -19 1.1 0.5
8 -6 -19 0.6 1.2
8 -6 -19 1.4 0.4
-8 6 -19 0 1.5
-8 6 -19 -0.5 1.3
10 6 -19 1.4 0.5
10 6 -19 0.9 0.4
10 -6 -19 1.3 0.5
10 -6 -19 0.2 1.1
-10 6 -19 1.6 1.5
-10 6 -19 -0.8 1.4
12 6 -19 -0.4 0.4
12 6 -19 -0.5 0.3
-12 6 -19 -0.7 1
12 -6 -19 0 0.8
1 7 -19 11 1.4
-1 -7 -19 8.8 1.1
1 7 -19 8.8 1.1
1 -7 -19 8.2 1.1
-1 7 -19 9.1 1.2
-1 7 -19 8.2 1.4
-1 7 -19 8.7 1.2
3 7 -19 5.1 1
3 7 -19 3.3 0.9
3 7 -19 2.4 0.4
-3 7 -19 3.7 1.2
-3 7 -19 2.7 0.9
3 -7 -19 4 0.9
-3 7 -19 4.4 1.1
5 7 -19 2.5 0.5
5 7 -19 3.7 1
5 7 -19 4.2 0.5
5 -7 -19 3.9 1.1
5 -7 -19 3.1 0.4
-5 7 -19 2.6 1.3
-5 7 -19 4.8 1.5
7 -7 19 2.6 0.9
7 7 -19 2.1 1.1
-7 7 -19 -0.8 1.3
-7 7 -19 1.4 1.5
7 -7 -19 0 1.1
9 -7 19 1.6 1
9 7 -19 1.2 0.4
9 7 -19 1.4 0.5
-9 7 -19 0.6 1.5
-9 7 -19 1.1 1.5
9 -7 -19 0.2 1.2
9 -7 -19 2 0.5
11 7 -19 0.2 0.4
11 7 -19 0.3 0.4
11 -7 -19 0.6 1
-11 7 -19 -0.4 1.2
11 -7 -19 -0.2 0.4
0 -8 -19 0.6 0.6
0 8 -19 0.8 0.7
0 8 -19 0.8 0.9
0 8 -19 0.6 0.7
2 8 -19 2.6 0.9
2 8 -19 1.4 0.3
2 8 -19 2.2 0.8
-2 8 -19 2.9 0.8
2 -8 -19 2.7 0.8
-2 8 -19 3.3 1
-2 8 -19 2.2 1
4 8 -19 12.9 1
-4 8 -19 16 1.7
4 -8 -19 13.9 1
4 -8 -19 15.3 1.5
-4 8 -19 15.2 1.5
-4 8 -19 15.7 2
6 8 -19 5.3 0.7
6 8 -19 3.9 1.1
6 8 -19 5.8 0.6
6 -8 -19 2.7 1.1
6 -8 -19 4.2 0.7
-6 8 -19 2.4 1.4
-6 8 -19 3.1 1.5
8 -8 19 0.7 0.9
8 8 -19 2.3 0.5
-8 8 -19 1.1 1.4
-8 8 -19 3.1 1.6
8 -8 -19 2.9 1.2
10 8 -19 0.9 0.5
10 8 -19 1.9 0.4
10 -8 19 2 1.3
-10 8 -19 1.1 1.4
10 -8 -19 1.3 0.5
10 -8 -19 1.3 1
12 8 -19 0.4 0.3
12 8 -19 1.1 0.3
12 -8 -19 0.6 0.8
-12 8 -19 0.6 1.3
1 9 -19 1.1 0.8
1 9 -19 1.6 0.7
1 9 -19 0.7 0.3
1 -9 -19 0.1 0.6
-1 9 -19 0.2 0.7
-1 9 -19 1.5 1
-1 9 -19 0.9 0.8
3 9 -19 2.2 0.8
3 9 -19 1.3 0.4
3 9 -19 1.4 0.9
3 -9 -19 1.1 0.8
-3 9 -19 1.9 1
-3 9 -19 1.9 0.8
-3 9 -19 1.9 1.1
5 9 -19 0.8 0.3
5 9 -19 0.5 0.4
5 9 -19 -0.4 0.8
-5 9 -19 0.2 1.1
-5 9 -19 0.4 1.1
5 -9 -19 -0.3 0.3
5 -9 -19 0.4 0.9
7 9 -19 -0.2 0.4
-7 9 -19 -2.7 1.3
-7 9 -19 -0.3 1.3
7 -9 -19 -1.3 1.2
9 -9 19 -1 0.9
9 9 -19 -0.4 0.5
-9 9 -19 -2.8 1.4
9 -9 -19 -1 0.4
9 -9 -19 -1.3 1.1
-9 9 -19 -0.6 1.3
11 9 -19 -0.7 0.4
-11 9 -19 -1.7 1.2
11 -9 -19 -0.4 0.9
0 10 -19 0.1 0.7
0 10 -19 0.5 0.8
2 10 -19 1 0.3
2 10 -19 2.2 0.9
2 10 -19 1.7 0.8
-2 10 -19 1.9 0.8
2 -10 -19 2 0.8
-2 10 -19 2.1 0.9
-2 10 -19 2.7 1.2
4 10 -19 10.1 1.3
4 10 -19 8.5 0.8
4 -10 -19 8.1 0.8
4 -10 -19 10 1.3
-4 10 -19 8.8 1.8
-4 10 -19 8.8 1.5
-4 10 -19 10.7 1.4
6 10 -19 1.1 0.4
6 10 -19 1.2 0.4
6 -10 -19 0.3 1
-6 10 -19 1.3 1.3
-6 10 -19 -0.8 1.2
6 -10 -19 0.6 0.4
8 10 -19 1.5 0.5
8 -10 19 0.2 1
-8 10 -19 -0.2 1.6
8 -10 -19 2.2 0.5
-8 10 -19 0.5 1.4
8 -10 -19 0.7 1.2
10 10 -19 1 0.5
10 -10 19 1.3 0.9
10 -10 -19 1.8 0.4
-10 10 -19 2.5 1.5
10 -10 -19 0.6 1
1 11 -19 6.5 1.2
1 11 -19 4.9 0.5
1 11 -19 5.8 1
-1 11 -19 6.8 1.2
-1 11 -19 6.8 1.5
-1 11 -19 5.4 1
3 11 -19 0.9 0.3
3 11 -19 1.1 0.8
-3 11 -19 0.2 0.9
3 -11 -19 0.3 0.8
-3 11 -19 1.6 1.1
-3 11 -19 1.2 0.8
5 11 -19 1.6 0.4
5 11 -19 2 0.4
-5 11 -19 2.4 1.4
5 -11 -19 1.8 0.4
-5 11 -19 2.6 1.3
5 -11 -19 1.2 1
7 -11 19 0.5 1
7 11 -19 -0.7 0.4
7 11 -19 0 0.5
-7 11 -19 -0.4 1.3
-7 11 -19 -0.3 1.3
7 -11 -19 -1 0.4
7 -11 -19 0.6 1.2
9 11 -19 0.3 0.5
9 11 -19 0 0.4
9 -11 19 0.1 0.9
9 -11 -19 0.5 0.4
-9 11 -19 -0.8 1.3
-9 11 -19 0.3 1.3
9 -11 -19 0.2 1.1
11 11 -19 0 0.3
11 11 -19 0.2 0.4
11 -11 -19 0.4 0.9
-11 11 -19 0.1 1.1
0 12 -19 1.3 0.9
0 12 -19 0.6 0.7
0 12 -19 0.8 0.4
2 12 -19 3.2 1
2 12 -19 2.6 0.4
2 12 -19 3.4 0.9
-2 12 -19 2.6 1.1
-2 12 -19 1.6 1.1
2 -12 -19 1.3 0.9
-2 12 -19 2.1 0.9
4 12 -19 0.4 0.4
4 -12 -19 -0.1 0.8
4 -12 -19 0.1 0.3
-4 12 -19 0.4 1.1
-4 12 -19 0.5 1.1
6 12 -19 1.3 0.4
6 12 -19 1.7 0.5
-6 12 -19 1 1.3
6 -12 -19 0.3 1
6 -12 -19 0.9 0.4
-6 12 -19 0.3 1.3
8 -12 19 -0.3 1
8 12 -19 0.8 0.4
8 12 -19 0.4 0.5
8 -12 -19 -0.7 1.2
-8 12 -19 -0.2 1.3
-8 12 -19 -0.8 1.3
8 -12 -19 0.7 0.4
10 12 -19 0.3 0.4
10 12 -19 0.7 0.4
10 -12 19 -0.1 0.9
-10 12 -19 0.1 1.3
10 -12 -19 -0.4 0.9
1 13 -19 4.3 1.1
1 13 -19 6 1
1 13 -19 5.1 0.6
-1 13 -19 4.2 1
-1 13 -19 3.8 1.3
-1 13 -19 4.6 1.2
3 13 -19 22.6 1.5
3 13 -19 25.3 1.9
-3 13 -19 24.8 2.6
-3 13 -19 27.6 2.2
3 -13 -19 24.7 1.9
5 13 -19 0.6 0.4
5 13 -19 1.2 0.4
5 -13 -19 0.9 0.4
5 -13 -19 1.5 1
-5 13 -19 1.3 1.3
-5 13 -19 0.4 1.2
7 13 -19 0.4 0.5
7 -13 19 1.5 1
7 13 -19 0.6 0.4
7 -13 -19 0.4 0.4
-7 13 -19 0.5 1.3
-7 13 -19 0 1.3
7 -13 -19 2.3 1.1
9 -13 19 2.7 1
9 -13 -19 1.6 1.1
-9 13 -19 1 1.3
11 13 -19 1 0.3
11 13 -19 0.6 0.4
11 -13 -19 0.4 0.8
0 14 -19 0 0.4
0 14 -19 -1.4 0.7
0 14 -19 -0.6 0.9
2 14 -19 1.5 0.9
2 14 -19 1.1 1
2 14 -19 1.3 0.4
-2 14 -19 1.7 0.9
-2 14 -19 2.8 1.1
-2 14 -19 1.6 1.2
4 14 -19 0.8 0.4
4 -14 -19 0.4 0.9
4 -14 -19 0.2 0.3
-4 14 -19 0.3 1.1
-4 14 -19 0.8 1.2
6 14 -19 0.2 0.4
6 14 -19 -0.5 0.3
-6 14 -19 -0.4 1.2
-6 14 -19 -1.3 1.3
6 -14 -19 0.6 1.1
6 -14 -19 -0.8 0.4
8 -14 19 -1.2 1
8 14 -19 -0.1 0.4
8 14 -19 -0.7 0.4
8 -14 -19 -0.4 1.1
-8 14 -19 -0.2 1.4
-8 14 -19 -1.6 1.2
10 -14 19 0.2 0.9
10 14 -19 -0.5 0.4
10 14 -19 -0.2 0.3
-10 14 -19 -0.7 1.1
10 -14 -19 -0.6 0.9
1 15 -19 22.7 2.1
1 15 -19 21.1 1.5
1 15 -19 22.4 1.9
-1 15 -19 26.2 2.1
-1 15 -19 24.3 2
3 15 -19 2.3 0.4
-3 15 -19 1.7 1.1
-3 15 -19 1 1.2
3 -15 -19 1.9 0.4
5 15 -19 7.6 0.8
-5 15 -19 6.4 1.7
5 -15 -19 7.1 0.8
-5 15 -19 8.5 1.6
5 -15 -19 7.2 1.3
7 15 -19 0.8 0.4
7 -15 19 1.4 1
7 15 -19 0.6 0.5
7 -15 -19 -0.1 1
7 -15 -19 -0.1 0.4
-7 15 -19 -0.6 1.2
-7 15 -19 1.5 1.3
9 -15 19 0.5 1.1
9 15 -19 1.5 0.4
9 15 -19 0.8 0.4
9 -15 -19 0 0.9
-9 15 -19 0.5 1.2
0 16 -19 0.5 0.9
0 16 -19 -0.1 0.4
0 16 -19 0 1.1
2 16 -19 1.9 0.4
-2 16 -19 3.1 1.1
4 16 -19 2.6 0.5
4 -16 -19 2.5 0.4
-4 16 -19 1.4 1.3
-4 16 -19 2.2 1.2
6 16 -19 1.4 0.4
6 16 -19 1.4 0.5
-6 16 -19 2.4 1.3
6 -16 -19 1.3 0.4
6 -16 -19 1.7 1
-6 16 -19 1.4 1.4
8 16 -19 -0.2 0.4
8 16 -19 0.7 0.4
8 -16 19 -0.2 1
8 -16 -19 0.2 1
-8 16 -19 -1 1.2
10 16 -19 0.4 0.3
10 16 -19 0.1 0.3
10 -16 -19 0.3 0.8
1 17 -19 2.3 1.1
1 17 -19 3.6 0.6
-1 17 -19 1.8 0.5
-1 17 -19 2 1.1
3 17 -19 3.2 0.5
-3 17 -19 2.8 1.2
-3 17 -19 1.7 1.3
3 -17 -19 3.2 0.5
5 17 -19 1.4 0.4
5 17 -19 1.5 0.4
-5 17 -19 1.2 1.4
-5 17 -19 -0.2 1.2
5 -17 -19 1.4 0.4
7 17 -19 0 0.3
7 17 -19 0.5 0.4
7 -17 19 0 0.9
7 -17 -19 -0.1 1
-7 17 -19 -1.3 1.1
9 17 -19 0.2 0.4
9 17 -19 0.3 0.4
9 -17 -19 -0.1 0.9
-9 17 -19 0.3 1.1
0 18 -19 1.4 1.1
0 18 -19 -0.2 0.4
2 18 -19 41.8 2.5
-2 18 -19 39.8 3
2 -18 -19 39.8 2.5
4 18 -19 3.4 0.5
-4 18 -19 2.6 1.2
-4 18 -19 2.2 1.4
6 18 -19 8.4 0.9
6 18 -19 6.5 0.7
-6 18 -19 4.2 1.4
8 -18 19 0.5 1
8 18 -19 0.1 0.4
-8 18 -19 -0.1 1.1
8 -18 -19 0.3 0.9
1 19 -19 0.1 0.5
-1 19 -19 0.5 0.5
-1 19 -19 0.1 1
3 19 -19 1.2 0.5
-3 19 -19 0.7 1.1
3 -19 -19 1.4 0.4
5 19 -19 0.8 0.5
5 19 -19 0.8 0.4
-5 19 -19 0 1.1
7 19 -19 0.8 0.4
7 19 -19 -0.1 0.4
7 -19 19 0.2 0.9
-7 19 -19 -0.8 1
9 19 -19 -0.1 0.3
9 19 -19 -0.2 0.3
0 20 -19 0.9 0.5
0 20 -19 0.7 1
2 20 -19 3 0.6
-2 20 -19 2.1 1.1
-2 20 -19 2 0.5
2 -20 -19 2.8 0.4
4 20 -19 5.8 0.9
4 20 -19 6.5 0.9
-4 20 -19 4 1.2
6 20 -19 0.8 0.4
6 20 -19 1.6 0.4
8 20 -19 1.5 0.4
8 20 -19 0.9 0.4
1 21 -19 0.6 0.5
-1 21 -19 2.4 1.1
1 -21 -19 1.6 0.4
-1 21 -19 1.1 0.5
3 21 -19 2.6 0.5
-3 21 -19 2.8 1.2
5 21 -19 1.5 0.4
5 21 -19 0.9 0.5
7 21 -19 0.2 0.3
7 21 -19 -0.1 0.4
0 22 -19 -0.5 0.4
2 22 -19 -0.5 0.5
-2 22 -19 1.1 0.5
4 22 -19 0.1 0.3
4 22 -19 0.2 0.5
6 22 -19 -0.3 0.4
6 22 -19 0 0.3
1 23 -19 2.7 0.6
-1 23 -19 1.4 0.5
3 23 -19 1.4 0.5
5 23 -19 0.1 0.4
5 23 -19 0.5 0.3
0 24 -19 0.2 0.4
2 24 -19 -1.1 0.5
-2 24 -19 0.1 0.4
4 24 -19 -0.2 0.4
4 24 -19 -0.6 0.4
1 25 -19 0.3 0.4
-1 25 -19 0.3 0.4
3 25 -19 -0.2 0.4
0 26 -19 0.1 0.4
2 26 -19 0 0.4
-2 26 -19 0.5 0.4
0 0 -20 416.16 21.9
0 0 -20 460.15 28.8
0 0 -20 416.36 23.4
-2 0 -20 371.56 19.1
-2 0 -20 392.96 25.1
-2 0 -20 356.96 20.3
2 0 -20 383.46 19.1
2 0 -20 363.56 20.3
4 0 -20 549.74 27
4 0 -20 482.85 30.3
-4 0 -20 530.85 28.8
-4 0 -20 555.74 35.5
-4 0 -20 536.55 26.9
6 0 -20 63.19 4.1
-6 0 -20 65.29 5.5
6 0 -20 79.19 4.2
-6 0 -20 74.79 4.5
8 0 -20 42.7 2.7
-8 0 -20 39.9 3.1
8 0 -20 36.3 2.2
8 0 -20 37.3 2.2
-8 0 -20 27.9 3.4
10 0 -20 17.7 1.3
10 0 -20 19.4 1.3
10 0 -20 21 1.9
-10 0 -20 18.9 2.2
-12 0 -20 16.3 1.9
12 0 -20 19.4 1.2
12 0 -20 16.5 1.2
-1 -1 -20 58.29 3.3
1 1 -20 57.19 3.3
-1 -1 -20 57.49 4.3
1 1 -20 52.79 3.4
-1 -1 -20 55.89 3.4
-1 1 -20 57.89 4.3
-1 1 -20 53.39 3.4
1 -1 -20 56.89 3.3
1 1 20 50.79 4.1
-1 1 -20 52.69 3.3
1 -1 -20 56.59 3.4
-3 -1 -20 75.39 4.4
-3 -1 -20 68.99 4.1
3 1 -20 76.99 4.2
3 1 -20 69.19 4.2
-3 -1 -20 73.69 5.4
-3 1 -20 70.19 4.4
3 -1 -20 71.39 4.1
-3 1 -20 74.69 4.1
-3 1 -20 74.49 5.5
-5 -1 -20 31 2.4
-5 -1 -20 27.6 2.8
5 1 -20 27 2.1
5 1 -20 28.8 1.8
5 1 -20 29.1 1.8
-5 -1 -20 28.6 2.1
-5 1 -20 30.7 2.1
-5 1 -20 32.5 2.4
-5 1 -20 28.3 2.8
5 -1 -20 28.9 1.8
5 -1 -20 33.5 2.3
7 1 -20 4.7 0.7
7 1 -20 8.8 1.4
-7 -1 -20 4.6 1.6
-7 -1 -20 6.1 1.5
7 1 -20 5.4 0.8
-7 1 -20 4.4 1.6
-7 1 -20 8.5 1.7
7 -1 -20 7.1 0.7
7 -1 -20 9.4 1.5
-9 -1 -20 2.5 1.5
9 1 -20 2.4 1.2
9 1 -20 1.6 0.5
9 1 -20 2.1 0.5
-9 -1 -20 1.2 1.5
-9 1 -20 2.8 1.4
9 -1 -20 2.2 0.4
-9 1 -20 1.1 1.4
9 -1 -20 2.7 1.1
9 -1 -20 0.8 0.5
11 1 -20 0.5 0.8
11 1 -20 1.1 0.4
-11 -1 -20 1.7 1.3
11 1 -20 0.3 0.4
-11 1 -20 1.4 1.4
11 -1 -20 0.9 0.4
11 -1 -20 0.4 0.5
11 -1 -20 0.5 1
0 2 -20 228.28 14.7
0 -2 -20 203.38 11.1
0 2 -20 213.18 11.1
0 2 -20 214.18 11.9
-2 -2 -20 269.17 14.5
2 2 -20 293.77 14.6
-2 -2 -20 256.87 15.5
-2 -2 -20 293.47 19.1
2 2 -20 295.37 15.6
-2 2 -20 278.07 14.6
-2 2 -20 301.97 19.2
-2 2 -20 281.07 15.6
2 -2 -20 282.47 14.6
-4 -2 -20 200.78 11.3
4 2 -20 213.78 10.7
4 2 -20 195.38 11.2
-4 -2 -20 206.78 14
4 2 -20 180.28 11.7
-4 -2 -20 195.38 10.6
-4 2 -20 214.28 14.1
4 -2 -20 189.58 11.7
-4 2 -20 212.78 11.4
-4 2 -20 212.08 10.6
4 -2 -20 224.58 10.7
6 2 -20 81.79 4.6
6 2 -20 78.59 4.7
6 2 -20 75.19 4.7
-6 -2 -20 88.39 5.1
-6 -2 -20 74.19 6.2
6 -2 -20 94.89 4.8
-6 2 -20 90.99 5.2
6 -2 -20 79.29 4.7
-6 2 -20 73.69 6.2
-8 -2 -20 19.7 2.8
8 2 -20 25 1.6
8 2 -20 21.8 2
8 2 -20 26.3 1.7
-8 -2 -20 31.1 2.6
8 -2 -20 29.9 2.3
-8 2 -20 21.1 2.9
-8 2 -20 29.4 2.6
8 -2 -20 27.5 1.6
10 2 -20 12.8 1
-10 -2 -20 7.3 1.7
10 2 -20 13.3 1
10 -2 -20 10.9 1
-10 2 -20 14.5 2.1
10 -2 -20 9.2 1.5
10 -2 -20 13.6 0.9
12 2 -20 21.8 1.3
12 2 -20 19.4 1.3
12 -2 -20 18.9 1.3
-12 2 -20 17.7 2
12 -2 -20 21.7 1.3
1 3 -20 346.67 19
1 3 -20 355.66 17.8
-1 -3 -20 336.57 17.8
-1 -3 -20 361.76 23.3
1 -3 -20 334.07 17.8
-1 3 -20 349.87 17.8
-1 3 -20 367.86 23.4
-1 3 -20 333.77 19
-3 -3 -20 263.77 16.9
-3 -3 -20 234.38 13.7
3 3 -20 261.17 12.9
3 3 -20 223.08 13.6
-3 -3 -20 239.28 12.8
-3 3 -20 258.47 12.9
-3 3 -20 248.48 13.8
3 -3 -20 243.58 12.9
-3 3 -20 266.47 17
5 3 -20 135.89 8.8
-5 -3 -20 154.58 8.8
-5 -3 -20 151.68 10.8
5 3 -20 157.48 8.3
5 3 -20 150.88 8.5
5 -3 -20 147.69 8.9
-5 3 -20 157.28 11
-5 3 -20 154.48 8.2
5 -3 -20 165.28 8.3
-5 3 -20 170.98 8.9
-7 -3 -20 64.69 6.1
7 3 -20 77.69 4.6
7 3 -20 83.19 4.5
-7 -3 -20 86.99 5.1
7 3 -20 78.99 4.7
-7 3 -20 91.69 5.2
7 -3 -20 79.79 4.6
-7 3 -20 69.69 6.2
7 -3 -20 86.69 4.7
9 3 -20 17.4 1.3
-9 -3 -20 17.7 2.3
9 3 -20 16.5 1.2
9 3 -20 15.7 1.8
9 -3 -20 19.9 1.2
-9 3 -20 19 2.3
9 -3 -20 19.6 2
11 3 -20 37.6 2
11 3 -20 33.7 2
-11 -3 -20 28.4 2.7
-11 3 -20 28.7 2.7
11 -3 -20 35.3 2
11 -3 -20 27.2 2.3
11 -3 -20 32.3 2
0 4 -20 24.3 2.4
0 -4 -20 27.3 1.9
0 4 -20 25.8 2
0 4 -20 24.4 1.9
2 4 -20 20.7 1.7
-2 -4 -20 17.6 1.9
-2 -4 -20 19 1.6
2 4 -20 21.3 1.7
-2 4 -20 22.4 1.7
2 -4 -20 19.8 1.6
-2 4 -20 18 2.1
-2 4 -20 20.5 1.7
4 4 -20 19.3 1.3
4 4 -20 20.3 1.7
-4 -4 -20 16.3 2
-4 4 -20 22.2 1.9
4 -4 -20 19.2 1.3
-4 4 -20 18 2.2
4 -4 -20 19.9 1.7
-4 4 -20 20.4 1.7
6 4 -20 16.7 1.1
-6 -4 -20 11.9 2
6 4 -20 16.2 1.7
6 -4 20 15.3 1.4
-6 -4 -20 17.6 1.9
6 4 -20 17.9 1.2
6 -4 -20 18.1 1.1
-6 4 -20 19.1 2.1
-6 4 -20 13 2.2
6 -4 -20 16.9 1.8
8 4 -20 2.5 0.5
8 4 -20 2.9 0.5
-8 -4 -20 1.4 1.4
-8 -4 -20 1.8 1.4
8 4 -20 2.6 1
-8 4 -20 2.1 1.5
8 -4 -20 1.6 1.2
-8 4 -20 1.1 1.5
-10 -4 -20 2.9 1.4
10 -4 -20 3.5 1.2
-10 4 -20 1.7 1.6
-10 4 -20 3.5 1.5
12 4 -20 0.9 0.3
12 4 -20 0.6 0.4
12 -4 -20 0.4 0.8
12 -4 -20 0 0.4
12 -4 -20 0.1 0.4
-12 4 -20 0.6 1.1
1 5 -20 298.17 14.7
-1 -5 -20 267.27 14.6
1 5 -20 286.27 15.7
1 -5 -20 275.47 14.7
-1 5 -20 295.67 19.4
-1 5 -20 300.27 14.7
-1 5 -20 277.97 15.7
3 5 -20 204.28 12.7
3 5 -20 244.88 12.1
3 5 -20 236.08 12.8
-3 5 -20 232.18 12.9
-3 5 -20 236.88 15.9
3 -5 -20 238.98 12.1
-3 5 -20 233.88 12.1
5 5 -20 218.58 12.2
5 5 -20 239.98 11.7
5 5 -20 196.08 12.7
5 -5 -20 233.48 11.7
-5 5 -20 226.48 11.6
-5 5 -20 212.48 15.4
5 -5 -20 214.18 12.7
-5 5 -20 242.38 12.6
7 -5 20 68.69 4.3
7 5 -20 73.79 4
7 5 -20 67.49 4.1
7 5 -20 69.99 4.2
-7 5 -20 78.69 4.8
7 -5 -20 78.29 4.3
-7 5 -20 58.99 5.6
7 -5 -20 70.09 4.1
-9 -5 -20 85.59 6.2
9 5 -20 107.29 6
9 5 -20 109.19 5.8
9 -5 -20 106.09 5.9
-9 5 -20 103.39 6.4
9 -5 -20 106.39 6
11 5 -20 16.3 1.1
11 5 -20 14.3 1.1
-11 5 -20 16.9 2.1
11 -5 -20 15.3 1.1
11 -5 -20 15.6 1.7
0 6 -20 70.49 5
0 -6 -20 60.69 3.7
0 6 -20 63.69 4
0 6 -20 66.49 3.8
-2 -6 -20 52.59 3.2
2 6 -20 59.39 3.5
2 6 -20 48 3.2
2 6 -20 61.29 3.4
-2 6 -20 55.99 3.6
-2 6 -20 59.89 4.4
2 -6 -20 54.89 3.3
-2 6 -20 58.99 3.4
4 6 -20 59.39 3.4
4 6 -20 52.19 3.1
4 -6 -20 53.19 3.3
4 -6 -20 52.99 3.2
-4 6 -20 57.19 3.6
-4 6 -20 52.89 4.4
-4 6 -20 51.99 3.3
6 6 -20 23.3 1.5
6 6 -20 22.3 1.5
6 6 -20 27.4 2.1
-6 6 -20 24.9 2.4
-6 6 -20 19.9 2.6
6 -6 -20 22.7 2.1
6 -6 -20 23.3 1.5
8 6 -20 44.1 3
8 6 -20 46.5 2.7
8 -6 20 38.3 2.9
8 6 -20 50.69 2.7
8 -6 -20 46.5 3.2
8 -6 -20 48.1 2.7
-8 6 -20 35.3 4
-8 6 -20 49.9 3.6
10 6 -20 7.5 0.7
10 6 -20 6.8 0.8
10 -6 -20 4.4 1.2
10 -6 -20 6.2 0.7
-10 6 -20 4.2 1.6
12 6 -20 0.9 0.4
12 6 -20 1.6 0.3
-12 6 -20 0.2 1.7
12 -6 -20 -0.2 0.4
12 -6 -20 0.5 0.8
1 7 -20 40 2.5
-1 -7 -20 33 2.3
1 7 -20 37.3 2.6
-1 7 -20 37.4 2.6
1 -7 -20 35 2.4
-1 7 -20 40.8 2.5
-1 7 -20 39.6 3.2
3 7 -20 121.49 6.3
3 7 -20 117.49 6.6
3 7 -20 105.19 6.3
3 -7 -20 109.69 6.2
-3 7 -20 117.49 6.7
-3 7 -20 116.79 6.2
-3 7 -20 114.59 8.3
5 7 -20 32.5 2.1
5 7 -20 35.1 2.1
5 7 -20 39.6 2.6
5 -7 -20 36.1 2.5
-5 7 -20 36.6 3.4
-5 7 -20 41.3 2.9
5 -7 -20 35.8 2.2
7 7 -20 68.99 4.2
7 7 -20 71.49 4.3
7 7 -20 77.49 4.1
7 -7 20 68.09 4.4
-7 7 -20 76.69 4.9
7 -7 -20 72.29 4.4
7 -7 -20 72.99 4.2
9 -7 20 22.3 2
9 7 -20 21.3 1.4
9 7 -20 21.1 1.5
9 -7 -20 23.2 2.2
9 -7 -20 22.4 1.4
-9 7 -20 19.8 2.5
11 7 -20 6.6 0.8
11 7 -20 8 0.7
11 -7 -20 5.2 1.1
11 -7 -20 7.3 0.7
-11 7 -20 6 1.5
0 8 -20 59.29 3.4
0 8 -20 58.59 3.6
0 -8 -20 52.09 3.3
2 8 -20 117.29 7.4
2 8 -20 138.39 7.6
2 8 -20 136.99 7.2
-2 8 -20 133.99 7.7
-2 8 -20 137.29 9.5
-2 8 -20 139.59 7.2
4 8 -20 48.1 3
4 8 -20 53.79 3.2
-4 8 -20 52.89 3.2
4 -8 -20 53.49 3.2
4 -8 -20 49.9 3.1
-4 8 -20 54.09 3.5
-4 8 -20 53.59 4.3
6 8 -20 129.79 8
6 8 -20 144.99 7.7
6 8 -20 142.89 7.5
-6 8 -20 125.39 10.1
-6 8 -20 150.38 8.3
6 -8 -20 144.69 7.6
6 -8 -20 139.19 8
8 8 -20 53.69 3.1
8 -8 20 48.4 3.4
8 8 -20 56.99 3.1
-8 8 -20 56.89 3.9
8 -8 -20 53.69 3.1
-8 8 -20 41.3 4.5
8 -8 -20 55.49 3.5
10 8 -20 26.3 1.6
10 8 -20 26.9 1.7
10 -8 -20 25.9 1.6
-10 8 -20 25.8 2.6
10 -8 -20 25.2 2.2
1 9 -20 6.3 1.1
1 9 -20 5.7 1.1
-1 9 -20 7.6 1.1
-1 9 -20 6.1 1.1
-1 9 -20 5.3 1.3
1 -9 -20 4.9 0.9
3 9 -20 0.2 0.8
3 9 -20 0.5 0.3
-3 9 -20 1.4 1.1
-3 9 -20 0.4 0.8
3 -9 -20 1 0.8
-3 9 -20 0.6 0.9
5 9 -20 7.3 1.2
5 9 -20 8.6 0.8
5 9 -20 8.3 0.7
5 -9 -20 9.3 0.8
-5 9 -20 8.1 1.6
-5 9 -20 4.7 1.7
5 -9 -20 7.1 1.3
7 9 -20 3.1 0.5
7 9 -20 2.4 0.5
7 -9 20 2.6 1
-7 9 -20 1.7 1.4
-7 9 -20 3.2 1.6
7 -9 -20 2.8 0.5
7 -9 -20 2.2 1.2
9 -9 20 0.2 0.9
9 9 -20 1.3 0.5
9 9 -20 0.6 0.4
9 -9 -20 1.1 0.4
-9 9 -20 0 1.4
-9 9 -20 -0.1 1.6
9 -9 -20 0.4 1.1
11 9 -20 0.5 0.4
11 9 -20 -0.2 0.4
11 -9 -20 0.1 0.9
-11 9 -20 -0.1 1
0 10 -20 229.68 11.8
0 10 -20 224.08 12.6
2 10 -20 44 2.9
2 10 -20 38.1 2.5
2 10 -20 45.6 2.8
-2 10 -20 44.7 3
2 -10 -20 39.6 2.6
-2 10 -20 45.6 3.7
-2 10 -20 45.2 2.8
4 10 -20 68.99 4
4 10 -20 65.29 3.8
-4 10 -20 69.99 4.4
4 -10 -20 68.69 4
4 -10 -20 67.89 4
-4 10 -20 71.09 4.1
-4 10 -20 64.19 5.3
6 10 -20 66.89 4.1
6 10 -20 71.49 4
6 -10 -20 75.59 4.3
-6 10 -20 78.99 4.8
-6 10 -20 65.89 5.7
6 -10 -20 70.59 4.2
8 -10 20 45.6 3.2
8 10 -20 50.39 2.9
8 10 -20 51.19 2.9
-8 10 -20 48.8 3.7
8 -10 -20 47 3.3
8 -10 -20 50.89 2.9
10 10 -20 27.5 1.7
10 10 -20 26.5 1.7
10 -10 -20 25.6 1.6
10 -10 -20 26.1 2.2
-10 10 -20 26 2.4
1 11 -20 47.1 3.1
1 11 -20 56.89 3.5
1 11 -20 54.69 3.3
-1 11 -20 53.69 3.3
-1 11 -20 56.19 4.4
-1 11 -20 57.09 3.5
3 11 -20 38.5 2.5
3 11 -20 35.8 2.1
-3 11 -20 36.8 2.5
-3 11 -20 37.7 2.7
-3 11 -20 36.7 3.3
3 -11 -20 32.9 2.5
5 11 -20 8.6 0.8
5 11 -20 8.2 0.9
5 -11 -20 11.8 1.5
-5 11 -20 8.5 1.9
5 -11 -20 9.4 0.8
-5 11 -20 11.3 1.8
7 11 -20 27.6 1.7
7 11 -20 26.9 1.7
-7 11 -20 21.4 2.9
7 -11 -20 27.1 1.7
7 -11 -20 24.6 2.3
-7 11 -20 29.9 2.7
9 11 -20 14.7 1.1
9 11 -20 12.6 1
9 -11 20 13.4 1.5
-9 11 -20 11.5 2
9 -11 -20 14.8 1
9 -11 -20 14.2 1.8
11 11 -20 2.4 0.4
11 11 -20 3.5 0.5
11 -11 -20 1.3 0.9
-11 11 -20 1.5 1.1
0 12 -20 31.8 2.4
0 12 -20 33.5 2.3
2 12 -20 95.19 5.5
2 12 -20 104.89 5.9
2 12 -20 101.19 5.5
-2 12 -20 92.39 7.3
-2 12 -20 101.59 5.9
-2 12 -20 99.39 5.5
4 12 -20 13 1
4 12 -20 12.9 1.6
-4 12 -20 13.9 1.8
-4 12 -20 11.2 1.9
4 -12 -20 13.5 1
4 -12 -20 14 1.6
6 12 -20 19.1 1.3
6 12 -20 20.7 1.4
6 -12 -20 19.7 1.3
-6 12 -20 15.9 2.4
-6 12 -20 22.3 2.3
6 -12 -20 19.2 2
8 -12 20 21.6 1.9
8 12 -20 22.9 1.5
8 12 -20 25.4 1.6
8 -12 -20 24.8 1.5
-8 12 -20 25.7 2.5
8 -12 -20 24.2 2.2
10 12 -20 6.9 0.8
10 12 -20 8.6 0.7
10 -12 20 7.3 1.1
-10 12 -20 5.2 1.4
10 -12 -20 4.9 1.2
1 13 -20 265.77 15.7
1 13 -20 294.47 15.9
1 13 -20 291.27 14.8
-1 13 -20 293.67 15.9
-1 13 -20 289.97 14.9
3 13 -20 83.59 4.8
3 13 -20 85.69 4.8
-3 13 -20 85.19 6.5
3 -13 -20 81.79 4.8
-3 13 -20 94.39 5.3
5 13 -20 78.99 4.2
5 13 -20 67.49 4.3
-5 13 -20 66.19 5.8
5 -13 -20 77.89 4.4
-5 13 -20 83.99 4.9
5 -13 -20 73.19 4.4
7 13 -20 42.1 2.7
7 13 -20 46.1 2.7
7 -13 -20 45.3 2.7
7 -13 -20 45.8 3.1
-7 13 -20 47 3.4
9 -13 20 36.3 2.7
9 13 -20 43.5 2.5
9 13 -20 43.7 2.5
-9 13 -20 40 3.1
9 -13 -20 42.2 2.9
0 14 -20 63.29 3.9
0 14 -20 62.69 3.7
0 14 -20 67.69 4.1
2 14 -20 7.6 1.4
2 14 -20 6.6 1.2
2 14 -20 7.8 0.8
-2 14 -20 7.2 1.7
-2 14 -20 8.8 1.5
-2 14 -20 5.2 1.2
4 14 -20 8.2 0.8
4 -14 -20 8.9 0.8
-4 14 -20 6 1.5
-4 14 -20 4.7 1.7
4 -14 -20 5.2 1.3
6 14 -20 1.8 0.5
6 14 -20 1.2 0.4
-6 14 -20 1.7 1.4
6 -14 -20 2 0.4
-6 14 -20 1 1.3
6 -14 -20 1.5 1.1
8 14 -20 1.5 0.4
8 -14 20 0.4 1
8 14 -20 0.5 0.4
8 -14 -20 0.7 1.1
-8 14 -20 1.6 1.4
8 -14 -20 0.9 0.4
10 14 -20 1.3 0.4
10 14 -20 1.6 0.4
-10 14 -20 0.7 1
10 -14 -20 0.6 0.9
1 15 -20 314.77 16.6
1 15 -20 295.87 15.5
1 15 -20 286.37 16.5
-1 15 -20 303.07 16.6
-1 15 -20 300.17 15.5
3 15 -20 78.89 4.5
3 -15 -20 79.69 4.6
-3 15 -20 85.29 5
-3 15 -20 70.29 6
5 15 -20 80.39 4.3
-5 15 -20 79.49 4.9
5 -15 -20 74.29 4.4
-5 15 -20 64.19 5.9
5 -15 -20 75.39 4.4
7 15 -20 25.9 1.8
7 15 -20 32.9 1.8
7 -15 -20 28.7 1.8
-7 15 -20 29.1 2.6
7 -15 -20 27.8 2.3
9 -15 20 27.8 2.1
9 15 -20 32.2 1.9
9 15 -20 32.4 1.9
9 -15 -20 27.8 2.2
-9 15 -20 27 2.5
0 16 -20 55.99 3.5
0 16 -20 48.4 3
0 16 -20 49 3.2
2 16 -20 189.48 11
-2 16 -20 209.58 11.3
4 16 -20 42.4 2.5
4 -16 -20 44.3 2.6
-4 16 -20 36.2 3.7
-4 16 -20 44.6 3.2
6 16 -20 39.7 2.2
6 16 -20 31 2.2
6 -16 -20 38.3 2.2
-6 16 -20 29.3 3.4
6 -16 -20 37.1 2.6
-6 16 -20 40.9 2.9
8 16 -20 23 1.5
8 16 -20 21.8 1.4
8 -16 20 21.9 1.8
8 -16 -20 22.5 2
-8 16 -20 20.1 2.1
1 17 -20 35.1 2.2
1 17 -20 37.9 2.7
-1 17 -20 35.9 2.4
-1 17 -20 38 2.8
3 17 -20 85.09 4.8
3 -17 -20 86.59 5
-3 17 -20 82.79 5.3
5 17 -20 3.1 0.4
-5 17 -20 2 1.5
-5 17 -20 4.3 1.4
5 -17 -20 5.3 0.7
7 17 -20 22.6 1.5
7 17 -20 26.1 1.6
7 -17 -20 24.2 2.1
-7 17 -20 22.5 2.3
9 17 -20 4.2 0.6
9 17 -20 4.9 0.7
9 -17 -20 2.8 1
0 18 -20 117.19 6.8
0 18 -20 128.79 7.2
2 18 -20 141.89 8.1
-2 18 -20 150.38 8.4
2 -18 -20 142.99 8.4
4 18 -20 146.69 7.7
-4 18 -20 116.29 9.8
4 -18 -20 137.59 7.9
-4 18 -20 146.29 8.1
6 18 -20 50.79 3.3
6 18 -20 60.69 3.2
-6 18 -20 54.69 3.8
8 18 -20 42 2.4
8 18 -20 41.6 2.4
8 -18 -20 38 2.6
-8 18 -20 35.6 2.9
1 19 -20 14.8 1.2
-1 19 -20 15.9 1.7
-1 19 -20 14 1.1
3 19 -20 6.7 0.9
3 -19 -20 6.7 0.8
-3 19 -20 7.7 1.5
5 19 -20 16 1.1
5 19 -20 17.4 1.3
-5 19 -20 15.6 1.9
7 19 -20 4.1 0.6
7 19 -20 2.3 0.5
-7 19 -20 2 1.1
0 20 -20 131.09 7.3
2 20 -20 38.1 2.2
2 -20 -20 35 2.2
-2 20 -20 36.1 2.7
4 20 -20 85.79 4.8
-4 20 -20 80.09 5.1
6 20 -20 64.59 3.4
6 20 -20 58.89 3.5
-6 20 -20 50.39 3.9
8 20 -20 6.2 0.7
8 20 -20 5.9 0.6
1 21 -20 56.69 3.2
1 -21 -20 55.49 3.3
-1 21 -20 51.39 3.2
-1 21 -20 57.79 3.6
3 21 -20 58.59 3.3
-3 21 -20 55.19 3.7
5 21 -20 54.99 3
5 21 -20 48.8 3.1
7 21 -20 20.3 1.4
7 21 -20 20.2 1.3
0 -22 -20 5.7 0.7
0 22 -20 6.2 0.8
2 22 -20 18.2 1.3
4 22 -20 18 1.3
4 22 -20 18 1.4
6 22 -20 8.3 0.8
6 22 -20 7.8 0.8
1 23 -20 46.3 2.7
-1 23 -20 45.2 2.7
3 23 -20 98.09 5.5
5 23 -20 47.5 2.8
5 23 -20 47.9 2.8
0 24 -20 7.6 0.9
2 24 -20 11.3 1
-2 24 -20 8.5 1.2
4 24 -20 10.3 0.9
4 24 -20 9.6 0.9
1 25 -20 22.7 1.5
-1 25 -20 21.4 1.5
3 25 -20 28.8 1.8
0 26 -20 28.3 1.8
0 0 -21 2.6 0.8
0 0 -21 1.9 0.8
-2 0 -21 1.5 0.7
2 0 -21 1.2 0.8
-2 0 -21 1.4 0.9
-2 0 -21 1.6 0.9
2 0 -21 2.2 0.8
4 0 -21 1.6 0.4
4 0 -21 1.7 0.8
-4 0 -21 1.2 0.8
-4 0 -21 1.6 1.1
-4 0 -21 2.2 1.1
4 0 -21 1.7 0.3
6 0 -21 0.7 0.3
-6 0 -21 0.5 1.2
-6 0 -21 1 1.2
6 0 -21 0.3 0.4
6 0 -21 1.1 0.8
8 0 -21 1.7 1.2
-8 0 -21 0.7 1.4
8 0 -21 0.4 0.5
8 0 -21 1.3 0.4
-8 0 -21 1.7 1.4
-10 0 -21 0.4 1.3
10 0 -21 0.4 0.4
10 0 -21 0.7 0.8
10 0 -21 1.2 0.4
-1 -1 -21 5.8 1.1
1 1 -21 3.8 0.9
-1 -1 -21 4.4 0.9
1 1 -21 5.9 1.1
-1 -1 -21 5.2 1.3
-1 1 -21 5 1.3
1 -1 -21 6.6 1.1
-1 1 -21 4.1 1
1 -1 -21 5.3 1
-1 1 -21 5.3 1
-3 -1 -21 5.9 1.2
3 1 -21 3.8 1
-3 -1 -21 5.8 1.3
-3 -1 -21 4.5 1
-3 1 -21 4.5 1.2
-3 1 -21 3.9 1
3 -1 -21 4.9 1
-3 1 -21 5.4 1.3
5 1 -21 0.8 0.3
-5 -1 -21 1.8 1.2
5 1 -21 1.8 0.4
-5 -1 -21 0.6 0.8
-5 -1 -21 1.2 1.2
5 1 -21 1.3 0.9
5 -1 -21 1.3 0.4
-5 1 -21 0.8 0.8
-5 1 -21 1.5 1.2
-5 1 -21 2.3 1.3
5 -1 -21 0.9 0.8
7 1 -21 -0.2 0.4
-7 -1 -21 0.1 1.3
7 1 -21 -0.7 0.4
-7 -1 -21 0 1.2
7 1 -21 -0.2 0.8
-7 1 -21 -0.5 1.2
-7 1 -21 0.5 1.3
7 -1 -21 -0.1 0.4
7 -1 -21 -0.6 1
9 1 -21 0.2 0.8
9 1 -21 0.3 0.5
-9 -1 -21 -0.8 1.3
-9 -1 -21 1.2 1.4
9 1 -21 0 0.4
9 -1 -21 0.4 0.5
9 -1 -21 0.3 0.4
-9 1 -21 1.4 1.4
-9 1 -21 0 1.3
9 -1 -21 -1.1 1
11 1 -21 0.2 0.4
11 1 -21 -0.7 0.7
-11 -1 -21 0.2 1.2
11 1 -21 -0.3 0.4
11 -1 -21 -0.5 0.7
-11 1 -21 1 1.3
11 -1 -21 0 0.4
11 -1 -21 -0.1 0.4
0 2 -21 0.9 0.8
0 -2 -21 1.4 0.7
0 2 -21 1 0.7
0 2 -21 0.9 1
2 2 -21 12.6 1.3
2 2 -21 12.1 1.4
-2 -2 -21 12.1 1.4
-2 -2 -21 12.7 1.3
-2 -2 -21 13 1.6
2 -2 -21 13.7 1.4
-2 2 -21 14 1.7
-2 2 -21 12.5 1.4
-2 2 -21 15.1 1.4
4 2 -21 4.3 0.6
-4 -2 -21 5.7 1
4 2 -21 5.6 0.6
4 2 -21 5.8 1.1
-4 -2 -21 5.1 1.4
-4 -2 -21 4.8 1.2
4 -2 -21 4.6 0.6
-4 2 -21 6.3 1.3
-4 2 -21 4.7 1
4 -2 -21 3.3 1
-4 2 -21 5.3 1.5
-6 -2 -21 5.7 1.4
6 2 -21 5.5 0.7
-6 -2 -21 5.7 1.6
6 2 -21 8.1 1.3
6 -2 -21 7.3 0.7
-6 2 -21 9.5 1.7
-6 2 -21 5.3 1.7
6 -2 -21 4.8 1.3
8 2 -21 -0.2 0.4
-8 -2 -21 -0.7 1.3
8 2 -21 0.4 0.4
8 2 -21 -0.2 0.9
-8 -2 -21 0.8 1.4
8 -2 -21 -1.3 1.1
-8 2 -21 0.5 1.4
8 -2 -21 0.9 0.4
-8 2 -21 0.3 1.4
10 2 -21 2.1 0.5
-10 -2 -21 0.1 1.3
10 2 -21 1.2 0.5
10 2 -21 1.2 0.9
10 -2 -21 0.7 0.5
10 -2 -21 0.6 1.1
10 -2 -21 2.1 0.4
-10 2 -21 1.5 1.4
12 2 -21 4.9 0.5
12 -2 -21 3.9 0.5
-1 -3 -21 13.9 1.6
1 3 -21 12.8 1.4
1 3 -21 13.3 1.4
-1 -3 -21 14.6 1.3
-1 3 -21 12.9 1.4
-1 3 -21 13.8 1.4
-1 3 -21 15 1.7
1 -3 -21 13.8 1.4
3 3 -21 3 0.4
3 3 -21 3.9 1.1
-3 -3 -21 5.1 1
-3 -3 -21 3.7 1.1
-3 3 -21 3.8 1.2
-3 3 -21 4.1 1.1
-3 3 -21 2.3 0.9
3 -3 -21 2.5 0.8
-5 -3 -21 3.4 1.3
5 3 -21 4.4 1.1
-5 -3 -21 3.2 1.3
5 3 -21 4.1 0.5
5 3 -21 2.5 0.4
-5 3 -21 5.3 1.3
5 -3 -21 2.8 1.1
-5 3 -21 2.9 0.9
-5 3 -21 3.3 1.4
5 -3 -21 4.4 0.6
7 3 -21 2 1
7 3 -21 2 0.4
-7 -3 -21 1.1 1.3
-7 -3 -21 1.6 1.4
7 3 -21 3 0.5
-7 3 -21 2.8 1.6
7 -3 -21 2.9 0.4
-7 3 -21 3.9 1.5
7 -3 -21 2.1 1.3
9 3 -21 0.7 0.9
9 3 -21 0.7 0.5
-9 -3 -21 1.7 1.4
-9 -3 -21 0.4 1.4
9 3 -21 0.5 0.4
9 -3 -21 0.2 1.1
-9 3 -21 0.5 1.4
9 -3 -21 1.5 0.4
-9 3 -21 1.4 1.5
11 3 -21 16.9 1
11 3 -21 13.7 1.1
-11 -3 -21 13.6 2
11 -3 -21 13.9 1.1
11 -3 -21 14.2 1.7
11 -3 -21 15.1 1
0 4 -21 3.2 1
0 4 -21 2 0.8
0 4 -21 1.8 1.1
0 -4 -21 2.7 0.8
2 4 -21 3.3 1
2 4 -21 2.5 0.9
-2 -4 -21 6.6 1.5
-2 4 -21 3.1 1.2
2 -4 -21 2.8 0.8
-2 4 -21 4 1
-2 4 -21 2.8 0.9
4 4 -21 0.3 0.3
4 4 -21 0.2 0.9
-4 -4 -21 0.5 1
4 -4 -21 -0.4 0.9
4 -4 -21 0 0.3
-4 4 -21 -0.2 0.8
-4 4 -21 -0.1 1
-4 4 -21 0.4 1
-6 -4 -21 -0.1 1.5
6 4 -21 -0.1 0.9
6 4 -21 0.6 0.4
6 4 -21 0.8 0.4
-6 -4 -21 0.3 1.2
-6 4 -21 1.5 1.4
6 -4 -21 0.9 0.4
-6 4 -21 -0.4 1.2
6 -4 -21 0.6 1.2
8 4 -21 -0.6 0.4
-8 -4 -21 0.6 1.4
8 4 -21 1.1 0.5
-8 -4 -21 0.6 1.5
8 4 -21 1 1
8 -4 -21 -0.2 1.2
-8 4 -21 0.4 1.4
8 -4 -21 1 0.4
-8 4 -21 0.3 1.4
10 4 -21 2.1 0.5
-10 -4 -21 1.6 1.4
10 -4 -21 1.7 1.1
-10 4 -21 1 1.4
1 5 -21 1.7 0.8
-1 -5 -21 3.3 0.8
1 5 -21 3.2 1
-1 5 -21 0.8 0.9
-1 5 -21 2.5 0.8
-1 5 -21 2.3 0.9
1 -5 -21 2 0.8
3 5 -21 2.8 0.9
3 5 -21 2.4 0.4
-3 5 -21 3.4 1.1
3 -5 -21 3.6 0.9
-3 5 -21 3.6 1.2
-3 5 -21 4 0.9
5 5 -21 7.2 0.6
5 5 -21 5.1 1.2
5 5 -21 5 0.7
-5 5 -21 5.8 1.1
-5 5 -21 5.4 1.4
5 -5 -21 5.9 0.7
-5 5 -21 4.5 1.5
5 -5 -21 6.6 1.4
7 5 -21 16 1.1
7 5 -21 16.3 1.8
7 5 -21 13.9 1
-7 5 -21 14.5 2.2
-7 5 -21 9.5 2.2
7 -5 -21 9.3 1.6
7 -5 -21 16.8 1.1
9 5 -21 32 2
9 5 -21 34.1 2
9 -5 -21 34 2
9 -5 -21 29.9 2.6
-9 5 -21 27.7 2.9
11 5 -21 0.9 0.4
11 -5 -21 1 0.4
-11 5 -21 2.1 1.3
11 -5 -21 1.3 0.4
11 -5 -21 2.5 1
0 6 -21 0.8 0.7
0 -6 -21 1 0.7
0 6 -21 0.2 0.8
2 6 -21 1.7 0.9
-2 -6 -21 1.4 0.7
2 6 -21 1.8 0.9
2 -6 -21 1 0.8
-2 6 -21 1.4 1
-2 6 -21 0.5 0.8
-2 6 -21 2.6 1
4 6 -21 4.7 1.1
4 6 -21 4.9 0.7
-4 6 -21 4.9 1.1
4 -6 -21 6.1 1.2
-4 6 -21 4.5 1.5
-4 6 -21 5.3 1.3
4 -6 -21 4.1 0.5
6 6 -21 4.4 1.2
6 6 -21 4 0.5
6 6 -21 5.5 0.7
-6 6 -21 2.9 1.6
-6 6 -21 4.8 1.5
6 -6 -21 3.3 1.2
6 -6 -21 4.5 0.6
8 6 -21 8.6 0.9
8 6 -21 10.1 0.8
8 -6 -21 9.1 0.8
-8 6 -21 5.4 1.8
8 -6 -21 5.7 1.4
10 6 -21 -0.3 0.5
10 6 -21 1.3 0.4
10 -6 -21 0.2 0.4
10 -6 -21 0.7 1.1
-10 6 -21 -1.1 1.3
-1 -7 -21 3.1 0.8
1 7 -21 3.6 1
1 7 -21 2.4 0.9
1 -7 -21 3 0.9
-1 7 -21 3.1 0.9
-1 7 -21 4.3 1.3
-1 7 -21 3.4 1
3 7 -21 9.8 1.3
3 7 -21 7.7 0.8
3 -7 -21 11.3 1.5
-3 7 -21 9.9 1.4
-3 7 -21 11 1.3
-3 7 -21 9.2 1.6
5 7 -21 5.4 0.6
5 7 -21 7.5 0.8
5 7 -21 7.2 1.2
-5 7 -21 5.3 1.6
5 -7 -21 6.4 0.7
-5 7 -21 8.9 1.7
5 -7 -21 4.6 1.2
7 7 -21 11.5 0.9
7 -7 21 10.5 1.3
7 7 -21 11 1
7 7 -21 8.6 1.4
7 -7 -21 9.4 1.5
7 -7 -21 11.3 0.9
-7 7 -21 10.3 1.9
-7 7 -21 5.5 1.9
9 7 -21 1.7 0.4
9 7 -21 0.5 0.5
9 -7 -21 0 1.1
-9 7 -21 -0.4 1.4
9 -7 -21 0.8 0.4
-9 7 -21 -1 1.5
11 7 -21 -0.3 0.4
11 7 -21 0.3 0.4
11 -7 -21 -0.6 0.9
-11 7 -21 0.1 1
11 -7 -21 0.1 0.3
0 8 -21 0.7 0.9
0 -8 -21 0.7 0.7
0 8 -21 0.4 0.8
2 8 -21 32.6 2.2
2 8 -21 39.9 2.6
2 8 -21 40.1 2.7
2 -8 -21 40 2.5
-2 8 -21 41 2.8
-2 8 -21 39.7 3.4
-2 8 -21 43.8 2.6
4 8 -21 13.4 0.9
4 8 -21 14.4 1.5
-4 8 -21 11.2 1.9
4 -8 -21 11.3 1.5
-4 8 -21 12.5 1.7
-4 8 -21 11.8 1.5
4 -8 -21 11.8 0.9
6 8 -21 10.3 1
6 8 -21 12.3 0.9
6 8 -21 7.6 1.4
-6 8 -21 7.4 2
-6 8 -21 10.5 1.9
6 -8 -21 10.2 0.9
6 -8 -21 9.4 1.5
8 -8 21 3 1
8 8 -21 3.3 0.6
8 -8 -21 2.7 1.2
-8 8 -21 1.9 1.4
-8 8 -21 0.8 1.5
10 8 -21 0.7 0.4
10 8 -21 1.5 0.4
-10 8 -21 0.6 1.2
10 -8 -21 1.2 1
10 -8 -21 1.3 0.4
1 9 -21 2.9 1
1 9 -21 2.3 0.9
-1 9 -21 3.2 1
1 -9 -21 1.4 0.8
-1 9 -21 3.2 1.1
-1 9 -21 1.3 1.1
3 9 -21 0.4 0.8
3 9 -21 0.8 0.4
-3 9 -21 1 1
3 -9 -21 -0.3 0.9
-3 9 -21 0.3 1.1
-3 9 -21 0.1 0.8
5 9 -21 3.5 0.4
5 9 -21 2.2 1
5 9 -21 2.8 0.5
-5 9 -21 2.9 1.4
5 -9 -21 2.4 1.1
-5 9 -21 2.5 1.4
7 9 -21 0.3 0.4
7 -9 21 0 0.9
7 9 -21 0 0.4
-7 9 -21 -0.2 1.5
7 -9 -21 -0.6 0.4
-7 9 -21 -0.7 1.4
7 -9 -21 -0.1 1.1
9 -9 21 -1.7 1.1
9 9 -21 -0.3 0.4
9 -9 -21 -0.6 0.4
-9 9 -21 -0.2 1.3
9 -9 -21 -0.6 1.1
11 9 -21 -0.3 0.3
11 9 -21 -0.7 0.3
11 -9 -21 -1.7 0.8
-11 9 -21 -0.1 1.1
0 10 -21 0.2 0.8
0 10 -21 1 0.9
2 10 -21 5 1
2 10 -21 4.8 1.1
2 10 -21 4.1 0.5
2 -10 -21 2.3 0.9
-2 10 -21 3 1
-2 10 -21 4.1 1.4
-2 10 -21 3.7 1.2
4 10 -21 14.7 1.6
4 10 -21 13.1 1.1
4 -10 -21 15.7 1.7
-4 10 -21 12.8 2
4 -10 -21 14.7 1
-4 10 -21 13.2 1.8
6 10 -21 21.5 1.4
6 10 -21 19.7 1.3
-6 10 -21 14.5 2.4
6 -10 -21 19.8 2
-6 10 -21 20.5 2.3
6 -10 -21 19.5 1.3
8 10 -21 1.4 0.5
8 -10 21 -0.6 1
8 -10 -21 0.5 1.1
-8 10 -21 0.8 1.4
-8 10 -21 1.6 1.5
10 10 -21 0.1 0.4
10 10 -21 1.6 0.4
10 -10 -21 1.2 0.4
-10 10 -21 1.7 1.3
10 -10 -21 0.5 1
1 11 -21 10.5 1.5
1 11 -21 9.7 1.3
-1 11 -21 6.3 1.6
-1 11 -21 8.9 1.5
-1 11 -21 6.8 1.2
3 11 -21 13.5 1.1
3 11 -21 15.3 1.6
-3 11 -21 14.7 1.7
-3 11 -21 19.1 1.9
3 -11 -21 17.3 1.7
-3 11 -21 14.8 2.1
5 11 -21 4.3 0.6
5 11 -21 5 0.7
5 -11 -21 4.2 1.2
5 -11 -21 4.2 0.5
-5 11 -21 3.8 1.5
-5 11 -21 5.7 1.5
7 11 -21 1.8 0.4
7 11 -21 2.1 0.5
-7 11 -21 1.2 1.4
7 -11 -21 1.3 0.4
-7 11 -21 1.9 1.4
7 -11 -21 1.6 1.1
9 11 -21 -0.3 0.4
9 -11 21 1.2 0.9
9 11 -21 -0.1 0.4
9 -11 -21 -0.2 0.4
-9 11 -21 -0.4 1.2
9 -11 -21 -0.5 1
0 12 -21 1.7 1.1
0 12 -21 1.9 1
2 12 -21 8.9 1.5
2 12 -21 5.5 0.7
2 12 -21 7.6 1.3
-2 12 -21 9.5 1.5
-2 12 -21 9.6 1.9
2 -12 -21 6.2 1.1
-2 12 -21 8.6 1.3
4 12 -21 2.8 1
4 12 -21 2.6 0.5
-4 12 -21 2.6 1.4
4 -12 -21 2.5 1.1
-4 12 -21 3.1 1.3
4 -12 -21 2.4 0.4
6 12 -21 -0.4 0.4
6 12 -21 -0.2 0.3
-6 12 -21 0.1 1.3
6 -12 -21 -0.4 1
-6 12 -21 -0.4 1.3
6 -12 -21 -0.4 0.4
8 12 -21 0.8 0.5
8 -12 21 0.5 0.9
8 12 -21 0.7 0.4
8 -12 -21 0.8 0.4
8 -12 -21 -0.6 1
-8 12 -21 1.7 1.3
-8 12 -21 0.7 1.8
10 12 -21 -0.2 0.4
10 12 -21 0.4 0.3
10 -12 -21 -0.1 0.9
-10 12 -21 0.9 1.1
1 13 -21 85.89 4.9
1 13 -21 75.19 4.8
1 13 -21 86.29 5.2
-1 13 -21 89.09 5.2
-1 13 -21 89.79 4.9
3 13 -21 10.5 1.4
3 13 -21 10.1 0.9
-3 13 -21 7.2 1.8
-3 13 -21 11.4 1.7
3 -13 -21 10.3 0.9
5 13 -21 2.2 0.8
5 13 -21 3.7 0.5
5 -13 -21 5.7 0.7
-5 13 -21 4.7 1.6
-5 13 -21 6.3 1.5
5 -13 -21 6.4 1.3
7 13 -21 0.3 0.5
7 13 -21 -0.2 0.4
-7 13 -21 1.3 1.3
-7 13 -21 0.3 1.3
7 -13 -21 -0.1 1
7 -13 -21 0.2 0.4
9 -13 21 1.4 0.9
9 13 -21 2.2 0.5
-9 13 -21 2.2 1.3
9 -13 -21 2.2 1.1
0 14 -21 5.7 1.4
0 14 -21 4 1.1
2 14 -21 2.8 1.2
2 14 -21 3.1 0.5
2 14 -21 3.7 1
-2 14 -21 3.7 1.2
-2 14 -21 2.5 1.4
-2 14 -21 2.2 1.1
4 14 -21 -0.1 0.4
4 -14 -21 0 0.4
-4 14 -21 0.9 1.3
-4 14 -21 0.5 1.1
4 -14 -21 -0.1 1
6 14 -21 -0.8 0.4
6 -14 -21 -0.2 1
-6 14 -21 -0.6 1.2
-6 14 -21 -0.6 1.2
6 -14 -21 -0.8 0.4
8 -14 21 -0.5 0.9
8 14 -21 -0.6 0.4
-8 14 -21 0.1 1.2
8 -14 -21 -0.6 1
10 14 -21 -0.1 0.4
10 14 -21 -0.5 0.3
10 -14 -21 -0.4 0.9
1 15 -21 74.39 4.2
1 15 -21 75.69 4.6
1 15 -21 76.69 4.3
-1 15 -21 68.99 4.3
-1 15 -21 75.59 4.7
3 15 -21 19.3 1.4
-3 15 -21 22.4 2.1
3 -15 -21 23.1 1.4
-3 15 -21 20.8 2.5
5 15 -21 1.6 0.4
5 15 -21 1.7 0.5
-5 15 -21 1.7 1.5
-5 15 -21 0.3 1.2
5 -15 -21 1.5 1.1
5 -15 -21 1.6 0.4
7 15 -21 0.2 0.4
7 15 -21 -0.1 0.4
-7 15 -21 0.5 1.2
7 -15 -21 0.5 1.1
7 -15 -21 0.4 0.4
9 15 -21 0.1 0.4
9 15 -21 0.4 0.3
9 -15 -21 0 0.9
-9 15 -21 0.4 1.1
0 16 -21 -0.6 0.9
0 16 -21 0 0.4
0 16 -21 -0.3 1
2 16 -21 20.8 1.4
-2 16 -21 19.3 2
4 16 -21 2.2 0.5
-4 16 -21 2.2 1.4
4 -16 -21 2.7 0.5
-4 16 -21 3 1.3
6 16 -21 3.6 0.6
6 16 -21 3.2 0.4
6 -16 -21 4.3 0.5
-6 16 -21 2 1.3
-6 16 -21 2.3 1.6
6 -16 -21 2 1.2
8 16 -21 -0.2 0.3
8 16 -21 0 0.4
-8 16 -21 0.4 1.2
8 -16 -21 0.5 1
1 17 -21 0.3 1
1 17 -21 0.7 0.4
-1 17 -21 -0.4 1.1
3 17 -21 20.7 1.4
-3 17 -21 20.4 2.1
3 -17 -21 20.3 1.4
5 17 -21 0.7 0.5
5 17 -21 0.2 0.3
-5 17 -21 0.6 1.3
5 -17 -21 0.8 0.4
-5 17 -21 0.6 1.2
7 17 -21 0.3 0.4
7 17 -21 0.2 0.4
7 -17 -21 -0.1 1
-7 17 -21 -0.2 1.1
9 17 -21 -0.3 0.3
9 17 -21 0.3 0.3
9 -17 -21 -0.4 0.9
0 18 -21 1.5 1.1
0 18 -21 0.9 0.5
2 18 -21 3.4 0.5
-2 18 -21 2.1 1.2
2 -18 -21 2.9 0.5
4 18 -21 66.49 3.7
4 -18 -21 61.09 3.7
-4 18 -21 63.89 4.2
6 18 -21 6.2 0.7
6 18 -21 5.4 0.8
-6 18 -21 5.3 1.4
8 18 -21 1.7 0.4
8 18 -21 0.6 0.4
8 -18 -21 0.3 0.9
1 19 -21 -1 0.4
-1 19 -21 -0.1 1
3 19 -21 1.1 0.5
-3 19 -21 0.2 1.1
3 -19 -21 0.7 0.4
5 19 -21 0.4 0.4
5 19 -21 0.8 0.3
-5 19 -21 1.1 1.1
7 19 -21 0.7 0.3
7 19 -21 0.4 0.4
-7 19 -21 -0.3 1
0 20 -21 0.3 0.5
2 20 -21 6.6 0.8
2 -20 -21 4.7 0.7
-2 20 -21 6.1 1.3
4 20 -21 0.5 0.4
-4 20 -21 1 1.1
6 20 -21 1.6 0.5
6 20 -21 1.9 0.4
-6 20 -21 -0.2 1
1 21 -21 5.5 0.6
-1 21 -21 3.2 0.6
1 -21 -21 4.2 0.6
3 21 -21 0.3 0.4
-3 21 -21 0.6 1
5 21 -21 1.5 0.4
5 21 -21 1.1 0.4
0 -22 -21 -0.2 0.3
0 22 -21 -0.4 0.4
2 22 -21 0.1 0.5
4 22 -21 0.3 0.4
6 22 -21 -0.3 0.4
6 22 -21 0 0.3
1 23 -21 -0.6 0.4
-1 23 -21 0.2 0.4
3 23 -21 0.1 0.4
5 23 -21 0.6 0.4
5 23 -21 0.7 0.3
0 24 -21 -0.6 0.4
2 24 -21 -0.9 0.4
4 24 -21 -0.4 0.4
1 25 -21 -0.2 0.4
-1 25 -21 0.7 0.4
0 0 -22 184.68 9.6
0 0 -22 180.48 10.2
2 0 -22 243.08 12.6
-2 0 -22 236.88 13.4
-2 0 -22 247.28 12.6
-2 0 -22 250.37 16.6
2 0 -22 238.28 13.4
4 0 -22 186.78 9.1
-4 0 -22 173.08 12
-4 0 -22 170.28 9
4 0 -22 157.98 9.8
4 0 -22 162.28 9.4
-4 0 -22 175.68 9.7
6 0 -22 64.29 4
6 0 -22 66.99 3.9
6 0 -22 73.99 4.2
-6 0 -22 77.09 4.6
-6 0 -22 63.79 5.4
8 0 -22 58.99 3.4
8 0 -22 58.49 3.3
8 0 -22 52.39 3.6
-8 0 -22 59.69 4.1
-10 0 -22 34.8 2.8
10 0 -22 30.6 2
10 0 -22 33.9 2
1 1 -22 35.5 2.4
1 1 -22 34.7 2.4
-1 -1 -22 35.7 3
-1 -1 -22 37 2.4
-1 -1 -22 36.5 2.5
1 -1 -22 34.4 2.4
1 -1 -22 36.1 2.4
-1 1 -22 37 2.4
-1 1 -22 32.2 2.4
-1 1 -22 34.3 3.1
3 1 -22 34 2.3
-3 -1 -22 33.7 2.3
-3 -1 -22 30.1 2.9
-3 -1 -22 34.4 2.4
-3 1 -22 33.1 2.3
-3 1 -22 29.6 2.9
-3 1 -22 31.9 2.4
3 -1 -22 33 2.3
5 1 -22 23.6 1.9
-5 -1 -22 22.7 1.8
5 1 -22 21.4 1.4
5 1 -22 20.5 1.3
-5 -1 -22 17.1 2.3
-5 -1 -22 20.2 2
-5 1 -22 21.5 2.1
5 -1 -22 20.4 1.4
-5 1 -22 22.1 1.8
5 -1 -22 20.5 1.9
5 -1 -22 20.7 1.3
-5 1 -22 18.9 2.4
7 1 -22 6 1.3
7 1 -22 8.5 0.7
-7 -1 -22 5.3 1.8
7 1 -22 8.6 0.9
-7 -1 -22 10.5 1.8
7 -1 -22 4.8 1.1
7 -1 -22 8.3 0.7
-7 1 -22 5.2 1.7
7 -1 -22 8.6 0.9
-7 1 -22 9.9 1.8
-9 -1 -22 4.8 1.5
9 1 -22 3 1
-9 -1 -22 2.3 1.6
9 1 -22 3.6 0.6
9 1 -22 4.6 0.5
-9 1 -22 2.8 1.6
-9 1 -22 5.9 1.6
9 -1 -22 2.5 1
9 -1 -22 4.3 0.6
-11 -1 -22 3.9 1.5
11 1 -22 6.8 0.8
11 1 -22 8.7 0.7
-11 1 -22 3.6 1.5
11 -1 -22 7.7 0.7
11 -1 -22 7 0.8
0 2 -22 168.88 8.7
0 2 -22 167.88 9.3
0 -2 -22 156.08 8.7
-2 -2 -22 124.89 8.5
-2 -2 -22 116.09 6.4
2 2 -22 122.29 6.5
2 2 -22 125.39 6.9
-2 -2 -22 100.29 6.8
-2 2 -22 117.99 6.9
-2 2 -22 121.39 6.5
-2 2 -22 127.09 8.6
2 -2 -22 119.79 6.5
4 2 -22 128.09 7.4
-4 -2 -22 131.99 7.1
-4 -2 -22 134.49 7.7
4 2 -22 118.99 7.7
-4 -2 -22 131.99 9.5
4 2 -22 146.99 7.3
4 -2 -22 125.69 7.7
-4 2 -22 135.99 9.6
-4 2 -22 139.69 7.8
-4 2 -22 135.99 7.2
4 -2 -22 144.29 7.3
6 2 -22 53.89 3.4
6 2 -22 62.29 3.6
-6 -2 -22 49.3 4.6
-6 -2 -22 67.09 4
6 2 -22 58.59 3.3
-6 2 -22 52.49 4.7
6 -2 -22 54.69 3.5
-6 2 -22 65.79 4
6 -2 -22 56.39 3.4
8 2 -22 28.4 1.8
8 2 -22 26.3 1.7
-8 -2 -22 28.2 2.6
8 2 -22 28.4 2.3
8 -2 -22 28 1.8
-8 2 -22 33.4 2.8
8 -2 -22 30.3 2.5
8 -2 -22 29.3 1.8
-8 2 -22 19.8 2.9
10 2 -22 32.4 1.9
-10 -2 -22 27.8 2.7
10 2 -22 28.7 1.9
-10 2 -22 31.3 2.8
10 -2 -22 29.2 1.9
10 -2 -22 32 1.9
-1 -3 -22 206.08 14
1 3 -22 210.98 10.7
1 3 -22 201.78 11.4
-1 -3 -22 202.88 10.7
1 -3 -22 200.28 10.7
-1 3 -22 197.98 11.4
-1 3 -22 208.28 14.1
-1 3 -22 205.68 10.7
-3 -3 -22 174.48 12.4
-3 -3 -22 168.68 9.4
3 3 -22 189.98 9.5
-3 3 -22 178.18 10.1
-3 3 -22 183.28 9.5
-3 3 -22 182.28 12.5
3 -3 -22 179.78 9.5
5 3 -22 129.99 7.1
5 3 -22 117.19 7.4
5 3 -22 145.69 7.1
-5 -3 -22 127.59 7.4
-5 -3 -22 119.49 9.2
-5 3 -22 128.19 9.3
5 -3 -22 126.89 7.4
-5 3 -22 128.49 7
-5 3 -22 139.89 7.6
5 -3 -22 120.69 7
-7 -3 -22 46.5 3.5
7 3 -22 49.4 2.8
7 3 -22 45.7 2.8
7 3 -22 50.09 3.2
7 -3 -22 49 3.3
-7 3 -22 55.29 3.7
-7 3 -22 39.1 4.1
7 -3 -22 47.1 2.8
9 3 -22 44 2.5
-9 -3 -22 34.6 3.2
9 3 -22 36.2 2.8
9 3 -22 42.5 2.5
9 -3 -22 41.1 3
9 -3 -22 44.6 2.5
-9 3 -22 42.8 3.4
9 -3 -22 41.1 2.5
11 3 -22 5.4 0.7
-11 -3 -22 5.1 1.7
11 -3 -22 6.5 0.7
11 -3 -22 5.9 0.6
-11 3 -22 3.6 1.5
0 4 -22 6.6 1.1
0 4 -22 7.8 1.2
0 -4 -22 6.6 1
2 4 -22 23.3 1.8
-2 -4 -22 18.7 1.7
2 4 -22 22.7 1.8
-2 4 -22 23.4 1.8
2 -4 -22 23 1.8
-2 4 -22 22.2 1.9
-2 4 -22 16.2 2.2
4 4 -22 20.8 1.4
4 4 -22 23.7 1.9
-4 4 -22 21.3 1.8
-4 4 -22 19.7 2.4
-4 4 -22 23 2.1
4 -4 -22 19.7 1.8
4 -4 -22 21.3 1.4
6 4 -22 9 0.9
6 4 -22 9.2 1.4
6 4 -22 8.1 0.8
6 -4 -22 8.2 1.5
-6 4 -22 8.8 1.7
6 -4 -22 10.5 0.8
-6 4 -22 4.9 1.7
8 4 -22 5.3 0.7
8 4 -22 5 1.2
8 4 -22 5.7 0.8
8 -4 -22 2.4 1.3
-8 4 -22 1.7 1.5
8 -4 -22 7.8 0.7
-8 4 -22 5 1.7
10 4 -22 0.4 0.4
10 4 -22 -0.6 0.5
10 -4 -22 0.3 1
10 -4 -22 0.2 0.4
-10 4 -22 -1.4 1.4
10 -4 -22 -1 0.4
1 5 -22 233.38 12.7
-1 -5 -22 214.18 11.9
1 5 -22 240.88 12
1 -5 -22 222.68 11.9
-1 5 -22 232.78 15.7
-1 5 -22 236.18 12
-1 5 -22 224.58 12.8
3 5 -22 185.18 11.4
3 5 -22 222.88 11
-3 5 -22 204.08 14.4
3 -5 -22 213.58 10.9
-3 5 -22 212.78 10.9
-3 5 -22 209.38 11.7
5 5 -22 97.29 5.1
5 5 -22 87.39 5
5 5 -22 79.09 5.1
-5 5 -22 95.29 5.5
-5 5 -22 89.79 5.1
5 -5 -22 96.29 5.2
5 -5 -22 86.79 5.1
-5 5 -22 82.89 6.7
7 5 -22 114.09 6.2
7 5 -22 113.89 6.2
7 5 -22 105.09 6.4
7 -5 -22 109.39 6.5
7 -5 -22 115.19 6.3
-7 5 -22 115.49 6.8
9 5 -22 7.2 1.3
9 5 -22 11.8 0.9
9 5 -22 11 1
-9 5 -22 9.4 2
-9 5 -22 5.6 2
9 -5 -22 10.8 0.9
9 -5 -22 9.6 1.5
11 5 -22 23.7 1.4
11 5 -22 20 1.4
11 -5 -22 21.6 1.4
-11 5 -22 20.1 2
11 -5 -22 20.9 1.4
0 6 -22 89.19 5.5
0 -6 -22 88.89 5.1
0 6 -22 100.99 5.3
2 6 -22 42.3 2.8
2 6 -22 44.6 2.8
-2 -6 -22 38.3 2.6
-2 6 -22 42.7 2.8
-2 6 -22 42.2 3.6
2 -6 -22 43 2.7
-2 6 -22 41.2 2.9
4 6 -22 22.5 1.5
4 -6 -22 24.1 1.5
-4 6 -22 23.9 2
4 -6 -22 21.6 1.8
-4 6 -22 26.8 2.3
-4 6 -22 21.6 2.5
6 6 -22 37.4 2.5
6 6 -22 31.5 1.9
6 6 -22 32.2 2
-6 6 -22 32.7 2.8
6 -6 -22 29.9 2.5
6 -6 -22 31.8 2
-6 6 -22 26.2 3.2
8 6 -22 8.1 0.8
8 6 -22 7.1 1.4
8 6 -22 9.1 0.9
-8 6 -22 6.1 1.7
8 -6 -22 8.4 1.6
8 -6 -22 8.8 0.8
-8 6 -22 4.7 1.8
10 6 -22 12.8 0.9
10 6 -22 10.7 1
10 -6 -22 11.6 0.9
-1 -7 -22 71.59 4.4
1 7 -22 84.69 4.6
1 7 -22 80.39 4.8
-1 7 -22 83.49 4.9
-1 7 -22 77.69 6
1 -7 -22 77.09 4.5
-1 7 -22 82.39 4.6
3 7 -22 30.1 2.1
3 7 -22 23.8 1.6
-3 7 -22 25.3 2.7
3 -7 -22 26.4 2
-3 7 -22 29.9 2.1
-3 7 -22 27.1 2.2
5 7 -22 95.69 5.3
5 7 -22 102.89 5.4
5 7 -22 84.79 5.5
-5 7 -22 103.69 5.9
-5 7 -22 87.19 7.2
5 -7 -22 98.59 5.5
5 -7 -22 95.39 5.5
7 7 -22 7.9 0.9
7 7 -22 7.5 1.3
7 7 -22 9.4 0.8
-7 7 -22 5.4 1.9
7 -7 -22 8.4 1.6
7 -7 -22 7.5 0.8
-7 7 -22 9.2 1.9
9 7 -22 32.6 2
9 7 -22 31.8 2
9 -7 -22 33 2
9 -7 -22 32.7 2.6
-9 7 -22 27.2 2.8
11 7 -22 3.7 0.5
11 -7 -22 3.4 1
11 -7 -22 2.7 0.4
-11 7 -22 4.3 1.3
11 -7 -22 4.5 0.5
0 8 -22 143.29 7.4
0 -8 -22 127.69 7.2
0 8 -22 137.09 7.8
2 8 -22 80.69 4.9
2 8 -22 82.69 4.7
-2 8 -22 78.29 6.1
-2 8 -22 80.79 4.9
-2 8 -22 80.79 4.6
2 -8 -22 79.79 4.6
4 8 -22 123.49 7.3
4 8 -22 139.09 7.2
-4 8 -22 139.99 7.8
4 -8 -22 128.69 7.6
-4 8 -22 135.49 7.2
4 -8 -22 139.99 7.2
-4 8 -22 117.79 9.5
6 8 -22 41.5 2.5
6 8 -22 42 2.5
6 8 -22 42.8 2.9
-6 8 -22 48.2 3.4
6 -8 -22 48.3 3.1
6 -8 -22 42 2.6
-6 8 -22 37 3.9
8 8 -22 83.79 5
8 8 -22 87.79 4.9
8 -8 -22 86.69 5
-8 8 -22 84.89 5.6
8 -8 -22 89.79 5.1
10 8 -22 19.1 1.3
10 8 -22 20.8 1.3
10 -8 -22 16.9 1.8
-10 8 -22 19.5 2.1
10 -8 -22 19.2 1.3
1 9 -22 3 1
1 9 -22 3.8 1.1
-1 9 -22 4 1.1
-1 9 -22 2.9 1
1 -9 -22 3.5 0.9
-1 9 -22 2.5 1.2
3 9 -22 19.8 1.3
3 9 -22 20.7 1.9
-3 9 -22 17.3 2.3
3 -9 -22 19.4 1.7
-3 9 -22 22.4 1.9
-3 9 -22 20.9 2
5 9 -22 3 0.5
5 9 -22 3 0.4
5 9 -22 2.6 1
-5 9 -22 3.8 1.4
-5 9 -22 2.3 1.4
5 -9 -22 2.2 1.1
5 -9 -22 2.2 0.4
7 9 -22 15.6 1.1
7 9 -22 14.4 1.1
7 -9 -22 14.7 1.1
-7 9 -22 9 1.9
9 9 -22 1.6 0.4
9 9 -22 1.2 0.5
9 -9 -22 0 1.2
9 -9 -22 1.8 0.4
-9 9 -22 1 1.3
0 10 -22 60.39 3.9
0 10 -22 62.19 3.8
2 10 -22 330.47 17.5
2 10 -22 289.07 17.3
2 10 -22 337.37 16.4
-2 10 -22 326.97 17.5
2 -10 -22 303.87 16.3
-2 10 -22 326.87 16.4
-2 10 -22 302.57 21.5
4 10 -22 26.5 1.7
4 10 -22 27 2.1
4 -10 -22 24.8 1.7
4 -10 -22 28.4 2.2
-4 10 -22 26.6 2.8
-4 10 -22 28.4 2.4
6 10 -22 112.99 7
6 10 -22 122.49 6.8
6 -10 -22 127.09 6.8
6 -10 -22 119.39 7
-6 10 -22 130.39 7.4
8 10 -22 60.99 3.5
8 -10 22 51.89 3.7
8 10 -22 59.99 3.4
8 -10 -22 60.49 3.5
-8 10 -22 63.49 4.2
8 -10 -22 60.69 3.8
10 10 -22 15.5 1.1
10 10 -22 16.5 1.1
10 -10 -22 14 1.7
-10 10 -22 14.2 1.8
10 -10 -22 16.2 1.1
1 11 -22 136.19 7.9
1 11 -22 135.49 7.4
-1 11 -22 138.39 7.9
-1 11 -22 135.59 7.4
3 11 -22 23.9 1.6
3 11 -22 24.3 2
-3 11 -22 25 2.1
-3 11 -22 25.4 2.7
-3 11 -22 26.4 2.3
3 -11 -22 27 2
5 11 -22 44.3 2.5
5 11 -22 39.4 2.8
-5 11 -22 34.1 3.8
-5 11 -22 46.6 3.3
5 -11 -22 44.2 2.6
5 -11 -22 43.4 3
7 11 -22 14.1 1.1
7 11 -22 14 1
7 -11 -22 12.7 1
7 -11 -22 12.6 1.7
-7 11 -22 12.2 2
-7 11 -22 8.5 2.1
9 11 -22 12.8 1
9 11 -22 12.7 0.9
9 -11 -22 10 1.6
-9 11 -22 13.2 1.9
9 -11 -22 13 0.9
0 12 -22 314.87 17.3
0 12 -22 311.37 16.2
2 12 -22 22.4 1.4
2 12 -22 24.1 2
2 12 -22 21.5 2
-2 12 -22 24.7 2.1
-2 12 -22 22.6 2
-2 12 -22 22 2.5
2 -12 -22 18.1 1.9
4 12 -22 68.59 4
4 12 -22 66.59 3.8
-4 12 -22 67.79 4.4
4 -12 -22 69.59 4
-4 12 -22 57.29 5.3
4 -12 -22 70.99 4.1
6 12 -22 19.3 1.3
6 12 -22 21 1.4
-6 12 -22 15.9 2.4
6 -12 -22 20.2 1.3
6 -12 -22 21.1 2.1
-6 12 -22 20.5 2.2
8 12 -22 8.9 0.9
8 12 -22 8.4 0.8
8 -12 22 8.3 1.5
8 -12 -22 6.4 1.5
8 -12 -22 8.9 0.8
-8 12 -22 7.2 1.6
10 12 -22 6.9 0.7
10 12 -22 8.4 0.7
-10 12 -22 4.5 1.3
10 -12 -22 3.8 1
1 13 -22 217.68 13.4
1 13 -22 245.08 12.7
1 13 -22 251.97 13.6
-1 13 -22 250.07 12.7
-1 13 -22 250.97 13.6
3 13 -22 143.69 8
3 13 -22 148.49 7.8
3 -13 -22 129.89 7.7
-3 13 -22 135.19 10.3
-3 13 -22 152.58 8.4
3 -13 -22 150.58 8.3
5 13 -22 78.79 4.4
5 -13 -22 77.09 4.5
5 -13 -22 76.39 4.5
-5 13 -22 67.69 6
-5 13 -22 81.79 5
7 13 -22 26.7 1.8
7 13 -22 30.2 1.8
7 -13 -22 32.1 2.5
7 -13 -22 31.4 1.8
-7 13 -22 23.5 3.2
-7 13 -22 32.6 2.7
9 13 -22 23 1.5
9 13 -22 23.8 1.5
-9 13 -22 20.4 2.1
9 -13 -22 23.8 1.6
9 -13 -22 25.1 2.1
0 14 -22 3.8 1.1
0 14 -22 3.9 1.3
2 14 -22 24.6 2.2
2 14 -22 29.7 1.8
-2 14 -22 30.7 2.3
-2 14 -22 29.4 2.5
4 14 -22 2.8 0.5
-4 14 -22 2.8 1.5
4 -14 -22 3.1 0.5
4 -14 -22 2.1 0.9
-4 14 -22 4 1.3
6 14 -22 2.3 0.5
6 14 -22 1.7 0.4
-6 14 -22 1.6 1.3
-6 14 -22 3.3 1.6
6 -14 -22 1 1.1
6 -14 -22 2.8 0.4
8 14 -22 1.7 0.4
8 14 -22 2.1 0.4
8 -14 -22 2 0.4
-8 14 -22 0.6 1.2
8 -14 -22 2.7 1.2
1 15 -22 77.89 4.6
1 15 -22 81.09 4.9
1 15 -22 75.79 4.5
-1 15 -22 83.19 4.7
-1 15 -22 85.39 5
3 15 -22 112.69 6.4
3 -15 -22 118.99 6.7
-3 15 -22 124.59 6.9
-3 15 -22 102.09 8.4
5 15 -22 35.1 2
5 -15 -22 32.6 2
-5 15 -22 26.5 3.1
-5 15 -22 33.3 2.7
5 -15 -22 32.1 2.5
7 15 -22 58.89 3.2
7 15 -22 52.09 3.3
7 -15 -22 57.19 3.3
7 -15 -22 51.39 3.5
-7 15 -22 56.69 3.8
9 15 -22 21.2 1.3
9 15 -22 20 1.3
-9 15 -22 14 1.9
9 -15 -22 17.5 1.7
0 16 -22 78.99 4.6
0 16 -22 82.59 5
2 16 -22 10.9 1
-2 16 -22 12.6 1.7
4 16 -22 58.69 3.3
4 -16 -22 58.69 3.4
-4 16 -22 60.59 3.9
-4 16 -22 47.3 4.7
6 16 -22 26.5 1.8
6 16 -22 31.1 1.9
6 -16 -22 30.3 2.4
6 -16 -22 31.1 1.8
-6 16 -22 31.5 2.6
8 16 -22 18 1.2
8 16 -22 17.9 1.2
8 -16 -22 16 1.7
-8 16 -22 16.9 1.9
1 17 -22 28.9 1.8
-1 17 -22 30.1 2.4
3 17 -22 8.7 0.9
3 -17 -22 8.9 0.8
-3 17 -22 9.4 1.6
5 17 -22 39.6 2.4
5 -17 -22 39.4 2.4
-5 17 -22 37.7 3
7 17 -22 8.6 0.8
7 17 -22 7.2 0.7
7 -17 -22 4.8 1.2
-7 17 -22 4.5 1.3
0 18 -22 51.89 3.1
0 18 -22 55.79 3.6
2 18 -22 111.69 6.5
-2 18 -22 120.89 6.9
2 -18 -22 115.99 6.7
4 18 -22 51.39 3
4 -18 -22 49.8 3.1
-4 18 -22 54.19 3.6
6 18 -22 63.99 4
6 18 -22 75.59 4
-6 18 -22 68.79 4.4
8 18 -22 16 1.1
8 18 -22 16.6 1.1
1 19 -22 8.3 0.9
1 -19 -22 11.1 0.9
-1 19 -22 8.9 1.5
3 19 -22 16.2 1.3
3 -19 -22 18.2 1.2
-3 19 -22 18.5 1.9
5 19 -22 4 0.6
5 19 -22 3.8 0.6
5 -19 -22 4.9 0.7
-5 19 -22 4 1.3
7 19 -22 2.6 0.4
7 19 -22 2.3 0.4
0 20 -22 62.39 3.6
2 20 -22 73.19 4.2
-2 20 -22 73.69 4.5
2 -20 -22 71.59 4.3
4 20 -22 76.19 4.2
4 -20 -22 67.19 4.4
-4 20 -22 74.99 4.6
6 20 -22 11.5 0.9
6 20 -22 10.2 0.8
-6 20 -22 7.2 2
1 21 -22 46.4 2.8
1 -21 -22 49.6 2.9
3 21 -22 47 2.8
-3 21 -22 47.2 3.2
5 21 -22 49.5 2.8
5 21 -22 45 2.8
0 22 -22 9 0.9
0 -22 -22 9 0.8
2 22 -22 9 0.9
4 22 -22 9.3 0.9
1 23 -22 34.7 2.1
3 23 -22 34.8 2.1
0 24 -22 3.3 0.5
2 24 -22 5.7 0.7
0 0 -23 0.3 0.8
0 0 -23 0.2 0.8
2 0 -23 2.2 0.9
-2 0 -23 1.5 1.1
-2 0 -23 2.1 0.9
-2 0 -23 1.9 1
2 0 -23 2.1 0.9
-4 0 -23 1.6 1.1
-4 0 -23 0.1 1
-4 0 -23 0.3 0.8
4 0 -23 0.5 0.3
4 0 -23 1 0.9
-6 0 -23 0.9 1.3
6 0 -23 0.9 0.3
6 0 -23 1.2 1
-6 0 -23 1.6 1.2
6 0 -23 1 0.4
8 0 -23 -0.1 0.9
8 0 -23 1.8 0.5
-8 0 -23 1 1.5
-8 0 -23 0.5 1.3
10 0 -23 2.2 0.5
10 0 -23 1.7 0.9
-10 0 -23 1.7 1.3
-1 -1 -23 4.3 1
1 1 -23 4.1 1.1
-1 -1 -23 5.1 1.4
1 1 -23 4.4 1
-1 -1 -23 5.2 1.1
-1 1 -23 5.2 1.1
1 -1 -23 4.7 1
-1 1 -23 5.4 1.4
-1 1 -23 3.7 1
-3 -1 -23 2.4 1.2
-3 -1 -23 2.6 1.1
3 1 -23 1.9 1
-3 -1 -23 2.6 0.9
3 -1 -23 1.7 0.9
-3 1 -23 2.1 1.2
-3 1 -23 2.1 0.9
3 -1 -23 1.2 0.3
-3 1 -23 2.8 1.1
-5 -1 -23 -0.1 1.1
-5 -1 -23 0.4 1.1
5 1 -23 -1 0.9
5 1 -23 0.4 0.4
-5 -1 -23 0 0.8
5 1 -23 -0.1 0.3
5 -1 -23 0 0.3
5 -1 -23 -0.7 0.9
-5 1 -23 0.6 1.1
-5 1 -23 0.1 1.1
5 -1 -23 0.3 0.4
-5 1 -23 0.7 0.8
7 1 -23 0.3 1
-7 -1 -23 0.1 1.2
7 1 -23 0 0.4
7 1 -23 0.2 0.4
-7 -1 -23 0 1.3
7 -1 -23 -0.4 1
7 -1 -23 -0.1 0.4
7 -1 -23 0.6 0.4
-7 1 -23 0.8 1.2
-7 1 -23 0.7 1.3
9 1 -23 0.2 0.9
9 1 -23 0.4 0.4
-9 -1 -23 -1.1 1.4
9 1 -23 0.2 0.5
9 -1 -23 0.3 1
9 -1 -23 0.9 0.4
-9 1 -23 0.4 1.3
9 -1 -23 0.1 0.5
11 1 -23 1 0.4
11 1 -23 0.1 0.9
11 -1 -23 1.8 0.4
11 -1 -23 0.6 0.8
11 -1 -23 1.1 0.4
0 2 -23 1.9 0.9
0 -2 -23 1.8 0.8
0 2 -23 2.3 0.9
-2 -2 -23 7.9 1.6
2 2 -23 8.3 1.3
2 2 -23 9 1.3
-2 -2 -23 8.4 1.2
-2 2 -23 9 1.7
-2 2 -23 10.8 1.4
-2 2 -23 7.7 1.2
2 -2 -23 9.8 1.4
4 2 -23 1.5 1
4 2 -23 1 0.3
-4 -2 -23 0.8 0.8
-4 -2 -23 1.2 1.1
4 2 -23 1.3 0.4
-4 -2 -23 1.2 1.1
4 -2 -23 -0.9 0.8
-4 2 -23 0.8 0.8
4 -2 -23 1.3 0.3
-4 2 -23 0.9 1.1
-4 2 -23 1.5 1.1
6 2 -23 1.4 0.5
6 2 -23 0.5 0.4
-6 -2 -23 0.5 1.2
6 2 -23 0.8 1
-6 -2 -23 0.8 1.3
-6 2 -23 1.5 1.3
-6 2 -23 0.4 1.3
6 -2 -23 1.1 1
6 -2 -23 1.2 0.4
6 -2 -23 0.5 0.4
8 2 -23 1.1 1
8 2 -23 1.5 0.5
8 2 -23 1.7 0.4
-8 -2 -23 0.6 1.3
-8 -2 -23 1 1.4
8 -2 -23 1.5 0.5
8 -2 -23 0.8 1
-8 2 -23 2.2 1.4
8 -2 -23 1.6 0.4
-8 2 -23 1.7 1.5
10 2 -23 8.6 0.9
-10 -2 -23 5.2 1.5
10 2 -23 11.6 0.8
10 -2 -23 11.5 0.8
10 -2 -23 8.7 0.9
-10 2 -23 5.6 1.5
1 3 -23 2.5 0.9
-1 -3 -23 3.6 0.9
1 3 -23 3.1 1
1 -3 -23 3.1 0.9
-1 3 -23 2.8 1
-1 3 -23 3 0.9
-1 3 -23 2.5 1.2
-3 -3 -23 7.7 1.2
-3 -3 -23 7.9 1.6
3 3 -23 7.9 1.3
-3 3 -23 10 1.8
-3 3 -23 10 1.5
3 -3 -23 7.7 1.3
-3 3 -23 7.9 1.3
5 3 -23 3.1 1.1
5 3 -23 2.1 0.4
5 3 -23 3.3 0.5
-5 -3 -23 2.1 1.2
-5 3 -23 4.1 1.3
5 -3 -23 1.4 1
5 -3 -23 2.5 0.5
-5 3 -23 2.4 1
-5 3 -23 2 1.4
5 -3 -23 3 0.4
7 3 -23 0.9 0.4
-7 -3 -23 0.7 1.2
7 3 -23 2.5 1.1
7 3 -23 1.8 0.5
-7 -3 -23 1.8 1.7
-7 3 -23 1.3 1.4
-7 3 -23 2.8 1.5
7 -3 -23 2.1 0.4
7 -3 -23 0.2 0.9
7 -3 -23 0.9 0.5
-9 -3 -23 13.3 2
9 3 -23 13.5 1.2
9 3 -23 12.4 1.7
9 3 -23 16.8 1.1
9 -3 -23 16 1.1
9 -3 -23 14.9 1.1
11 3 -23 1.5 0.4
-11 3 -23 2.4 1.7
11 -3 -23 1.3 0.4
11 -3 -23 1.5 0.4
11 -3 -23 1.6 0.8
0 -4 -23 1.1 0.8
0 4 -23 1.1 0.9
0 4 -23 1.3 0.8
2 4 -23 5.4 1.1
2 4 -23 6.4 1.2
-2 -4 -23 5.5 1
2 -4 -23 6.1 1.1
-2 4 -23 6.8 1.2
-2 4 -23 6.5 1.6
-2 4 -23 5.9 1.3
4 4 -23 1.6 0.4
4 4 -23 1.5 1
4 -4 -23 1.2 1
-4 4 -23 2 1.3
-4 4 -23 1.9 0.9
4 -4 -23 1.4 0.3
-4 4 -23 1.5 1.2
6 4 -23 0.6 0.4
6 4 -23 -0.2 1
6 4 -23 -0.3 0.3
-6 4 -23 -0.4 1.2
-6 4 -23 -0.4 1.3
6 -4 -23 -0.7 0.8
6 -4 -23 -0.1 0.3
8 4 -23 -0.4 0.5
8 4 -23 -0.6 0.4
8 4 -23 0.2 1
8 -4 -23 -0.7 0.5
-8 4 -23 -0.4 1.3
8 -4 -23 -0.2 0.4
8 -4 -23 0 1.3
-8 4 -23 0.4 1.4
10 4 -23 -0.7 0.4
10 4 -23 -0.1 0.4
10 -4 -23 -0.8 0.4
10 -4 -23 0.5 0.8
10 -4 -23 -0.7 0.4
-10 4 -23 -1.4 1.1
1 5 -23 23.2 2
1 5 -23 23.7 2
-1 -5 -23 23.1 1.9
1 -5 -23 24.8 1.9
-1 5 -23 24.8 2.5
-1 5 -23 24.7 2
-1 5 -23 26.5 2
3 5 -23 8.7 1.3
-3 5 -23 5.9 1.6
-3 5 -23 7.2 1.4
3 -5 -23 5.2 1.1
-3 5 -23 4.7 1.1
5 5 -23 1.9 1
5 5 -23 1.6 0.4
5 5 -23 0.8 0.4
-5 5 -23 1.1 1.2
-5 5 -23 1.2 1.2
5 -5 -23 1.6 0.4
5 -5 -23 0.1 0.9
7 5 -23 2.1 0.5
7 5 -23 2 1.1
-7 5 -23 1.2 1.5
7 -5 -23 0.7 1.2
-7 5 -23 0.7 1.4
9 5 -23 -0.1 0.9
9 5 -23 0.4 0.4
9 5 -23 -0.6 0.5
-9 5 -23 -0.7 1.2
9 -5 -23 0.1 0.4
9 -5 -23 -0.6 0.4
9 -5 -23 0.9 1.2
11 5 -23 6.9 0.6
11 5 -23 5.1 0.7
11 -5 -23 4.8 0.6
11 -5 -23 5.6 0.6
0 -6 -23 2.8 0.9
0 6 -23 2.6 0.9
0 6 -23 3.2 1
2 6 -23 1.9 0.9
2 6 -23 3.1 1
-2 -6 -23 2.2 0.8
2 -6 -23 2.7 0.9
-2 6 -23 1.5 1.2
-2 6 -23 2.4 1.1
-2 6 -23 3 1
4 6 -23 6.4 1.2
4 6 -23 4.6 0.6
4 -6 -23 3.9 0.5
-4 6 -23 4.1 1.1
-4 6 -23 3.5 1.5
4 -6 -23 3 1.1
-4 6 -23 5.8 1.4
6 6 -23 1.4 0.4
6 6 -23 0.1 1
6 6 -23 1.2 0.4
6 -6 -23 -0.6 1.1
6 -6 -23 0.8 0.4
-6 6 -23 1.2 1.4
-6 6 -23 1 1.4
8 6 -23 -0.8 0.4
8 6 -23 0.4 1
8 6 -23 0.5 0.5
-8 6 -23 0.6 1.4
8 -6 -23 -0.1 1.1
-8 6 -23 0.6 1.5
8 -6 -23 0.5 0.4
10 6 -23 1.9 0.4
10 6 -23 0.8 0.4
10 -6 -23 0.2 0.4
10 -6 -23 1.2 0.7
10 -6 -23 1.1 0.4
-10 6 -23 1 1.3
1 7 -23 3.6 1.1
-1 -7 -23 4.1 1
1 7 -23 3.5 1
1 -7 -23 2.6 1
-1 7 -23 3 1
-1 7 -23 3.3 1.3
-1 7 -23 4.1 1.2
3 7 -23 1.8 0.4
3 7 -23 1.8 1
-3 7 -23 1.3 1.1
-3 7 -23 1.2 1.2
3 -7 -23 1.5 0.9
-3 7 -23 1.2 1
5 7 -23 1.5 0.4
5 7 -23 2 0.4
5 7 -23 1.9 1
-5 7 -23 0.5 1.2
5 -7 -23 0.2 0.8
5 -7 -23 1 0.4
-5 7 -23 1.2 1.3
7 7 -23 4.9 0.6
7 7 -23 4.5 1.1
7 7 -23 5.6 0.8
-7 7 -23 2 1.6
7 -7 -23 2.1 1.3
-7 7 -23 4.4 1.6
7 -7 -23 5.9 0.7
9 7 -23 5.9 0.8
9 7 -23 7.7 0.7
-9 7 -23 5 1.6
9 -7 -23 6.8 0.7
9 -7 -23 3.8 1.3
0 8 -23 1.8 1.2
0 8 -23 2 1
0 -8 -23 1.6 0.8
2 8 -23 3 1
2 8 -23 2.3 1.1
-2 8 -23 2.5 1
2 -8 -23 2.6 1
-2 8 -23 2.2 1.2
-2 8 -23 2.5 1.1
4 8 -23 17.6 1.8
4 8 -23 16 1.2
4 -8 -23 17.6 1.2
-4 8 -23 19.8 1.8
4 -8 -23 18.4 1.7
-4 8 -23 15.3 2.2
-4 8 -23 17.9 2
6 8 -23 22.3 1.6
6 8 -23 27.5 1.6
6 8 -23 26.7 2.1
6 -8 -23 25.5 1.6
-6 8 -23 20 2.7
-6 8 -23 25.9 2.5
6 -8 -23 22.9 2.3
8 8 -23 20.8 1.5
8 8 -23 22.1 1.4
-8 8 -23 16.9 2.3
8 -8 -23 25.1 2.2
8 -8 -23 22.1 1.4
10 8 -23 0.9 0.4
10 -8 -23 0.6 0.4
-10 8 -23 1.1 1.1
10 -8 -23 1.1 1
1 9 -23 4.5 1.2
1 9 -23 4.7 1.2
1 -9 -23 2.3 1
-1 9 -23 3.2 1.1
-1 9 -23 3.5 1.2
3 9 -23 4.7 1.2
3 9 -23 5.2 0.7
-3 9 -23 4.5 1.2
-3 9 -23 5.9 1.4
3 -9 -23 4.4 1.1
-3 9 -23 3.5 1.5
5 9 -23 0.9 1
5 9 -23 0.5 0.5
5 9 -23 1.5 0.4
-5 9 -23 0.7 1.3
5 -9 -23 1 0.4
5 -9 -23 0.9 1.2
-5 9 -23 0.8 1.2
7 9 -23 2.5 0.4
7 9 -23 2 0.5
-7 9 -23 0.1 1.4
-7 9 -23 1.7 1.5
7 -9 -23 1.3 1.2
7 -9 -23 0.8 0.4
9 9 -23 -0.6 0.4
9 9 -23 0.5 0.4
9 -9 -23 -0.2 0.4
9 -9 -23 -0.4 1
-9 9 -23 -0.3 1.2
0 10 -23 9.9 1.4
0 10 -23 8.9 1.6
2 10 -23 51.59 3.4
2 10 -23 51.59 3.5
2 -10 -23 51.79 3.3
-2 10 -23 59.09 3.5
-2 10 -23 57.09 3.7
-2 10 -23 51.19 4.4
4 10 -23 2.1 0.4
4 10 -23 1.5 0.9
4 -10 -23 1.8 0.4
-4 10 -23 2.6 1.2
4 -10 -23 1.3 0.9
-4 10 -23 1.6 1.3
6 10 -23 12.1 1
6 10 -23 13.8 0.9
6 -10 -23 11.1 1.7
-6 10 -23 10.7 1.9
6 -10 -23 11.8 1
-6 10 -23 9 2.1
8 10 -23 5.4 0.8
8 -10 -23 5.9 0.7
-8 10 -23 3.5 1.5
8 -10 -23 2.7 1.2
10 10 -23 1.3 0.3
10 10 -23 0.7 0.4
-10 10 -23 0.4 1.1
10 -10 -23 0.7 0.3
10 -10 -23 1.1 0.9
1 11 -23 49.5 3.3
1 11 -23 48.6 3.4
-1 11 -23 49.1 3.4
-1 11 -23 53.99 3.3
3 11 -23 0.4 0.9
3 11 -23 0.8 0.4
3 -11 -23 0.8 0.4
-3 11 -23 0.4 1
-3 11 -23 0.6 1.2
-3 11 -23 1.4 1.1
3 -11 -23 -0.2 0.9
5 11 -23 11 0.9
5 11 -23 7.8 1.3
-5 11 -23 9.5 2
5 -11 -23 13.5 1.8
-5 11 -23 13.4 1.9
5 -11 -23 10.2 0.9
7 11 -23 0.6 0.4
7 11 -23 0.7 0.5
-7 11 -23 1.5 1.3
-7 11 -23 0.5 1.3
7 -11 -23 0.7 1.1
9 11 -23 1.1 0.4
9 11 -23 0.9 0.4
9 -11 -23 1.4 1
-9 11 -23 1 1.1
9 -11 -23 0.2 0.4
0 12 -23 2.7 1.2
0 12 -23 3.6 1.1
2 12 -23 3.8 0.5
2 12 -23 5.3 1.2
2 12 -23 5.6 1.3
-2 12 -23 3.7 1.5
-2 12 -23 5.4 1.2
-2 12 -23 5.3 1.3
4 12 -23 2 0.5
4 12 -23 2.4 1.1
4 -12 -23 2.1 0.9
4 -12 -23 2.2 0.5
-4 12 -23 2.8 1.4
-4 12 -23 2.2 1.5
6 12 -23 0.4 0.4
6 12 -23 0.8 0.4
-6 12 -23 0.2 1.2
-6 12 -23 0.1 1.3
6 -12 -23 0.3 0.4
6 -12 -23 0.3 1
8 12 -23 0.8 0.4
8 12 -23 1 0.4
-8 12 -23 0.8 1.2
8 -12 -23 0.8 0.4
8 -12 -23 1.1 1.1
1 13 -23 48.8 3.2
1 13 -23 49.5 3.1
-1 13 -23 42.9 3.1
-1 13 -23 46.4 3.3
3 13 -23 14 1.1
3 13 -23 14.8 1.7
-3 13 -23 18.1 1.9
3 -13 -23 17.5 1.2
3 -13 -23 15.3 1.6
-3 13 -23 15.5 2.2
5 13 -23 4 0.5
5 -13 -23 2.6 0.9
-5 13 -23 1.8 1.5
5 -13 -23 3.8 0.5
-5 13 -23 3 1.3
7 13 -23 2.5 0.5
7 13 -23 1.4 0.4
-7 13 -23 2.4 1.3
7 -13 -23 2.8 0.5
7 -13 -23 2.5 1.1
9 13 -23 0.3 0.4
9 13 -23 0.5 0.3
9 -13 -23 0.2 0.4
-9 13 -23 0.1 1
9 -13 -23 0.5 0.9
0 14 -23 0 0.9
0 14 -23 0 1
2 14 -23 1.3 0.4
2 14 -23 2.2 1
-2 14 -23 2.8 1.2
4 14 -23 1.8 0.4
-4 14 -23 2.9 1.3
4 -14 -23 2.1 0.4
4 -14 -23 1 0.9
-4 14 -23 3.4 1.6
6 14 -23 0.1 0.4
-6 14 -23 -0.6 1.1
6 -14 -23 0 1.1
6 -14 -23 -0.4 0.4
8 14 -23 -0.7 0.4
-8 14 -23 0.3 1.1
8 -14 -23 -0.1 1
1 15 -23 0.9 0.6
1 15 -23 2 1.1
1 15 -23 0.9 0.9
-1 15 -23 2.8 1.2
-1 15 -23 2 1
3 15 -23 31.8 2
-3 15 -23 30.3 2.6
3 -15 -23 32.1 2
5 15 -23 2.7 0.5
-5 15 -23 2.2 1.2
5 -15 -23 2.6 0.4
5 -15 -23 1.9 0.9
-5 15 -23 1.4 1.4
7 15 -23 0.6 0.4
7 15 -23 0.4 0.4
-7 15 -23 0.1 1.1
7 -15 -23 1.3 0.4
7 -15 -23 1.5 1.1
0 16 -23 0.4 1
0 16 -23 0.4 0.9
2 16 -23 1.5 0.5
-2 16 -23 1.3 1.2
2 -16 -23 1.1 0.4
4 16 -23 13 1
4 -16 -23 12.2 1
-4 16 -23 11.9 1.8
6 16 -23 -0.6 0.3
6 16 -23 -0.5 0.4
6 -16 -23 -0.5 0.4
6 -16 -23 0.1 0.7
-6 16 -23 -0.6 1.1
8 16 -23 -0.5 0.3
8 16 -23 -0.1 0.4
8 -16 -23 0.2 0.6
-8 16 -23 0 1
1 17 -23 7.4 0.8
-1 17 -23 5.9 1.3
3 17 -23 0.4 0.4
3 -17 -23 0.5 0.4
-3 17 -23 -0.3 1.1
5 17 -23 0.2 0.4
5 -17 -23 -0.2 0.4
-5 17 -23 -0.3 1.1
7 17 -23 0.4 0.4
7 17 -23 0.2 0.3
7 -17 -23 0.1 0.7
-7 17 -23 0 1
0 18 -23 -0.1 1
2 18 -23 16.7 1.2
2 -18 -23 15 1.1
-2 18 -23 14.5 1.8
4 18 -23 0.5 0.4
4 -18 -23 0.8 0.4
-4 18 -23 2 1.2
6 18 -23 0.4 0.3
6 18 -23 0.5 0.4
-6 18 -23 -0.9 1
1 19 -23 0.4 0.4
-1 19 -23 -0.9 1
1 -19 -23 -0.6 0.4
3 19 -23 1.7 0.5
-3 19 -23 0.6 1.1
3 -19 -23 1.1 0.4
5 19 -23 -0.3 0.4
5 -19 -23 -0.3 0.3
-5 19 -23 0.7 1.1
2 20 -23 2.1 0.5
2 -20 -23 1.6 0.4
-2 20 -23 1.7 1.1
4 20 -23 6.3 0.8
4 -20 -23 5 0.6
-4 20 -23 4.2 1.2
6 20 -23 3.6 0.5
6 20 -23 3.1 0.5
1 21 -23 2.4 0.5
1 -21 -23 1.8 0.4
3 21 -23 1 0.4
-3 21 -23 0.6 1
5 21 -23 3.2 0.5
0 -22 -23 -0.4 0.3
2 22 -23 -0.1 0.4
4 22 -23 0 0.4
1 23 -23 0.3 0.4
3 23 -23 0.1 0.4
0 0 -24 284.87 16
0 0 -24 296.27 15.1
-2 0 -24 112.29 8.1
-2 0 -24 107.69 6.5
-2 0 -24 111.79 6.1
2 0 -24 114.49 6.2
-4 0 -24 86.09 6.5
-4 0 -24 87.59 4.9
4 0 -24 90.99 5
4 0 -24 80.39 5
-4 0 -24 86.59 5.2
-6 0 -24 110.39 6.2
6 0 -24 97.89 5.9
6 0 -24 103.59 5.7
-6 0 -24 87.19 7.5
6 0 -24 109.19 5.8
8 0 -24 76.89 4.5
8 0 -24 76.69 4.4
8 0 -24 74.39 4.6
-8 0 -24 79.39 5
10 0 -24 49.7 2.7
-10 0 -24 42.5 3.3
10 0 -24 38.7 2.9
10 0 -24 45.4 2.6
-1 -1 -24 30.3 2.6
1 1 -24 37 2.5
-1 -1 -24 37.4 2.4
1 1 -24 34.5 2.5
-1 1 -24 34 2.5
1 -1 -24 36.3 2.5
-1 1 -24 36.5 2.5
-3 -1 -24 19 2.2
-3 -1 -24 19.3 1.8
-3 -1 -24 20.7 1.8
3 1 -24 19.3 1.8
3 -1 -24 20.5 1.8
-3 1 -24 19.7 1.8
-3 1 -24 19 1.9
3 -1 -24 18.7 1.3
-3 1 -24 18.6 2.2
-5 -1 -24 13.3 1.5
-5 -1 -24 17.5 1.9
5 1 -24 14.3 1
-5 -1 -24 13.2 2
5 1 -24 15.2 1.7
5 1 -24 14 1.1
-5 1 -24 15 1.9
5 -1 -24 15.9 1.7
-5 1 -24 13.1 2
5 -1 -24 14.7 1
-5 1 -24 12.4 1.6
5 -1 -24 14.4 1.1
-7 -1 -24 21.4 2.2
7 1 -24 13.9 1.8
7 1 -24 18.7 1.2
7 1 -24 17.5 1.3
7 -1 -24 17 1.3
7 -1 -24 17.7 1.2
7 -1 -24 15.5 1.9
-7 1 -24 18.3 2.2
9 1 -24 16.1 1
9 1 -24 14.2 1.1
9 1 -24 12.1 1.7
9 -1 -24 15.6 1
9 -1 -24 13.6 1.1
-9 1 -24 8.7 1.8
0 -2 -24 42.1 2.7
0 2 -24 37.9 2.7
0 2 -24 40.8 2.8
-2 -2 -24 116.79 6.7
2 2 -24 127.39 7.1
-2 -2 -24 115.59 8.7
2 2 -24 131.79 6.8
-2 2 -24 126.09 6.7
-2 2 -24 119.29 8.8
-2 2 -24 122.29 7.1
2 -2 -24 124.29 6.7
-4 -2 -24 52.49 3.3
-4 -2 -24 52.39 4.4
-4 -2 -24 43.1 4.1
4 2 -24 49.4 3.2
4 2 -24 60.29 3.5
4 -2 -24 60.59 3.5
-4 2 -24 54.89 4.5
4 -2 -24 54.79 3.2
-4 2 -24 57.19 3.7
-4 2 -24 55.49 3.4
-6 -2 -24 36 3.8
6 2 -24 48.6 3.1
-6 -2 -24 46.8 3.2
6 2 -24 41.7 2.6
6 2 -24 44.9 2.6
-6 2 -24 50.49 3.3
6 -2 -24 45.3 3
-6 2 -24 39.3 3.9
6 -2 -24 45.1 2.6
6 -2 -24 44.1 2.6
8 2 -24 36.4 2.6
8 2 -24 33.8 2
-8 -2 -24 31.7 2.8
8 2 -24 31.8 2
8 -2 -24 35.9 2
8 -2 -24 26.3 2.4
-8 2 -24 37.6 2.9
8 -2 -24 31.4 2
10 2 -24 16.9 1
10 2 -24 13.8 1.6
10 2 -24 15 1.1
-10 -2 -24 9.8 2.1
-10 2 -24 16.2 2
10 -2 -24 16.3 1.1
10 -2 -24 13.8 1.1
1 3 -24 83.59 4.8
1 3 -24 81.09 4.9
-1 -3 -24 79.49 4.7
1 -3 -24 78.99 4.7
-1 3 -24 81.89 6.2
-1 3 -24 82.99 5
-1 3 -24 88.99 4.8
3 3 -24 170.18 8.7
-3 -3 -24 155.48 8.5
-3 3 -24 158.88 11.4
3 -3 -24 150.28 9.2
-3 3 -24 162.58 8.6
-3 3 -24 168.18 9.2
3 -3 -24 160.38 8.6
5 3 -24 67.99 3.7
5 3 -24 54.09 3.4
5 3 -24 57.19 3.3
-5 3 -24 52.89 4.8
-5 3 -24 61.09 3.6
5 -3 -24 56.49 3.4
-5 3 -24 62.19 4
5 -3 -24 60.29 3.7
7 3 -24 41.1 2.4
7 3 -24 41.5 2.9
7 3 -24 38.7 2.4
-7 3 -24 45.8 3.3
7 -3 -24 39.3 2.4
7 -3 -24 39.5 2.4
7 -3 -24 37.9 2.8
9 3 -24 26.3 2.2
9 3 -24 29.5 1.8
9 3 -24 29 1.8
9 -3 -24 24.8 2.2
-9 3 -24 30.4 2.7
9 -3 -24 27.4 1.8
9 -3 -24 29.7 1.8
0 4 -24 11 1.5
0 4 -24 11.2 1.5
0 -4 -24 11.3 1.4
-2 -4 -24 9.9 1.4
2 4 -24 11 1.4
2 4 -24 10.8 1.5
-2 4 -24 11.7 1.8
2 -4 -24 11.4 1.5
-2 4 -24 11.4 1.5
-2 4 -24 12.2 1.5
4 4 -24 15.7 1.7
4 4 -24 15.4 1.1
4 -4 -24 13.8 1.7
-4 4 -24 17 1.9
4 -4 -24 17.8 1.1
-4 4 -24 11.8 2
-4 4 -24 16.1 1.7
6 4 -24 6.8 1.3
6 4 -24 7.5 0.7
6 4 -24 6.5 0.8
6 -4 -24 4.9 1.2
-6 4 -24 7.2 1.6
6 -4 -24 7.5 0.8
-6 4 -24 4 1.7
6 -4 -24 7.7 0.7
8 4 -24 0 0.5
8 4 -24 -0.5 0.4
8 4 -24 0.8 1
-8 4 -24 1.2 1.6
-8 4 -24 1.1 1.4
8 -4 -24 0.3 0.4
8 -4 -24 0.5 0.4
8 -4 -24 0 0.9
10 4 -24 0.7 0.4
10 4 -24 1.9 0.4
10 -4 -24 1 0.4
10 -4 -24 1.1 0.4
10 -4 -24 0.2 0.8
-10 4 -24 2.1 1.3
1 5 -24 162.78 9.3
1 5 -24 175.88 8.9
-1 -5 -24 155.68 8.7
-1 5 -24 164.68 9.4
1 -5 -24 161.08 8.7
-1 5 -24 166.68 8.8
3 5 -24 86.29 4.7
3 -5 -24 76.09 4.7
3 -5 -24 83.09 4.7
-3 5 -24 75.39 6.2
-3 5 -24 85.29 4.7
-3 5 -24 81.59 5
5 5 -24 136.09 8.5
5 5 -24 151.18 8.2
-5 5 -24 162.48 8.7
-5 5 -24 132.19 10.6
5 -5 -24 150.48 8.5
5 -5 -24 157.78 8.1
7 5 -24 29.9 1.8
7 5 -24 30.7 2.3
7 5 -24 26.9 1.8
-7 5 -24 22.9 3
-7 5 -24 30.9 2.7
7 -5 -24 26.4 2.3
7 -5 -24 29.5 1.8
9 5 -24 26.9 1.7
9 5 -24 22.5 2
9 5 -24 27.9 1.6
9 -5 -24 19.5 2
9 -5 -24 25.3 1.6
9 -5 -24 27.8 1.6
-9 5 -24 26.5 2.5
0 -6 -24 84.69 4.7
0 6 -24 77.29 4.9
0 6 -24 81.99 4.7
2 6 -24 51.79 3.2
-2 -6 -24 44.5 3
2 6 -24 47.4 3.2
-2 6 -24 45.1 4
-2 6 -24 49 3.1
-2 6 -24 48 3.3
2 -6 -24 47.3 3.1
4 6 -24 15.1 1.1
4 6 -24 18.1 1.8
4 -6 -24 16.3 1.1
-4 6 -24 15.8 1.9
-4 6 -24 19.1 1.8
-4 6 -24 15.6 2.2
4 -6 -24 17.3 1.7
6 6 -24 25.1 1.7
6 6 -24 29.4 1.7
6 6 -24 29 2.2
6 -6 -24 24.6 2.2
-6 6 -24 24 3
-6 6 -24 31.3 2.7
6 -6 -24 29 1.7
8 6 -24 9.1 0.8
8 6 -24 9.2 0.9
8 6 -24 5.4 1.2
8 -6 -24 10.3 0.8
8 -6 -24 5.4 1.3
-8 6 -24 7.5 1.7
10 6 -24 2.3 0.4
10 6 -24 1.5 0.4
10 -6 -24 1 0.4
10 -6 -24 1.3 0.4
10 -6 -24 1 0.8
-10 6 -24 1.7 1.1
1 7 -24 95.69 5.6
-1 -7 -24 84.09 5.2
1 7 -24 100.49 5.4
-1 7 -24 101.19 5.4
-1 7 -24 97.79 5.7
1 -7 -24 86.59 5.2
3 7 -24 104.79 5.5
3 -7 -24 93.69 5.4
-3 7 -24 98.89 5.9
-3 7 -24 84.29 7.2
-3 7 -24 98.89 5.5
5 7 -24 26 1.8
5 7 -24 28.8 1.8
5 7 -24 31.2 2.3
5 -7 -24 33.4 2.4
5 -7 -24 31 1.8
-5 7 -24 22.7 2.9
-5 7 -24 32.5 2.6
7 7 -24 47.9 2.8
7 7 -24 47.3 3.1
7 7 -24 51.89 2.8
7 -7 -24 39.2 3.1
-7 7 -24 50.19 3.6
9 7 -24 5.1 0.7
9 -7 -24 3.2 0.5
9 -7 -24 5.8 0.6
-9 7 -24 3.9 1.3
9 -7 -24 3.2 0.9
0 8 -24 252.17 13.7
0 -8 -24 225.58 12.7
0 8 -24 258.77 12.9
2 8 -24 269.57 13.5
2 8 -24 261.07 14.3
2 -8 -24 244.18 13.4
-2 8 -24 237.88 17.7
-2 8 -24 264.97 14.4
-2 8 -24 264.07 13.4
4 8 -24 75.29 4.5
4 8 -24 87.39 4.8
-4 8 -24 71.29 6.2
-4 8 -24 86.49 5.1
4 -8 -24 78.49 4.7
4 -8 -24 82.39 4.7
-4 8 -24 83.59 4.7
6 8 -24 60.89 3.7
6 8 -24 62.49 3.6
6 8 -24 63.09 3.8
-6 8 -24 67.59 4.3
6 -8 -24 64.59 3.7
6 -8 -24 56.39 3.8
8 8 -24 39 2.4
8 8 -24 40.9 2.4
-8 8 -24 40.2 3.2
8 -8 -24 40 2.4
10 8 -24 15.2 1.1
10 8 -24 16.4 1
10 -8 -24 14.1 1
10 -8 -24 15.3 1
10 -8 -24 11.5 1.4
-10 8 -24 12.9 1.7
1 9 -24 22 2.1
1 9 -24 19.8 2
-1 9 -24 23 2
1 -9 -24 23.5 1.9
-1 9 -24 24.6 2.2
3 9 -24 5 1.1
3 -9 -24 5.4 1.1
-3 9 -24 5.2 1.6
-3 9 -24 5.7 1.2
-3 9 -24 5.6 1.3
5 9 -24 10.7 0.9
5 9 -24 10.5 1.1
-5 9 -24 8.2 1.7
5 -9 -24 13.3 1
7 9 -24 0.7 0.4
7 9 -24 0.3 0.4
7 -9 -24 0 0.8
7 -9 -24 -0.2 0.4
-7 9 -24 0.1 1.3
-7 9 -24 1.3 1.4
9 9 -24 2.4 0.5
-9 9 -24 3.9 1.3
9 -9 -24 0.7 0.7
0 10 -24 402.36 22.5
0 10 -24 420.16 21.2
2 10 -24 132.99 6.9
2 10 -24 129.49 7.3
-2 10 -24 130.89 7.4
-2 10 -24 127.59 6.9
2 -10 -24 114.59 6.8
-2 10 -24 114.39 9
4 10 -24 173.78 9
4 10 -24 161.48 9.3
-4 10 -24 181.68 9.8
4 -10 -24 175.58 9.7
4 -10 -24 163.88 9
-4 10 -24 150.38 11.9
6 10 -24 26.2 1.6
6 10 -24 22.7 1.5
-6 10 -24 21.4 2.7
6 -10 -24 24.9 1.6
-6 10 -24 25 2.4
6 -10 -24 21.8 2
8 10 -24 40.7 2.5
8 10 -24 41.5 2.5
8 -10 -24 42.7 2.5
-8 10 -24 39.4 3.1
1 11 -24 89.39 5.1
1 11 -24 86.69 5.3
-1 11 -24 88.99 5.1
-1 11 -24 87.09 5.4
3 11 -24 77.49 4.5
3 11 -24 70.79 4.3
-3 11 -24 68.09 5.9
3 -11 -24 77.29 4.5
-3 11 -24 76.69 4.5
-3 11 -24 79.89 4.9
3 -11 -24 80.09 4.5
5 11 -24 22.8 1.5
5 11 -24 21.5 2
-5 11 -24 19.3 2.6
5 -11 -24 23.6 1.5
-5 11 -24 24.1 2.3
5 -11 -24 21.8 2
7 11 -24 25.8 1.6
7 11 -24 22.9 1.5
7 -11 -24 25.3 1.5
-7 11 -24 22.3 2.3
7 -11 -24 18.5 1.9
9 11 -24 7.7 0.8
9 11 -24 8.1 0.7
9 -11 -24 7.6 0.7
-9 11 -24 4.3 1.3
0 12 -24 27.6 2.3
0 12 -24 28.3 2.2
2 12 -24 109.39 6.1
-2 12 -24 107.99 6.1
-2 12 -24 109.69 6.6
4 12 -24 19 1.3
4 12 -24 16.3 1.7
4 -12 -24 17.8 1.7
-4 12 -24 14.9 2.3
4 -12 -24 17.6 1.2
-4 12 -24 18.7 2
6 12 -24 29.2 1.9
6 12 -24 35.4 2
-6 12 -24 34.8 2.8
6 -12 -24 28 2.3
-6 12 -24 23.2 3.3
6 -12 -24 33 1.9
8 12 -24 14.6 1.1
8 12 -24 12.7 1
8 -12 -24 14.6 1
-8 12 -24 11.7 1.7
1 13 -24 117.39 6.9
1 13 -24 113.39 6.5
-1 13 -24 119.89 6.6
-1 13 -24 120.19 7
3 13 -24 76.89 4.6
3 13 -24 81.29 4.7
-3 13 -24 74.09 6.3
3 -13 -24 84.39 4.8
-3 13 -24 90.59 5.2
5 13 -24 86.09 4.9
5 -13 -24 87.39 5
5 -13 -24 81.79 4.9
-5 13 -24 88.39 5.4
7 13 -24 49.6 3.2
7 13 -24 54.59 3.1
-7 13 -24 55.29 3.7
7 -13 -24 56.29 3.2
9 13 -24 14.1 1
9 13 -24 14.4 1
9 -13 -24 13.6 1
0 14 -24 12.9 1.6
0 14 -24 11.8 1.6
2 14 -24 2.7 0.5
2 14 -24 2.4 1
-2 14 -24 3.9 1.3
4 14 -24 10.8 0.9
4 -14 -24 11.2 0.9
-4 14 -24 8.2 1.6
-4 14 -24 6.2 1.8
6 14 -24 6.1 0.8
6 14 -24 5.2 0.6
-6 14 -24 3.2 1.3
6 -14 -24 6.5 0.7
8 14 -24 0.9 0.4
8 14 -24 1.1 0.3
8 -14 -24 1.8 0.4
8 -14 -24 -0.2 0.7
-8 14 -24 0.7 1.1
1 15 -24 81.79 4.9
1 15 -24 85.69 5.2
-1 15 -24 89.59 5.3
-1 15 -24 84.39 4.9
3 15 -24 54.79 3.3
-3 15 -24 61.89 3.9
3 -15 -24 58.89 3.4
5 15 -24 75.39 4.1
-5 15 -24 74.09 4.6
5 -15 -24 74.39 4.2
5 -15 -24 59.79 4.1
7 15 -24 26.9 1.7
7 15 -24 29.3 1.8
-7 15 -24 26.8 2.3
7 -15 -24 28.4 1.7
0 16 -24 21.5 1.9
0 16 -24 20.7 2
2 16 -24 49.4 3.2
-2 16 -24 57.59 3.7
2 -16 -24 57.39 3.3
4 16 -24 32.4 2
4 -16 -24 31.8 2
-4 16 -24 29.9 2.6
6 16 -24 18.1 1.3
6 16 -24 22.5 1.4
6 -16 -24 21.2 1.3
6 -16 -24 14.9 1.8
-6 16 -24 20.6 2
-1 17 -24 21.6 2
3 17 -24 26.3 1.7
-3 17 -24 23.8 2.3
3 -17 -24 25.8 1.6
5 17 -24 13.7 1.1
5 -17 -24 13 1
-5 17 -24 12.8 1.7
7 17 -24 8.3 0.7
7 17 -24 9.7 0.8
2 18 -24 45 2.8
2 -18 -24 48.7 2.9
-2 18 -24 50.89 3.3
4 18 -24 86.39 4.9
4 -18 -24 82.19 5
-4 18 -24 89.79 5.3
6 18 -24 26.4 1.5
6 18 -24 21.6 1.5
6 -18 -24 23.6 1.6
-6 18 -24 24.9 2.1
1 19 -24 4.9 0.7
-1 19 -24 6.3 1.2
3 19 -24 3.7 0.6
-3 19 -24 4.3 1.2
3 -19 -24 5.6 0.6
5 19 -24 6.3 0.8
5 -19 -24 7.4 0.7
-5 19 -24 5.4 1.3
0 -20 -24 34.2 2.1
2 20 -24 51.39 3
-2 20 -24 51.19 3.4
2 -20 -24 52.29 3.1
4 20 -24 19.3 1.3
-4 20 -24 19.9 1.8
4 -20 -24 19 1.3
1 21 -24 23.8 1.7
1 -21 -24 28.7 1.7
3 21 -24 30.9 1.8
-3 21 -24 24.9 2.3
0 -22 -24 8.8 0.7
2 22 -24 7.6 0.8
0 0 -25 4.3 1.1
0 0 -25 4.3 1.1
-2 0 -25 -0.4 0.9
-2 0 -25 -0.5 0.8
-2 0 -25 0.8 1.1
2 0 -25 0.3 0.8
4 0 -25 0.2 1
-4 0 -25 0.9 0.8
-4 0 -25 0.9 1
-4 0 -25 1.5 1.3
4 0 -25 0.7 0.3
6 0 -25 1.8 0.5
6 0 -25 1.4 0.4
-6 0 -25 0.9 1.3
-6 0 -25 1.8 1.3
6 0 -25 1.4 1.1
8 0 -25 0.1 1
-8 0 -25 1.7 1.3
8 0 -25 1.4 0.5
10 0 -25 2.2 0.9
-1 -1 -25 7.4 1.2
1 1 -25 8.2 1.3
1 1 -25 9 1.3
1 -1 -25 8.5 1.3
-1 1 -25 9.3 1.3
-1 1 -25 10.1 1.5
-3 -1 -25 0.6 1.1
-3 -1 -25 0.1 0.9
-3 -1 -25 0.9 1
3 1 -25 0.9 0.9
-3 1 -25 0.5 0.8
-3 1 -25 1.2 1.2
3 -1 -25 1.2 1
-3 1 -25 1.5 1.1
3 -1 -25 1.1 0.3
-5 -1 -25 -0.8 0.8
-5 -1 -25 -0.1 1.1
-5 -1 -25 0.3 1.2
5 1 -25 -0.1 1
5 1 -25 -0.1 0.4
5 1 -25 -0.3 0.3
5 -1 -25 -0.5 0.3
5 -1 -25 -0.3 1
-5 1 -25 0.4 1.2
-5 1 -25 -0.7 1.1
-5 1 -25 -0.5 0.8
-7 -1 -25 -0.5 1.2
-7 -1 -25 0.5 1.3
7 1 -25 0.2 1.1
7 1 -25 0.3 0.4
7 1 -25 -0.7 0.4
-7 1 -25 -0.9 1.2
7 -1 -25 0.5 0.4
7 -1 -25 -1.7 0.9
7 -1 -25 -0.3 0.4
-7 1 -25 0.2 1.3
-9 -1 -25 -0.6 1.2
9 1 -25 -0.5 0.4
9 1 -25 0.8 0.4
9 1 -25 -0.3 0.9
9 -1 -25 0.2 0.4
-9 1 -25 0.1 1.2
9 -1 -25 0.2 0.9
9 -1 -25 0.1 0.4
0 2 -25 1.4 1
0 -2 -25 1.9 0.9
0 2 -25 1.4 0.9
2 2 -25 5.3 1.2
-2 -2 -25 3.9 1.1
-2 -2 -25 4.2 1.4
2 -2 -25 3.1 1.1
-2 2 -25 3.8 1.1
-2 2 -25 3.9 1.4
-2 2 -25 5.4 1.2
4 2 -25 0.5 0.9
4 2 -25 0.6 0.3
-4 -2 -25 2 1.3
-4 -2 -25 -0.2 0.8
4 -2 -25 1.3 1.1
-4 2 -25 0.9 1.2
-4 2 -25 1.2 0.9
4 -2 -25 1.3 0.3
-4 2 -25 2 1.1
6 2 -25 1.2 0.4
6 2 -25 2.4 0.4
6 2 -25 0 1.1
6 -2 -25 1.3 0.4
6 -2 -25 2.1 0.5
6 -2 -25 1.7 1.1
-6 2 -25 2.2 1.3
-6 2 -25 1.3 1.3
8 2 -25 0.5 0.5
8 2 -25 1.4 0.4
8 2 -25 -0.2 1
8 -2 -25 1.1 1
8 -2 -25 1.7 0.5
-8 2 -25 1 1.3
8 -2 -25 1.4 0.5
10 2 -25 0.6 0.4
10 2 -25 1 0.3
10 2 -25 0.4 0.8
-10 2 -25 0.6 1.5
10 -2 -25 1.2 0.8
10 -2 -25 0.7 0.4
10 -2 -25 0.5 0.4
1 3 -25 17.8 1.7
-1 -3 -25 15.7 1.6
1 3 -25 16.8 1.8
1 -3 -25 17.1 1.7
-1 3 -25 18.2 1.8
-1 3 -25 19.3 1.8
3 3 -25 8.5 1.4
-3 -3 -25 8.2 1.3
-3 3 -25 10.4 1.6
-3 3 -25 6 1.6
-3 3 -25 7.3 1.3
3 -3 -25 6.3 0.7
3 -3 -25 5.3 1.2
5 3 -25 0.1 0.3
5 3 -25 0.9 0.4
5 3 -25 0.5 1
-5 3 -25 0.3 1.2
5 -3 -25 0.7 1
-5 3 -25 0.9 1.3
5 -3 -25 0.3 0.4
7 3 -25 0.9 1.1
7 3 -25 1 0.5
7 3 -25 1.5 0.4
-7 3 -25 1.5 1.3
7 -3 -25 1 1
7 -3 -25 1.3 0.4
7 -3 -25 0.9 0.4
-7 3 -25 1 1.4
9 3 -25 0.8 0.4
9 3 -25 0.9 0.9
9 -3 -25 0.8 0.9
9 -3 -25 1.6 0.5
-9 3 -25 0.2 1.2
9 -3 -25 1.8 0.4
0 -4 -25 1.2 0.9
0 4 -25 1.4 1
0 4 -25 2.5 1
2 4 -25 3.2 1.1
-2 -4 -25 3.7 1
2 4 -25 3.9 1.1
-2 4 -25 2.8 1.4
2 -4 -25 2.7 1
-2 4 -25 4.1 1.2
-2 4 -25 3.7 1.1
4 4 -25 1.2 1
4 -4 -25 0.5 1
4 -4 -25 0.5 0.3
-4 4 -25 0.8 0.9
-4 4 -25 1.1 1.3
-4 4 -25 0.5 1.1
6 4 -25 1 1
6 4 -25 -0.1 0.4
6 4 -25 0.7 0.4
-6 4 -25 0.6 1.2
6 -4 -25 1.4 1.1
6 -4 -25 0.6 0.4
6 -4 -25 0.4 0.4
-6 4 -25 0.5 1.3
8 4 -25 -0.7 0.4
8 4 -25 -0.4 0.4
8 4 -25 -0.9 0.9
8 -4 -25 -0.3 0.9
-8 4 -25 -1.1 1.2
8 -4 -25 -0.6 0.4
10 4 -25 0.1 0.3
10 4 -25 0.1 0.4
10 -4 -25 0.6 0.8
10 -4 -25 0 0.4
10 -4 -25 -0.3 0.4
-10 4 -25 -0.6 1.5
1 5 -25 6.8 1.3
1 5 -25 6.4 1.3
-1 -5 -25 6.2 1.1
-1 5 -25 7.8 1.4
-1 5 -25 7.5 1.3
1 -5 -25 8.4 1.3
3 5 -25 15.5 1.7
-3 5 -25 16.2 1.8
-3 5 -25 19.5 1.9
-3 5 -25 16.7 2.2
3 -5 -25 17.2 1.8
3 -5 -25 16.3 1.1
5 5 -25 10 0.9
5 5 -25 12.2 1.6
5 5 -25 12.6 0.9
-5 5 -25 9.9 2.1
5 -5 -25 12.7 0.9
5 -5 -25 8 1.5
-5 5 -25 14.9 1.9
7 5 -25 1.4 1
7 5 -25 0.9 0.4
7 5 -25 1.4 0.5
-7 5 -25 1.3 1.3
7 -5 -25 0.8 0.4
7 -5 -25 2 0.4
7 -5 -25 1 1
-7 5 -25 0.7 1.4
9 5 -25 5.9 0.8
9 5 -25 3.3 1.1
9 5 -25 8.3 0.7
9 -5 -25 7.4 0.7
9 -5 -25 6.8 0.7
-9 5 -25 4.5 1.4
9 -5 -25 4.8 1.1
0 6 -25 1.6 1
0 6 -25 1.4 1.1
0 -6 -25 0.9 0.9
2 6 -25 2.6 1.1
2 6 -25 3.7 1.2
-2 6 -25 3.3 1.4
2 -6 -25 4.4 1.2
-2 6 -25 3.4 1.1
-2 6 -25 4.3 1.2
4 6 -25 4.8 1.2
4 6 -25 4.9 0.7
-4 6 -25 6.2 1.5
-4 6 -25 3.3 1.5
-4 6 -25 5.2 1.2
4 -6 -25 4.8 1.2
4 -6 -25 4.3 0.5
6 6 -25 5.2 0.7
6 6 -25 4.1 1.1
6 6 -25 3.7 0.5
6 -6 -25 3.4 0.5
-6 6 -25 5.2 1.5
-6 6 -25 2.6 1.5
6 -6 -25 3.1 1.1
8 6 -25 0.8 0.9
8 6 -25 0.7 0.4
8 6 -25 0.6 0.4
8 -6 -25 0.6 0.9
8 -6 -25 0.5 0.4
8 -6 -25 0.6 0.4
-8 6 -25 0.7 1.3
10 6 -25 0.1 0.3
10 6 -25 -0.1 0.3
10 -6 -25 0.1 0.4
10 -6 -25 -0.4 0.4
10 -6 -25 1 0.8
1 7 -25 2 1.1
-1 -7 -25 1.4 0.9
1 7 -25 3.2 1.1
-1 7 -25 2.9 1.2
-1 7 -25 1.9 1
1 -7 -25 1.5 0.9
3 7 -25 1.1 1
3 -7 -25 1.2 0.4
-3 7 -25 2 1
-3 7 -25 2.1 1.3
-3 7 -25 1.9 1.2
3 -7 -25 1.8 1
5 7 -25 2.2 1.1
5 7 -25 1.4 0.4
5 7 -25 2.4 0.5
-5 7 -25 2.6 1.3
5 -7 -25 0.5 1
5 -7 -25 1.8 0.4
-5 7 -25 1.6 1.4
7 7 -25 2.5 0.4
7 7 -25 1.8 0.5
7 7 -25 1.2 1
-7 7 -25 1.4 1.3
7 -7 -25 2 0.5
7 -7 -25 1 0.5
7 -7 -25 0.8 1
9 7 -25 0 0.4
9 7 -25 0 0.4
-9 7 -25 0.7 1.1
9 -7 -25 0 0.4
9 -7 -25 0.6 0.8
9 -7 -25 -0.3 0.4
0 8 -25 5.5 1.3
0 -8 -25 5.1 1.1
0 8 -25 5.2 1.3
2 8 -25 2.3 1.1
2 8 -25 2.9 1.1
-2 8 -25 4.4 1.2
-2 8 -25 3.4 1.1
-2 8 -25 1.5 1.3
2 -8 -25 2.9 1.1
4 8 -25 1.9 1
4 8 -25 1.4 0.4
-4 8 -25 0.7 1
4 -8 -25 1 1.1
-4 8 -25 2.4 1.3
-4 8 -25 1.1 1.3
4 -8 -25 1.7 0.4
6 8 -25 0.6 0.9
6 8 -25 1.6 0.5
6 -8 -25 1.5 1.1
-6 8 -25 1.4 1.4
-6 8 -25 0.6 1.2
6 -8 -25 1.5 0.4
8 8 -25 1.6 0.5
8 8 -25 1.3 0.4
8 -8 -25 0.9 0.4
8 -8 -25 1.8 0.4
8 -8 -25 -0.1 0.9
-8 8 -25 1.9 1.2
1 9 -25 2.3 1.1
1 9 -25 2.5 1.2
-1 9 -25 2.9 1.1
1 -9 -25 1.7 0.9
-1 9 -25 3.2 1.2
3 9 -25 1.3 1
3 -9 -25 -0.2 0.4
-3 9 -25 0.6 1.1
3 -9 -25 -1.4 1
-3 9 -25 0.2 1
-3 9 -25 0.1 1.2
5 9 -25 0.1 0.4
5 9 -25 -0.6 0.9
-5 9 -25 0 1.3
-5 9 -25 -0.2 1.2
5 -9 -25 -0.1 0.9
5 -9 -25 -0.6 0.4
7 9 -25 0 0.4
7 9 -25 1.1 0.4
7 -9 -25 0.5 1
-7 9 -25 -0.2 1.2
7 -9 -25 0 0.4
9 9 -25 0 0.3
9 9 -25 0 0.4
9 -9 -25 0.4 0.8
9 -9 -25 -0.7 0.3
9 -9 -25 -0.2 0.4
-9 9 -25 0.1 1.1
0 10 -25 2.9 1.2
0 10 -25 2.8 1.1
2 10 -25 7.8 1.4
-2 10 -25 10.8 1.7
-2 10 -25 12.8 1.6
2 -10 -25 7.9 1.4
4 10 -25 2.1 0.5
4 10 -25 2 1
-4 10 -25 2.3 1.2
-4 10 -25 3.1 1.5
4 -10 -25 1.4 1
4 -10 -25 2.8 0.4
6 10 -25 1.8 1.3
6 10 -25 1.2 0.4
6 10 -25 1.7 0.5
6 -10 -25 1.6 0.4
-6 10 -25 1.9 1.3
6 -10 -25 0.9 1
-6 10 -25 1.6 1.5
8 10 -25 0.9 0.4
8 10 -25 1.3 0.4
8 -10 -25 1.1 0.4
-8 10 -25 1.3 1.2
8 -10 -25 0.6 0.9
1 11 -25 2.3 1.1
1 11 -25 2.5 1.2
-1 11 -25 1.5 1.1
-1 11 -25 3 1.3
3 11 -25 1.5 1
3 11 -25 1.3 0.4
3 -11 -25 1.1 1
3 -11 -25 1.9 0.4
-3 11 -25 2.9 1.1
-3 11 -25 2.1 1.4
-3 11 -25 3 1.3
5 11 -25 1.3 0.4
5 11 -25 1.1 1
5 -11 -25 1.2 0.4
5 -11 -25 0.6 1
-5 11 -25 2.6 1.5
-5 11 -25 1.8 1.2
7 11 -25 0.2 0.4
7 11 -25 0.5 0.4
7 -11 -25 -0.4 0.4
-7 11 -25 1.1 1.3
7 -11 -25 0.2 0.9
9 11 -25 0 0.3
9 11 -25 0.2 0.3
9 -11 -25 -0.1 0.3
9 -11 -25 -0.3 0.3
9 -11 -25 0.2 0.7
0 12 -25 1.2 1.1
0 12 -25 1.1 1
2 12 -25 2.5 1
-2 12 -25 3.7 1.2
-2 12 -25 5.5 1.4
4 12 -25 1.4 1
4 12 -25 1.2 0.4
4 -12 -25 1.2 0.4
-4 12 -25 1.2 1.1
-4 12 -25 2.1 1.4
4 -12 -25 0.3 1
6 12 -25 0 0.3
6 12 -25 0.8 0.4
6 -12 -25 -0.8 0.8
-6 12 -25 -0.3 1.2
6 -12 -25 -0.2 0.4
8 12 -25 1 0.4
8 12 -25 1.1 0.3
8 -12 -25 0.1 0.8
-8 12 -25 0.5 1.1
8 -12 -25 0.6 0.4
1 13 -25 0.9 0.9
1 13 -25 0.8 1
-1 13 -25 0.8 1
-1 13 -25 1.6 1.1
3 13 -25 4.7 0.6
3 13 -25 4.5 1.1
-3 13 -25 5.4 1.3
3 -13 -25 5 0.7
5 13 -25 1.1 0.4
5 -13 -25 0 0.9
5 -13 -25 0.8 0.4
-5 13 -25 1.2 1.2
7 13 -25 1.5 0.4
7 13 -25 1.6 0.4
-7 13 -25 1 1.1
7 -13 -25 1.9 0.4
7 -13 -25 1.7 0.9
0 14 -25 0.8 1
0 14 -25 0.3 0.9
2 14 -25 1.5 0.9
2 -14 -25 1.3 0.4
-2 14 -25 2.1 1.2
4 14 -25 -0.2 0.4
-4 14 -25 1.1 1.2
6 14 -25 -0.7 0.3
6 14 -25 0 0.4
-6 14 -25 -0.4 1.1
6 -14 -25 0 0.8
6 -14 -25 -0.8 0.4
8 14 -25 -0.5 0.3
8 -14 -25 -0.5 0.7
1 15 -25 19 1.8
-1 15 -25 17.4 1.9
3 15 -25 2.3 0.5
-3 15 -25 2.5 1.2
3 -15 -25 2.1 0.4
5 15 -25 1.7 0.4
5 -15 -25 1.4 0.4
-5 15 -25 0.9 1.1
7 15 -25 -0.1 0.4
7 15 -25 0.1 0.3
7 -15 -25 0 0.3
7 -15 -25 0.2 0.8
-7 15 -25 -0.6 1
0 16 -25 0 1
2 16 -25 5.1 0.8
-2 16 -25 5 1.4
2 -16 -25 4.3 0.7
4 16 -25 0.2 0.4
-4 16 -25 0 1
4 -16 -25 0.2 0.4
6 16 -25 -0.6 0.3
6 -16 -25 -0.7 0.3
-6 16 -25 -0.6 1
-1 17 -25 -0.1 1
1 -17 -25 -0.2 0.4
3 17 -25 1.1 0.4
3 -17 -25 0.9 0.4
-3 17 -25 1.8 1.1
5 17 -25 0 0.4
5 -17 -25 -0.7 0.3
-5 17 -25 0.9 1.1
2 18 -25 2.2 0.4
-2 18 -25 0.7 1
2 -18 -25 1.3 0.4
4 18 -25 1.9 0.5
4 -18 -25 1.5 0.4
-4 18 -25 1.6 1.1
6 18 -25 0.5 0.4
6 18 -25 1.1 0.3
6 -18 -25 2.1 0.6
1 -19 -25 -0.1 0.3
3 19 -25 0 0.4
3 -19 -25 -0.5 0.3
-3 19 -25 -0.9 0.9
5 19 -25 0.1 0.4
5 -19 -25 -0.4 0.3
0 -20 -25 0.4 0.3
2 20 -25 2.5 0.5
2 -20 -25 1.9 0.4
-2 20 -25 1.4 1
4 20 -25 0.6 0.4
4 -20 -25 0.1 0.3
-1 -21 -25 0 0.3
1 -21 -25 0.1 0.3
3 21 -25 1.7 0.4
0 -22 -25 -0.1 0.3
0 0 -26 6.3 1.2
2 0 -26 143.49 7.5
-2 0 -26 138.19 7.5
-2 0 -26 131.79 7.9
4 0 -26 53.59 3.3
4 0 -26 62.99 3.6
-4 0 -26 57.39 3.7
-4 0 -26 51.69 4.6
-4 0 -26 58.19 3.5
6 0 -26 78.79 4.5
6 0 -26 74.39 4.4
-6 0 -26 76.99 4.8
6 0 -26 73.09 4.3
-8 0 -26 40.1 3.1
8 0 -26 40.9 2.4
8 0 -26 42 2.4
8 0 -26 39.5 2.8
1 1 -26 12.7 1.5
-1 -1 -26 10.6 1.5
1 1 -26 12.4 1.6
1 -1 -26 12.2 1.5
-1 1 -26 11.1 1.5
-1 1 -26 11.4 1.5
3 1 -26 13.6 1.6
-3 -1 -26 11.1 1.9
3 1 -26 13.5 1
-3 -1 -26 12.2 1.5
-3 1 -26 10.4 1.9
-3 1 -26 13.2 1.6
3 -1 -26 14.3 0.9
-3 1 -26 13.1 1.6
3 -1 -26 17.1 1.7
-5 -1 -26 10.2 2.1
5 1 -26 11.9 0.9
5 1 -26 9.1 1.5
-5 -1 -26 11.4 1.8
-5 1 -26 10.7 2.1
-5 1 -26 13.4 1.7
5 -1 -26 12.2 1.6
5 -1 -26 12.5 0.9
7 1 -26 10.8 0.8
-7 -1 -26 9.4 1.7
7 1 -26 6.7 1.4
7 1 -26 8.8 0.9
-7 1 -26 7.2 1.6
7 -1 -26 9.7 0.8
7 -1 -26 7.5 1.4
7 -1 -26 9.4 0.9
9 1 -26 6.3 0.7
9 1 -26 4.3 1.1
9 1 -26 8 0.7
-9 1 -26 3.9 1.4
9 -1 -26 7.5 0.7
9 -1 -26 6.5 0.7
9 -1 -26 4 1.1
0 2 -26 99.69 5.8
0 2 -26 99.79 5.6
0 -2 -26 94.99 5.5
-2 -2 -26 31.2 2.4
2 2 -26 31.8 2.4
-2 2 -26 31.4 2.4
-2 2 -26 33.2 2.4
2 -2 -26 34.1 2.4
-2 2 -26 32.2 3.1
4 2 -26 34.1 2.3
4 2 -26 43.1 2.8
-4 -2 -26 39.5 2.6
4 -2 -26 38.7 2.4
-4 2 -26 41.5 3
4 -2 -26 43.2 2.8
-4 2 -26 42.7 2.7
-4 2 -26 39.2 3.6
6 2 -26 33.2 2.1
6 2 -26 36.2 2.6
6 2 -26 34.7 2.1
6 -2 -26 32.7 2.1
-6 2 -26 40.6 2.9
6 -2 -26 35.2 2.1
-6 2 -26 27.2 3.3
6 -2 -26 38.8 2.7
8 2 -26 28.9 2.3
8 2 -26 32 1.9
8 2 -26 32.7 1.9
8 -2 -26 28.8 1.9
8 -2 -26 31 2.4
8 -2 -26 32.6 1.9
-8 2 -26 28.4 2.6
-1 -3 -26 129.09 7
1 3 -26 127.49 7.4
1 3 -26 131.09 7.1
1 -3 -26 129.49 7.1
-1 3 -26 126.39 7.5
-1 3 -26 129.99 7.1
-3 -3 -26 23.2 2.1
3 3 -26 29.3 2.3
3 -3 -26 26.8 1.7
-3 3 -26 27 2.8
-3 3 -26 28.6 2.3
-3 3 -26 29.1 2.2
3 -3 -26 30 2.3
5 3 -26 56.89 3.4
5 3 -26 49.6 3
5 3 -26 48.5 3
5 -3 -26 53.99 3.4
-5 3 -26 43.6 4.3
-5 3 -26 55.49 3.6
5 -3 -26 50.89 3
7 3 -26 45.4 3
7 3 -26 42.5 2.5
7 3 -26 43.1 2.6
7 -3 -26 44.5 3
7 -3 -26 42 2.6
-7 3 -26 44 3.2
7 -3 -26 42.7 2.5
9 3 -26 27.4 1.7
9 3 -26 23.9 2
9 3 -26 29.6 1.7
-9 3 -26 25.8 2.3
9 -3 -26 28.7 1.7
9 -3 -26 25.9 1.7
9 -3 -26 24.5 2.1
0 4 -26 11.3 1.5
0 4 -26 12.2 1.6
2 4 -26 12.9 1.6
-2 -4 -26 8.2 1.3
-2 4 -26 9.6 1.4
-2 4 -26 8.5 1.9
-2 4 -26 10.5 1.5
2 -4 -26 8.8 1.4
4 4 -26 8.4 1.4
-4 4 -26 10.6 1.4
-4 4 -26 10.8 1.7
4 -4 -26 9.8 0.8
-4 4 -26 8.3 1.9
4 -4 -26 10.5 1.6
6 4 -26 5.7 0.7
6 4 -26 6.1 0.6
6 4 -26 4.8 1.1
6 -4 -26 6.1 0.7
-6 4 -26 5.2 1.5
-6 4 -26 2.1 1.5
6 -4 -26 3.6 1.2
8 4 -26 1.7 0.9
8 4 -26 2.1 0.5
-8 4 -26 1.7 1.3
8 -4 -26 1.6 1
8 -4 -26 3.1 0.5
8 -4 -26 1.9 0.5
1 5 -26 142.59 7.4
1 5 -26 133.09 7.7
-1 -5 -26 124.99 7.2
1 -5 -26 127.79 7.3
-1 5 -26 138.39 7.4
-1 5 -26 135.99 7.8
3 5 -26 156.68 7.9
-3 5 -26 147.59 7.9
-3 5 -26 151.98 8.4
3 -5 -26 139.49 8.3
-3 5 -26 131.19 10.4
3 -5 -26 143.29 7.9
5 5 -26 64.39 3.8
5 5 -26 72.29 4.1
5 5 -26 62.79 3.9
5 -5 -26 66.99 3.9
-5 5 -26 73.99 4.4
-5 5 -26 57.29 5.4
5 -5 -26 70.99 4.1
7 5 -26 48.7 3.1
7 5 -26 49 2.9
7 5 -26 49 2.8
7 -5 -26 46.4 2.8
-7 5 -26 52.19 3.6
7 -5 -26 45.7 3.2
7 -5 -26 49.7 2.9
9 5 -26 22.8 1.4
9 5 -26 21.7 1.4
9 -5 -26 22.7 1.4
-9 5 -26 20.2 2.1
9 -5 -26 16.1 1.8
9 -5 -26 20.4 1.4
0 6 -26 45.7 3
0 -6 -26 43.4 2.9
0 6 -26 43.5 3.1
2 6 -26 59.49 3.8
-2 6 -26 61.49 3.8
-2 6 -26 58.89 3.9
2 -6 -26 60.29 3.7
4 6 -26 43.2 2.9
4 -6 -26 44.1 2.5
-4 6 -26 33.4 3.7
-4 6 -26 42 2.9
-4 6 -26 42.7 3.1
4 -6 -26 45.5 3
6 6 -26 16.3 1.7
6 6 -26 14.9 1.1
6 6 -26 15.6 1
-6 6 -26 16.1 2
-6 6 -26 9.3 2.2
6 -6 -26 14.3 1.8
6 -6 -26 15.1 1.1
8 6 -26 11.6 1.5
8 6 -26 12.1 1
8 6 -26 12 0.9
8 -6 -26 11.2 1.5
8 -6 -26 11.6 0.9
8 -6 -26 10.9 0.9
-8 6 -26 8.7 1.7
1 7 -26 90.39 5.4
-1 -7 -26 80.09 5
1 7 -26 94.79 5.2
1 -7 -26 86.29 5.1
-1 7 -26 91.99 5.5
-1 7 -26 95.19 5.2
3 7 -26 101.19 5.5
3 -7 -26 93.59 5.6
-3 7 -26 103.69 5.5
3 -7 -26 96.59 5.5
-3 7 -26 82.09 7.2
-3 7 -26 99.69 5.9
5 7 -26 54.99 3.4
5 7 -26 49.2 3
5 7 -26 51.59 3
-5 7 -26 55.79 3.7
5 -7 -26 51.19 3.4
-5 7 -26 41.8 4.4
5 -7 -26 55.19 3.1
7 7 -26 13.5 1.1
7 7 -26 13.9 1
7 7 -26 12.9 1.6
7 -7 -26 14.7 1
-7 7 -26 14.2 1.9
7 -7 -26 12.7 1.7
9 7 -26 6 0.6
9 7 -26 6.6 0.7
9 -7 -26 2.6 1
9 -7 -26 6.3 0.6
9 -7 -26 5.4 0.7
-9 7 -26 5.1 1.3
0 8 -26 257.07 12.8
0 8 -26 242.08 13.5
0 -8 -26 226.48 12.6
2 8 -26 214.98 11.2
-2 8 -26 212.38 11.2
2 -8 -26 200.88 11.1
-2 8 -26 214.28 11.9
4 8 -26 84.79 5.3
4 8 -26 98.99 5.4
4 -8 -26 98.79 5.4
-4 8 -26 103.99 5.9
4 -8 -26 96.39 5.4
-4 8 -26 80.59 7.1
6 8 -26 50.39 3
6 8 -26 52.59 3.3
6 8 -26 47.4 3
6 -8 -26 50.19 3.3
6 -8 -26 53.59 3
-6 8 -26 54.09 3.7
8 8 -26 14.3 1.1
8 8 -26 14.9 1
8 -8 -26 14.2 1
-8 8 -26 12.1 1.8
8 -8 -26 14.6 1
8 -8 -26 12 1.6
1 9 -26 29.5 2.5
1 9 -26 30.3 2.4
-1 9 -26 30.9 2.4
1 -9 -26 30.6 2.3
-1 9 -26 33.4 2.6
3 9 -26 6.1 1.3
-3 9 -26 5.9 1.4
-3 9 -26 4.4 1.7
3 -9 -26 5.8 1.2
-3 9 -26 7.1 1.3
5 9 -26 2.8 1
5 9 -26 4.9 0.7
-5 9 -26 3.9 1.4
5 -9 -26 6.3 0.7
-5 9 -26 2.8 1.6
5 -9 -26 3.4 1.1
7 9 -26 1.3 0.4
7 9 -26 1.6 0.4
-7 9 -26 1 1.2
7 -9 -26 0.7 1
7 -9 -26 2 0.4
9 -9 -26 1 0.3
0 10 -26 377.56 20.9
0 10 -26 383.56 19.7
2 10 -26 128.29 7
-2 10 -26 126.89 7.4
2 -10 -26 119.49 6.9
-2 10 -26 129.99 7
4 10 -26 85.29 4.7
4 10 -26 75.99 4.5
4 -10 -26 81.79 4.7
-4 10 -26 64.69 6.1
-4 10 -26 85.39 5.1
4 -10 -26 83.79 4.7
6 10 -26 29.2 1.9
6 10 -26 31.2 1.9
-6 10 -26 32.2 2.7
6 -10 -26 32.8 1.9
6 -10 -26 31.2 2.4
8 10 -26 29.3 1.8
8 10 -26 28 1.7
8 -10 -26 23.9 2.1
8 -10 -26 32.7 1.8
-8 10 -26 26.4 2.4
1 11 -26 63.49 4.1
1 11 -26 63.59 4
-1 11 -26 65.79 4
-1 11 -26 64.59 4.2
3 11 -26 35.3 2.7
3 -11 -26 35.6 2.6
3 -11 -26 37.9 2.3
-3 11 -26 37.3 2.9
5 11 -26 20 1.9
5 11 -26 22.1 1.5
5 -11 -26 25.4 1.5
-5 11 -26 25.3 2.3
5 -11 -26 23 2
7 11 -26 13.8 1
7 11 -26 15.8 1.1
7 -11 -26 15.6 1
7 -11 -26 13.2 1.6
-7 11 -26 14.7 1.9
0 12 -26 20.2 1.9
0 12 -26 20.5 1.9
2 12 -26 48.7 3.3
-2 12 -26 50.69 3.5
-2 12 -26 50.39 3.3
2 -12 -26 51.99 3
4 12 -26 36.6 2.6
4 12 -26 36.3 2.2
-4 12 -26 39.7 2.9
-4 12 -26 28.8 3.5
4 -12 -26 35.9 2.6
4 -12 -26 40.2 2.3
6 12 -26 27.3 1.6
6 12 -26 22.6 1.6
6 -12 -26 28.2 1.6
6 -12 -26 22.7 2.1
-6 12 -26 25.7 2.3
8 12 -26 13.4 0.9
8 12 -26 13.2 1
8 -12 -26 14.8 0.9
8 -12 -26 10.2 1.4
1 13 -26 38.9 2.7
-1 13 -26 38.2 2.9
-1 13 -26 38.4 2.7
3 13 -26 120.69 6.9
3 -13 -26 124.59 7.2
-3 13 -26 130.99 7.4
5 13 -26 72.49 4.1
5 -13 -26 66.29 4.2
5 -13 -26 76.19 4.3
-5 13 -26 74.99 4.7
7 13 -26 49.99 3
7 13 -26 51.49 2.9
7 -13 -26 54.59 3
7 -13 -26 44.4 3.1
0 14 -26 1.4 0.9
0 14 -26 1.5 1
-2 14 -26 5.7 1.4
2 -14 -26 7.8 0.8
4 14 -26 7.4 0.8
-4 14 -26 5.5 1.4
6 14 -26 6.6 0.8
6 14 -26 7.4 0.7
-6 14 -26 4 1.3
6 -14 -26 8.1 0.7
1 15 -26 52.99 3.4
-1 15 -26 57.69 3.7
3 15 -26 59.69 3.7
3 -15 -26 65.19 3.8
-3 15 -26 68.59 4.2
5 15 -26 59.89 3.5
-5 15 -26 64.39 4.1
5 -15 -26 62.39 3.6
-2 16 -26 24.8 2.1
2 -16 -26 22.3 1.5
4 16 -26 36.6 2.3
-4 16 -26 40.8 2.9
4 -16 -26 39.4 2.3
6 16 -26 15.8 1.1
6 16 -26 14.7 1.1
6 -16 -26 17.4 1.1
-6 16 -26 10.1 1.9
-1 17 -26 18.4 1.8
1 -17 -26 20.6 1.3
3 17 -26 13.2 1
-3 17 -26 11.3 1.6
3 -17 -26 12.6 1
5 17 -26 13.9 1
5 -17 -26 13.7 1
-5 17 -26 12.8 1.7
2 -18 -26 38.5 2.3
-2 18 -26 39.7 2.8
4 18 -26 36.2 2.2
-4 18 -26 36 2.7
4 -18 -26 37.2 2.2
1 -19 -26 4.3 0.6
3 19 -26 3 0.5
3 -19 -26 4.6 0.5
-3 19 -26 3.7 1.1
0 -20 -26 17.5 1.2
2 -20 -26 20.3 1.3
0 0 -27 0.2 0.9
-2 0 -27 0.3 0.9
2 0 -27 0.5 0.9
-4 0 -27 0.3 1
4 0 -27 0.1 0.9
4 0 -27 -0.1 0.3
-4 0 -27 0.6 1.2
-4 0 -27 -0.3 0.8
6 0 -27 0.9 0.3
-6 0 -27 0.2 1.1
6 0 -27 0.6 1
8 0 -27 1.6 0.9
8 0 -27 1.6 0.4
-8 0 -27 0.7 1.2
8 0 -27 0.9 0.4
-1 -1 -27 8.3 1.3
1 1 -27 8.4 1.4
1 1 -27 7.2 2
1 -1 -27 9 1.4
-1 1 -27 10 1.5
-1 1 -27 7.4 1.3
3 1 -27 0.7 0.9
-3 -1 -27 0.8 0.9
3 1 -27 0.2 0.3
-3 1 -27 0.6 0.9
3 -1 -27 -0.4 0.9
3 -1 -27 0.1 0.3
-3 1 -27 -0.4 0.9
-3 1 -27 0.6 1.2
5 1 -27 0 0.3
5 1 -27 0.8 1
-5 1 -27 0.6 1.1
5 -1 -27 0.3 0.9
5 -1 -27 0.2 0.3
-5 1 -27 0.4 1.3
7 1 -27 0.9 0.4
7 1 -27 0.5 1
7 1 -27 0.5 0.4
-7 1 -27 0.3 1.2
7 -1 -27 -0.3 1
7 -1 -27 0.3 0.4
7 -1 -27 0.2 0.4
9 1 -27 -0.1 0.4
9 1 -27 -0.7 0.8
9 1 -27 0.2 0.4
9 -1 -27 0 0.4
9 -1 -27 0 0.3
9 -1 -27 -0.7 0.8
0 -2 -27 0.1 0.9
0 2 -27 0.2 0.9
0 2 -27 0.7 0.9
2 2 -27 8.6 1.4
-2 -2 -27 8.6 1.4
-2 2 -27 10.1 1.5
2 -2 -27 9.3 0.8
2 -2 -27 8.8 1.4
-2 2 -27 10.2 1.5
-4 -2 -27 1.1 0.9
4 2 -27 0.4 0.9
4 2 -27 0.7 0.3
-4 2 -27 1.2 1.1
4 -2 -27 0.6 1
-4 2 -27 1.3 0.9
-4 2 -27 1.1 1.3
4 -2 -27 1.1 0.4
6 2 -27 -0.3 0.9
6 2 -27 0.3 0.4
6 2 -27 0.3 0.3
-6 2 -27 0.2 1.1
6 -2 -27 0.4 0.4
6 -2 -27 -0.9 1
8 2 -27 1 0.4
8 2 -27 0.2 0.4
8 2 -27 -0.5 0.8
-8 2 -27 0.2 1.2
8 -2 -27 0.3 0.4
8 -2 -27 0.4 0.4
8 -2 -27 -0.3 0.9
1 3 -27 2.9 1.1
1 3 -27 1.5 1
-1 -3 -27 2.6 1
-1 3 -27 4 1.2
-1 3 -27 3 1.1
1 -3 -27 2.4 1.1
3 3 -27 2.1 1.1
-3 -3 -27 1.1 0.9
-3 3 -27 1.5 1.3
3 -3 -27 2 0.3
-3 3 -27 1.7 1.1
-3 3 -27 1 1
3 -3 -27 0.6 0.9
5 3 -27 3.1 0.4
5 3 -27 2.6 1.1
5 -3 -27 1.5 1.1
-5 3 -27 3.6 1.6
5 -3 -27 3.8 0.4
-5 3 -27 3.9 1.3
7 3 -27 0.8 0.4
7 3 -27 -0.3 0.9
7 3 -27 0.9 0.4
7 -3 -27 0.5 1
7 -3 -27 0.2 0.4
-7 3 -27 -0.6 1.1
7 -3 -27 0.4 0.4
9 3 -27 -0.4 0.8
9 3 -27 0.6 0.4
9 3 -27 1.3 0.3
9 -3 -27 0.3 0.4
9 -3 -27 0.8 0.4
9 -3 -27 0.5 0.8
0 4 -27 -1 0.9
0 4 -27 -0.2 0.9
0 -4 -27 -0.4 0.8
2 4 -27 -0.2 0.9
-2 -4 -27 -0.1 0.9
-2 4 -27 0.5 1
-2 4 -27 0 0.9
2 -4 -27 0.6 0.9
4 4 -27 4.5 1.2
-4 4 -27 3.6 1.1
4 -4 -27 4.1 0.5
-4 4 -27 4.6 1.3
4 -4 -27 2.2 1.2
-4 4 -27 4.9 1.6
6 4 -27 0.3 0.4
6 4 -27 0.5 0.4
6 4 -27 -1.6 0.9
6 -4 -27 0 1
-6 4 -27 0 1.2
6 -4 -27 -0.3 0.3
8 4 -27 -1 0.8
8 4 -27 0.1 0.4
8 4 -27 -0.4 0.4
8 -4 -27 0.4 1
8 -4 -27 -0.1 0.4
8 -4 -27 -0.7 0.4
-8 4 -27 -0.6 1.1
1 5 -27 3 1.1
1 5 -27 3.7 1.1
-1 -5 -27 2.1 0.9
1 -5 -27 2 1.1
-1 5 -27 2.9 1.2
-1 5 -27 2.8 1.1
3 5 -27 1.8 1
-3 5 -27 1.6 1.3
3 -5 -27 1.6 0.4
-3 5 -27 1.8 1
3 -5 -27 0.2 0.9
-3 5 -27 2 1.1
5 5 -27 0.8 0.4
5 5 -27 1.4 1
-5 5 -27 0 1.3
5 -5 -27 0.9 0.4
-5 5 -27 0.4 1.2
5 -5 -27 0.7 1.1
7 5 -27 1.5 0.4
7 5 -27 0.7 0.4
7 5 -27 1 0.9
7 -5 -27 1.3 0.4
7 -5 -27 0.5 1
-7 5 -27 1.1 1.2
9 5 -27 0.3 0.4
9 5 -27 1.4 0.3
9 -5 -27 0.6 0.8
9 -5 -27 0.7 0.4
9 -5 -27 1.5 0.4
0 6 -27 1.3 1
0 6 -27 1 1
0 -6 -27 0.1 0.9
2 6 -27 1 1
-2 6 -27 1.6 1
-2 6 -27 2.4 1.1
2 -6 -27 0.3 0.9
4 6 -27 0 0.9
4 -6 -27 0 0.4
-4 6 -27 0.5 1.3
4 -6 -27 -0.2 1
-4 6 -27 0.3 1
-4 6 -27 0.8 1.1
6 6 -27 1 0.4
6 6 -27 1.6 0.4
6 6 -27 1.2 1
-6 6 -27 1.9 1.3
6 -6 -27 1 1
6 -6 -27 0.9 0.4
8 6 -27 0.4 0.4
8 6 -27 0.3 0.3
8 6 -27 -0.5 0.8
8 -6 -27 0.4 0.9
-8 6 -27 0.1 1.1
8 -6 -27 -0.1 0.4
8 -6 -27 -0.2 0.4
1 7 -27 3.4 1.2
1 7 -27 2.9 1.1
-1 7 -27 3.9 1.2
-1 7 -27 2.5 1.2
1 -7 -27 3.5 1.1
3 7 -27 5.4 1.3
-3 7 -27 7.7 1.3
3 -7 -27 5.4 0.7
3 -7 -27 7.7 1.3
-3 7 -27 6.5 1.8
-3 7 -27 7.9 1.5
5 7 -27 1.2 0.4
5 7 -27 1.5 1
5 7 -27 1.3 0.4
-5 7 -27 1.9 1.5
5 -7 -27 0.6 1
-5 7 -27 1.5 1.2
5 -7 -27 1.3 0.4
7 7 -27 2.3 1
7 7 -27 4.6 0.7
7 7 -27 3.7 0.6
7 -7 -27 1.7 1
7 -7 -27 4.1 0.5
-7 7 -27 3.7 1.3
0 -8 -27 2.6 1
0 8 -27 3.6 1.1
0 8 -27 2.2 1.2
2 8 -27 13 1.7
-2 8 -27 15.2 1.8
-2 8 -27 13.3 1.7
2 -8 -27 12.6 1.6
4 8 -27 0 0.9
-4 8 -27 0.6 1.3
4 -8 -27 2 1
4 -8 -27 0.6 0.4
-4 8 -27 1.4 1.1
6 8 -27 5 0.7
6 8 -27 4.2 0.6
6 8 -27 4 1.1
-6 8 -27 3.8 1.4
6 -8 -27 4.8 0.6
6 -8 -27 2.6 1.1
8 8 -27 0.7 0.4
8 8 -27 1.1 0.3
-8 8 -27 0.8 1.1
8 -8 -27 0.2 0.9
8 -8 -27 0.3 0.4
1 9 -27 4.5 1.3
1 9 -27 3.8 1.2
-1 9 -27 4.9 1.3
1 -9 -27 3.8 1.1
-1 9 -27 4.8 1.4
3 9 -27 -0.5 0.9
-3 9 -27 -0.3 1.1
3 -9 -27 0 0.9
-3 9 -27 -0.4 0.9
3 -9 -27 -0.2 0.3
5 9 -27 1 0.4
5 9 -27 0.9 0.9
-5 9 -27 0.7 1.2
5 -9 -27 0.7 0.4
5 -9 -27 1.1 1.1
7 9 -27 -0.6 0.3
7 9 -27 0.5 0.4
7 -9 -27 -0.8 0.4
-7 9 -27 -1 1.1
7 -9 -27 -0.8 0.9
0 10 -27 1.6 1
0 10 -27 1.2 1.1
2 10 -27 2.9 1.1
-2 10 -27 1.2 1.1
-2 10 -27 2.7 1.2
2 -10 -27 2 1
2 -10 -27 1.5 0.4
4 10 -27 6.5 1.2
-4 10 -27 6.3 1.5
4 -10 -27 6.1 1.3
-4 10 -27 5.5 2.5
4 -10 -27 6.7 0.7
6 10 -27 1.4 0.4
6 10 -27 0.9 0.3
-6 10 -27 1.5 1.1
6 -10 -27 1.5 0.4
6 -10 -27 0.6 1
8 10 -27 0.7 0.3
8 10 -27 0.4 0.3
8 -10 -27 0.6 0.4
8 -10 -27 0.2 0.8
1 11 -27 5.4 1.2
1 11 -27 4.2 1.2
-1 11 -27 3.7 1.2
-1 11 -27 3.5 1.2
3 11 -27 1.9 1
3 -11 -27 0.6 0.9
-3 11 -27 2.3 1.2
3 -11 -27 1.8 0.4
5 11 -27 1 0.9
5 11 -27 1.1 0.4
5 -11 -27 1.3 0.4
5 -11 -27 1.1 1
-5 11 -27 0.7 1.1
7 11 -27 0 0.3
7 11 -27 0.4 0.4
7 -11 -27 0.3 0.4
7 -11 -27 0.6 0.9
-7 11 -27 0.3 1
0 12 -27 0.7 1
0 12 -27 0.2 0.9
2 12 -27 4.7 1.2
2 -12 -27 4.3 0.7
-2 12 -27 4.1 1.2
-2 12 -27 4.5 1.3
4 12 -27 0.9 0.4
4 -12 -27 0.6 0.4
-4 12 -27 0.8 1.1
4 -12 -27 0.7 1
6 12 -27 -0.2 0.3
6 12 -27 0.1 0.3
-6 12 -27 0.4 1
6 -12 -27 -0.3 0.3
6 -12 -27 0.1 0.9
1 13 -27 3.4 1
-1 13 -27 1.6 1
-1 13 -27 0.7 1.1
3 13 -27 3.8 1
-3 13 -27 2.2 1.2
3 -13 -27 2.9 0.4
5 13 -27 0.2 0.4
5 -13 -27 0.7 0.4
-5 13 -27 -0.1 1.1
5 -13 -27 0.5 0.9
7 13 -27 0.6 0.3
7 13 -27 0.6 0.4
7 -13 -27 -0.2 0.9
7 -13 -27 0.6 0.3
0 14 -27 0.1 0.9
0 14 -27 0 1
2 14 -27 0.2 0.8
2 -14 -27 -0.5 0.3
-2 14 -27 -1.5 1
4 14 -27 -0.1 0.4
-4 14 -27 0.4 1.1
4 -14 -27 -0.5 0.4
6 14 -27 0.4 0.4
6 14 -27 -0.2 0.4
6 -14 -27 -0.5 0.4
6 -14 -27 1.1 0.9
-6 14 -27 0.4 1.1
1 15 -27 1.1 0.9
1 -15 -27 0.2 0.4
-1 15 -27 0.8 1
3 -15 -27 0.2 0.4
-3 15 -27 1 1.1
5 15 -27 0.7 0.4
-5 15 -27 1.6 1.1
5 -15 -27 0.5 0.4
-2 16 -27 -0.4 0.9
2 -16 -27 0 0.3
4 16 -27 -0.1 0.3
4 -16 -27 -0.2 0.3
-4 16 -27 -0.4 1
1 -17 -27 0.1 0.3
3 -17 -27 0 0.3
-3 17 -27 0.6 0.9
0 -18 -27 0.2 0.3
2 -18 -27 2.8 0.4
-2 18 -27 2.3 1
1 -19 -27 0.2 0.3
0 0 -28 103.19 5.8
-2 0 -28 36.7 2.7
2 0 -28 40.9 2.8
4 0 -28 22.3 2
-4 0 -28 19.6 2.9
-4 0 -28 23.3 1.9
4 0 -28 20.3 1.3
6 0 -28 42.3 2.6
6 0 -28 46.5 3
8 0 -28 30.2 2.3
8 0 -28 32.8 1.9
8 0 -28 29.9 1.9
-1 -1 -28 16.5 1.7
1 1 -28 14.5 1.7
1 -1 -28 14.8 1.7
-1 1 -28 15.5 1.7
-1 1 -28 9.3 2
3 1 -28 5.2 1.2
-3 -1 -28 2.6 1
3 1 -28 3.9 0.4
3 -1 -28 4.2 0.6
-3 1 -28 4.4 1.1
3 -1 -28 4.5 1.2
-3 1 -28 4.3 1.2
5 1 -28 7.2 0.7
5 1 -28 5.8 1.2
5 -1 -28 6.9 1.3
-5 1 -28 5.3 1.3
5 -1 -28 6.6 0.7
7 1 -28 9.3 0.7
7 1 -28 7.2 0.8
7 1 -28 4.5 1.1
-7 1 -28 5.5 1.4
7 -1 -28 5.9 1.2
7 -1 -28 8.9 0.7
0 2 -28 54.39 3.5
0 2 -28 54.79 3.5
0 -2 -28 54.89 3.4
2 2 -28 36.8 2.6
-2 -2 -28 33.9 2.5
2 -2 -28 34.7 2.1
-2 2 -28 36.6 2.7
-2 2 -28 37.1 2.6
2 -2 -28 35.2 2.6
4 2 -28 41 2.7
-4 -2 -28 37.2 2.5
4 2 -28 34.6 2.2
-4 2 -28 40 2.6
-4 2 -28 31.7 3.4
4 -2 -28 37.5 2.3
-4 2 -28 38.8 2.8
4 -2 -28 42.5 2.7
6 2 -28 35.1 2.2
6 2 -28 35.3 2.6
-6 2 -28 35.7 2.8
6 -2 -28 37.5 2.6
6 -2 -28 35.9 2.2
8 2 -28 18 1.7
8 2 -28 19.4 1.2
8 2 -28 18.2 1.2
8 -2 -28 19.3 1.2
8 -2 -28 16.7 1.2
8 -2 -28 17.8 1.7
-8 2 -28 13.7 2.1
-1 -3 -28 53.29 3.4
1 3 -28 55.59 3.5
-1 3 -28 52.69 3.6
1 -3 -28 56.09 3.5
-1 3 -28 55.69 3.5
3 3 -28 58.39 3.6
-3 -3 -28 54.59 3.4
3 -3 -28 54.29 3.3
3 -3 -28 56.19 3.6
-3 3 -28 58.79 3.6
-3 3 -28 59.59 3.8
5 3 -28 40.2 2.5
5 3 -28 45.7 2.9
5 -3 -28 42.2 2.5
-5 3 -28 41.4 3.1
5 -3 -28 43.9 2.9
7 3 -28 33.9 2.4
7 3 -28 34.7 2
7 3 -28 32.2 2
7 -3 -28 37.4 2.5
-7 3 -28 31.3 2.6
7 -3 -28 33.4 2
0 -4 -28 2.7 1
0 4 -28 4.5 1.2
0 4 -28 5.3 1.2
2 4 -28 16.1 1.8
-2 -4 -28 14.9 1.7
2 -4 -28 15.8 1.8
-2 4 -28 17.4 1.8
2 -4 -28 18.6 1.2
-2 4 -28 16.1 1.8
4 4 -28 7.5 1.4
4 4 -28 9.7 1
4 -4 -28 7.3 1.3
-4 4 -28 8.8 1.6
-4 4 -28 8.1 1.3
4 -4 -28 11.8 0.8
6 4 -28 5.3 1.2
6 4 -28 7.5 0.7
-6 4 -28 5.6 1.4
6 -4 -28 6 1.3
6 -4 -28 7.7 0.7
8 4 -28 2.2 0.4
8 4 -28 1.8 0.9
-8 4 -28 1.9 1.3
8 -4 -28 3.1 1
1 5 -28 121.99 6.5
-1 -5 -28 107.89 6.4
1 5 -28 113.89 6.8
1 -5 -28 116.49 6.4
-1 5 -28 119.29 6.5
-1 5 -28 117.99 6.8
3 5 -28 144.99 7.8
3 -5 -28 135.59 8.2
-3 5 -28 142.09 7.7
-3 5 -28 146.89 8.3
3 -5 -28 143.49 7.7
5 5 -28 28.3 1.9
5 5 -28 34.3 2.5
-5 5 -28 34.4 2.6
5 -5 -28 30.8 1.9
5 -5 -28 34.7 2.5
7 5 -28 49.2 2.9
7 5 -28 49.4 3.1
7 5 -28 48.8 2.8
-7 5 -28 47.6 3.4
7 -5 -28 50.19 2.9
7 -5 -28 48.5 3.2
0 6 -28 53.49 3.5
0 6 -28 54.49 3.5
0 -6 -28 50.99 3.3
2 6 -28 48.3 3.2
2 -6 -28 46.4 2.8
2 -6 -28 46.3 3.1
-2 6 -28 47.7 3.3
-2 6 -28 46 3.1
4 6 -28 17.1 1.8
4 -6 -28 18.9 1.2
-4 6 -28 17.8 1.9
4 -6 -28 19.8 1.8
-4 6 -28 13.6 2.3
6 6 -28 8 1.3
6 6 -28 9.4 0.8
6 6 -28 10.3 0.8
6 -6 -28 10.4 0.8
6 -6 -28 9 1.4
-6 6 -28 9.8 1.6
8 6 -28 12.1 0.8
8 6 -28 11.2 0.9
8 -6 -28 12 0.9
1 7 -28 95.09 5.4
1 7 -28 93.59 5.6
-1 7 -28 95.09 5.7
-1 7 -28 93.79 5.4
1 -7 -28 93.69 5.3
3 7 -28 47 3
-3 7 -28 45.1 3.2
3 -7 -28 40.3 2.9
-3 7 -28 45.6 3
3 -7 -28 42 2.6
5 7 -28 32.6 2.4
5 7 -28 29.9 1.9
5 -7 -28 33.2 2
5 -7 -28 34.7 2.5
-5 7 -28 32 2.7
7 7 -28 9.7 0.8
7 7 -28 10.2 0.8
7 -7 -28 10.7 0.8
-7 7 -28 9.5 1.6
7 -7 -28 6.4 1.2
0 8 -28 223.08 12.8
0 8 -28 233.28 12.1
2 8 -28 70.19 4.3
-2 8 -28 73.99 4.3
2 -8 -28 71.29 4.3
-2 8 -28 72.99 4.6
2 -8 -28 72.49 4.2
4 8 -28 80.39 4.6
4 -8 -28 76.59 4.6
4 -8 -28 76.69 4.5
-4 8 -28 78.59 4.9
6 8 -28 36.4 2.2
6 8 -28 36.9 2.6
6 8 -28 37.5 2.3
6 -8 -28 40.4 2.7
6 -8 -28 39.3 2.3
-6 8 -28 37.6 2.9
1 9 -28 9.6 1.5
-1 9 -28 13.4 1.7
-1 9 -28 14.8 1.7
1 -9 -28 12.8 1.6
3 9 -28 4.4 1.2
3 -9 -28 4.7 1.1
-3 9 -28 6 1.4
-3 9 -28 5.3 1.2
5 9 -28 5.9 1.2
-5 9 -28 5.8 1.4
5 -9 -28 6.2 1.3
7 9 -28 1.6 0.4
7 9 -28 1.8 0.4
7 -9 -28 1.9 0.4
7 -9 -28 1.4 0.9
-7 9 -28 2.2 1.1
0 10 -28 96.59 5.5
0 10 -28 96.89 5.8
2 10 -28 103.19 5.7
-2 10 -28 102.49 6.1
-2 10 -28 102.49 5.7
2 -10 -28 102.29 5.8
2 -10 -28 92.59 5.6
4 10 -28 82.19 4.8
4 -10 -28 82.99 4.8
4 -10 -28 78.99 4.7
-4 10 -28 86.09 5.2
6 10 -28 44 2.7
6 10 -28 45 2.7
6 -10 -28 49.8 2.7
6 -10 -28 44.3 3
-6 10 -28 46.9 3.3
1 11 -28 29 2.4
-1 11 -28 33 2.4
-1 11 -28 31 2.5
3 11 -28 41.8 3
3 -11 -28 46.3 2.7
-3 11 -28 45 3.2
3 -11 -28 42.8 2.9
5 11 -28 18.5 1.8
5 11 -28 17.2 1.3
5 -11 -28 21.4 1.9
-5 11 -28 19.2 2
5 -11 -28 21.1 1.3
7 11 -28 9.7 0.8
7 11 -28 10.8 0.9
7 -11 -28 10.7 1.4
7 -11 -28 12.8 0.8
0 12 -28 23 2
0 12 -28 23.8 2
2 12 -28 41.9 2.9
-2 12 -28 44.5 3.2
2 -12 -28 45.8 2.7
4 12 -28 30.7 2.4
4 -12 -28 36.9 2.1
-4 12 -28 34.7 2.7
4 -12 -28 32.3 2.4
6 12 -28 11.9 0.9
6 12 -28 8.9 0.8
6 -12 -28 7.9 1.3
-6 12 -28 11.6 1.6
6 -12 -28 13.4 0.9
1 13 -28 63.29 4
-1 13 -28 67.49 4
-1 13 -28 68.09 4.2
3 13 -28 80.79 4.8
-3 13 -28 86.19 5.2
3 -13 -28 86.59 4.9
5 13 -28 36.9 2.3
5 -13 -28 34.6 2.5
5 -13 -28 40.7 2.3
-5 13 -28 41.6 2.9
0 14 -28 3 1
2 14 -28 2.6 1
-2 14 -28 4.6 1.2
4 -14 -28 7.3 0.7
-4 14 -28 4 1.2
1 15 -28 37.5 2.7
1 -15 -28 41.5 2.4
-1 15 -28 41.1 2.8
3 -15 -28 42 2.5
-3 15 -28 43.1 3
5 15 -28 44.2 2.7
5 -15 -28 48.1 2.7
2 -16 -28 14.5 1
-2 16 -28 14.9 1.6
4 -16 -28 35.4 2.1
1 -17 -28 7 0.7
3 -17 -28 11.3 0.9
0 -18 -28 18.2 1.2
2 -18 -28 30.4 1.9
0 0 -29 0.7 0.9
-2 0 -29 -0.2 0.8
2 0 -29 1 0.9
4 0 -29 0.3 0.3
4 0 -29 0.5 0.9
-4 0 -29 0.3 0.9
6 0 -29 0.8 0.3
6 0 -29 0.3 0.9
8 0 -29 0.7 0.8
8 0 -29 1.2 0.3
-1 -1 -29 4.3 1.1
1 1 -29 5.3 1.2
-1 1 -29 6.2 1.2
1 -1 -29 5.5 1.2
3 1 -29 1.1 0.4
3 1 -29 2.3 1
-3 -1 -29 2.1 0.9
-3 1 -29 1.4 0.9
3 -1 -29 1.6 1.1
3 -1 -29 2.3 0.4
5 1 -29 0.2 0.3
5 1 -29 -0.4 0.9
5 -1 -29 -0.2 0.3
5 -1 -29 0.9 1
7 1 -29 -0.9 0.8
7 1 -29 -0.2 0.3
7 -1 -29 -0.5 0.3
7 -1 -29 -0.8 0.8
0 2 -29 1.5 1.2
0 2 -29 0.5 0.9
0 -2 -29 2 1
-2 -2 -29 0.1 0.9
2 2 -29 1.6 1
2 -2 -29 0 1
-2 2 -29 0.4 0.9
-2 2 -29 1.2 1
4 2 -29 1.7 1
4 2 -29 1.1 0.3
4 -2 -29 1.8 0.4
-4 2 -29 1.3 0.9
-4 2 -29 1.9 1.1
4 -2 -29 0.8 1
6 2 -29 1.5 0.4
6 2 -29 1.2 1
-6 2 -29 0.2 1.1
6 -2 -29 0.4 0.9
8 2 -29 0.7 0.8
8 2 -29 0.5 0.3
8 2 -29 0.4 0.3
8 -2 -29 -0.3 0.8
8 -2 -29 0.5 0.3
1 3 -29 4.6 1.2
-1 -3 -29 3.2 1.1
-1 3 -29 4.2 1.2
-1 3 -29 3.6 1.1
1 -3 -29 2.6 1
3 3 -29 2.4 1
-3 -3 -29 2.8 1
-3 3 -29 3.3 1.1
3 -3 -29 4.2 1.1
3 -3 -29 3.7 0.4
-3 3 -29 4.2 1.2
5 3 -29 0.2 0.3
5 3 -29 0.3 0.9
5 -3 -29 0.3 0.3
5 -3 -29 0.3 0.9
-5 3 -29 -0.4 1
7 3 -29 1 0.9
7 3 -29 1 0.3
7 -3 -29 0.6 0.9
7 -3 -29 1.1 0.4
-7 3 -29 -1 1
0 -4 -29 0.3 0.9
0 4 -29 -0.3 0.9
0 4 -29 -0.7 0.9
-2 -4 -29 0.8 0.9
2 4 -29 1.2 1
2 -4 -29 1.9 1
-2 4 -29 2.1 1.2
-2 4 -29 1.4 0.9
2 -4 -29 1.4 0.3
4 4 -29 0.8 0.9
4 -4 -29 1.3 0.4
4 -4 -29 1 0.9
-4 4 -29 0.9 1.1
6 4 -29 0.5 0.3
6 4 -29 0.8 1
-6 4 -29 0.3 1
6 -4 -29 0.7 0.4
6 -4 -29 -0.1 0.9
-1 -5 -29 2.8 1.1
1 5 -29 4 1.1
-1 5 -29 3.9 1.2
1 -5 -29 4 1.1
-1 5 -29 3.7 1.1
3 5 -29 4.6 1.1
3 -5 -29 4.4 1.2
3 -5 -29 3.9 0.6
-3 5 -29 5.5 1.3
-3 5 -29 4.6 1.1
5 5 -29 0.3 0.3
5 5 -29 1.1 0.9
5 -5 -29 1 0.9
5 -5 -29 0.2 0.3
-5 5 -29 0.7 1.1
7 5 -29 1.6 0.9
7 5 -29 2.1 0.4
7 5 -29 1.5 0.4
7 -5 -29 2.1 0.4
7 -5 -29 1 0.9
-7 5 -29 1.2 1.1
0 6 -29 1 1
0 -6 -29 2.1 1
0 6 -29 0.9 1
2 6 -29 6.3 1.3
2 -6 -29 5.3 0.7
-2 6 -29 5.9 1.2
-2 6 -29 6.4 1.4
2 -6 -29 7.4 1.3
4 6 -29 0.6 0.9
4 -6 -29 0.2 0.3
4 -6 -29 -0.1 0.9
-4 6 -29 0.1 1
6 6 -29 -0.4 0.8
6 6 -29 -0.2 0.3
6 -6 -29 -0.8 0.3
-6 6 -29 -0.4 1.1
6 -6 -29 0.4 0.9
1 7 -29 9.4 1.4
-1 7 -29 11.5 1.6
-1 7 -29 10.9 1.5
1 -7 -29 8.3 1.3
3 7 -29 1.8 1
-3 7 -29 1.3 1.1
3 -7 -29 0.9 0.9
3 -7 -29 0.7 0.4
-3 7 -29 0.8 1
5 7 -29 3.5 1.1
5 7 -29 2.8 0.4
5 -7 -29 1.2 1
5 -7 -29 2.6 0.4
-5 7 -29 2.8 1.2
7 7 -29 -0.6 0.8
7 7 -29 -0.3 0.3
7 7 -29 -0.1 0.3
7 -7 -29 0.4 0.8
7 -7 -29 -0.5 0.3
0 8 -29 1.2 1
0 8 -29 1.1 1
2 8 -29 2.8 1.1
-2 8 -29 4 1.3
-2 8 -29 3.8 1.1
2 -8 -29 4.4 1.1
2 -8 -29 4.5 0.6
4 8 -29 5 1.2
-4 8 -29 3.6 1.3
4 -8 -29 4 0.6
4 -8 -29 1.7 1
6 8 -29 -0.1 0.3
6 8 -29 0.2 0.9
-6 8 -29 0.2 1
6 -8 -29 0.2 0.8
6 -8 -29 -0.1 0.4
1 9 -29 2.1 1
-1 9 -29 1.2 1
-1 9 -29 0.8 1.1
3 9 -29 0 0.9
3 -9 -29 0.3 0.4
-3 9 -29 0.3 1.1
3 -9 -29 0 0.9
5 9 -29 -0.3 0.8
5 -9 -29 0 0.3
-5 9 -29 0.1 1
5 -9 -29 0 0.9
0 10 -29 0.2 0.9
0 10 -29 -0.1 1
2 10 -29 7.7 1.3
-2 10 -29 6.5 1.4
2 -10 -29 5.8 0.7
2 -10 -29 4.9 1.5
-2 10 -29 5.3 1.2
4 10 -29 0.5 0.9
-4 10 -29 1.2 1.1
4 -10 -29 0.8 0.4
4 -10 -29 0.3 0.9
6 10 -29 3.3 0.7
6 10 -29 4.8 0.5
-6 10 -29 3.5 1.2
6 -10 -29 2.7 0.9
1 11 -29 5.6 1.2
-1 11 -29 3.8 1.1
-1 11 -29 4.5 1.3
3 11 -29 0 0.8
3 -11 -29 0 0.3
3 -11 -29 -0.1 1.1
-3 11 -29 0.9 1.1
5 11 -29 0.8 0.9
5 -11 -29 0.6 0.3
-5 11 -29 0.4 1
5 -11 -29 1 0.9
0 12 -29 0.5 0.9
2 12 -29 0.7 0.9
2 -12 -29 0.7 0.3
-2 12 -29 0.9 1
4 12 -29 0.6 0.8
4 -12 -29 0.9 0.4
-4 12 -29 1.4 1.1
4 -12 -29 -0.4 1.3
1 13 -29 1.1 0.9
1 -13 -29 0.8 0.4
-1 13 -29 1.1 1
3 13 -29 3.2 0.9
-3 13 -29 2.6 1.1
3 -13 -29 3.3 0.4
5 -13 -29 0.5 0.3
-5 13 -29 -0.3 1.5
2 14 -29 0.3 0.8
2 -14 -29 0.2 0.3
-2 14 -29 -0.1 0.9
-4 14 -29 0.2 1
4 -14 -29 -0.4 0.3
1 -15 -29 -0.3 0.3
-3 15 -29 2.1 1
3 -15 -29 1.3 0.3
0 -16 -29 -0.2 0.3
2 -16 -29 0.2 0.3
-2 16 -29 -0.3 1
0 0 -30 239.08 12.6
2 0 -30 21.3 1.9
-2 0 -30 21.5 1.9
4 0 -30 74.99 4.2
4 0 -30 66.99 4.1
6 0 -30 40.9 2.8
6 0 -30 42.3 2.5
1 1 -30 20.3 1.9
-1 -1 -30 18.7 1.8
-1 1 -30 13.9 1.8
1 -1 -30 17.9 1.8
3 1 -30 6.9 1.3
-3 -1 -30 9.2 1.3
3 1 -30 8.6 0.7
-3 1 -30 8.2 1.3
3 -1 -30 7.3 1.3
3 -1 -30 9.2 0.7
5 1 -30 13.2 0.9
5 1 -30 12.2 1.6
5 -1 -30 12.1 0.9
5 -1 -30 12.7 1.6
7 1 -30 6 1.1
7 1 -30 8.1 0.6
7 -1 -30 7.7 0.6
7 -1 -30 5 1.1
0 -2 -30 27.9 2.3
0 2 -30 31.6 2.3
-2 -2 -30 67.69 4
2 2 -30 71.19 4.1
2 -2 -30 67.99 4.1
-2 2 -30 66.99 4.1
2 -2 -30 67.79 4
4 2 -30 20.9 1.9
4 2 -30 18.3 1.2
4 -2 -30 19.4 1.2
4 -2 -30 22 1.9
-4 2 -30 14.4 2.3
6 2 -30 31.3 2.3
6 2 -30 29.9 1.9
6 -2 -30 31.4 1.9
6 -2 -30 31.8 2.3
1 3 -30 51.39 3.3
-1 -3 -30 50.39 3.2
-1 3 -30 49.3 3.2
1 -3 -30 50.79 3.2
-1 3 -30 51.49 3.3
1 -3 -30 48.6 3
3 3 -30 79.09 4.5
-3 3 -30 76.09 4.5
3 -3 -30 76.89 4.5
-3 3 -30 77.49 4.7
3 -3 -30 73.79 4.4
5 3 -30 13.8 1.6
5 3 -30 13.7 1
-5 3 -30 13.4 1.7
5 -3 -30 14.5 1.6
5 -3 -30 13.9 1
7 3 -30 37.2 2.1
7 3 -30 32.2 2.4
7 -3 -30 33.1 2.4
7 -3 -30 37.4 2.1
0 4 -30 13.6 1.7
0 4 -30 12.2 1.5
0 -4 -30 11.7 1.6
2 4 -30 10.1 1.5
-2 -4 -30 8.4 1.3
-2 4 -30 10.9 1.6
-2 4 -30 11.4 1.5
2 -4 -30 13.1 0.9
2 -4 -30 13.3 1.6
4 4 -30 5.8 1.2
-4 4 -30 6.3 1.4
4 -4 -30 8.7 0.7
4 -4 -30 4.8 1.2
6 4 -30 1.5 0.9
6 4 -30 3.9 0.5
-6 4 -30 2.4 1.1
6 -4 -30 3 0.4
6 -4 -30 1.2 0.9
-1 -5 -30 101.29 6
1 5 -30 114.39 6.1
-1 5 -30 111.79 6.1
1 -5 -30 107.69 6.3
-1 5 -30 108.59 6.4
1 -5 -30 106.59 6
3 5 -30 50.19 3.2
3 -5 -30 50.79 3.2
3 -5 -30 47.9 2.9
-3 5 -30 50.09 3.2
-3 5 -30 49.6 3.4
5 5 -30 38.9 2.6
5 5 -30 35.7 2.2
5 -5 -30 38.4 2.6
-5 5 -30 35.5 2.7
5 -5 -30 37.5 2.2
0 6 -30 54.29 3.5
0 6 -30 55.79 3.4
0 -6 -30 49.8 3.3
2 6 -30 16.1 1.8
2 -6 -30 19.5 1.2
-2 6 -30 16.7 1.8
-2 6 -30 18.4 1.8
2 -6 -30 18.8 1.8
4 6 -30 12.7 1.6
4 -6 -30 13.5 1.6
-4 6 -30 13 1.7
4 -6 -30 13.7 1
6 6 -30 9.5 0.7
6 6 -30 6.6 1.1
-6 6 -30 5.8 1.3
6 -6 -30 6.3 1.2
6 -6 -30 9.7 0.7
1 7 -30 62.99 3.9
1 -7 -30 56.49 3.7
-1 7 -30 64.19 4
-1 7 -30 62.99 3.8
1 -7 -30 64.59 3.7
3 7 -30 40 2.7
-3 7 -30 41.6 2.9
3 -7 -30 39.8 2.4
3 -7 -30 35.7 2.7
-3 7 -30 38.3 2.7
5 7 -30 21 1.9
5 -7 -30 24.7 1.5
-5 7 -30 22.2 2.1
5 -7 -30 22.8 1.9
0 8 -30 87.49 5.2
0 8 -30 84.49 5
2 8 -30 63.49 3.9
-2 8 -30 65.99 3.9
2 -8 -30 58.09 3.8
-2 8 -30 66.09 4.1
2 -8 -30 62.99 3.7
4 8 -30 73.59 4.4
-4 8 -30 76.09 4.7
4 -8 -30 74.09 4.4
4 -8 -30 75.79 4.4
6 8 -30 29.7 2.5
6 8 -30 23.9 1.5
6 -8 -30 24.5 2
6 -8 -30 26.3 1.6
1 9 -30 3.9 1.1
-1 9 -30 4.1 1.1
-1 9 -30 4.9 1.2
-3 9 -30 11.4 1.7
3 -9 -30 14.2 1.6
3 -9 -30 14.5 1
5 9 -30 2.3 0.9
5 -9 -30 3.2 1
-5 9 -30 4.2 1.2
0 10 -30 42.8 2.9
2 10 -30 93.69 5.3
2 -10 -30 93.39 5.4
-2 10 -30 94.79 5.6
4 10 -30 53.79 3.4
4 -10 -30 56.49 3.3
-4 10 -30 59.29 3.7
4 -10 -30 51.79 3.3
1 11 -30 31.4 2.4
-1 11 -30 32.8 2.4
-1 11 -30 34.7 2.5
1 -11 -30 33 2
3 11 -30 25.9 2.1
3 -11 -30 30 1.8
-3 11 -30 28.5 2.3
5 -11 -30 23.8 1.5
0 12 -30 38 2.6
2 12 -30 19.8 1.8
-2 12 -30 21.4 1.9
2 -12 -30 20.9 1.4
4 12 -30 29.4 2.6
4 -12 -30 30.4 1.8
-4 12 -30 29 2.4
1 13 -30 51.49 3.3
1 -13 -30 53.59 3.1
3 13 -30 51.89 3.3
3 -13 -30 55.59 3.2
-3 13 -30 56.69 3.6
0 -14 -30 4.3 0.6
-2 14 -30 5 1.2
2 -14 -30 6.6 0.7
1 -15 -30 25.4 1.6
0 0 -31 1.8 1
-2 0 -31 1.3 0.9
2 0 -31 1.1 0.9
4 0 -31 -0.1 0.8
4 0 -31 0.5 0.3
6 0 -31 0.1 0.8
6 0 -31 0.9 0.3
-1 -1 -31 3.1 1
1 1 -31 3.3 1.1
-1 1 -31 2.6 1
1 -1 -31 3.3 1.1
3 1 -31 1.5 0.9
3 1 -31 2.5 0.4
-3 -1 -31 2.4 1
-3 1 -31 1.5 0.9
3 -1 -31 2.5 1
3 -1 -31 2.2 0.4
5 1 -31 0.5 0.3
5 1 -31 -0.1 0.8
5 -1 -31 0.1 0.3
5 -1 -31 0.4 0.9
0 -2 -31 1.7 1
0 2 -31 1.5 1
2 2 -31 7.1 1.3
-2 -2 -31 7.2 1.2
-2 2 -31 8.6 1.3
2 -2 -31 8 0.7
2 -2 -31 6.3 1.2
4 2 -31 2.1 0.4
4 2 -31 0.6 0.8
4 -2 -31 1.7 1
4 -2 -31 1.6 0.3
6 2 -31 1.2 0.8
6 2 -31 1.8 0.3
6 -2 -31 1 0.9
6 -2 -31 2.7 0.4
-1 -3 -31 1.2 0.9
1 3 -31 1.2 1
-1 3 -31 1 0.9
1 -3 -31 1.2 0.9
1 -3 -31 1.4 0.3
3 3 -31 0.1 0.8
-3 3 -31 -0.3 1.4
-3 3 -31 0.5 0.9
3 -3 -31 0.4 0.9
3 -3 -31 0.4 0.3
5 3 -31 0.7 0.3
5 3 -31 0.3 0.8
5 -3 -31 0 0.9
5 -3 -31 0 0.3
0 4 -31 1.1 0.9
0 -4 -31 0.4 0.9
2 4 -31 1.5 1
2 -4 -31 1.4 0.9
-2 4 -31 2.5 1.1
-2 4 -31 1.8 0.9
2 -4 -31 1.7 0.4
4 4 -31 -0.7 0.8
4 -4 -31 -0.3 0.8
4 -4 -31 -0.2 0.3
-4 4 -31 -0.1 1
6 4 -31 0.1 0.8
6 4 -31 -0.1 0.3
6 -4 -31 -0.5 0.8
6 -4 -31 -0.4 0.3
-1 -5 -31 4 1.1
1 5 -31 3.9 1.1
-1 5 -31 6.3 1.3
-1 5 -31 6.6 1.2
1 -5 -31 4.3 1.1
1 -5 -31 5.9 0.6
3 5 -31 2.9 1
-3 5 -31 3.7 1.1
-3 5 -31 3.9 1.2
3 -5 -31 4.7 0.6
3 -5 -31 2.4 1
5 5 -31 1.2 0.3
5 5 -31 1.4 0.9
5 -5 -31 1 0.9
-5 5 -31 1.5 1.3
5 -5 -31 1.2 0.3
0 6 -31 1.2 0.9
0 -6 -31 1.2 0.9
2 6 -31 1.5 0.9
-2 6 -31 2.1 1
-2 6 -31 1.7 1
2 -6 -31 0.8 0.9
2 -6 -31 1.8 0.4
4 6 -31 -0.3 0.8
4 -6 -31 0.2 0.3
4 -6 -31 -0.2 0.9
-4 6 -31 0 1
1 7 -31 2.9 1
1 -7 -31 3.1 1
1 -7 -31 2.4 0.4
-1 7 -31 3.9 1.1
-1 7 -31 2.7 1
3 7 -31 0.5 0.9
-3 7 -31 0.2 0.9
3 -7 -31 1.2 0.3
3 -7 -31 0.5 0.9
5 7 -31 -0.6 0.8
5 -7 -31 0.3 0.3
5 -7 -31 0.6 0.9
0 8 -31 0.5 0.8
2 8 -31 1.2 0.9
2 -8 -31 1.2 0.8
-2 8 -31 0.6 0.8
-2 8 -31 0.6 1
2 -8 -31 1.5 0.3
4 8 -31 2.5 1
-4 8 -31 2.1 1.1
4 -8 -31 3.5 0.5
4 -8 -31 2.5 1
1 9 -31 0.5 0.8
-1 9 -31 -0.6 0.8
1 -9 -31 0.6 0.3
-1 9 -31 -0.6 0.9
3 9 -31 0.9 0.8
3 -9 -31 0.3 0.3
-3 9 -31 -0.1 0.9
3 -9 -31 -0.1 0.8
0 10 -31 0.6 0.8
2 10 -31 1.4 0.8
2 -10 -31 1.2 0.3
-2 10 -31 1.7 1
4 10 -31 1.1 0.8
4 -10 -31 -0.2 1.2
4 -10 -31 0.8 0.3
1 11 -31 1.3 0.9
3 11 -31 0.4 0.8
-3 11 -31 1.7 1.3
3 -11 -31 1 0.3
0 -12 -31 0.4 0.3
0 12 -31 0.9 0.8
2 12 -31 0.5 0.7
-2 12 -31 0.3 1.1
2 -12 -31 0.2 0.3
1 13 -31 1.3 0.8
1 -13 -31 1.5 0.3
0 0 -32 35 2.5
2 0 -32 83.89 4.8
-2 0 -32 82.09 4.7
4 0 -32 41.2 2.5
4 0 -32 44.4 2.8
-1 -1 -32 10.9 1.5
1 1 -32 11.2 1.5
1 -1 -32 13.4 1.5
-1 1 -32 10.8 1.4
3 1 -32 14.5 1
3 1 -32 14.4 1.6
-3 -1 -32 15.1 1.6
3 -1 -32 15 1.6
3 -1 -32 15.8 1
-3 1 -32 13.3 1.6
5 1 -32 8.3 0.6
5 -1 -32 7 0.6
5 -1 -32 5 1.1
0 2 -32 75.19 4.3
0 -2 -32 71.39 4.3
-2 -2 -32 32.2 2.4
2 2 -32 37 2.5
-2 2 -32 37.7 2.5
2 -2 -32 36.2 2.5
2 -2 -32 35.2 2.1
4 2 -32 30.9 2.2
4 2 -32 27.6 1.7
4 -2 -32 29.5 1.7
4 -2 -32 27.1 2.1
-1 -3 -32 78.19 4.5
1 3 -32 81.69 4.6
-1 3 -32 82.49 4.6
1 -3 -32 78.19 4.6
1 -3 -32 79.19 4.6
3 3 -32 30.6 2.2
3 -3 -32 30.4 2.2
3 -3 -32 29 1.8
-3 3 -32 26.7 2.1
5 3 -32 21.3 1.3
5 3 -32 20.6 1.8
5 -3 -32 20.4 1.8
5 -3 -32 20.9 1.3
0 4 -32 18.5 1.8
0 -4 -32 19.2 1.8
0 -4 -32 22.1 1.3
2 4 -32 11.2 1.5
2 -4 -32 11.2 1.5
-2 4 -32 11.4 1.5
2 -4 -32 13 0.9
4 4 -32 2.7 1
4 -4 -32 3.4 0.5
4 -4 -32 1.3 0.9
1 5 -32 82.69 4.6
1 -5 -32 79.19 4.5
1 -5 -32 78.59 4.6
-1 5 -32 77.49 4.6
3 5 -32 32.3 2.3
-3 5 -32 29.7 2.3
3 -5 -32 31.6 2.3
3 -5 -32 31 1.9
0 -6 -32 20.2 1.3
0 6 -32 17.5 1.7
2 6 -32 5.4 1.2
-2 6 -32 8.5 1.3
2 -6 -32 8.1 0.7
-2 6 -32 5.1 1.1
2 -6 -32 6.9 1.1
4 6 -32 12 1.5
4 -6 -32 11.3 1.4
4 -6 -32 13.1 0.9
1 7 -32 21.5 1.8
1 -7 -32 19.8 1.8
-1 7 -32 21.8 1.9
1 -7 -32 23.8 1.4
3 7 -32 28.8 2.2
3 -7 -32 26.2 2.1
3 -7 -32 30.7 1.8
0 -8 -32 10.9 0.8
0 8 -32 10.8 1.4
2 8 -32 45.4 2.9
2 -8 -32 46.5 2.6
2 -8 -32 42.2 2.8
-2 8 -32 43.3 3
1 9 -32 2.5 0.9
1 -9 -32 4.1 0.5
-1 9 -32 2.6 0.9
3 -9 -32 10.6 0.8
0 -10 -32 30.5 1.8
0 10 -32 28.6 2.2
2 10 -32 46.9 3
2 -10 -32 48.4 2.8
1 11 -32 15.2 1.6
1 -11 -32 18.7 1.2
0 0 -33 2.1 0.9
-2 0 -33 2.6 0.9
2 0 -33 1.7 0.9
-1 -1 -33 0.2 0.8
1 1 -33 0.5 0.9
-1 1 -33 -0.2 0.7
1 -1 -33 0 0.8
3 1 -33 1.9 0.9
3 -1 -33 2.1 0.3
3 -1 -33 1.9 0.9
0 2 -33 0.7 0.8
0 -2 -33 0.8 0.8
2 2 -33 0.6 0.8
-2 -2 -33 1.6 0.8
2 -2 -33 0.5 0.8
2 -2 -33 0.7 0.3
-2 2 -33 1.4 0.8
-1 -3 -33 1.2 0.8
1 3 -33 0.6 0.8
1 -3 -33 1 0.3
-1 3 -33 2.4 0.8
1 -3 -33 1 0.9
3 3 -33 1.9 0.9
3 -3 -33 1.2 0.9
3 -3 -33 1.9 0.3
0 -4 -33 1 0.3
0 4 -33 1.4 0.8
0 -4 -33 1 0.8
2 4 -33 1.8 0.9
2 -4 -33 1.7 0.3
2 -4 -33 1.8 0.9
-2 4 -33 1.6 0.9
-1 -5 -33 1.5 0.3
1 5 -33 1.2 0.8
1 -5 -33 1.9 0.3
1 -5 -33 2.3 0.9
-1 5 -33 1.9 0.9
3 5 -33 1.9 0.9
3 -5 -33 2 0.3
3 -5 -33 0.3 0.8
0 6 -33 1.4 0.8
0 -6 -33 1.5 0.3
2 6 -33 0.1 0.7
2 -6 -33 0.5 0.3
2 -6 -33 -0.3 0.8
1 7 -33 1.1 0.8
-1 -7 -33 0.6 0.3
-1 7 -33 0.3 0.8
1 -7 -33 1.5 0.3
0 8 -33 0.3 0.7
0 -8 -33 0.1 0.3
0 0 -34 27 2
-1 -1 -34 11.9 1.8
1 1 -34 10.5 1.4
1 -1 -34 10.9 1.4
-1 1 -34 12.4 1.4
0 -2 -34 51.89 3.2
0 2 -34 49.3 3.1
loop_
_smtbx_masks_void_nr
_smtbx_masks_void_average_x
_smtbx_masks_void_average_y
_smtbx_masks_void_average_z
_smtbx_masks_void_volume
_smtbx_masks_void_count_electrons
_smtbx_masks_void_content
1 -0.482 -0.446 -0.257 6071.6 1578.7 ?
