#------------------------------------------------------------------------------
#$Date: 2021-04-04 12:56:42 +0300 (Sun, 04 Apr 2021) $
#$Revision: 263575 $
#$URL: file:///home/coder/svn-repositories/cod/cif/4/51/85/4518556.cif $
#------------------------------------------------------------------------------
#
# This file is available in the Crystallography Open Database (COD),
# http://www.crystallography.net/
#
# All data on this site have been placed in the public domain by the
# contributors.
#
data_4518556
loop_
_publ_author_name
'Sapianik, Aleksandr A.'
'Dudko, Evgeny R.'
'Kovalenko, Konstantin A.'
'Barsukova, Marina O.'
'Samsonenko, Denis G.'
'Dybtsev, Danil N.'
'Fedin, Vladimir P.'
_publ_section_title
;
 Metal-Organic Frameworks for Highly Selective Separation of Xylene
 Isomers and Single-Crystal X-ray Study of Aromatic Guest-Host Inclusion
 Compounds.
;
_journal_issue                   12
_journal_name_full               'ACS applied materials &amp; interfaces'
_journal_page_first              14768
_journal_page_last               14777
_journal_paper_doi               10.1021/acsami.1c02812
_journal_volume                  13
_journal_year                    2021
_chemical_formula_sum            'C54 H36 Li2 N2 O12 Zn2'
_chemical_formula_weight         1049.47
_space_group_crystal_system      monoclinic
_space_group_IT_number           15
_space_group_name_Hall           '-C 2yc'
_space_group_name_H-M_alt        'C 1 2/c 1'
_atom_sites_solution_hydrogens   geom
_atom_sites_solution_primary     dual
_atom_sites_solution_secondary   difmap
_audit_creation_method           SHELXL-2018/3
_cell_angle_alpha                90
_cell_angle_beta                 120.00(2)
_cell_angle_gamma                90
_cell_formula_units_Z            4
_cell_length_a                   19.207(8)
_cell_length_b                   17.052(5)
_cell_length_c                   18.322(7)
_cell_measurement_reflns_used    3741
_cell_measurement_temperature    100(2)
_cell_measurement_theta_max      31.0
_cell_measurement_theta_min      1.9
_cell_volume                     5197(3)
_computing_cell_refinement       'XDS (Kabsch, 2010)'
_computing_data_collection       'Marccd (Doyle, 2011)'
_computing_data_reduction        'XDS (Kabsch, 2010)'
_computing_molecular_graphics    'ShelXle (H\"ubschle, 2011)'
_computing_publication_material  'CIFTAB (Sheldrick, 2015)'
_computing_structure_refinement  'SHELXL-2018 (Sheldrick, 2015)'
_computing_structure_solution    'SHELXT-2018 (Sheldrick, 2015)'
_diffrn_ambient_temperature      100(2)
_diffrn_detector_area_resol_mean 12.4
_diffrn_measured_fraction_theta_full 0.981
_diffrn_measured_fraction_theta_max 0.981
_diffrn_measurement_device_type  'Rayonix SX-165 CCD'
_diffrn_measurement_method       '\f scan'
_diffrn_radiation_monochromator  'Double Crystal Monochromator'
_diffrn_radiation_source         synchrotron
_diffrn_radiation_type           synchrotron
_diffrn_radiation_wavelength     0.79313
_diffrn_reflns_av_R_equivalents  0.0699
_diffrn_reflns_av_unetI/netI     0.0670
_diffrn_reflns_Laue_measured_fraction_full 0.981
_diffrn_reflns_Laue_measured_fraction_max 0.981
_diffrn_reflns_limit_h_max       24
_diffrn_reflns_limit_h_min       -24
_diffrn_reflns_limit_k_max       15
_diffrn_reflns_limit_k_min       -22
_diffrn_reflns_limit_l_max       23
_diffrn_reflns_limit_l_min       -20
_diffrn_reflns_number            15937
_diffrn_reflns_point_group_measured_fraction_full 0.981
_diffrn_reflns_point_group_measured_fraction_max 0.981
_diffrn_reflns_theta_full        28.500
_diffrn_reflns_theta_max         31.021
_diffrn_reflns_theta_min         1.909
_diffrn_source                   synchrotron
_exptl_absorpt_coefficient_mu    1.320
_exptl_absorpt_correction_T_max  1.000
_exptl_absorpt_correction_T_min  0.754
_exptl_absorpt_correction_type   multi-scan
_exptl_absorpt_process_details   'XDS (Kabsch, 2010)'
_exptl_crystal_colour            yellow
_exptl_crystal_density_diffrn    1.341
_exptl_crystal_description       needle
_exptl_crystal_F_000             2144
_exptl_crystal_size_max          0.10
_exptl_crystal_size_mid          0.05
_exptl_crystal_size_min          0.03
_refine_diff_density_max         0.661
_refine_diff_density_min         -0.660
_refine_diff_density_rms         0.106
_refine_ls_extinction_coef       0.0072(7)
_refine_ls_extinction_expression Fc^*^=kFc[1+0.001xFc^2^\l^3^/sin(2\q)]^-1/4^
_refine_ls_extinction_method     'SHELXL-2018/3 (Sheldrick 2018)'
_refine_ls_goodness_of_fit_ref   1.058
_refine_ls_hydrogen_treatment    constr
_refine_ls_matrix_type           full
_refine_ls_number_parameters     452
_refine_ls_number_reflns         5864
_refine_ls_number_restraints     417
_refine_ls_restrained_S_all      1.046
_refine_ls_R_factor_all          0.0936
_refine_ls_R_factor_gt           0.0655
_refine_ls_shift/su_max          0.001
_refine_ls_shift/su_mean         0.000
_refine_ls_structure_factor_coef Fsqd
_refine_ls_weighting_details
'w=1/[\s^2^(Fo^2^)+(0.1175P)^2^+4.8370P] where P=(Fo^2^+2Fc^2^)/3'
_refine_ls_weighting_scheme      calc
_refine_ls_wR_factor_gt          0.1778
_refine_ls_wR_factor_ref         0.1952
_reflns_Friedel_coverage         0.000
_reflns_number_gt                4210
_reflns_number_total             5864
_reflns_threshold_expression     'I > 2\s(I)'
_cod_data_source_file            oxylene.cif
_cod_data_source_block           czl09
_cod_depositor_comments
'Adding full bibliography for 4518556--4518560.cif.'
_cod_original_sg_symbol_H-M      'C 2/c'
_cod_database_code               4518556
_shelx_shelxl_version_number     2018/3
_shelx_space_group_comment
;
The symmetry employed for this shelxl refinement is uniquely defined
by the following loop, which should always be used as a source of
symmetry information in preference to the above space-group names.
They are only intended as comments.
;
_shelx_estimated_absorpt_t_min   0.879
_shelx_estimated_absorpt_t_max   0.961
_shelx_res_file
;
TITL czl09 in C2/c; 100K; Moscow
    czl09.res
    created by SHELXL-2018/3 at 15:13:58 on 13-Aug-2020
CELL 0.793127  19.207   17.052   18.322   90.00   120.00   90.00
ZERR    4.000   0.008    0.005    0.007    0.00     0.02    0.00
LATT 7
SYMM -X,+Y,0.5-Z
SFAC C    H  Li N O  Zn
DISP C  0.00462  0.00217 14.32457
DISP H -0.00002  0.00000  0.66622
DISP Li  0.00004  0.00008  2.37465
DISP N  0.00868  0.00437 25.35285
DISP O  0.01466  0.00796 42.75413
DISP Zn  0.20787  1.73865 7889.26517
UNIT 216 144 8  8 48 8
 
LIST 4 ! automatically inserted. Change 6 to 4 for CHECKCIF!!
TEMP -173
 
L.S. 6
FMAP 2
BOND $H
PLAN 5
 
OMIT 0
 
OMIT -2 4 2
OMIT -6 0 4
OMIT -3 3 3
OMIT 1 1 2
OMIT -7 5 6
OMIT -5 1 4
OMIT -4 2 3
OMIT 4 0 0
OMIT 0 2 2
OMIT -1 1 1
 
OMIT  1   1   1
 
SIMU 0.01 0.01 C207 > C212
 
DFIX 1.39 0.01 C1 C2  C2 C3  C3 C4  C4 C5  C5 C6  C6 C1 =
          C1' C2'  C2' C3'  C3' C4'  C4' C5'  C5' C6'  C6' C1'
 
DFIX 1.50 0.01 C1 C7  C2 C8  C1' C7'  C6' C8'
 
SIMU 0.01 0.01 C1 > C8'
ISOR 0.01 0.02 C1 > C8'
 
SADI 0.02 C7 C2  C7 C6  C8 C1  C8 C3  C7' C2'  C7' C6'  C8' C1'  C8' C5'
 
SADI 0.01 C1 C4  C2 C5  C3 C6
SADI 0.01 C1 C3  C2 C4  C3 C5  C4 C6  C5 C1  C6 C2 =
          C1' C3'  C2' C4'  C3' C5'  C4' C6'  C5' C1'  C6' C2'
 
FLAT 0.02 C1 > C8
FLAT 0.02 C1' > C8'
 
SIZE 0.10  0.05  0.03
 
ACTA 57
 
WGHT    0.117500    4.837000
EXTI    0.007192
FVAR       0.17200
LI1   3    0.071810    0.089205    0.251513    11.00000    0.03199    0.03995 =
         0.02728   -0.00045    0.01292    0.00184
ZN1   6    0.229999    0.109050    0.429679    11.00000    0.02746    0.03533 =
         0.02575    0.00019    0.01098   -0.00005
N1    4    0.329606    0.121612    0.546459    11.00000    0.02938    0.04275 =
         0.03086   -0.00069    0.00788   -0.00163
C11   1    0.374549    0.186056    0.575340    11.00000    0.03125    0.03980 =
         0.03144    0.00175    0.01223   -0.00053
AFIX  43
H11   2    0.359748    0.230824    0.539798    11.00000   -1.20000
AFIX   0
C12   1    0.441783    0.190631    0.654773    11.00000    0.03376    0.04245 =
         0.03543   -0.00122    0.01158   -0.00248
AFIX  43
H12   2    0.472451    0.237570    0.673054    11.00000   -1.20000
AFIX   0
C13   1    0.463824    0.125830    0.707346    11.00000    0.03460    0.04371 =
         0.03501   -0.00035    0.00902    0.00077
C14   1    0.416418    0.058740    0.677754    11.00000    0.05520    0.04678 =
         0.04362    0.00859   -0.00396   -0.01093
AFIX  43
H14   2    0.429583    0.013444    0.712376    11.00000   -1.20000
AFIX   0
C15   1    0.350480    0.058584    0.598115    11.00000    0.04922    0.04761 =
         0.04008    0.01201   -0.00216   -0.00958
AFIX  43
H15   2    0.318366    0.012606    0.578571    11.00000   -1.20000
AFIX   0
O11   5    0.148482    0.096186    0.463561    11.00000    0.03061    0.05151 =
         0.02822   -0.00196    0.01378   -0.00703
O12   5    0.038885    0.082429    0.337591    11.00000    0.02950    0.04826 =
         0.02501    0.00598    0.01176   -0.00008
C101  1    0.076173    0.075033    0.415772    11.00000    0.02938    0.03984 =
         0.02813    0.00111    0.01301   -0.00121
C102  1    0.034935    0.037498    0.458119    11.00000    0.03469    0.06354 =
         0.02397    0.00354    0.01158   -0.00764
C103  1    0.035108    0.075188    0.526743    11.00000    0.04158    0.09433 =
         0.03159   -0.00423    0.01650   -0.02369
C104  1    0.000271    0.036324    0.569322    11.00000    0.04083    0.08167 =
         0.02925   -0.00286    0.01329   -0.02154
C105  1   -0.006681    0.087110    0.636077    10.50000    0.04549    0.03823 =
         0.04570    0.00141    0.03010   -0.00441
AFIX  43
H105  2   -0.033667    0.064944    0.662708    10.50000   -1.20000
AFIX   0
C106  1    0.024090    0.163210    0.659592    10.50000    0.06330    0.04319 =
         0.04886   -0.00700    0.03796   -0.00706
AFIX  43
H106  2    0.022813    0.189355    0.704695    10.50000   -1.20000
AFIX   0
C107  1    0.057082    0.200176    0.614626    10.50000    0.07861    0.03143 =
         0.07097   -0.00894    0.05338   -0.00873
AFIX  43
H107  2    0.077437    0.252057    0.629236    10.50000   -1.20000
AFIX   0
C108  1    0.060150    0.162433    0.550462    10.50000    0.05065    0.03688 =
         0.04020    0.00428    0.02965   -0.00047
AFIX  43
H108  2    0.078496    0.190887    0.518728    10.50000   -1.20000
AFIX   0
O21   5    0.236761    0.201313    0.373120    11.00000    0.03968    0.04372 =
         0.03407    0.00640    0.01716   -0.00253
O22   5    0.118909    0.186970    0.254423    11.00000    0.03792    0.04752 =
         0.04391    0.00446    0.01626   -0.00980
O23   5    0.242782    0.506776    0.096908    11.00000    0.05057    0.04789 =
         0.03612    0.00839    0.01623   -0.01060
O24   5    0.350424    0.513206    0.223040    11.00000    0.05163    0.06368 =
         0.04695    0.00980    0.01200   -0.02690
C201  1    0.185679    0.218355    0.296443    11.00000    0.03748    0.03619 =
         0.03535    0.00561    0.01828    0.00195
C202  1    0.211283    0.283459    0.259260    11.00000    0.03982    0.04040 =
         0.03288    0.00292    0.01494   -0.00589
C203  1    0.251390    0.345541    0.309943    11.00000    0.05128    0.05402 =
         0.03225    0.00605    0.01682   -0.01058
AFIX  43
H203  2    0.262991    0.345891    0.366792    11.00000   -1.20000
AFIX   0
C204  1    0.275688    0.408844    0.279090    11.00000    0.05110    0.04737 =
         0.03658    0.00159    0.01709   -0.01324
AFIX  43
H204  2    0.302790    0.451968    0.315027    11.00000   -1.20000
AFIX   0
C205  1    0.260881    0.409255    0.198088    11.00000    0.04126    0.04504 =
         0.03209   -0.00036    0.01538   -0.01190
C206  1    0.287784    0.481021    0.170937    11.00000    0.04745    0.04207 =
         0.03374    0.00382    0.02036   -0.00726
C207  1    0.220414    0.344752    0.143492    11.00000    0.06519    0.05240 =
         0.04392   -0.00648    0.02991   -0.01963
C208  1    0.194928    0.280786    0.175226    11.00000    0.06334    0.04909 =
         0.04338   -0.00507    0.02914   -0.01732
C209  1    0.157833    0.214756    0.121140    11.00000    0.11872    0.06112 =
         0.05986   -0.01583    0.05592   -0.04369
AFIX  43
H209  2    0.139384    0.172330    0.140605    11.00000   -1.20000
AFIX   0
C210  1    0.148511    0.211464    0.043228    11.00000    0.15220    0.08223 =
         0.06447   -0.02835    0.06124   -0.06116
AFIX  43
H210  2    0.125127    0.166382    0.009122    11.00000   -1.20000
AFIX   0
C211  1    0.173503    0.275064    0.012131    11.00000    0.15680    0.08403 =
         0.05828   -0.02353    0.06256   -0.05449
AFIX  43
H211  2    0.165879    0.272716   -0.043205    11.00000   -1.20000
AFIX   0
C212  1    0.208346    0.339545    0.060705    11.00000    0.11549    0.06383 =
         0.05259   -0.01358    0.05098   -0.03667
AFIX  43
H212  2    0.224805    0.381641    0.038833    11.00000   -1.20000
AFIX   0
PART -1  10.25
C1    1   -0.010229    0.371161   -0.195545    10.25000    0.11664    0.09546 =
         0.11476    0.02079    0.05224   -0.01101
C2    1   -0.033078    0.400716   -0.140487    10.25000    0.11149    0.10588 =
         0.11457    0.01277    0.05276   -0.00762
C3    1   -0.114051    0.413602   -0.167616    10.25000    0.10865    0.10564 =
         0.11082    0.00814    0.05678   -0.00103
AFIX  43
H3    2   -0.129709    0.434246   -0.129809    10.25000   -1.20000
AFIX   0
C4    1   -0.171794    0.396132   -0.250193    10.25000    0.11273    0.10191 =
         0.11127    0.00686    0.05325   -0.00590
AFIX  43
H4    2   -0.227135    0.404134   -0.268770    10.25000   -1.20000
AFIX   0
C5    1   -0.148508    0.366897   -0.305692    10.25000    0.11552    0.09877 =
         0.10993    0.00794    0.05342   -0.00786
AFIX  43
H5    2   -0.187905    0.355879   -0.362453    10.25000   -1.20000
AFIX   0
C6    1   -0.068012    0.353868   -0.278256    10.25000    0.11625    0.08776 =
         0.10276    0.01337    0.05615   -0.01099
AFIX  43
H6    2   -0.052237    0.333113   -0.315925    10.25000   -1.20000
AFIX   0
C7    1    0.075380    0.356360   -0.170251    10.25000    0.12811    0.10163 =
         0.11950    0.01995    0.04742   -0.00333
AFIX  33
H7A   2    0.078331    0.335511   -0.218477    10.25000   -1.50000
H7B   2    0.105644    0.405579   -0.151608    10.25000   -1.50000
H7C   2    0.098472    0.318255   -0.124034    10.25000   -1.50000
AFIX   0
C8    1    0.026760    0.419202   -0.050680    10.25000    0.10881    0.10963 =
         0.11440    0.00808    0.05474   -0.00757
AFIX  33
H8A   2   -0.001345    0.439421   -0.022332    10.25000   -1.50000
H8B   2    0.056228    0.371472   -0.022123    10.25000   -1.50000
H8C   2    0.064608    0.458828   -0.048737    10.25000   -1.50000
AFIX   0
PART -2  10.25
C1'   1   -0.082569    0.441669   -0.123052    10.25000    0.10714    0.10848 =
         0.11049    0.00689    0.05907   -0.00139
C2'   1   -0.042928    0.384823   -0.061054    10.25000    0.10640    0.10712 =
         0.11113    0.00872    0.06025   -0.00431
AFIX  43
H2'   2   -0.054014    0.330823   -0.074699    10.25000   -1.20000
AFIX   0
C3'   1    0.012457    0.407051    0.020199    10.25000    0.09807    0.10765 =
         0.10582    0.00988    0.06320   -0.00082
AFIX  43
H3'   2    0.039463    0.368249    0.062341    10.25000   -1.20000
AFIX   0
C4'   1    0.028846    0.486085    0.040559    10.25000    0.09587    0.11455 =
         0.10803    0.00642    0.06138   -0.00223
AFIX  43
H4'   2    0.067073    0.501246    0.096442    10.25000   -1.20000
AFIX   0
C5'   1   -0.010945    0.542803   -0.021204    10.25000    0.09769    0.11128 =
         0.11023    0.00338    0.06217   -0.00105
AFIX  43
H5'   2   -0.000669    0.596855   -0.007406    10.25000   -1.20000
AFIX   0
C6'   1   -0.065882    0.520110   -0.103315    10.25000    0.10107    0.11516 =
         0.10731    0.00603    0.06394   -0.00142
C7'   1   -0.142272    0.415082   -0.210088    10.25000    0.11278    0.10425 =
         0.11240    0.01050    0.05376   -0.00302
AFIX  33
H7'A  2   -0.145578    0.357704   -0.211295    10.25000   -1.50000
H7'B  2   -0.195142    0.437289   -0.226400    10.25000   -1.50000
H7'C  2   -0.125235    0.432823   -0.249625    10.25000   -1.50000
AFIX   0
C8'   1   -0.108228    0.582135   -0.168411    10.25000    0.12703    0.13523 =
         0.13219   -0.00346    0.05238   -0.00406
AFIX  33
H8'A  2   -0.088768    0.633898   -0.143111    10.25000   -1.50000
H8'B  2   -0.097474    0.574570   -0.214890    10.25000   -1.50000
H8'C  2   -0.166215    0.578619   -0.189926    10.25000   -1.50000
AFIX   0
HKLF 4
 
 
 
 
REM  czl09 in C2/c; 100K; Moscow
REM wR2 = 0.1952, GooF = S = 1.058, Restrained GooF = 1.046 for all data
REM R1 = 0.0655 for 4210 Fo > 4sig(Fo) and 0.0936 for all 5864 data
REM 452 parameters refined using 417 restraints
 
END
 
WGHT      0.1175      4.8390
 
REM Highest difference peak  0.661,  deepest hole -0.660,  1-sigma level  0.106
Q1    1  -0.0262  0.3473 -0.2780  11.00000  0.05    0.62
Q2    1   0.0749  0.2526  0.7037  11.00000  0.05    0.59
Q3    1  -0.0870  0.3818 -0.2195  11.00000  0.05    0.56
Q4    1   0.2922  0.1367  0.4992  11.00000  0.05    0.51
Q5    1   0.0045  0.3961 -0.1536  11.00000  0.05    0.50
;
_shelx_res_checksum              33532
_shelx_hkl_file
;
   0   0   5    1.09    3.08
   0   0   6  712.50   30.32
   0   0   7   -0.84    2.89
   0   0   8 1156.00   48.66
   0   0   9   -0.63    2.85
   0   0  10  325.10   14.73
   0   0  11   -0.93    2.96
   0   0  12   68.33    4.91
   0   0  13    2.10    3.04
   0   0  14   87.93    5.70
   0   0  15   -0.47    3.36
   0   0  16   40.92    4.66
   0   0  17   -1.86    3.29
   0   0  18    8.48    3.78
   0   0  19    4.86    3.80
   0   0  19    8.49    4.26
   0   0  20   36.39    4.85
   0   0  20   28.62    4.71
   1   1  20    4.15    4.82
   1   1  20    1.25    5.49
   1   1  19    6.82    3.83
   1   1  19    2.28    4.04
   1   1  18   26.28    4.09
   1   1  17   -0.33    3.62
   1   1  16   22.26    3.88
   1   1  15   39.08    4.24
   1   1  14   -1.18    3.35
   1   1  13   42.35    4.18
   1   1  12   80.49    5.53
   1   1  11    5.67    3.05
   1   1  10  608.50   26.31
   1   1   9   33.44    3.47
   1   1   8   74.76    4.97
   1   1   7 1077.00   45.42
   1   1   6   21.16    3.27
   1   1   5  350.90   15.40
  -1  -1  -4  855.40   35.99
   1   1   4  818.90   34.46
  -1  -1  -3  182.40    8.41
   1   1   3  195.10    9.00
  -1  -1  -2 2215.00   91.62
  -1  -1  -1  135.70    6.05
   1   1   1  135.20    6.02
  -1  -1   0  135.30    5.93
   1   1   0  140.10    6.12
  -1  -1   1 1812.00   74.93
   1   1  -1 1814.00   74.99
  -1  -1  10   14.63    3.46
  -1  -1  11   87.13    5.70
  -1  -1  12  184.60    9.36
  -1  -1  13  115.00    6.90
  -1  -1  14    2.62    3.07
  -1  -1  15   59.07    4.88
  -1  -1  16   75.00    5.37
  -1  -1  17    5.31    3.46
  -1  -1  18   53.07    5.14
  -1  -1  18   68.33    5.12
  -1  -1  19   31.27    4.77
  -1  -1  19   27.79    5.09
  -1  -1  20   25.96    4.57
  -1  -1  20   27.07    4.42
   2   2  19   23.70    4.57
   2   2  19   23.71    4.60
   2   2  18    6.15    3.79
   2   2  17   82.78    5.72
   2   2  16    1.66    3.65
   2   2  15   32.28    4.15
   2   2  14    1.63    3.32
   2   2  13   37.54    3.98
   2   2  12    7.76    3.37
   2   2  11  169.00    8.43
   2   2  10   45.47    3.98
   2   2   9  198.10    9.48
   2   2   8   48.25    3.89
   2   2   7   64.78    4.32
   2   2   6  242.40   11.08
  -2  -2  -5  493.80   21.24
   2   2   5  455.70   19.62
  -2  -2  -4   36.71    3.24
   2   2   4   38.82    3.28
  -2  -2  -3 1916.00   79.56
   2   2   3 1902.00   78.95
  -2  -2  -2  837.70   35.11
   2   2   2  852.00   35.72
  -2  -2  -1   47.07    3.41
   2   2   1   46.07    3.30
  -2  -2   0  519.80   21.98
   2   2   0  505.70   21.39
  -2  -2   1  324.20   14.06
   2   2  -1  306.70   13.39
  -2  -2   2  113.00    6.01
   2   2  -2  110.90    5.95
  -2  -2   3  950.70   40.02
  -2  -2   4    9.62    3.45
  -2  -2  13  225.70   11.11
  -2  -2  14   20.26    3.75
  -2  -2  15   38.06    4.02
  -2  -2  16   48.36    4.59
  -2  -2  16   34.57    4.01
  -2  -2  17  141.60    7.58
  -2  -2  17  142.80    7.74
  -2  -2  18   13.07    3.66
  -2  -2  18   13.70    4.06
  -2  -2  19  143.30    8.03
  -2  -2  19  136.70    7.78
  -2  -2  20    1.16    3.67
  -2  -2  20    1.85    3.91
  -2  -2  21    0.82    3.97
  -2  -2  21    0.35    4.40
   3   3  18   -5.66    4.02
   3   3  17    5.89    3.63
   3   3  16   50.66    4.55
   3   3  15   67.35    4.94
   3   3  14   11.89    3.41
   3   3  13  254.60   12.01
   3   3  12  186.10    9.25
   3   3  11   38.76    3.79
   3   3  10    9.14    2.92
   3   3   9   45.99    3.93
   3   3   8    6.35    2.70
  -3  -3  -7  428.20   18.68
   3   3   7  414.00   18.10
  -3  -3  -6   16.49    2.56
   3   3   6   13.42    2.67
  -3  -3  -5  934.70   39.24
   3   3   5  979.10   41.15
  -3  -3  -4  193.40    9.18
   3   3   4  166.90    7.94
  -3  -3  -3  222.80   10.14
   3   3   3  218.20    9.90
  -3  -3  -2 1000.00   41.96
   3   3   2  898.90   37.71
  -3  -3  -1  352.90   15.42
   3   3   1  360.60   15.73
  -3  -3   0   11.94    3.01
   3   3   0   13.79    3.17
  -3  -3   1  194.10    9.20
   3   3  -1  172.20    8.34
  -3  -3   2  515.50   22.19
   3   3  -2  498.60   21.56
  -3  -3   3 2617.00  108.70
   3   3  -3 2643.00  109.80
  -3  -3   4  447.50   19.74
  -3  -3   5   13.14    3.97
  -3  -3   6  228.10   11.02
  -3  -3   7  358.40   16.25
  -3  -3  13   73.02    5.57
  -3  -3  14   56.16    4.81
  -3  -3  15  238.80   11.63
  -3  -3  15  218.90   10.95
  -3  -3  17   60.83    5.05
  -3  -3  17   70.61    5.32
  -3  -3  18   52.54    4.66
  -3  -3  18   56.28    4.84
  -3  -3  19    3.31    3.19
  -3  -3  19    5.58    3.72
  -3  -3  20   12.77    4.31
  -3  -3  20    9.16    3.72
  -3  -3  21   45.68    4.93
  -3  -3  21   46.91    5.08
   4   4  18   14.52    5.63
   4   4  17    4.27    4.10
   4   4  16   14.63    3.96
   4   4  15   -1.41    3.31
   4   4  14  252.40   11.78
   4   4  13    7.14    3.20
   4   4  12   32.49    3.78
   4   4  11  164.20    8.35
   4   4  10   43.32    3.95
   4   4   9    0.50    2.75
  -4  -4  -8  447.10   19.61
   4   4   8  407.70   17.88
  -4  -4  -7   75.86    4.76
   4   4   7   67.90    4.37
  -4  -4  -6  210.20    9.80
   4   4   6  200.10    9.45
  -4  -4  -5    4.93    2.46
   4   4   5   -0.22    2.45
  -4  -4  -4  650.80   27.58
   4   4   4  645.60   27.43
  -4  -4  -3   62.49    4.00
   4   4   3   54.86    3.87
  -4  -4  -2   24.19    2.96
   4   4   2   27.43    3.07
  -4  -4  -1   -2.24    2.42
   4   4   1    2.84    2.81
  -4  -4   0  892.90   37.66
   4   4   0  933.90   39.33
  -4  -4   1  506.30   21.87
   4   4  -1  517.20   22.35
  -4  -4   2    4.07    3.07
   4   4  -2    7.90    3.19
  -4  -4   3   50.54    4.43
   4   4  -3   34.75    4.00
  -4  -4   4  950.70   40.31
   4   4  -4 1383.00   58.15
  -4  -4   5   55.75    4.77
  -4  -4   6    7.33    3.22
  -4  -4   7   86.44    5.74
  -4  -4   8   66.70    5.26
  -4  -4   9   50.91    4.62
  -4  -4  10  136.80    7.87
  -4  -4  11  101.60    7.05
  -4  -4  12    6.24    4.08
  -4  -4  13   21.22    4.53
  -4  -4  14  335.50   15.58
  -4  -4  15   44.24    4.50
  -4  -4  16   80.33    5.62
  -4  -4  17   27.42    4.31
  -4  -4  17   19.25    3.64
  -4  -4  18    7.74    3.76
  -4  -4  18   12.43    3.45
  -4  -4  19    1.86    3.61
  -4  -4  19    7.62    3.56
  -4  -4  20   28.39    3.73
  -4  -4  20   33.57    4.83
  -4  -4  21   13.31    3.73
  -4  -4  21    6.02    3.71
   5   5  17    0.92    4.66
   5   5  16   37.62    4.99
   5   5  15    8.39    3.97
   5   5  14   13.92    3.88
   5   5  13   11.85    3.54
   5   5  12   34.95    3.95
   5   5  11   49.74    4.34
   5   5  10  407.20   17.98
   5   5   9   38.71    3.94
  -5  -5  -8  116.80    6.28
   5   5   8  113.50    6.30
  -5  -5  -7  125.90    6.51
   5   5   7  116.10    6.18
  -5  -5  -6   -1.58    2.55
   5   5   6   -0.14    2.53
  -5  -5  -5   17.22    2.71
   5   5   5   20.50    2.97
  -5  -5  -4   29.53    3.23
   5   5   4   33.00    3.27
  -5  -5  -3  348.80   15.36
   5   5   3  351.80   15.54
  -5  -5  -2  106.60    5.77
   5   5   2  120.00    6.33
  -5  -5  -1   41.04    3.59
   5   5   1   48.33    3.82
  -5  -5   0  244.30   11.33
   5   5   0  252.90   11.64
  -5  -5   1   12.47    3.08
   5   5  -1    9.27    2.84
  -5  -5   2  152.60    7.78
   5   5  -2  189.30    9.36
  -5  -5   3  124.00    6.88
   5   5  -3  115.30    6.61
  -5  -5   4  139.00    7.52
   5   5  -4  155.30    8.45
  -5  -5   5   85.05    5.77
   5   5  -5   72.14    5.49
  -5  -5   6  769.20   33.08
  -5  -5   7   85.79    5.87
  -5  -5   8   18.58    3.59
  -5  -5   9   48.66    4.91
  -5  -5  10  332.90   15.47
  -5  -5  11   -3.15    3.57
  -5  -5  12  789.90   34.08
  -5  -5  13   13.55    3.78
  -5  -5  14   11.38    3.75
  -5  -5  15   44.53    4.62
  -5  -5  16    9.99    3.61
  -5  -5  17    6.05    3.65
  -5  -5  18   65.82    5.17
  -5  -5  18   67.08    5.24
  -5  -5  19    5.61    3.27
  -5  -5  19    4.72    3.75
  -5  -5  20   96.35    6.04
  -5  -5  20   97.85    6.39
  -5  -5  21    3.07    3.62
  -5  -5  21    4.90    3.65
   6   6  16    0.82    4.75
   6   6  15    6.90    4.20
   6   6  14   36.35    4.30
   6   6  13   24.59    3.84
   6   6  12  127.70    7.09
   6   6  11   47.52    4.23
   6   6  10   57.26    4.38
  -6  -6  -9  118.20    6.43
   6   6   9  114.60    6.40
  -6  -6  -8    4.79    3.15
   6   6   8   10.59    2.99
  -6  -6  -7    2.71    2.69
   6   6   7    1.97    2.82
  -6  -6  -6  152.60    7.59
   6   6   6  140.40    7.36
  -6  -6  -5   21.48    3.09
   6   6   5   29.36    3.30
  -6  -6  -4    7.33    2.87
   6   6   4    8.94    2.63
  -6  -6  -3   79.86    4.94
   6   6   3   80.49    4.91
  -6  -6  -2  371.60   16.37
   6   6   2  356.70   15.80
  -6  -6  -1   56.87    4.05
   6   6   1   42.28    3.72
  -6  -6   0    0.04    2.94
   6   6   0    6.00    3.11
  -6  -6   1   39.73    3.66
   6   6  -1   41.41    4.01
  -6  -6   2  168.00    8.38
   6   6  -2  154.10    8.05
  -6  -6   3   70.48    5.11
   6   6  -3   75.17    5.18
  -6  -6   4  189.90    9.54
   6   6  -4  193.30    9.71
  -6  -6   5  635.70   27.54
   6   6  -5  646.70   28.03
  -6  -6   6  223.90   11.28
   6   6  -6  182.20    9.59
  -6  -6   7  153.80    8.35
  -6  -6   8  488.90   21.79
  -6  -6   9    1.97    3.35
  -6  -6  10  254.10   12.38
  -6  -6  11  161.80    8.78
  -6  -6  12   43.00    4.59
  -6  -6  13  757.20   32.81
  -6  -6  14  113.20    6.87
  -6  -6  15   17.02    3.85
  -6  -6  16   97.97    6.41
  -6  -6  17   16.76    3.87
  -6  -6  18   17.00    3.78
  -6  -6  19   44.76    4.56
  -6  -6  20    4.94    3.68
  -6  -6  20    5.29    3.92
  -6  -6  21    6.12    3.88
  -6  -6  21   12.86    3.94
  -6  -6  22    4.72    3.88
  -6  -6  22    2.11    4.62
   7   7  15   10.17    4.72
   7   7  14   -3.24    4.23
   7   7  13   55.27    5.12
   7   7  12   -1.65    3.46
   7   7  11  100.70    6.03
   7   7  10   74.28    5.11
  -7  -7  -9    9.21    3.00
   7   7   9    7.40    3.15
  -7  -7  -8   10.26    2.98
   7   7   8    2.06    3.23
  -7  -7  -7    7.32    3.13
   7   7   7    4.79    3.13
  -7  -7  -6   86.47    5.25
   7   7   6   88.64    5.46
  -7  -7  -5  375.20   16.59
   7   7   5  381.30   17.02
  -7  -7  -4    4.53    2.72
   7   7   4    3.90    2.74
  -7  -7  -3    7.13    2.88
   7   7   3    8.77    3.07
  -7  -7  -2   45.21    3.77
   7   7   2   37.18    3.51
  -7  -7  -1    1.38    2.74
   7   7   1    1.70    2.82
  -7  -7   0   15.24    3.23
   7   7   0   11.66    3.08
  -7  -7   1  285.80   13.28
   7   7  -1  293.30   13.69
  -7  -7   2   14.78    3.36
   7   7  -2    8.73    3.31
  -7  -7   3  409.20   18.36
   7   7  -3  367.00   16.65
  -7  -7   4   21.52    3.60
   7   7  -4   25.42    3.78
  -7  -7   5   26.80    4.06
   7   7  -5   31.89    4.35
  -7  -7   6    4.49    3.58
   7   7  -6    5.14    3.37
  -7  -7   7  288.50   13.57
  -7  -7   8   27.47    4.00
  -7  -7   9  447.40   20.03
  -7  -7  10    4.10    3.57
  -7  -7  11  222.10   11.14
  -7  -7  12   -0.92    3.65
  -7  -7  13  145.20    8.22
  -7  -7  14  147.00    8.33
  -7  -7  15   68.70    5.50
  -7  -7  16    9.52    3.84
  -7  -7  17  154.00    8.36
  -7  -7  18   22.71    3.89
  -7  -7  19   13.18    4.01
  -7  -7  20   12.69    4.23
  -7  -7  21   15.38    3.73
  -7  -7  21   14.85    4.17
   8   8  14    0.42    5.28
   8   8  13   -0.99    4.20
   8   8  12   57.58    5.16
   8   8  11   18.16    3.82
   8   8  10   87.08    5.52
  -8  -8  -9   19.33    3.35
   8   8   9   23.97    3.87
  -8  -8  -8   12.21    3.26
   8   8   8    9.94    3.26
  -8  -8  -7   65.34    4.55
   8   8   7   67.52    4.85
  -8  -8  -6    0.38    2.68
   8   8   6   11.69    3.15
  -8  -8  -5    8.16    3.18
   8   8   5    6.54    3.41
  -8  -8  -4  207.70    9.87
   8   8   4  219.50   10.58
  -8  -8  -3   97.79    5.72
   8   8   3   98.68    5.74
  -8  -8  -2    0.48    2.65
   8   8   2    2.43    2.94
  -8  -8  -1  132.00    7.11
   8   8   1  139.70    7.38
  -8  -8   0   28.69    3.49
   8   8   0   25.52    3.54
  -8  -8   1   86.66    5.62
   8   8  -1   80.64    5.44
  -8  -8   2  116.70    6.62
   8   8  -2  109.10    6.54
  -8  -8   3  178.10    9.18
   8   8  -3  178.40    9.08
  -8  -8   4   20.94    3.57
   8   8  -4   17.88    3.40
  -8  -8   5  243.40   11.77
   8   8  -5  262.40   12.61
  -8  -8   6   12.69    3.77
   8   8  -6    8.25    3.48
  -8  -8   7  397.50   18.16
  -8  -8   8   97.44    6.38
  -8  -8   9   -3.89    3.67
  -8  -8  10  225.70   11.38
  -8  -8  11   55.15    5.08
  -8  -8  12    5.78    3.70
  -8  -8  13   46.35    4.83
  -8  -8  14   34.28    4.62
  -8  -8  15   37.38    4.84
  -8  -8  16    3.62    3.82
  -8  -8  17    0.68    3.82
  -8  -8  18   53.02    4.93
  -8  -8  19   58.11    5.28
  -8  -8  20    4.65    4.36
  -8  -8  21   10.10    4.32
   9   9  12    3.36    4.46
   9   9  11    1.53    4.06
   9   9  10   32.79    4.30
  -9  -9  -9   -7.43    3.02
   9   9   9    8.10    3.75
  -9  -9  -8  268.80   12.48
   9   9   8  228.70   10.92
  -9  -9  -7   31.84    3.61
   9   9   7   29.09    3.79
  -9  -9  -6   37.47    3.63
   9   9   6   40.29    4.21
  -9  -9  -5   74.86    5.04
   9   9   5   75.87    5.15
  -9  -9  -4   66.20    4.82
   9   9   4   61.40    4.86
  -9  -9  -3   -2.98    3.17
   9   9   3    0.91    3.55
  -9  -9  -2  446.40   19.75
   9   9   2  497.80   21.91
  -9  -9  -1   -2.18    3.14
   9   9   1    0.48    3.22
  -9  -9   0  297.70   13.72
   9   9   0  365.00   16.51
  -9  -9   1    4.39    3.21
   9   9  -1    5.40    3.25
  -9  -9   2   41.54    4.21
   9   9  -2   37.40    4.11
  -9  -9   3   33.21    4.13
   9   9  -3   38.48    4.16
  -9  -9   4  360.90   16.49
   9   9  -4  361.80   16.62
  -9  -9   5   26.99    3.80
   9   9  -5   22.05    3.83
  -9  -9   6  151.50    8.48
   9   9  -6  159.40    9.00
  -9  -9   7   -3.54    3.56
   9   9  -7    1.28    3.25
  -9  -9   8  147.60    8.39
  -9  -9   9   39.35    4.67
  -9  -9  10    4.94    3.66
  -9  -9  11   28.01    4.22
  -9  -9  12  144.60    8.13
  -9  -9  13    4.31    4.05
  -9  -9  14  138.70    7.95
  -9  -9  15   39.84    4.47
  -9  -9  16   14.37    3.95
  -9  -9  17   15.86    3.86
  -9  -9  18    6.41    3.78
  -9  -9  19    9.52    3.94
  -9  -9  20   38.03    4.58
  -9  -9  21   10.55    3.92
  10  10  11   -0.59    4.39
  10  10  10    8.53    4.15
 -10 -10  -9   15.19    3.84
  10  10   9   14.24    4.09
 -10 -10  -8    0.82    3.37
  10  10   8   -3.68    3.68
 -10 -10  -7   61.84    4.74
  10  10   7   68.98    5.28
 -10 -10  -6   18.27    3.36
  10  10   6    8.95    3.57
 -10 -10  -5   31.61    3.83
  10  10   5   38.26    4.43
 -10 -10  -4  112.10    6.54
  10  10   4  104.00    6.28
 -10 -10  -3  113.80    6.54
  10  10   3  116.10    6.77
 -10 -10  -2   58.29    4.68
  10  10   2   57.34    4.86
 -10 -10  -1  146.20    7.73
  10  10   1  143.40    7.72
 -10 -10   0  129.80    7.37
  10  10   0  102.80    6.23
 -10 -10   1   -2.63    3.41
  10  10  -1    0.83    3.32
 -10 -10   2  461.80   20.42
  10  10  -2  491.40   21.90
 -10 -10   3   34.13    4.24
  10  10  -3   33.18    4.29
 -10 -10   4   29.73    4.09
  10  10  -4   24.78    4.08
 -10 -10   5  333.00   15.42
  10  10  -5  345.00   16.06
 -10 -10   6    2.72    3.85
  10  10  -6    4.60    4.03
 -10 -10   7   96.71    6.33
  10  10  -7  100.80    6.51
 -10 -10   8   55.99    4.98
 -10 -10   9   39.72    4.96
 -10 -10  10  238.90   11.84
 -10 -10  11   12.61    3.89
 -10 -10  12  155.10    8.73
 -10 -10  13    7.66    3.77
 -10 -10  14    6.49    3.75
 -10 -10  15   75.79    5.76
 -10 -10  16   50.76    4.72
 -10 -10  17    4.88    3.55
 -10 -10  18  134.70    7.58
 -10 -10  19   28.44    4.21
 -10 -10  20   -1.47    3.65
 -10 -10  21    2.45    3.86
  11  11  10    1.77    4.77
 -11 -11  -9   -1.95    4.18
  11  11   9    7.85    4.22
 -11 -11  -8    4.04    3.77
  11  11   8    2.53    3.90
 -11 -11  -7   -0.93    3.56
  11  11   7    2.61    3.90
 -11 -11  -6   -1.77    3.28
  11  11   6   -0.04    3.42
 -11 -11  -5  106.00    6.21
  11  11   5   89.53    5.80
 -11 -11  -4   29.94    4.19
  11  11   4   26.76    3.66
 -11 -11  -3  109.80    6.46
  11  11   3  101.70    6.43
 -11 -11  -2    6.24    3.53
  11  11   2   -3.94    3.35
 -11 -11  -1   18.35    3.86
  11  11   1   10.87    3.62
 -11 -11   0   53.39    4.92
  11  11   0   49.87    4.84
 -11 -11   1   46.58    4.34
  11  11  -1   41.31    4.78
 -11 -11   2   99.43    6.26
  11  11  -2   98.97    6.49
 -11 -11   3  138.60    7.79
  11  11  -3  153.50    8.33
 -11 -11   4    4.83    3.59
  11  11  -4    4.92    3.48
 -11 -11   5  220.20   10.89
  11  11  -5  219.30   11.13
 -11 -11   6   76.54    5.72
  11  11  -6   64.34    5.29
 -11 -11   7   13.13    4.08
  11  11  -7   12.95    3.64
 -11 -11   8    9.24    4.00
 -11 -11   9  121.30    7.53
 -11 -11  10    1.57    4.18
 -11 -11  11  148.70    8.56
 -11 -11  12    5.00    3.93
 -11 -11  13   29.36    4.20
 -11 -11  14   34.02    4.49
 -11 -11  15    0.84    3.55
 -11 -11  16   -1.39    3.55
 -11 -11  17  103.70    6.55
 -11 -11  18    1.20    3.49
 -11 -11  19   36.82    4.63
 -11 -11  20    5.63    3.48
 -12 -12  -8    3.48    5.01
  12  12   8    2.74    4.53
 -12 -12  -7   25.95    4.50
  12  12   7   30.34    4.71
 -12 -12  -6   10.33    3.95
  12  12   6   10.49    4.22
 -12 -12  -5   25.26    4.25
  12  12   5   18.66    4.06
 -12 -12  -4   10.10    3.88
  12  12   4    7.24    3.76
 -12 -12  -3   15.86    4.05
  12  12   3   12.36    3.79
 -12 -12  -2    4.16    3.47
  12  12   2   -1.03    3.51
 -12 -12  -1  162.60    8.49
  12  12   1  157.00    8.34
 -12 -12   0   -0.43    3.47
  12  12   0    2.48    3.37
 -12 -12   1  100.20    6.22
  12  12  -1  100.70    6.27
 -12 -12   2   41.72    4.34
  12  12  -2   41.57    4.27
 -12 -12   3    1.79    3.15
  12  12  -3   -0.76    3.63
 -12 -12   4    0.21    3.67
  12  12  -4    3.80    3.72
 -12 -12   5   17.45    4.01
  12  12  -5   12.71    4.00
 -12 -12   6    0.00    3.42
  12  12  -6    0.51    3.77
 -12 -12   7  216.10   10.75
 -12 -12   8    5.58    4.00
 -12 -12   9   -5.11    3.81
 -12 -12  10  137.80    7.81
 -12 -12  11    4.42    3.76
 -12 -12  12   47.64    5.02
 -12 -12  13   33.72    4.34
 -12 -12  14    2.72    3.87
 -12 -12  15   49.79    4.93
 -12 -12  16    8.65    3.90
 -12 -12  17   15.65    3.94
 -12 -12  18   82.18    5.62
 -12 -12  19   37.98    4.49
 -13 -13  -6   10.84    4.94
  13  13   6   14.66    4.75
 -13 -13  -5   12.85    5.07
  13  13   5   17.71    4.69
 -13 -13  -4   23.18    4.66
  13  13   4   26.01    4.64
 -13 -13  -3    2.57    4.12
  13  13   3    6.99    4.05
 -13 -13  -2   43.36    4.83
  13  13   2   53.39    4.93
 -13 -13  -1   -1.02    3.67
  13  13   1    2.86    3.62
 -13 -13   0   62.95    5.38
  13  13   0   51.96    4.70
 -13 -13   1    0.42    3.95
  13  13  -1   -2.61    3.44
 -13 -13   2   16.25    4.02
  13  13  -2   21.86    4.26
 -13 -13   3    6.41    3.50
  13  13  -3    7.90    3.69
 -13 -13   4    1.85    3.44
  13  13  -4    1.86    3.42
 -13 -13   5   17.46    3.98
  13  13  -5   18.62    3.72
 -13 -13   6   20.48    3.87
  13  13  -6   14.75    3.79
 -13 -13   7   22.68    4.06
 -13 -13   8  134.60    7.61
 -13 -13   9    7.58    3.82
 -13 -13  10    3.93    3.63
 -13 -13  11   11.14    3.75
 -13 -13  12   27.75    4.42
 -13 -13  13    5.65    4.08
 -13 -13  14   84.91    5.82
 -13 -13  15   -1.95    3.47
 -13 -13  16   10.17    3.61
 -13 -13  17   17.05    3.97
 -13 -13  18   -3.55    3.31
 -14 -14  -4   21.00    5.16
  14  14   4   14.53    4.69
 -14 -14  -3    2.45    4.79
  14  14   3   -6.19    3.89
 -14 -14  -2   22.33    4.94
  14  14   2   15.00    3.97
 -14 -14  -1   -0.61    4.10
  14  14   1   -0.80    3.80
 -14 -14   0    7.51    3.98
  14  14   0    7.16    4.13
 -14 -14   1    4.22    3.95
  14  14  -1    0.47    3.65
 -14 -14   2   12.10    3.68
  14  14  -2   20.26    3.69
 -14 -14   3   -3.73    3.85
  14  14  -3   -1.98    3.66
 -14 -14   4   99.24    6.50
  14  14  -4   84.53    5.75
 -14 -14   5    6.13    3.41
  14  14  -5   15.77    4.06
 -14 -14   6   22.43    4.30
 -14 -14   7    6.09    3.87
 -14 -14   8    0.97    3.50
 -14 -14   9   -2.76    3.59
 -14 -14  10   50.02    4.58
 -14 -14  11   -5.44    3.47
 -14 -14  12   53.65    5.25
 -14 -14  13    4.59    3.81
 -14 -14  14   12.04    4.27
 -14 -14  15   17.84    4.32
 -14 -14  16   20.13    4.17
 -14 -14  17    0.49    3.32
 -15 -15  -1   15.52    5.29
  15  15   1    1.70    4.20
 -15 -15   0   11.31    4.78
  15  15   0    1.13    3.96
 -15 -15   1    1.94    4.36
  15  15  -1   -2.05    4.05
 -15 -15   2   12.44    4.36
  15  15  -2   12.97    4.11
 -15 -15   3   30.90    4.51
  15  15  -3   45.83    4.74
 -15 -15   4    6.79    3.66
  15  15  -4   -0.97    3.51
 -15 -15   5   82.21    5.85
 -15 -15   6    9.04    3.93
 -15 -15   7   -2.40    3.62
 -15 -15   8   34.05    4.35
 -15 -15   9    8.16    4.03
 -15 -15  10   -5.61    3.62
 -15 -15  11   25.40    4.34
 -15 -15  12    4.61    3.69
 -15 -15  13    2.36    3.47
 -15 -15  14   11.60    3.81
 -15 -15  15    0.36    3.25
 -16 -16   3   22.79    5.14
 -16 -16   4    5.55    4.79
 -16 -16   5    1.82    3.92
 -16 -16   6    2.47    4.36
 -16 -16   7   40.79    4.68
 -16 -16   8   14.82    4.18
 -16 -16   9   30.93    4.46
 -16 -16  10    4.54    3.98
 -16 -16  11   -4.06    3.67
 -16 -16  12    0.51    3.88
 -17 -15  13   10.96    3.74
 -17 -15  12   12.39    4.07
 -17 -15  11   47.84    5.11
 -17 -15  10   14.47    4.28
 -17 -15   9   -1.11    4.24
 -17 -15   8   57.54    5.12
 -17 -15   7    7.81    4.53
  17  15  -6    2.86    3.53
 -17 -15   6    4.11    4.19
  17  15  -5   43.19    4.86
 -17 -15   5   31.41    4.45
  17  15  -4    2.12    3.92
 -17 -15   4    6.99    4.97
  17  15  -3    4.31    4.51
 -17 -15   3   17.30    5.24
 -16 -14  16   10.31    3.78
 -16 -14  15    7.03    3.45
 -16 -14  14   -0.52    3.69
 -16 -14  13    0.76    3.57
 -16 -14  12   19.32    3.88
 -16 -14  11    4.65    3.66
 -16 -14  10   47.70    5.04
 -16 -14   9    3.82    4.01
 -16 -14   8    0.04    3.94
  16  14  -7   12.37    4.19
 -16 -14   7    8.93    4.02
  16  14  -6   18.57    4.07
 -16 -14   6   33.71    4.55
  16  14  -5    4.13    4.21
 -16 -14   5    2.93    3.87
  16  14  -4   59.84    5.15
 -16 -14   4   54.41    4.99
  16  14  -3    7.25    3.86
 -16 -14   3   10.56    4.29
  16  14  -2    6.72    4.22
 -16 -14   2   11.95    4.23
  16  14  -1    0.70    3.78
 -16 -14   1    3.39    4.56
  16  14   0    2.45    3.90
 -16 -14   0    9.99    4.67
  16  14   1    6.94    4.34
 -16 -14  -1    2.07    4.88
 -15 -13  18   -0.26    3.38
 -15 -13  17    6.96    3.89
 -15 -13  16   20.52    4.12
 -15 -13  15   -3.81    3.86
 -15 -13  14   79.02    5.95
 -15 -13  13    1.06    3.86
 -15 -13  12   14.43    3.98
 -15 -13  11   12.52    4.10
 -15 -13  10   25.10    4.37
 -15 -13   9   19.68    3.83
  15  13  -8   40.32    4.47
 -15 -13   8   30.08    4.34
  15  13  -7   13.45    3.80
 -15 -13   7   26.35    3.97
  15  13  -6   51.45    4.79
 -15 -13   6   59.93    5.23
  15  13  -5   -5.88    3.57
 -15 -13   5   -0.88    3.69
  15  13  -4    3.40    3.83
 -15 -13   4    0.88    3.30
  15  13  -3    5.25    3.38
 -15 -13   3   -0.87    3.37
  15  13  -2   55.96    5.02
 -15 -13   2   64.19    5.22
  15  13  -1    3.59    3.74
 -15 -13   1    0.78    3.59
  15  13   0   43.70    4.88
 -15 -13   0   36.01    4.71
  15  13   1   -7.72    3.88
 -15 -13  -1    2.04    3.94
  15  13   2    0.68    4.15
 -15 -13  -2   -3.98    4.21
  15  13   3   14.86    4.59
 -15 -13  -3   10.28    4.91
 -14 -12  19   15.16    3.98
 -14 -12  18   16.87    3.65
 -14 -12  17    2.02    3.93
 -14 -12  16    3.65    3.79
 -14 -12  15   76.00    5.70
 -14 -12  14    9.67    4.28
 -14 -12  13   35.75    4.57
 -14 -12  12   94.12    6.78
 -14 -12  11   -2.13    3.81
 -14 -12  10   30.81    4.03
 -14 -12   9  100.50    6.58
  14  12  -8    1.67    3.48
 -14 -12   8   -0.12    3.67
  14  12  -7  120.10    7.49
 -14 -12   7  114.00    6.99
  14  12  -6    2.54    3.91
 -14 -12   6    2.22    3.39
  14  12  -5   -2.82    3.95
 -14 -12   5    8.59    3.62
  14  12  -4   28.96    4.17
 -14 -12   4   35.05    4.39
  14  12  -3    4.79    3.46
 -14 -12   3    1.07    3.32
  14  12  -2   14.29    3.99
 -14 -12   2   22.88    4.14
  14  12  -1  112.00    6.82
 -14 -12   1  122.60    7.06
  14  12   0    0.84    3.70
 -14 -12   0    0.46    3.36
  14  12   1  101.70    6.52
 -14 -12  -1   96.57    6.26
  14  12   2   18.79    4.06
 -14 -12  -2   24.31    4.41
  14  12   3   -6.23    3.77
 -14 -12  -3   -1.93    4.44
  14  12   4   10.67    3.90
 -14 -12  -4    8.94    4.39
  14  12   5   16.90    4.36
 -14 -12  -5   15.43    4.84
  14  12   6   -2.85    4.35
 -14 -12  -6    2.05    4.79
 -13 -11  20   -3.03    3.60
 -13 -11  19  114.30    7.03
 -13 -11  18    8.38    3.72
 -13 -11  17   36.18    4.96
 -13 -11  16    1.73    3.58
 -13 -11  15   -5.99    3.63
 -13 -11  14   18.58    3.81
 -13 -11  13  136.50    7.88
 -13 -11  12   10.92    3.94
 -13 -11  11   70.22    5.47
 -13 -11  10    4.97    3.85
  13  11  -9   13.23    3.71
 -13 -11   9   23.14    3.92
  13  11  -8   42.11    4.43
 -13 -11   8   24.81    4.25
  13  11  -7    5.18    3.72
 -13 -11   7   -0.43    3.45
  13  11  -6    0.54    3.55
 -13 -11   6    6.14    3.75
  13  11  -5   69.90    5.66
 -13 -11   5   54.77    4.81
  13  11  -4    6.43    3.48
 -13 -11   4   -1.52    3.69
  13  11  -3  171.90    9.17
 -13 -11   3  145.40    8.18
  13  11  -2    7.52    3.99
 -13 -11   2    5.04    3.61
  13  11  -1   10.24    3.79
 -13 -11   1    7.00    3.89
  13  11   0   47.71    4.71
 -13 -11   0   44.09    4.48
  13  11   1    6.06    3.48
 -13 -11  -1    6.38    3.86
  13  11   2   24.24    4.09
 -13 -11  -2   15.84    3.75
  13  11   3   37.01    4.41
 -13 -11  -3   32.04    4.44
  13  11   4    5.21    3.60
 -13 -11  -4    0.07    3.88
  13  11   5   26.12    4.36
 -13 -11  -5   25.83    4.17
  13  11   6   10.42    4.21
 -13 -11  -6   17.00    4.11
  13  11   7   -2.24    4.24
 -13 -11  -7   -3.25    4.29
  13  11   8    8.69    5.45
 -13 -11  -8    9.29    4.89
 -12 -10  21   24.84    4.46
 -12 -10  20    8.86    3.83
 -12 -10  19    7.33    4.00
 -12 -10  18   39.19    4.55
 -12 -10  17    9.78    3.89
 -12 -10  16   51.34    4.97
 -12 -10  15   50.64    5.20
 -12 -10  14    8.22    3.68
 -12 -10  13   21.48    3.99
 -12 -10  12  273.30   13.34
 -12 -10  11    6.81    4.09
 -12 -10  10   70.37    5.93
  12  10  -9   13.84    3.83
 -12 -10   9   19.05    4.08
  12  10  -8   15.43    4.15
 -12 -10   8   16.42    3.76
  12  10  -7   23.75    4.25
 -12 -10   7   24.06    4.00
  12  10  -6   41.39    4.64
 -12 -10   6   43.99    4.73
  12  10  -5    1.56    3.59
 -12 -10   5    8.34    3.81
  12  10  -4   81.04    6.02
 -12 -10   4   67.92    5.25
  12  10  -3  125.30    7.63
 -12 -10   3  149.70    8.30
  12  10  -2  216.30   10.91
 -12 -10   2  287.90   13.51
  12  10  -1    5.65    3.59
 -12 -10   1   10.05    3.95
  12  10   0    2.81    3.76
 -12 -10   0    0.54    3.41
  12  10   1  111.30    6.92
 -12 -10  -1  121.20    6.97
  12  10   2   35.55    4.40
 -12 -10  -2   36.38    4.16
  12  10   3   24.41    4.05
 -12 -10  -3   23.66    3.84
  12  10   4   93.61    6.28
 -12 -10  -4   72.87    5.32
  12  10   5   45.29    4.68
 -12 -10  -5   54.75    4.55
  12  10   6   29.82    4.37
 -12 -10  -6   20.38    4.11
  12  10   7   20.03    4.16
 -12 -10  -7   19.77    4.06
  12  10   8    2.66    4.18
 -12 -10  -8   -2.96    4.43
  12  10   9    9.64    4.58
 -12 -10  -9    3.96    4.67
 -11  -9  21    5.17    3.59
 -11  -9  20   57.21    4.99
 -11  -9  19    0.35    3.51
 -11  -9  18    1.25    3.63
 -11  -9  17    6.52    3.59
 -11  -9  16   41.88    4.79
 -11  -9  15    3.16    3.88
 -11  -9  14  179.60    9.55
 -11  -9  13   -0.91    3.45
 -11  -9  12  109.80    7.01
 -11  -9  11   65.94    5.40
 -11  -9  10   50.06    4.86
  11   9  -9   37.19    4.53
 -11  -9   9   23.76    4.39
  11   9  -8  117.90    7.47
 -11  -9   8   72.66    5.61
  11   9  -7   13.07    3.81
 -11  -9   7   10.72    3.82
  11   9  -6  399.90   18.27
 -11  -9   6  428.50   19.31
  11   9  -5   87.24    6.15
 -11  -9   5   83.16    5.73
  11   9  -4   89.80    6.39
 -11  -9   4   94.14    6.24
  11   9  -3   70.26    5.57
 -11  -9   3   65.00    5.34
  11   9  -2   54.85    4.97
 -11  -9   2   75.57    5.45
  11   9  -1   -1.41    3.44
 -11  -9   1    4.60    3.16
  11   9   0  346.20   15.96
 -11  -9   0  340.20   15.63
  11   9   1   -3.65    3.70
 -11  -9  -1    2.40    3.40
  11   9   2  289.40   13.58
 -11  -9  -2  272.70   12.85
  11   9   3    6.93    3.77
 -11  -9  -3    7.76    3.56
  11   9   4    4.86    3.35
 -11  -9  -4    3.89    3.42
  11   9   5    0.73    3.25
 -11  -9  -5    2.07    3.24
  11   9   6   76.25    5.64
 -11  -9  -6   56.84    4.76
  11   9   7    5.30    3.62
 -11  -9  -7    1.83    3.50
  11   9   8   82.67    5.77
 -11  -9  -8  111.10    6.77
  11   9   9   -1.01    4.22
 -11  -9  -9    3.13    4.14
  11   9  10    5.65    4.79
  11   9  11    3.05    4.80
 -10  -8  22    3.04    3.97
 -10  -8  21   20.63    4.36
 -10  -8  20   12.34    4.19
 -10  -8  19   14.10    3.88
 -10  -8  18   18.01    3.92
 -10  -8  17    7.89    3.67
 -10  -8  16   97.98    6.31
 -10  -8  15   64.57    5.29
 -10  -8  14   31.84    4.32
 -10  -8  13   59.52    5.18
 -10  -8  12   26.12    4.19
 -10  -8  11    6.91    3.71
 -10  -8  10  123.50    7.51
  10   8  -9  101.00    6.31
 -10  -8   9  114.50    7.21
  10   8  -8  150.80    9.14
 -10  -8   8  125.60    7.56
  10   8  -7  193.40   10.17
 -10  -8   7  183.80    9.68
  10   8  -6    6.86    3.49
 -10  -8   6   15.63    3.73
  10   8  -5  121.40    7.36
 -10  -8   5  125.80    7.42
  10   8  -4  115.40    6.87
 -10  -8   4  108.10    6.38
  10   8  -3   11.37    3.71
 -10  -8   3    5.19    3.31
  10   8  -2   39.34    4.21
 -10  -8   2   59.29    4.94
  10   8  -1   56.46    4.54
 -10  -8   1   42.39    4.08
  10   8   0   17.29    3.99
 -10  -8   0   18.06    3.73
  10   8   1  172.70    9.08
 -10  -8  -1  168.40    8.74
  10   8   2   44.59    4.29
 -10  -8  -2   45.75    4.12
  10   8   3   53.33    4.88
 -10  -8  -3   49.99    4.48
  10   8   4    4.92    3.71
 -10  -8  -4    6.63    3.46
  10   8   5   35.66    4.39
 -10  -8  -5   28.41    3.54
  10   8   6  126.50    7.04
 -10  -8  -6  113.40    6.55
  10   8   7   30.94    4.00
 -10  -8  -7   35.95    3.95
  10   8   8   -1.99    3.32
 -10  -8  -8   -0.94    3.30
  10   8   9    5.18    3.49
 -10  -8  -9   -1.73    3.55
  10   8  10   42.07    4.96
  10   8  11    3.32    4.51
  10   8  12    7.57    4.58
  -9  -7  22   -1.46    3.77
  -9  -7  21   14.19    4.12
  -9  -7  20   -2.48    3.79
  -9  -7  19   74.80    5.72
  -9  -7  18    7.13    3.62
  -9  -7  17   83.27    5.86
  -9  -7  16   -6.13    3.67
  -9  -7  15   71.14    5.88
  -9  -7  14   88.74    6.41
  -9  -7  13   -0.19    3.67
  -9  -7  12   -0.32    3.49
  -9  -7  11  255.00   12.42
  -9  -7  10   18.35    3.95
  -9  -7   9  776.70   33.60
   9   7  -8   22.18    3.92
  -9  -7   8   28.23    4.10
   9   7  -7    7.39    3.71
  -9  -7   7    6.43    3.71
   9   7  -6    4.62    3.44
  -9  -7   6   17.95    3.96
   9   7  -5   94.04    6.13
  -9  -7   5   80.94    5.79
   9   7  -4   97.94    6.19
  -9  -7   4   87.89    5.95
   9   7  -3  611.20   26.54
  -9  -7   3  604.40   26.33
   9   7  -2    0.82    2.94
  -9  -7   2    4.55    3.23
   9   7  -1   60.39    4.69
  -9  -7   1   63.86    4.50
   9   7   0   16.10    3.41
  -9  -7   0   10.93    3.29
   9   7   1    4.17    3.12
  -9  -7  -1    2.32    3.15
   9   7   2    3.70    3.26
  -9  -7  -2    7.85    2.99
   9   7   3  157.90    8.42
  -9  -7  -3  146.40    7.56
   9   7   4  109.60    6.51
  -9  -7  -4   96.86    6.08
   9   7   5   64.19    5.02
  -9  -7  -5   64.90    4.78
   9   7   6    5.70    3.08
  -9  -7  -6    1.95    3.03
   9   7   7    7.44    3.33
  -9  -7  -7   17.93    3.38
   9   7   8   59.13    4.85
  -9  -7  -8   90.18    5.71
   9   7   9   24.37    4.00
  -9  -7  -9   26.40    3.78
   9   7  10   -1.62    3.78
   9   7  11   99.27    6.36
   9   7  12   -0.83    4.29
   9   7  13   14.89    5.22
  -8  -6  22    0.69    3.77
  -8  -6  22   -3.22    3.58
  -8  -6  21   26.46    4.44
  -8  -6  20    2.92    4.09
  -8  -6  19   13.58    4.17
  -8  -6  18  134.10    7.68
  -8  -6  17    2.79    3.68
  -8  -6  16  150.30    8.36
  -8  -6  15    5.83    3.68
  -8  -6  14   13.58    3.89
  -8  -6  13  508.00   22.65
  -8  -6  12  186.20    9.79
  -8  -6  11   51.52    4.94
  -8  -6  10  137.30    7.79
  -8  -6   9   26.97    3.97
   8   6  -8  493.70   22.04
  -8  -6   8  500.90   22.23
   8   6  -7  762.80   32.79
  -8  -6   7  757.80   32.63
   8   6  -6   91.98    6.00
  -8  -6   6   85.97    5.74
   8   6  -5  303.90   14.21
  -8  -6   5  282.20   13.40
   8   6  -4  125.80    7.28
  -8  -6   4  172.70    8.91
   8   6  -3  188.80    9.57
  -8  -6   3  198.40    9.82
   8   6  -2  302.10   14.03
  -8  -6   2  279.80   13.08
   8   6  -1  454.90   20.14
  -8  -6   1  410.60   18.21
   8   6   0   12.65    3.41
  -8  -6   0   13.55    3.23
   8   6   1  165.40    8.55
  -8  -6  -1  172.00    8.86
   8   6   2    7.67    3.16
  -8  -6  -2   10.06    3.38
   8   6   3  316.30   14.41
  -8  -6  -3  294.10   13.46
   8   6   4  138.80    7.46
  -8  -6  -4  151.40    7.78
   8   6   5  227.40   10.88
  -8  -6  -5  207.00    9.99
   8   6   6   10.94    3.34
  -8  -6  -6   17.55    3.25
   8   6   7  147.20    7.79
  -8  -6  -7  138.60    7.33
   8   6   8    7.81    3.45
  -8  -6  -8    0.86    2.96
   8   6   9  242.90   11.61
  -8  -6  -9  228.00   10.84
   8   6  10    2.16    3.14
   8   6  11   28.96    3.97
   8   6  12    1.47    3.53
   8   6  13    4.14    3.84
   8   6  14   16.46    4.79
  -7  -5  22   18.73    4.17
  -7  -5  22   10.49    3.79
  -7  -5  21   -1.54    3.96
  -7  -5  21    1.07    3.68
  -7  -5  20   40.02    4.65
  -7  -5  19    1.38    3.51
  -7  -5  18   33.57    4.32
  -7  -5  17   -5.96    3.44
  -7  -5  16   21.64    3.91
  -7  -5  15   30.65    4.20
  -7  -5  14  349.90   16.21
  -7  -5  13   21.10    3.91
  -7  -5  12  352.00   16.26
  -7  -5  11   -1.02    3.40
  -7  -5  10   68.64    5.28
  -7  -5   9    4.28    3.74
  -7  -5   8   39.80    4.35
   7   5  -7   67.86    5.44
  -7  -5   7   69.63    5.33
   7   5  -6 3766.00  156.30
  -7  -5   6 3629.00  150.70
   7   5  -5    9.05    3.51
  -7  -5   5   13.83    3.58
   7   5  -4  161.40    8.45
  -7  -5   4  155.20    8.28
   7   5  -3   68.35    5.02
  -7  -5   3   80.65    5.49
   7   5  -2   81.28    5.52
  -7  -5   2   84.20    5.40
   7   5  -1   55.83    4.38
  -7  -5   1   54.81    4.39
   7   5   0  821.20   34.99
  -7  -5   0 1118.00   47.10
   7   5   1   16.05    3.32
  -7  -5  -1   13.91    3.32
   7   5   2    3.29    2.68
  -7  -5  -2    0.05    2.89
   7   5   3   32.26    3.62
  -7  -5  -3   35.58    3.62
   7   5   4  228.70   10.86
  -7  -5  -4  241.70   11.26
   7   5   5    1.32    2.80
  -7  -5  -5    0.74    2.67
   7   5   6    8.10    2.90
  -7  -5  -6    3.75    2.84
   7   5   7   17.94    3.36
  -7  -5  -7   24.08    3.54
   7   5   8  183.00    9.21
  -7  -5  -8  190.80    9.45
   7   5   9   -1.03    3.09
  -7  -5  -9    0.76    2.91
   7   5  10  151.20    8.00
   7   5  11    1.95    3.09
   7   5  12   15.39    3.51
   7   5  13    6.28    3.63
   7   5  14   11.95    3.74
   7   5  15    4.21    4.19
  -6  -4  22   29.12    4.83
  -6  -4  22   44.56    4.59
  -6  -4  21   15.14    4.07
  -6  -4  21    9.39    3.81
  -6  -4  20    3.82    3.53
  -6  -4  20    0.25    3.43
  -6  -4  19    2.26    3.32
  -6  -4  19    1.74    3.32
  -6  -4  18   27.92    4.05
  -6  -4  17   27.34    4.18
  -6  -4  16  332.50   15.38
  -6  -4  15   73.74    5.43
  -6  -4  14  299.30   14.09
  -6  -4  13  153.10    8.39
  -6  -4  12    1.00    3.62
  -6  -4  11  102.10    6.58
  -6  -4  10  269.90   12.87
  -6  -4   9   69.49    5.48
  -6  -4   8 1428.00   60.12
   6   4  -7    6.90    3.35
  -6  -4   7    9.84    3.71
   6   4  -6  116.00    6.88
  -6  -4   6  105.00    6.46
   6   4  -5   35.07    4.10
  -6  -4   5   42.10    4.39
   6   4  -4  188.80    9.66
  -6  -4   4  192.80    9.64
   6   4  -3  417.70   18.62
  -6  -4   3  407.40   18.08
   6   4  -2   96.79    5.93
  -6  -4   2   99.02    5.86
   6   4  -1    7.49    3.10
  -6  -4   1    9.86    3.27
   6   4   0  383.50   17.05
  -6  -4   0  367.10   16.23
   6   4   1   51.80    4.23
  -6  -4  -1   47.41    4.03
   6   4   2  123.20    6.72
  -6  -4  -2  123.50    6.66
   6   4   3  459.60   20.16
  -6  -4  -3  528.80   23.03
   6   4   4   30.66    3.57
  -6  -4  -4   29.08    3.22
   6   4   5   59.35    4.37
  -6  -4  -5   72.11    4.81
   6   4   6  261.00   12.08
  -6  -4  -6  260.00   11.95
   6   4   7   67.06    4.77
  -6  -4  -7   54.14    4.19
   6   4   8   10.64    3.25
  -6  -4  -8   10.63    3.30
   6   4   9   71.24    5.04
  -6  -4  -9   78.59    5.58
   6   4  10  108.20    6.34
   6   4  11   37.92    4.31
   6   4  12  141.60    7.60
   6   4  13   11.63    3.85
   6   4  14   88.58    5.89
   6   4  15    0.93    3.66
   6   4  16    2.10    4.35
  -5  -3  22    3.75    4.05
  -5  -3  22    2.20    3.65
  -5  -3  21   35.94    4.89
  -5  -3  21   39.04    4.52
  -5  -3  20   29.01    4.28
  -5  -3  20   27.59    4.07
  -5  -3  19    0.55    3.24
  -5  -3  19   -6.19    3.62
  -5  -3  18  117.70    6.74
  -5  -3  18  117.20    7.06
  -5  -3  17   13.76    3.38
  -5  -3  16   50.53    4.55
  -5  -3  15  119.70    7.13
  -5  -3  14  197.90   10.02
  -5  -3  13  152.90    8.30
  -5  -3  12  198.70   10.04
  -5  -3  11   11.56    3.35
  -5  -3  10  136.90    7.52
  -5  -3   9  458.40   20.32
  -5  -3   8   10.24    3.47
  -5  -3   7  494.20   21.79
   5   3  -6   97.39    6.61
  -5  -3   6   86.85    5.76
   5   3  -5   82.82    5.38
  -5  -3   5   84.02    5.79
   5   3  -4  798.60   34.03
  -5  -3   4  777.10   33.22
   5   3  -3  384.10   17.12
  -5  -3   3  302.70   13.87
   5   3  -2   88.76    5.68
  -5  -3   2   87.23    5.64
   5   3  -1   47.24    4.09
  -5  -3   1   53.08    4.41
   5   3   0  154.60    7.92
  -5  -3   0  155.70    7.88
   5   3   1  449.20   19.62
  -5  -3  -1  397.60   17.45
   5   3   2   90.69    5.25
  -5  -3  -2   89.11    5.38
   5   3   3  307.70   13.85
  -5  -3  -3  286.20   13.04
   5   3   4   11.71    3.02
  -5  -3  -4    9.88    2.68
   5   3   5  293.30   13.36
  -5  -3  -5  305.10   13.73
   5   3   6   12.43    3.05
  -5  -3  -6    3.87    2.65
   5   3   7  363.80   16.27
  -5  -3  -7  327.90   14.69
   5   3   8   38.79    3.83
  -5  -3  -8   27.93    3.47
   5   3   9   70.53    4.80
   5   3  10   13.04    3.34
   5   3  11  189.80    9.53
   5   3  12  100.40    6.22
   5   3  13  281.60   13.05
   5   3  14   10.82    3.52
   5   3  15   15.27    3.71
   5   3  16    4.25    3.70
   5   3  17   -0.89    4.10
  -4  -2  22    6.36    4.11
  -4  -2  22   13.65    4.44
  -4  -2  21   22.27    4.08
  -4  -2  21   24.05    4.09
  -4  -2  20    1.59    3.81
  -4  -2  20   -1.00    3.32
  -4  -2  19  157.80    8.29
  -4  -2  19  164.70    8.62
  -4  -2  18    3.64    3.48
  -4  -2  18    6.72    3.56
  -4  -2  17   39.29    4.23
  -4  -2  17   37.75    4.31
  -4  -2  16    1.57    3.47
  -4  -2  16    0.25    3.21
  -4  -2  15   66.33    5.30
  -4  -2  14   13.00    3.73
  -4  -2  13  219.40   10.81
  -4  -2  12   35.49    4.27
  -4  -2  11  508.70   22.35
  -4  -2  10    8.42    3.26
  -4  -2   9  323.30   14.78
  -4  -2   8   10.19    3.36
  -4  -2   7   25.46    3.70
  -4  -2   6  118.00    6.76
   4   2  -5   49.45    4.72
  -4  -2   5   44.46    4.48
   4   2  -4   80.86    5.97
  -4  -2   4   66.52    4.93
   4   2  -3 3371.00  139.80
  -4  -2   3 3138.00  130.10
   4   2  -2 1068.00   44.86
  -4  -2   2 1004.00   42.25
   4   2  -1  556.80   23.94
  -4  -2   1  590.40   25.33
   4   2   0  542.40   23.38
  -4  -2   0  428.40   18.72
   4   2   1  104.90    5.96
  -4  -2  -1  115.20    6.35
   4   2   2  183.20    8.92
  -4  -2  -2  175.50    8.52
   4   2   3  957.20   40.40
  -4  -2  -3  916.40   38.66
   4   2   4    4.28    2.93
  -4  -2  -4    5.08    2.86
   4   2   5   55.19    4.27
  -4  -2  -5   70.12    4.64
   4   2   6   66.85    4.61
  -4  -2  -6   68.13    4.48
   4   2   7  201.20    9.76
  -4  -2  -7  180.10    8.87
   4   2   8  132.90    7.22
   4   2   9  348.20   15.66
   4   2  10   -0.94    2.88
   4   2  11  280.80   13.14
   4   2  12   24.43    3.81
   4   2  13    3.77    3.55
   4   2  14   -0.49    3.30
   4   2  15  112.90    6.64
   4   2  16   -2.00    3.54
   4   2  17   23.56    4.13
   4   2  18   -6.47    4.26
  -3  -1  21    6.32    4.21
  -3  -1  21   12.08    4.14
  -3  -1  20   65.31    5.71
  -3  -1  20   50.39    4.69
  -3  -1  19   14.28    3.74
  -3  -1  19   15.24    3.59
  -3  -1  18   71.25    5.45
  -3  -1  18   54.86    4.65
  -3  -1  17  110.00    6.64
  -3  -1  17  107.60    6.41
  -3  -1  16   48.72    4.63
  -3  -1  16   55.31    4.69
  -3  -1  14   75.68    5.42
  -3  -1  14   74.74    5.40
  -3  -1  13   -2.84    3.28
  -3  -1  12    7.22    3.26
  -3  -1  11   19.44    3.23
  -3  -1  10  666.60   28.73
  -3  -1   9  155.80    8.13
  -3  -1   8   58.68    4.66
  -3  -1   7  172.70    8.92
  -3  -1   6  102.20    6.12
  -3  -1   5  278.70   12.83
   3   1  -4    3.45    3.68
  -3  -1   4    0.24    3.49
   3   1  -3 1307.00   54.61
  -3  -1   3 1678.00   69.76
   3   1  -2 2035.00   84.43
  -3  -1   2 1713.00   71.12
   3   1  -1 1139.00   47.58
  -3  -1   1 1059.00   44.28
   3   1   0   15.11    3.05
  -3  -1   0   13.09    2.94
   3   1   1 1241.00   51.85
  -3  -1  -1 1206.00   50.38
   3   1   2  222.80   10.43
  -3  -1  -2  230.00   10.66
   3   1   3  254.10   11.71
  -3  -1  -3  243.90   11.20
   3   1   4  986.90   41.58
  -3  -1  -4  956.40   40.30
   3   1   5 1115.00   46.88
  -3  -1  -5 1073.00   45.15
   3   1   6    1.60    2.76
  -3  -1  -6    4.46    2.90
   3   1   7  209.20   10.11
   3   1   8   81.78    5.30
   3   1   9    4.93    3.09
   3   1  10  165.40    8.58
   3   1  11   14.58    3.60
   3   1  12   33.98    4.26
   3   1  13   33.69    4.22
   3   1  14    8.88    3.50
   3   1  15  110.20    6.65
   3   1  16   51.03    4.73
   3   1  17   -4.13    3.61
   3   1  18   28.49    4.38
  -2   0  21    3.46    4.10
  -2   0  21   -1.08    4.03
  -2   0  20   51.35    5.16
  -2   0  20   46.42    4.55
  -2   0  19    1.19    3.59
  -2   0  19    6.51    4.02
  -2   0  18   -3.09    3.44
  -2   0  18    8.09    3.69
  -2   0  17   -2.21    3.83
  -2   0  17   -6.29    3.13
  -2   0  16  180.50    9.11
  -2   0  16  188.40    9.41
  -2   0  15   -4.24    3.41
  -2   0  15   -0.62    2.93
  -2   0  14  333.90   15.25
  -2   0  13    4.34    3.17
  -2   0  12   25.51    3.63
  -2   0   5   -0.44    3.04
  -2   0   4   76.07    4.78
   2   0  -3    0.43    2.46
  -2   0   3   -2.28    2.49
   2   0  -2  613.70   25.74
  -2   0   2  656.00   27.45
   2   0  -1    2.76    2.17
  -2   0   1    0.45    1.88
   2   0   0 1382.00   57.38
  -2   0   0 1381.00   57.27
   2   0   1    1.16    2.74
  -2   0  -1    4.55    2.77
   2   0   2  438.70   18.94
  -2   0  -2  468.30   20.15
   2   0   3    2.14    2.86
  -2   0  -3    5.86    3.18
   2   0   4  117.80    6.55
  -2   0  -4  150.80    7.64
   2   0   5   -0.30    2.97
   2   0   6 2794.00  116.00
   2   0   7   -0.94    3.02
   2   0   8  122.40    6.89
   2   0   9   -0.31    3.22
   2   0  10  122.00    6.91
   2   0  11   -1.57    3.34
   2   0  12   96.08    6.06
   2   0  13    1.95    3.15
   2   0  14   76.58    5.57
   2   0  15   -4.80    3.40
   2   0  16  103.40    6.33
   2   0  17    1.85    3.62
   2   0  18   -7.26    3.68
   2   0  19    3.38    4.11
  -1   1  20   18.29    4.37
  -1   1  20   21.66    4.25
  -1   1  19   31.90    4.25
  -1   1  19   29.20    4.34
  -1   1  18   64.56    5.03
  -1   1  18   72.95    5.58
  -1   1  17    1.30    3.48
  -1   1  17    6.83    3.74
  -1   1  16   68.69    5.13
  -1   1  15   57.12    4.41
  -1   1  14    2.91    2.88
  -1   1  13  109.90    6.28
  -1   1  12  182.80    9.11
  -1   1  11  102.50    5.86
  -1   1  10   17.06    3.10
  -1   1   9    7.08    2.77
  -1   1   8   47.36    3.87
   1  -1  -2  939.00   38.91
  -1   1   2  928.20   38.44
   1  -1   0  142.30    6.28
  -1   1   0  141.00    6.24
   1  -1   1  138.30    6.56
  -1   1  -1  141.50    6.58
   1  -1   2 2447.00  101.40
  -1   1  -2 2310.00   95.76
   1  -1   3  187.70    9.07
   1  -1   4  860.60   36.41
   1  -1   5  353.60   15.82
   1  -1   6   20.75    3.47
   1  -1   7 1002.00   42.38
   1  -1   8   83.56    5.33
   1  -1   9   37.22    4.01
   1  -1  10  623.70   27.05
   1  -1  11    4.20    3.39
   1  -1  12   98.85    6.64
   1  -1  13   43.98    4.41
   1  -1  14    3.62    3.23
   1  -1  15   47.37    4.94
   1  -1  16   32.51    4.20
   1  -1  17    1.04    3.57
   1  -1  18   25.53    4.14
   1  -1  19    6.02    3.70
   1  -1  20   -4.49    4.27
   1  -1  20    4.03    4.53
   0   2  20    4.05    4.53
   0   2  20    7.06    5.00
   0   2  19   22.20    4.35
   0   2  19   30.76    4.51
   0   2  18    0.10    3.55
   0   2  18    1.39    3.44
   0   2  17   66.44    5.10
   0   2  17   61.47    5.03
   0   2  16   39.05    4.09
   0   2  15    6.22    3.31
   0   2  14   -7.35    2.86
   0   2  13   19.73    3.63
   0   2  12   24.71    3.30
   0   2  11  523.00   22.74
   0   2  10   26.44    3.19
   0   2   9   33.74    3.19
   0   2   8  343.00   15.07
   0   2   7  203.80    9.39
   0   2   6  120.10    5.95
   0   2   5  597.10   25.17
   0   2   4   30.36    2.53
   0   2   3  549.60   23.01
   0  -2  -2  394.30   16.48
   0   2   2  420.20   17.54
   0  -2  -1   15.76    1.27
   0  -2   7  199.50    9.80
   0  -2   8  403.90   18.04
   0  -2   9   35.48    3.92
   0  -2  10   33.01    3.78
   0  -2  11  522.10   22.98
   0  -2  12   24.62    3.72
   0  -2  13   13.16    3.40
   0  -2  14   -1.68    2.96
   0  -2  15    6.38    3.44
   0  -2  16   48.44    4.88
   0  -2  17   84.45    5.58
   0  -2  18   -0.07    4.21
   0  -2  19   34.93    4.28
   0  -2  19   34.97    4.40
   0  -2  20    2.31    4.20
   0  -2  20    6.86    3.78
   1   3  19   -2.09    4.23
   1   3  19   -3.07    4.10
   1   3  18   21.24    4.18
   1   3  18   19.60    4.02
   1   3  17   25.71    3.68
   1   3  16   85.73    5.61
   1   3  15   24.41    3.74
   1   3  14   58.07    4.52
   1   3  13   61.81    4.66
   1   3  12   58.88    4.37
   1   3  11   26.41    3.22
   1   3  10   57.14    4.03
   1   3   9  132.40    6.73
   1   3   8  125.50    6.32
   1   3   7  743.00   31.34
   1   3   6   38.18    3.02
   1   3   5  247.80   10.90
  -1  -3  -4   60.32    3.36
   1   3   4   62.83    3.54
  -1  -3  -3  179.90    7.90
   1   3   3  186.20    8.23
  -1  -3  -2    1.74    1.58
   1   3   2    3.62    1.79
   1   3   1 2191.00   90.60
  -1  -3   0  221.80    9.84
   1   3   0  217.50    9.74
  -1  -3  11   10.91    3.40
  -1  -3  12   82.53    5.96
  -1  -3  13  206.60   10.39
  -1  -3  14    0.11    3.51
  -1  -3  15   22.31    4.13
  -1  -3  16   21.80    4.08
  -1  -3  17   -3.36    3.34
  -1  -3  18   39.70    4.27
  -1  -3  18   51.62    4.77
  -1  -3  19   36.13    4.91
  -1  -3  19   24.48    3.86
  -1  -3  20   14.18    4.20
  -1  -3  20   10.27    3.87
   2   4  19    4.08    4.69
   2   4  19    6.05    4.93
   2   4  18   -3.50    4.01
   2   4  18    7.32    3.99
   2   4  17   20.30    3.87
   2   4  16   53.10    4.56
   2   4  15    1.58    3.06
   2   4  14  220.00   10.59
   2   4  13    6.40    3.09
   2   4  12   -0.43    2.76
   2   4  11  132.80    6.87
   2   4  10   27.77    3.08
   2   4   9  132.10    6.66
   2   4   8  840.50   35.42
   2   4   7   11.83    2.37
  -2  -4  -6  526.50   22.34
   2   4   6  562.20   23.86
  -2  -4  -5  209.80    9.39
   2   4   5  211.80    9.55
  -2  -4  -4  287.40   12.48
   2   4   4  286.40   12.43
  -2  -4  -3  352.00   15.05
   2   4   3  360.70   15.45
  -2  -4  -2  257.70   11.20
   2   4   2  255.50   11.17
  -2  -4  -1   24.69    2.59
   2   4   1   30.98    2.71
  -2  -4   0  135.90    6.69
   2   4   0  130.10    6.55
  -2  -4   1  407.10   17.74
   2   4  -1  367.10   16.23
  -2  -4   2 1941.00   80.88
  -2  -4   3   68.31    4.95
  -2  -4  13   36.65    4.40
  -2  -4  14  148.70    8.30
  -2  -4  15    7.76    3.75
  -2  -4  16  149.00    8.30
  -2  -4  17  149.50    8.11
  -2  -4  17  164.00    8.71
  -2  -4  18   -1.07    3.67
  -2  -4  18   -1.17    3.90
  -2  -4  19   34.03    4.02
  -2  -4  19   28.88    4.59
  -2  -4  20   21.70    4.34
  -2  -4  20   23.97    4.18
  -2  -4  21    1.44    3.91
  -2  -4  21   14.63    4.23
   3   5  18   29.26    4.89
   3   5  18   24.01    5.02
   3   5  17    9.07    3.98
   3   5  16   82.19    5.60
   3   5  15    4.24    3.46
   3   5  14    3.19    3.21
   3   5  13    2.33    3.07
   3   5  12   23.30    3.52
   3   5  11  214.80   10.15
   3   5  10  120.20    6.37
   3   5   9   81.35    4.89
   3   5   8  422.50   18.38
  -3  -5  -7  125.60    6.16
   3   5   7  130.80    6.49
  -3  -5  -6  126.00    6.03
   3   5   6  117.60    5.94
  -3  -5  -5   26.73    2.44
   3   5   5   27.69    2.63
  -3  -5  -4  423.20   18.15
   3   5   4  424.90   18.22
  -3  -5  -3  132.60    6.51
   3   5   3  125.90    6.09
  -3  -5  -2  145.80    6.92
   3   5   2  140.90    6.80
  -3  -5  -1  173.10    8.18
   3   5   1  163.60    7.67
  -3  -5   0    0.70    2.69
   3   5   0   -0.12    2.62
  -3  -5   1  145.10    7.37
   3   5  -1  133.10    7.01
  -3  -5   2 1274.00   53.43
   3   5  -2 1312.00   54.99
  -3  -5   3    1.35    3.29
  -3  -5   4  232.60   11.01
  -3  -5   5   45.54    4.49
  -3  -5   6 1372.00   57.79
  -3  -5   7   14.96    3.67
  -3  -5  14  147.20    8.15
  -3  -5  15   -1.74    3.60
  -3  -5  15    3.71    3.81
  -3  -5  16   25.44    3.96
  -3  -5  16   23.02    4.09
  -3  -5  17    1.56    3.71
  -3  -5  17    6.17    3.64
  -3  -5  18  127.20    7.22
  -3  -5  18  121.90    7.13
  -3  -5  19   11.50    4.01
  -3  -5  19   24.89    4.34
  -3  -5  20   28.41    4.25
  -3  -5  20   26.40    3.86
  -3  -5  21    5.55    3.89
  -3  -5  21   -0.71    3.94
   4   6  17   23.67    4.66
   4   6  16    4.47    4.00
   4   6  15   14.32    3.53
   4   6  14  129.40    7.07
   4   6  13   -0.34    2.78
   4   6  12   40.01    3.76
   4   6  11  271.20   12.43
   4   6  10   21.51    3.00
   4   6   9   51.43    3.76
  -4  -6  -8   28.41    2.88
   4   6   8   28.55    3.01
  -4  -6  -7  117.30    6.03
   4   6   7  120.60    6.15
  -4  -6  -6  218.80    9.97
   4   6   6  230.70   10.41
  -4  -6  -5   58.62    3.52
   4   6   5   63.12    3.98
  -4  -6  -4    7.18    2.27
   4   6   4   12.02    2.40
  -4  -6  -3  291.50   12.87
   4   6   3  309.20   13.62
  -4  -6  -2   61.30    3.97
   4   6   2   68.32    4.20
  -4  -6  -1  343.80   15.03
   4   6   1  336.80   14.85
  -4  -6   0  128.20    6.60
   4   6   0  132.20    6.82
  -4  -6   1   23.92    3.29
   4   6  -1   29.70    3.20
  -4  -6   2   33.08    3.69
   4   6  -2   33.75    3.91
  -4  -6   3    6.49    3.25
   4   6  -3   -2.57    3.04
  -4  -6   4 1017.00   43.10
  -4  -6   5 1584.00   66.47
  -4  -6   6   56.78    4.78
  -4  -6   7  174.60    9.13
  -4  -6   8   37.37    4.45
  -4  -6   9   38.60    4.37
  -4  -6  10   28.96    4.94
  -4  -6  11  415.10   18.95
  -4  -6  12    7.65    4.23
  -4  -6  13   75.88    6.28
  -4  -6  14   46.53    5.00
  -4  -6  15   -0.18    3.58
  -4  -6  16  118.40    7.25
  -4  -6  17   59.51    5.04
  -4  -6  17   52.91    4.83
  -4  -6  18    4.57    3.77
  -4  -6  18    0.29    3.73
  -4  -6  19  107.90    6.50
  -4  -6  19  118.70    7.40
  -4  -6  20   27.55    3.94
  -4  -6  20   34.29    4.39
  -4  -6  21   14.68    4.11
  -4  -6  21    7.98    3.82
   5   7  16   -0.99    4.71
   5   7  15   29.74    4.64
   5   7  14    2.70    3.63
   5   7  13  184.80    9.14
   5   7  12   43.90    3.97
   5   7  11  264.50   12.16
   5   7  10    4.83    2.82
   5   7   9   42.86    3.72
  -5  -7  -8   36.29    3.21
   5   7   8   35.53    3.37
  -5  -7  -7  401.40   17.51
   5   7   7  410.70   17.86
  -5  -7  -6   11.45    2.58
   5   7   6    5.04    2.56
  -5  -7  -5  423.30   18.27
   5   7   5  414.60   17.99
  -5  -7  -4  147.40    7.05
   5   7   4  151.60    7.36
  -5  -7  -3  123.40    6.20
   5   7   3  125.00    6.37
  -5  -7  -2   64.78    4.23
   5   7   2   55.39    3.84
  -5  -7  -1   21.29    2.91
   5   7   1   19.77    3.22
  -5  -7   0   65.25    4.34
   5   7   0   64.52    4.54
  -5  -7   1  492.60   21.51
   5   7  -1  496.80   21.66
  -5  -7   2   30.93    3.64
   5   7  -2   27.01    3.52
  -5  -7   3  199.90    9.85
   5   7  -3  191.50    9.60
  -5  -7   4    8.51    3.48
  -5  -7   5    2.13    3.46
  -5  -7   6   94.84    6.16
  -5  -7   7  462.80   20.52
  -5  -7   8   -2.69    3.20
  -5  -7   9  298.30   14.02
  -5  -7  10   -1.99    3.72
  -5  -7  11   91.59    6.10
  -5  -7  12  106.60    6.81
  -5  -7  13  539.90   23.99
  -5  -7  14   83.73    6.01
  -5  -7  15  161.00    8.75
  -5  -7  16    2.45    3.66
  -5  -7  17  114.70    6.88
  -5  -7  18   -1.53    3.43
  -5  -7  18    5.65    3.50
  -5  -7  19    1.09    3.73
  -5  -7  19   -1.11    3.58
  -5  -7  20    2.38    3.91
  -5  -7  20    0.78    3.60
  -5  -7  21   36.35    4.42
  -5  -7  21   44.86    4.87
   6   8  15    1.85    4.30
   6   8  14   19.31    4.04
   6   8  13   10.25    3.63
   6   8  12   50.74    4.37
   6   8  11   13.06    3.26
   6   8  10   57.74    4.32
   6   8   9   31.78    3.79
  -6  -8  -8   -0.60    2.68
   6   8   8    1.61    2.73
  -6  -8  -7   71.32    4.43
   6   8   7   78.09    4.95
  -6  -8  -6  316.70   14.04
   6   8   6  276.20   12.56
  -6  -8  -5    9.95    2.60
   6   8   5    5.28    2.67
  -6  -8  -4  299.50   13.31
   6   8   4  279.00   12.68
  -6  -8  -3    6.07    2.59
   6   8   3   11.14    2.77
  -6  -8  -2    6.99    2.75
   6   8   2    7.52    2.54
  -6  -8  -1  201.80    9.63
   6   8   1  230.70   10.78
  -6  -8   0    0.51    2.56
   6   8   0    5.39    2.87
  -6  -8   1   10.80    3.28
   6   8  -1   12.39    3.14
  -6  -8   2  461.90   20.36
   6   8  -2  418.10   18.75
  -6  -8   3  315.20   14.36
   6   8  -3  305.30   14.12
  -6  -8   4   77.95    5.39
   6   8  -4   71.73    5.16
  -6  -8   5   39.92    4.13
  -6  -8   6   16.20    3.74
  -6  -8   7   66.27    5.25
  -6  -8   8  342.70   15.89
  -6  -8   9    0.90    3.57
  -6  -8  10   50.37    4.85
  -6  -8  11  377.80   17.34
  -6  -8  12    2.88    3.58
  -6  -8  13   80.76    5.88
  -6  -8  14   20.83    3.94
  -6  -8  15   -1.08    3.42
  -6  -8  16   72.90    5.55
  -6  -8  17   37.79    4.42
  -6  -8  18   29.73    4.24
  -6  -8  19   37.35    4.21
  -6  -8  19   38.16    4.58
  -6  -8  20    0.88    3.56
  -6  -8  20    0.55    3.63
  -6  -8  21   45.50    4.95
  -6  -8  21   43.89    4.63
   7   9  14    9.21    4.39
   7   9  13    0.38    3.90
   7   9  12    1.00    3.74
   7   9  11    0.59    3.38
   7   9  10  105.80    6.02
  -7  -9  -9   -1.43    2.48
   7   9   9    4.41    3.26
  -7  -9  -8  226.40   10.45
   7   9   8  250.70   11.67
  -7  -9  -7    8.68    2.76
   7   9   7   11.51    2.92
  -7  -9  -6    0.75    2.82
   7   9   6    2.06    2.70
  -7  -9  -5    0.65    2.55
   7   9   5    2.34    3.00
  -7  -9  -4   90.16    5.37
   7   9   4  102.90    6.02
  -7  -9  -3    8.78    2.85
   7   9   3    8.42    2.74
  -7  -9  -2  378.30   16.88
   7   9   2  369.90   16.49
  -7  -9  -1    4.95    2.65
   7   9   1    0.43    2.97
  -7  -9   0  153.50    7.76
   7   9   0  154.70    7.90
  -7  -9   1   53.75    4.55
   7   9  -1   55.34    4.41
  -7  -9   2   83.32    5.33
   7   9  -2   80.79    5.50
  -7  -9   3    9.51    3.11
   7   9  -3    1.43    3.49
  -7  -9   4  495.90   21.95
   7   9  -4  530.00   23.26
  -7  -9   5  120.70    7.10
  -7  -9   6  172.20    9.03
  -7  -9   7   75.58    5.59
  -7  -9   8   36.73    4.38
  -7  -9   9    6.79    3.71
  -7  -9  10   29.03    4.55
  -7  -9  11  117.60    7.15
  -7  -9  12  222.00   11.25
  -7  -9  13   17.22    3.89
  -7  -9  14  337.60   15.71
  -7  -9  15   27.29    4.29
  -7  -9  16   45.62    4.83
  -7  -9  17   10.41    3.80
  -7  -9  18   29.22    4.24
  -7  -9  19    1.54    4.08
  -7  -9  20   24.29    4.31
  -7  -9  21   -2.29    4.07
  -7  -9  21   -3.82    3.70
   8  10  13   -1.30    4.72
   8  10  12   12.65    4.25
   8  10  11   -0.29    3.80
   8  10  10   22.45    4.02
  -8 -10  -9   70.31    4.80
   8  10   9   79.75    5.48
  -8 -10  -8   -0.25    2.79
   8  10   8   -2.67    3.35
  -8 -10  -7   10.67    2.94
   8  10   7   11.47    3.42
  -8 -10  -6   83.16    5.36
   8  10   6   78.97    5.40
  -8 -10  -5   -4.02    2.75
   8  10   5    1.46    3.17
  -8 -10  -4  128.10    6.86
   8  10   4  148.00    7.62
  -8 -10  -3   98.65    5.91
   8  10   3   72.82    4.92
  -8 -10  -2   24.81    3.38
   8  10   2   20.20    3.52
  -8 -10  -1  191.20    9.46
   8  10   1  183.20    9.21
  -8 -10   0  153.60    7.93
   8  10   0  152.30    8.08
  -8 -10   1    0.25    3.09
   8  10  -1   -3.78    3.09
  -8 -10   2  436.30   19.42
   8  10  -2  398.90   17.96
  -8 -10   3   70.93    5.13
   8  10  -3   69.93    5.30
  -8 -10   4  216.80   10.87
   8  10  -4  246.00   11.96
  -8 -10   5   19.95    3.55
  -8 -10   6  119.10    7.30
  -8 -10   7   24.12    3.98
  -8 -10   8  109.90    6.87
  -8 -10   9   14.49    3.76
  -8 -10  10  139.80    8.18
  -8 -10  11   24.99    4.27
  -8 -10  12   55.88    5.05
  -8 -10  13    1.81    3.69
  -8 -10  14   -3.11    3.69
  -8 -10  15   11.90    3.84
  -8 -10  16   94.16    6.35
  -8 -10  17    2.39    3.95
  -8 -10  18   55.76    5.01
  -8 -10  19   14.07    4.20
  -8 -10  20    2.00    3.82
   9  11  11   18.70    4.10
   9  11  10    2.32    3.77
  -9 -11  -9    8.92    3.02
   9  11   9   16.32    3.75
  -9 -11  -8    1.86    3.34
   9  11   8    5.93    3.43
  -9 -11  -7    3.30    3.01
   9  11   7   -0.64    2.96
  -9 -11  -6    4.54    3.14
   9  11   6    2.84    3.38
  -9 -11  -5  123.30    6.71
   9  11   5   98.19    6.00
  -9 -11  -4    3.42    3.40
   9  11   4    5.56    3.17
  -9 -11  -3   91.70    5.62
   9  11   3  118.60    6.79
  -9 -11  -2    3.92    3.17
   9  11   2    3.36    3.26
  -9 -11  -1   16.76    3.31
   9  11   1   20.52    3.45
  -9 -11   0   27.04    3.63
   9  11   0   19.38    3.64
  -9 -11   1  110.20    6.47
   9  11  -1  121.10    6.89
  -9 -11   2  235.20   11.44
   9  11  -2  252.80   12.13
  -9 -11   3  119.00    6.79
   9  11  -3  109.60    6.72
  -9 -11   4   18.67    3.63
   9  11  -4   21.14    4.03
  -9 -11   5    3.73    3.61
  -9 -11   6   33.45    4.05
  -9 -11   7  222.40   11.06
  -9 -11   8   10.94    3.73
  -9 -11   9  175.90    9.33
  -9 -11  10    8.75    3.72
  -9 -11  11  136.10    7.93
  -9 -11  12    5.46    3.53
  -9 -11  13    8.43    3.82
  -9 -11  14   15.81    4.07
  -9 -11  15   37.21    4.61
  -9 -11  16    2.52    3.62
  -9 -11  17  148.50    8.27
  -9 -11  18    0.75    3.77
  -9 -11  19   10.23    3.91
  -9 -11  20    0.03    3.97
  10  12  10   -0.17    4.44
  10  12   9   24.32    4.55
 -10 -12  -8    9.26    3.78
  10  12   8    3.06    3.77
 -10 -12  -7   44.71    4.30
  10  12   7   55.24    4.80
 -10 -12  -6    4.78    3.34
  10  12   6    3.84    3.48
 -10 -12  -5   -1.94    3.15
  10  12   5    0.28    3.31
 -10 -12  -4   51.28    4.57
  10  12   4   48.38    4.44
 -10 -12  -3   80.03    5.46
  10  12   3   81.39    5.46
 -10 -12  -2    1.66    3.20
  10  12   2   -2.59    3.30
 -10 -12  -1  177.40    8.99
  10  12   1  184.00    9.26
 -10 -12   0    8.36    3.23
  10  12   0    9.71    3.05
 -10 -12   1   70.73    5.17
  10  12  -1   64.11    4.83
 -10 -12   2  143.00    7.79
  10  12  -2  160.00    8.56
 -10 -12   3   -0.62    3.67
  10  12  -3    3.49    3.66
 -10 -12   4   17.93    3.73
  10  12  -4   23.47    4.13
 -10 -12   5  161.40    8.74
 -10 -12   6   -3.67    3.62
 -10 -12   7  244.60   12.14
 -10 -12   8   -0.14    4.06
 -10 -12   9    0.28    4.11
 -10 -12  10    8.88    3.79
 -10 -12  11    5.77    3.88
 -10 -12  12   42.00    4.53
 -10 -12  13  135.30    7.72
 -10 -12  14   22.29    3.80
 -10 -12  15   34.70    4.40
 -10 -12  16   41.52    4.43
 -10 -12  17    6.01    3.56
 -10 -12  18   20.16    4.00
 -10 -12  19   15.73    3.88
 -11 -13  -8   12.49    4.31
  11  13   8    9.64    4.56
 -11 -13  -7   -0.90    3.94
  11  13   7    7.72    4.13
 -11 -13  -6   45.95    4.65
  11  13   6   35.67    4.63
 -11 -13  -5   -0.99    3.48
  11  13   5   -0.65    3.53
 -11 -13  -4    7.22    3.50
  11  13   4    5.37    3.59
 -11 -13  -3   16.72    3.69
  11  13   3   13.68    3.44
 -11 -13  -2   54.29    4.89
  11  13   2   55.97    4.64
 -11 -13  -1    1.40    3.54
  11  13   1   -4.15    3.61
 -11 -13   0   70.42    5.21
  11  13   0   69.27    5.15
 -11 -13   1   18.10    3.82
  11  13  -1   19.71    3.79
 -11 -13   2   37.49    4.11
  11  13  -2   38.92    4.73
 -11 -13   3   60.23    5.23
  11  13  -3   71.75    5.46
 -11 -13   4   -0.20    3.26
  11  13  -4   -0.07    3.06
 -11 -13   5   49.81    4.63
 -11 -13   6  142.10    7.89
 -11 -13   7    6.61    3.87
 -11 -13   8   38.01    4.58
 -11 -13   9   -0.42    3.96
 -11 -13  10   -3.19    3.86
 -11 -13  11  107.60    6.95
 -11 -13  12   25.11    4.22
 -11 -13  13   -0.04    3.92
 -11 -13  14  111.90    6.78
 -11 -13  15    5.98    4.05
 -11 -13  16   27.41    4.21
 -11 -13  17   18.59    3.89
 -11 -13  18   34.06    4.13
 -11 -13  19    0.75    3.34
 -12 -14  -6    2.92    4.62
  12  14   6    0.31    4.56
 -12 -14  -5    2.38    4.25
  12  14   5    7.49    4.66
 -12 -14  -4   22.83    4.32
  12  14   4   18.28    4.52
 -12 -14  -3    2.70    4.17
  12  14   3    2.55    3.67
 -12 -14  -2   33.31    4.68
  12  14   2   46.50    4.61
 -12 -14  -1    6.04    3.91
  12  14   1    0.10    3.60
 -12 -14   0    4.93    3.82
  12  14   0   -0.67    3.52
 -12 -14   1    3.14    3.74
  12  14  -1   -4.07    3.71
 -12 -14   2   33.35    4.28
  12  14  -2   44.05    4.51
 -12 -14   3   -0.77    3.48
  12  14  -3   -3.88    3.12
 -12 -14   4  127.60    7.31
 -12 -14   5    4.34    3.83
 -12 -14   6   54.28    4.78
 -12 -14   7   -0.63    3.58
 -12 -14   8    9.42    3.79
 -12 -14   9    2.56    3.85
 -12 -14  10  150.90    8.52
 -12 -14  11    0.17    3.98
 -12 -14  12   51.99    4.91
 -12 -14  13    1.62    3.99
 -12 -14  14    5.16    3.66
 -12 -14  15    4.49    3.78
 -12 -14  16   44.97    4.45
 -12 -14  17   -1.47    3.35
 -12 -14  18   15.77    3.68
 -13 -15  -4   -3.19    4.52
  13  15   4    6.23    4.90
 -13 -15  -3    9.29    4.87
  13  15   3    6.63    4.84
 -13 -15  -2   -1.28    4.49
  13  15   2    1.74    4.06
 -13 -15  -1   11.53    4.18
  13  15   1   15.97    4.02
 -13 -15   0   24.55    4.29
  13  15   0   26.35    4.28
 -13 -15   1   -2.09    4.00
  13  15  -1   -8.42    3.56
 -13 -15   2   23.99    4.25
 -13 -15   3   61.92    5.10
 -13 -15   4    7.79    3.84
 -13 -15   5   -1.36    3.74
 -13 -15   6   56.93    4.78
 -13 -15   7    7.99    3.75
 -13 -15   8   18.97    4.03
 -13 -15   9   31.43    4.21
 -13 -15  10   12.27    3.71
 -13 -15  11   89.75    6.14
 -13 -15  12   21.95    4.42
 -13 -15  13   22.43    4.33
 -13 -15  14   13.02    3.72
 -13 -15  15   -1.88    3.38
 -13 -15  16   12.36    3.49
 -14 -16  -1   20.39    5.42
 -14 -16   0    7.39    4.77
 -14 -16   1   37.59    5.07
 -14 -16   2    2.66    4.17
 -14 -16   3    5.77    4.16
 -14 -16   4    8.01    4.07
 -14 -16   5   52.18    4.99
 -14 -16   6    5.68    3.80
 -14 -16   7   44.03    4.83
 -14 -16   8    5.68    3.88
 -14 -16   9   27.67    4.15
 -14 -16  10   -1.22    3.73
 -14 -16  11   -0.60    3.99
 -14 -16  12   -2.47    3.95
 -14 -16  13   14.09    3.80
 -14 -16  14    8.25    3.80
 -15 -17   3   25.40    5.47
 -15 -17   4    0.48    4.66
 -15 -17   5   17.48    4.38
 -15 -17   6   -1.34    3.87
 -15 -17   7    3.78    4.06
 -15 -17   8   12.59    4.21
 -15 -17   9    3.11    3.83
 -15 -17  10    2.22    3.60
 -15 -17  11   21.40    3.84
 -18 -14  14   12.22    3.73
 -18 -14  13    1.30    3.89
 -18 -14  12   61.60    5.25
 -18 -14  11   -3.28    4.00
 -18 -14  10   26.54    4.20
  18  14  -9   -4.62    3.29
 -18 -14   9    4.07    4.07
  18  14  -8   10.18    3.74
 -18 -14   8   11.98    4.09
  18  14  -7    4.38    4.01
 -18 -14   7    7.11    4.15
  18  14  -6   26.45    4.01
 -18 -14   6   32.94    4.36
  18  14  -5   -3.28    3.67
 -18 -14   5   -0.83    4.78
  18  14  -4   12.37    3.70
 -18 -14   4   13.16    4.47
  18  14  -3    3.08    4.47
 -18 -14   3    3.00    4.52
 -17 -13  16   42.60    4.52
 -17 -13  15    1.18    3.58
 -17 -13  14   31.41    4.33
 -17 -13  13    1.72    3.50
 -17 -13  12    4.63    3.61
 -17 -13  11   22.52    4.38
 -17 -13  10   16.76    4.14
  17  13  -9   20.70    4.08
 -17 -13   9   11.04    4.24
  17  13  -8   63.77    5.75
 -17 -13   8   50.90    4.82
  17  13  -7   -4.35    3.81
 -17 -13   7   -2.20    3.82
  17  13  -6   13.24    4.11
 -17 -13   6   18.51    4.31
  17  13  -5    0.26    3.67
 -17 -13   5    6.43    3.69
  17  13  -4   22.68    4.05
 -17 -13   4   15.81    3.95
  17  13  -3    3.88    3.50
 -17 -13   3    0.25    4.30
  17  13  -2   26.28    4.37
 -17 -13   2   25.90    4.35
  17  13  -1    4.09    4.03
 -17 -13   1    3.59    3.98
  17  13   0   13.58    4.47
 -17 -13   0   14.27    4.93
 -16 -12  18    2.69    3.91
 -16 -12  17   22.61    4.13
 -16 -12  16    0.81    3.76
 -16 -12  15  129.50    7.30
 -16 -12  14    7.19    3.95
 -16 -12  13   13.67    3.85
 -16 -12  12    7.22    3.70
 -16 -12  11    4.17    3.75
  16  12 -10    0.34    3.73
 -16 -12  10   -3.30    4.02
  16  12  -9   72.71    5.54
 -16 -12   9   77.42    5.58
  16  12  -8    1.01    3.68
 -16 -12   8   10.08    3.79
  16  12  -7   53.46    5.01
 -16 -12   7   49.61    4.68
  16  12  -6   50.74    4.86
 -16 -12   6   48.04    4.88
  16  12  -5    5.68    3.68
 -16 -12   5    5.53    3.54
  16  12  -4    6.52    4.06
 -16 -12   4    4.50    4.28
  16  12  -3   39.44    4.91
 -16 -12   3   42.48    4.73
  16  12  -2   13.56    4.06
 -16 -12   2   11.61    3.79
  16  12  -1   44.19    4.80
 -16 -12   1   48.49    5.31
  16  12   0    1.57    3.98
 -16 -12   0    4.93    3.70
  16  12   1    2.59    4.02
 -16 -12  -1    6.38    4.27
  16  12   2    1.78    4.03
 -16 -12  -2   16.59    4.90
  16  12   3    8.28    4.17
 -16 -12  -3    7.52    4.81
 -15 -11  19   68.74    5.34
 -15 -11  18    6.92    3.75
 -15 -11  17   47.26    5.01
 -15 -11  16    2.77    3.95
 -15 -11  15   -2.14    4.10
 -15 -11  14   33.20    4.56
 -15 -11  13  103.70    6.63
 -15 -11  12    4.41    3.85
 -15 -11  11   21.31    4.27
  15  11 -10    4.33    3.82
 -15 -11  10   -0.72    3.50
  15  11  -9   15.24    3.85
 -15 -11   9    8.97    4.23
  15  11  -8   45.22    4.72
 -15 -11   8   34.84    4.36
  15  11  -7    5.35    4.07
 -15 -11   7   12.79    3.99
  15  11  -6    1.49    3.67
 -15 -11   6    4.88    3.46
  15  11  -5   99.49    6.44
 -15 -11   5   96.77    6.15
  15  11  -4   -1.05    3.64
 -15 -11   4    2.32    3.45
  15  11  -3   88.21    6.19
 -15 -11   3   95.34    6.05
  15  11  -2   12.42    3.98
 -15 -11   2   11.69    4.06
  15  11  -1    9.35    4.10
 -15 -11   1    7.89    3.73
  15  11   0   14.03    3.62
 -15 -11   0   16.91    4.00
  15  11   1   25.42    4.28
 -15 -11  -1   25.16    4.39
  15  11   2    4.86    3.83
 -15 -11  -2   -0.22    3.81
  15  11   3   84.11    5.85
 -15 -11  -3   63.01    5.37
  15  11   4    0.79    3.84
 -15 -11  -4    5.26    4.33
  15  11   5   20.50    4.06
 -15 -11  -5   19.23    4.92
 -14 -10  20   14.78    3.78
 -14 -10  19    4.35    4.05
 -14 -10  18   54.75    4.99
 -14 -10  17    3.39    4.12
 -14 -10  16   38.90    4.88
 -14 -10  15   30.07    4.69
 -14 -10  14   14.21    3.89
 -14 -10  13    4.55    3.98
 -14 -10  12   29.25    4.42
  14  10 -11    5.69    3.51
 -14 -10  11   -5.92    3.78
  14  10 -10   31.92    4.39
 -14 -10  10   21.99    4.40
  14  10  -9    4.00    3.83
 -14 -10   9    0.13    3.78
  14  10  -8   -6.78    3.53
 -14 -10   8    3.42    3.86
  14  10  -7   32.01    4.31
 -14 -10   7   40.19    4.80
  14  10  -6   10.20    3.85
 -14 -10   6    5.16    3.55
  14  10  -5   30.72    4.34
 -14 -10   5   30.46    4.05
  14  10  -4   11.01    4.20
 -14 -10   4   11.46    3.73
  14  10  -3   15.66    3.95
 -14 -10   3   14.56    3.60
  14  10  -2   31.65    4.26
 -14 -10   2   39.57    4.87
  14  10  -1   11.39    3.92
 -14 -10   1   14.78    4.05
  14  10   0    4.23    3.76
 -14 -10   0    4.14    3.75
  14  10   1    2.36    3.67
 -14 -10  -1    1.35    3.65
  14  10   2   29.46    4.23
 -14 -10  -2   37.48    4.55
  14  10   3    5.11    4.02
 -14 -10  -3    3.40    3.73
  14  10   4   89.80    6.19
 -14 -10  -4   83.80    5.93
  14  10   5    2.37    4.26
 -14 -10  -5   -1.95    3.77
  14  10   6   -2.43    4.14
 -14 -10  -6   -0.68    4.65
  14  10   7    8.26    4.71
 -14 -10  -7    7.99    4.84
 -13  -9  21    4.18    3.85
 -13  -9  20   57.34    5.14
 -13  -9  19    9.03    3.89
 -13  -9  18   -3.92    3.71
 -13  -9  17   -2.57    3.62
 -13  -9  16   36.50    4.63
 -13  -9  15    5.88    3.91
 -13  -9  14   40.03    4.40
 -13  -9  13    4.02    3.94
 -13  -9  12    2.26    3.72
  13   9 -11   16.90    3.64
 -13  -9  11   14.72    3.96
  13   9 -10   73.82    6.01
 -13  -9  10   75.73    5.93
  13   9  -9   15.79    4.47
 -13  -9   9    3.47    3.57
  13   9  -8   63.02    5.40
 -13  -9   8   64.47    5.38
  13   9  -7   19.12    4.05
 -13  -9   7   11.30    3.80
  13   9  -6   49.09    4.90
 -13  -9   6   56.77    5.05
  13   9  -5   17.46    4.08
 -13  -9   5   10.60    3.96
  13   9  -4    8.50    3.98
 -13  -9   4   11.14    3.67
  13   9  -3  224.30   11.32
 -13  -9   3  229.20   11.22
  13   9  -2   43.27    4.67
 -13  -9   2   46.16    4.87
  13   9  -1   25.06    4.03
 -13  -9   1   36.09    4.36
  13   9   0  367.50   16.88
 -13  -9   0  342.80   15.76
  13   9   1   12.76    4.03
 -13  -9  -1    8.13    3.78
  13   9   2   32.06    4.33
 -13  -9  -2   32.89    4.38
  13   9   3   18.76    3.92
 -13  -9  -3   13.69    3.78
  13   9   4   21.19    4.09
 -13  -9  -4   22.34    3.69
  13   9   5   11.07    3.54
 -13  -9  -5   16.15    4.21
  13   9   6   52.68    5.10
 -13  -9  -6   45.99    4.37
  13   9   7    1.28    3.94
 -13  -9  -7   -5.37    4.12
  13   9   8   46.97    4.85
 -13  -9  -8   43.66    5.32
  13   9   9    8.19    4.49
 -13  -9  -9    5.55    4.78
 -12  -8  22    9.80    3.91
 -12  -8  21    9.36    3.85
 -12  -8  20   29.61    4.47
 -12  -8  19   14.19    4.02
 -12  -8  18   82.67    6.03
 -12  -8  17    5.84    3.75
 -12  -8  16    6.65    3.72
 -12  -8  15   78.93    5.95
 -12  -8  14   11.64    4.08
 -12  -8  13   48.11    4.97
 -12  -8  12   38.32    5.02
  12   8 -11   -2.16    3.09
 -12  -8  11   -5.88    4.13
  12   8 -10  188.70    9.89
 -12  -8  10  212.70   10.88
  12   8  -9   62.57    5.43
 -12  -8   9   70.10    5.82
  12   8  -8   24.64    4.28
 -12  -8   8   22.64    4.14
  12   8  -7   45.83    4.77
 -12  -8   7   45.71    4.70
  12   8  -6   48.36    4.95
 -12  -8   6   35.63    4.52
  12   8  -5  281.00   13.55
 -12  -8   5  377.70   17.21
  12   8  -4  155.50    8.62
 -12  -8   4  187.80    9.64
  12   8  -3   48.12    5.01
 -12  -8   3   42.32    4.28
  12   8  -2   65.07    5.45
 -12  -8   2   65.90    5.21
  12   8  -1  109.40    7.07
 -12  -8   1  114.90    6.96
  12   8   0   12.05    3.61
 -12  -8   0    9.41    3.68
  12   8   1  139.10    7.91
 -12  -8  -1  151.70    8.35
  12   8   2   -2.24    3.69
 -12  -8  -2    0.49    3.53
  12   8   3   19.49    4.31
 -12  -8  -3   38.03    4.38
  12   8   4   26.69    4.26
 -12  -8  -4   34.33    3.96
  12   8   5    3.51    3.77
 -12  -8  -5    7.68    3.40
  12   8   6   80.23    5.83
 -12  -8  -6   55.43    4.68
  12   8   7   60.59    5.11
 -12  -8  -7   54.52    4.76
  12   8   8    1.46    3.92
 -12  -8  -8   10.43    3.90
  12   8   9   13.25    4.07
 -12  -8  -9    9.25    4.30
  12   8  10   -1.07    4.57
 -11  -7  22    3.36    3.79
 -11  -7  21   -2.43    3.76
 -11  -7  20    6.89    4.24
 -11  -7  19   22.18    4.43
 -11  -7  18   -1.75    3.99
 -11  -7  17   52.71    4.86
 -11  -7  16   15.68    3.86
 -11  -7  15   13.07    3.90
 -11  -7  14   -4.88    3.98
 -11  -7  13    9.40    4.13
 -11  -7  12    0.53    3.57
 -11  -7  11  239.70   11.83
  11   7 -10    4.18    3.70
 -11  -7  10    1.68    3.93
  11   7  -9  318.40   15.05
 -11  -7   9  303.00   14.38
  11   7  -8   -1.58    3.45
 -11  -7   8   -4.86    3.70
  11   7  -7   11.12    3.79
 -11  -7   7    8.59    3.71
  11   7  -6    9.64    3.74
 -11  -7   6    8.82    3.73
  11   7  -5   18.70    4.19
 -11  -7   5   25.99    4.38
  11   7  -4   43.31    4.39
 -11  -7   4   46.66    4.83
  11   7  -3  658.70   28.65
 -11  -7   3  637.80   27.66
  11   7  -2    8.60    3.77
 -11  -7   2   10.46    3.59
  11   7  -1   55.94    4.76
 -11  -7   1   53.45    4.62
  11   7   0   10.77    3.77
 -11  -7   0   18.10    3.85
  11   7   1   -1.45    3.85
 -11  -7  -1    1.07    3.34
  11   7   2    6.19    3.44
 -11  -7  -2    6.10    3.60
  11   7   3   17.08    3.56
 -11  -7  -3   18.39    3.70
  11   7   4    1.22    3.20
 -11  -7  -4   -0.70    3.34
  11   7   5  109.40    6.87
 -11  -7  -5  107.20    6.42
  11   7   6   67.90    5.02
 -11  -7  -6   58.30    4.76
  11   7   7   13.50    3.54
 -11  -7  -7   24.33    3.90
  11   7   8   13.10    3.75
 -11  -7  -8   12.75    3.79
  11   7   9   12.07    3.94
 -11  -7  -9   12.02    4.08
  11   7  10    2.49    4.01
  11   7  11   27.89    4.68
 -10  -6  22    6.14    3.93
 -10  -6  21   63.96    5.65
 -10  -6  20    6.67    3.98
 -10  -6  19    9.97    3.78
 -10  -6  18   13.78    3.59
 -10  -6  17   -0.73    3.31
 -10  -6  16   38.01    4.51
 -10  -6  15    8.55    3.66
 -10  -6  14    4.61    3.58
 -10  -6  13  208.10   10.61
 -10  -6  12   62.85    5.29
 -10  -6  11   92.30    6.41
  10   6 -10  376.30   17.17
 -10  -6  10  362.40   16.75
  10   6  -9  108.50    6.97
 -10  -6   9  104.90    6.73
  10   6  -8   15.72    3.84
 -10  -6   8    8.51    3.82
  10   6  -7  361.60   16.66
 -10  -6   7  395.90   18.07
  10   6  -6    0.86    3.75
 -10  -6   6   -0.40    3.32
  10   6  -5  192.40    9.84
 -10  -6   5  207.30   10.42
  10   6  -4   63.10    5.10
 -10  -6   4   71.82    5.51
  10   6  -3   12.57    3.72
 -10  -6   3    8.30    3.32
  10   6  -2  265.90   12.59
 -10  -6   2  276.80   12.99
  10   6  -1  422.90   18.93
 -10  -6   1  424.70   19.09
  10   6   0   10.73    3.53
 -10  -6   0   19.04    3.60
  10   6   1  119.30    6.84
 -10  -6  -1  125.80    6.97
  10   6   2   -0.66    3.60
 -10  -6  -2    6.23    3.36
  10   6   3  112.40    6.83
 -10  -6  -3  118.40    7.00
  10   6   4   24.41    3.98
 -10  -6  -4   21.20    3.94
  10   6   5   37.49    4.47
 -10  -6  -5   34.89    3.87
  10   6   6   -6.19    3.31
 -10  -6  -6    3.50    3.03
  10   6   7  189.90    9.70
 -10  -6  -7  205.60    9.99
  10   6   8   13.74    3.60
 -10  -6  -8    6.70    3.46
  10   6   9   55.98    4.91
 -10  -6  -9   44.56    4.50
  10   6  10    8.71    3.67
  10   6  11   -3.05    4.08
  10   6  12   27.63    4.47
  10   6  13   29.83    5.10
  -9  -5  22    9.64    3.89
  -9  -5  21   -8.64    4.04
  -9  -5  20  104.40    6.71
  -9  -5  19   -4.86    3.75
  -9  -5  18    8.47    3.67
  -9  -5  17   11.22    3.76
  -9  -5  16   23.19    4.29
  -9  -5  15  157.80    8.72
  -9  -5  14  457.30   20.47
  -9  -5  13   -0.41    3.42
  -9  -5  12    9.35    3.60
  -9  -5  11   61.51    5.19
   9   5 -10  382.10   17.54
  -9  -5  10  389.40   17.77
   9   5  -9   41.90    4.59
  -9  -5   9   46.20    4.59
   9   5  -8 1161.00   49.19
  -9  -5   8 1152.00   48.88
   9   5  -7  124.60    7.24
  -9  -5   7  113.70    6.88
   9   5  -6 1756.00   73.57
  -9  -5   6 1672.00   70.08
   9   5  -5   69.63    5.16
  -9  -5   5   59.90    4.98
   9   5  -4   17.21    3.50
  -9  -5   4   15.52    3.66
   9   5  -3   20.83    3.73
  -9  -5   3   18.81    3.89
   9   5  -2   15.85    3.56
  -9  -5   2    7.59    3.38
   9   5  -1  200.40    9.87
  -9  -5   1  197.30    9.73
   9   5   0  417.60   18.61
  -9  -5   0  383.40   17.12
   9   5   1   81.75    5.55
  -9  -5  -1  101.30    5.89
   9   5   2  361.30   16.31
  -9  -5  -2  355.50   15.97
   9   5   3  190.50    9.57
  -9  -5  -3  193.10    9.53
   9   5   4    4.80    3.45
  -9  -5  -4   15.19    3.40
   9   5   5   10.11    3.72
  -9  -5  -5   18.45    3.36
   9   5   6  121.90    7.05
  -9  -5  -6  130.90    7.22
   9   5   7   21.34    3.33
  -9  -5  -7   18.39    3.46
   9   5   8   78.14    5.47
  -9  -5  -8   87.07    5.55
   9   5   9    7.27    3.48
  -9  -5  -9    6.89    3.41
   9   5  10   63.95    4.89
   9   5  11   47.20    4.42
   9   5  12    6.16    3.85
   9   5  13   -0.14    3.83
   9   5  14   36.11    5.10
  -8  -4  22   11.69    4.20
  -8  -4  22   16.92    3.62
  -8  -4  21   -1.54    4.15
  -8  -4  20    7.88    3.68
  -8  -4  19    9.54    3.56
  -8  -4  18   27.35    3.90
  -8  -4  17    7.15    3.80
  -8  -4  16  225.60   11.34
  -8  -4  15   16.78    3.82
  -8  -4  14   90.31    6.28
  -8  -4  13  212.30   10.68
  -8  -4  12   36.93    4.50
  -8  -4  11   43.20    4.66
  -8  -4  10  302.50   14.22
   8   4  -9  523.40   23.19
  -8  -4   9  528.90   23.35
   8   4  -8  885.60   37.92
  -8  -4   8  770.40   33.21
   8   4  -7  763.00   32.91
  -8  -4   7  781.50   33.57
   8   4  -6  142.80    8.04
  -8  -4   6  147.90    8.21
   8   4  -5  224.40   11.30
  -8  -4   5  196.80    9.99
   8   4  -4  406.60   18.22
  -8  -4   4  421.30   18.82
   8   4  -3    3.31    3.18
  -8  -4   3    0.38    3.10
   8   4  -2   31.54    4.11
  -8  -4   2   28.65    3.70
   8   4  -1   15.53    3.65
  -8  -4   1    9.23    3.12
   8   4   0  139.70    7.63
  -8  -4   0  132.20    7.14
   8   4   1  270.80   12.81
  -8  -4  -1  281.20   12.92
   8   4   2   48.04    4.53
  -8  -4  -2   48.61    4.06
   8   4   3   91.98    5.82
  -8  -4  -3   96.48    5.87
   8   4   4  250.70   11.83
  -8  -4  -4  247.00   11.67
   8   4   5   57.00    4.68
  -8  -4  -5   66.96    5.32
   8   4   6   17.34    3.43
  -8  -4  -6   25.00    3.86
   8   4   7   24.67    3.74
  -8  -4  -7   24.41    3.68
   8   4   8   -1.33    3.42
  -8  -4  -8    2.50    3.19
   8   4   9   13.38    3.73
  -8  -4  -9   12.81    3.73
   8   4  10  138.30    7.53
   8   4  11   22.27    3.92
   8   4  12   35.60    4.46
   8   4  13   10.14    4.01
   8   4  14   26.03    4.20
   8   4  15   14.18    4.50
  -7  -3  22   -3.18    3.68
  -7  -3  22    0.50    3.72
  -7  -3  21    5.66    3.76
  -7  -3  21    7.70    3.63
  -7  -3  20   34.53    4.58
  -7  -3  19    6.18    3.49
  -7  -3  18    5.15    3.65
  -7  -3  17  283.40   13.30
  -7  -3  16   47.44    4.75
  -7  -3  15  241.00   11.74
  -7  -3  14  236.20   11.65
  -7  -3  13   38.68    4.29
  -7  -3  12  111.80    6.77
  -7  -3  11  224.60   11.02
  -7  -3  10   24.40    3.94
  -7  -3   9  402.90   18.08
   7   3  -8  363.10   16.65
  -7  -3   8  369.60   16.80
   7   3  -7  526.30   23.01
  -7  -3   7  597.20   26.02
   7   3  -6  539.00   23.66
  -7  -3   6  571.60   24.91
   7   3  -5   50.88    5.09
  -7  -3   5   39.17    4.23
   7   3  -4   30.95    4.17
  -7  -3   4   30.05    3.98
   7   3  -3  708.60   30.49
  -7  -3   3  779.90   33.38
   7   3  -2    2.67    3.83
  -7  -3   2   -1.58    3.37
   7   3  -1    6.71    3.26
  -7  -3   1    5.95    3.42
   7   3   0   77.79    5.34
  -7  -3   0   73.16    5.19
   7   3   1   50.11    4.23
  -7  -3  -1   56.05    4.62
   7   3   2  271.20   12.65
  -7  -3  -2  294.00   13.44
   7   3   3  315.30   14.45
  -7  -3  -3  339.90   15.42
   7   3   4   27.83    3.89
  -7  -3  -4   29.72    3.63
   7   3   5  387.10   17.35
  -7  -3  -5  383.30   17.25
   7   3   6   62.17    5.08
  -7  -3  -6   63.11    4.75
   7   3   7   82.34    5.49
  -7  -3  -7  103.90    6.27
   7   3   8   15.28    3.65
  -7  -3  -8   19.68    3.97
   7   3   9   59.88    5.14
  -7  -3  -9   55.95    4.60
   7   3  10   21.78    3.89
   7   3  11  296.90   13.83
   7   3  12   50.68    4.79
   7   3  13  132.30    7.48
   7   3  14   12.82    3.86
   7   3  15   10.91    4.08
   7   3  16   14.74    4.63
  -6  -2  22    0.01    4.24
  -6  -2  22    1.39    3.47
  -6  -2  21   78.85    6.03
  -6  -2  21   78.95    5.47
  -6  -2  20    1.95    3.66
  -6  -2  20   -1.32    3.42
  -6  -2  19  132.10    7.38
  -6  -2  19  125.90    7.27
  -6  -2  18   11.26    3.47
  -6  -2  17   47.15    4.59
  -6  -2  16    6.55    3.37
  -6  -2  15   19.78    3.52
  -6  -2  14   -3.31    3.11
  -6  -2  13  343.80   15.81
  -6  -2  12   11.59    3.54
  -6  -2  11  510.90   22.46
  -6  -2  10   97.57    6.05
  -6  -2   9   78.57    5.37
   6   2  -8    5.10    3.27
  -6  -2   8    2.78    3.34
   6   2  -7    4.07    3.40
  -6  -2   7    0.93    3.30
   6   2  -6    6.95    3.31
  -6  -2   6    6.76    3.68
   6   2  -5 1293.00   54.43
  -6  -2   5 1526.00   63.97
   6   2  -4    9.97    3.87
  -6  -2   4    4.59    3.55
   6   2  -3 1195.00   50.27
  -6  -2   3 1233.00   51.91
   6   2  -2   68.87    5.04
  -6  -2   2   67.17    4.91
   6   2  -1  972.00   41.17
  -6  -2   1 1081.00   45.52
   6   2   0   17.07    3.70
  -6  -2   0   12.18    3.37
   6   2   1 1207.00   50.79
  -6  -2  -1 1158.00   48.70
   6   2   2   22.23    3.40
  -6  -2  -2   22.58    3.59
   6   2   3  890.00   37.93
  -6  -2  -3  784.10   33.37
   6   2   4   26.93    3.76
  -6  -2  -4   33.24    3.66
   6   2   5   17.39    3.57
  -6  -2  -5   15.82    3.33
   6   2   6    7.93    3.26
  -6  -2  -6    6.98    2.81
   6   2   7  371.70   16.78
  -6  -2  -7  359.80   16.16
   6   2   8  108.80    6.46
  -6  -2  -8  101.30    6.20
   6   2   9  353.80   16.13
   6   2  10  231.50   11.17
   6   2  11  141.00    7.79
   6   2  12   35.41    4.20
   6   2  13   25.27    3.92
   6   2  14    5.04    3.70
   6   2  15   65.02    5.09
   6   2  16    0.88    3.78
  -5  -1  22   11.95    4.57
  -5  -1  22    3.35    3.98
  -5  -1  21   20.24    4.17
  -5  -1  21   24.47    4.46
  -5  -1  20   88.74    6.32
  -5  -1  20   97.95    6.05
  -5  -1  19    0.56    3.42
  -5  -1  19    5.02    3.41
  -5  -1  18    8.85    3.55
  -5  -1  18   17.05    3.57
  -5  -1  17   71.10    5.14
  -5  -1  17   74.50    5.32
  -5  -1  16    2.62    3.25
  -5  -1  15   63.89    4.75
  -5  -1  14   93.19    5.96
  -5  -1  13    0.05    2.80
  -5  -1  12  157.80    8.23
  -5  -1  11   -0.07    2.91
  -5  -1  10  662.00   28.56
  -5  -1   9  111.90    6.52
  -5  -1   8  188.00    9.38
   5   1  -7  132.80    7.18
  -5  -1   7  139.70    7.48
   5   1  -6  195.80    9.60
  -5  -1   6  250.00   11.78
   5   1  -5   14.93    3.65
  -5  -1   5   15.50    3.50
   5   1  -4 3207.00  133.10
  -5  -1   4 2888.00  119.90
   5   1  -3   -1.91    3.98
  -5  -1   3    3.14    3.53
   5   1  -2 1537.00   64.28
  -5  -1   2 1543.00   64.49
   5   1  -1 1951.00   81.34
  -5  -1   1 1789.00   74.62
   5   1   0  515.80   22.40
  -5  -1   0  540.60   23.39
   5   1   1  326.80   14.74
  -5  -1  -1  329.90   14.89
   5   1   2 1086.00   45.82
  -5  -1  -2 1099.00   46.29
   5   1   3  678.30   29.09
  -5  -1  -3  638.80   27.35
   5   1   4  383.90   17.10
  -5  -1  -4  408.00   18.02
   5   1   5  113.50    6.58
  -5  -1  -5  103.50    6.02
   5   1   6   57.80    4.74
  -5  -1  -6   57.26    4.42
   5   1   7   86.98    5.76
  -5  -1  -7   82.58    5.34
   5   1   8  373.90   16.87
   5   1   9    5.45    3.24
   5   1  10  391.00   17.59
   5   1  11   15.95    3.56
   5   1  12   19.44    3.71
   5   1  13  127.00    7.24
   5   1  14   33.79    4.07
   5   1  15   35.67    4.17
   5   1  16   33.79    4.28
   5   1  17    4.90    3.61
  -4   0  22   28.96    4.85
  -4   0  22   41.83    5.30
  -4   0  21    1.27    3.90
  -4   0  21    4.36    3.78
  -4   0  20   32.73    4.22
  -4   0  20   36.58    4.52
  -4   0  19   -1.03    2.85
  -4   0  19    1.49    3.73
  -4   0  18   21.61    3.96
  -4   0  18   19.65    3.62
  -4   0  17    5.55    3.31
  -4   0  17    1.82    2.92
  -4   0  16  155.70    8.05
  -4   0  16  136.50    7.56
  -4   0  15   -0.56    2.92
  -4   0  15    0.03    3.02
  -4   0  14  175.30    8.94
  -4   0  13    4.93    2.88
  -4   0  12   10.29    3.06
  -4   0  11   -1.63    2.94
  -4   0  10    1.56    2.93
  -4   0   9   -2.80    2.87
  -4   0   8 1652.00   69.07
  -4   0   7    1.81    2.90
   4   0  -6  161.00    8.36
  -4   0   6  142.20    7.39
   4   0  -5    0.93    3.10
  -4   0   5    4.36    3.15
   4   0  -4   31.27    3.45
  -4   0   4   34.68    3.64
   4   0  -3    1.87    3.07
  -4   0   3    0.54    3.06
   4   0  -2  195.30    9.40
  -4   0   2  255.10   11.68
   4   0  -1    0.52    2.92
  -4   0   1   -0.80    3.64
   4   0   0 3035.00  125.80
  -4   0   0 2773.00  115.00
   4   0   1   -3.18    3.58
  -4   0  -1   -2.41    3.48
   4   0   2   63.33    4.69
  -4   0  -2   62.40    4.78
   4   0   3    1.94    3.43
  -4   0  -3    1.02    3.21
   4   0   4 2519.00  104.80
  -4   0  -4 2502.00  104.00
   4   0   5   -3.79    3.00
  -4   0  -5    1.23    2.72
   4   0   6  289.00   13.41
  -4   0  -6  282.60   13.06
   4   0   7   -0.97    2.95
   4   0   8  182.30    9.28
   4   0   9   -2.42    2.99
   4   0  10   11.35    3.48
   4   0  11    2.30    3.28
   4   0  12   90.66    5.93
   4   0  13    0.56    3.44
   4   0  14  310.40   14.44
   4   0  15   -1.11    3.40
   4   0  16   20.48    3.82
   4   0  17    3.08    3.98
   4   0  18    7.39    4.14
  -3   1  21    0.69    4.19
  -3   1  21    9.72    3.99
  -3   1  20   61.22    5.18
  -3   1  20   54.08    4.73
  -3   1  18   57.00    4.77
  -3   1  18   57.78    4.60
  -3   1  17  109.00    6.55
  -3   1  17  108.90    6.41
  -3   1  16   43.31    4.13
  -3   1  16   40.58    3.86
  -3   1  14   66.31    4.85
  -3   1  14   64.38    4.77
  -3   1  13   -0.85    2.93
  -3   1  13    5.85    3.08
  -3   1  12   10.46    3.27
  -3   1  11   32.41    3.62
  -3   1  10  642.30   27.54
  -3   1   9  174.80    8.53
  -3   1   8   54.28    4.04
  -3   1   7  146.30    7.18
  -3   1   6  108.30    5.79
   3  -1  -5  271.50   12.10
  -3   1   5  272.80   12.14
   3  -1  -4    1.79    2.57
  -3   1   4   -0.36    2.58
   3  -1  -3 1623.00   67.38
  -3   1   3 1671.00   69.35
   3  -1  -2 2059.00   85.37
  -3   1   2 2126.00   88.08
   3  -1  -1 1104.00   46.14
  -3   1   1 1127.00   47.01
   3  -1   0    6.72    3.05
  -3   1   0   13.61    3.34
   3  -1   1 1124.00   47.16
  -3   1  -1 1204.00   50.44
   3  -1   2  224.00   10.76
  -3   1  -2  246.90   11.51
   3  -1   3  215.80   10.38
  -3   1  -3  231.20   10.89
   3  -1   4  982.30   41.53
  -3   1  -4 1021.00   43.07
   3  -1   5 1190.00   50.18
  -3   1  -5 1110.00   46.88
   3  -1   6    5.93    3.68
   3  -1   7  289.70   13.82
   3  -1   8   53.12    4.94
   3  -1   9    0.33    3.19
   3  -1  10  182.80    9.40
   3  -1  11    5.53    3.55
   3  -1  12   37.30    4.31
   3  -1  13   29.16    3.98
   3  -1  14    4.68    3.78
   3  -1  15  113.50    6.78
   3  -1  16   64.77    5.24
   3  -1  17   -1.19    3.82
   3  -1  18   31.30    4.41
  -2   2  21    9.84    4.72
  -2   2  21    1.88    4.58
  -2   2  20   -3.05    3.88
  -2   2  20   -3.84    3.83
  -2   2  19  120.20    6.82
  -2   2  19  123.20    7.24
  -2   2  18    1.83    3.05
  -2   2  18    5.93    3.25
  -2   2  17  143.70    7.64
  -2   2  17  135.50    7.37
  -2   2  16   52.41    4.42
  -2   2  16   47.72    4.33
  -2   2  15   37.80    3.90
  -2   2  15   29.26    3.53
  -2   2  14   13.90    3.22
  -2   2  14   14.49    3.36
  -2   2  13  198.20    9.57
  -2   2  13  212.40   10.19
  -2   2  12   75.65    4.74
  -2   2  12   71.48    4.62
  -2   2  11   80.90    4.87
  -2   2  10   72.37    4.50
  -2   2   8    1.64    2.18
  -2   2   7   -0.07    2.18
  -2   2   6   12.37    2.36
  -2   2   5  248.10   10.91
   2  -2  -4    2.08    1.86
  -2   2   4    3.72    1.88
   2  -2  -3  858.30   35.68
  -2   2   3  899.80   37.42
   2  -2  -2   85.24    4.28
  -2   2   2   80.91    4.07
   2  -2  -1  325.50   14.08
  -2   2   1  307.00   13.26
   2  -2   0  526.20   22.43
  -2   2   0  434.30   18.64
   2  -2   1   45.99    4.24
  -2   2  -1   45.32    4.12
   2  -2   2  849.40   35.99
  -2   2  -2 1018.00   42.98
   2  -2   3 1920.00   80.02
  -2   2  -3 2035.00   84.75
   2  -2   4   39.77    4.33
   2  -2   5  464.10   20.49
   2  -2   6  257.10   12.13
   2  -2   7   72.03    5.09
   2  -2   8   47.44    4.30
   2  -2   9  187.90    9.44
   2  -2  10   49.67    5.09
   2  -2  11  192.40    9.91
   2  -2  12   10.20    3.44
   2  -2  13   44.79    4.66
   2  -2  14    1.15    4.08
   2  -2  15   40.28    4.42
   2  -2  16    1.65    3.56
   2  -2  17   95.04    6.30
   2  -2  18   -1.47    3.93
   2  -2  19   19.84    4.52
  -1   3  20    2.50    4.80
  -1   3  20    2.08    4.53
  -1   3  19   18.40    3.96
  -1   3  19   22.90    4.28
  -1   3  18   40.37    4.45
  -1   3  18   37.15    4.18
  -1   3  17    0.30    3.13
  -1   3  17   -2.72    3.04
  -1   3  16   30.57    4.08
  -1   3  16   26.60    3.77
  -1   3  15   16.17    3.23
  -1   3  15   15.82    3.20
  -1   3  14   -1.73    3.05
  -1   3  13  179.10    8.72
  -1   3  12   94.76    5.42
  -1   3  11    3.50    2.77
  -1   3  10   57.33    3.84
  -1   3   9  524.50   22.39
  -1   3   8   42.09    3.09
  -1   3   7  422.70   18.05
  -1   3   6    0.06    1.74
  -1   3   5   53.10    2.89
  -1   3   4  321.50   13.54
  -1   3   4  346.10   14.56
   1  -3  -2    9.79    1.29
   1  -3   0  272.40   12.08
   1  -3   1 2303.00   95.58
   1  -3   2    0.82    3.59
   1  -3   3  197.90    9.92
   1  -3   4   50.82    4.45
   1  -3   5  335.60   15.36
   1  -3   6   38.02    4.38
   1  -3   7  848.80   36.29
   1  -3   8  124.80    6.99
   1  -3   9  142.90    7.84
   1  -3  10   46.40    4.57
   1  -3  11   31.61    4.12
   1  -3  12   64.53    5.27
   1  -3  13   72.93    5.69
   1  -3  14   72.80    5.81
   1  -3  15   37.78    4.49
   1  -3  16   74.24    5.50
   1  -3  17   32.81    4.67
   1  -3  18   18.02    4.07
   1  -3  19    4.72    3.58
   0   4  20   -3.97    4.75
   0   4  20    7.81    4.62
   0   4  19   -0.70    3.87
   0   4  19   -3.46    3.61
   0   4  18   13.60    3.82
   0   4  18    9.31    3.59
   0   4  17    5.33    3.49
   0   4  17   -1.58    3.21
   0   4  16   50.69    4.20
   0   4  16   55.11    4.75
   0   4  15   27.70    3.61
   0   4  14  228.50   10.75
   0   4  13   -3.27    2.74
   0   4  12   13.78    2.68
   0   4  11  397.30   17.33
   0   4  10  182.20    8.52
   0   4   9   26.66    2.59
   0   4   8  782.50   32.86
   0   4   7  125.70    5.90
   0   4   6  142.20    6.43
   0   4   5   71.05    3.45
   0   4   4   18.54    1.33
   0  -4  -3  485.60   20.67
   0  -4  -2  254.80   10.82
   0  -4  -1   21.46    2.17
   0  -4   8  804.70   34.53
   0  -4   9   33.35    4.31
   0  -4  10  205.60   10.46
   0  -4  11  437.70   19.72
   0  -4  12   17.58    4.00
   0  -4  13    1.34    3.57
   0  -4  14  235.80   11.62
   0  -4  15   25.25    3.79
   0  -4  16   56.13    4.70
   0  -4  17   -0.20    3.31
   0  -4  18    5.39    3.58
   0  -4  19    1.86    3.57
   0  -4  20   -1.33    3.91
   0  -4  20    1.05    4.11
   1   5  19   -0.56    4.39
   1   5  19    1.31    4.61
   1   5  18   32.87    4.27
   1   5  18   33.65    4.49
   1   5  17    3.24    3.16
   1   5  17   -2.20    3.26
   1   5  16   40.20    3.88
   1   5  16   41.10    4.06
   1   5  15    4.98    2.99
   1   5  14   -1.94    2.77
   1   5  13   23.03    2.90
   1   5  12   31.29    3.23
   1   5  11   16.07    2.67
   1   5  10  566.50   24.11
   1   5   9   60.29    3.65
   1   5   8   14.49    2.07
   1   5   7   -0.61    1.71
   1   5   6  359.20   15.26
  -1  -5  -5    2.96    1.33
   1   5   5   -0.70    1.41
  -1  -5  -4  623.90   26.06
   1   5   4  611.20   25.57
  -1  -5  -3   48.18    2.64
   1   5   3   51.41    2.79
  -1  -5  -2  513.80   21.61
   1   5   2  555.40   23.36
  -1  -5  -1  209.70    9.41
  -1  -5   0    3.24    2.61
  -1  -5   1   78.36    4.78
  -1  -5  11   13.62    3.68
  -1  -5  12  504.00   22.44
  -1  -5  13   31.43    4.33
  -1  -5  14   17.91    4.02
  -1  -5  15   49.43    4.57
  -1  -5  16  163.60    8.76
  -1  -5  17   41.11    4.29
  -1  -5  19    0.56    3.73
  -1  -5  19   -0.71    3.46
  -1  -5  20   12.86    4.04
  -1  -5  20    6.02    4.33
   2   6  18    3.83    4.64
   2   6  18    1.03    4.49
   2   6  17   22.09    4.04
   2   6  17   28.11    4.40
   2   6  16   14.03    3.44
   2   6  16   20.11    3.69
   2   6  15   17.90    3.44
   2   6  14   87.65    5.34
   2   6  13   11.92    2.98
   2   6  12    1.97    2.72
   2   6  11  149.50    7.32
   2   6  10   21.26    2.56
   2   6   9  309.20   13.51
   2   6   8  215.80    9.62
   2   6   7    2.14    1.88
  -2  -6  -6  176.00    7.86
   2   6   6  175.70    7.88
  -2  -6  -5   80.87    3.98
   2   6   5   84.25    4.26
  -2  -6  -4    1.57    1.44
   2   6   4    1.43    1.62
  -2  -6  -3   34.45    2.38
   2   6   3   35.01    2.54
  -2  -6  -2   16.92    2.27
   2   6   2   12.75    2.04
  -2  -6  -1   80.03    4.42
   2   6   1   87.94    4.80
  -2  -6   0    1.74    2.55
  -2  -6   1  138.80    7.07
  -2  -6   2  167.70    8.44
  -2  -6   3  112.40    6.51
  -2  -6  13   28.59    4.20
  -2  -6  14   44.77    4.68
  -2  -6  15   14.50    3.98
  -2  -6  16   25.77    4.08
  -2  -6  17   28.45    4.13
  -2  -6  17   28.21    3.99
  -2  -6  18   -7.93    4.08
  -2  -6  18    2.86    3.30
  -2  -6  19   46.47    5.39
  -2  -6  19   43.15    4.45
  -2  -6  20   10.67    3.58
  -2  -6  20   19.51    4.46
   3   7  17    9.17    4.22
   3   7  17   10.20    4.40
   3   7  16    5.60    3.35
   3   7  16    0.47    3.60
   3   7  15   63.06    4.69
   3   7  14   27.55    3.33
   3   7  13  188.20    8.87
   3   7  12    1.73    2.50
   3   7  11   -4.09    2.39
   3   7  10    1.06    2.42
   3   7   9  270.70   12.05
   3   7   8    2.34    2.05
  -3  -7  -7  888.10   37.13
   3   7   7  976.30   40.91
  -3  -7  -6    5.54    1.66
   3   7   6    5.62    1.81
  -3  -7  -5  342.60   14.73
   3   7   5  375.30   16.05
  -3  -7  -4   85.07    4.32
   3   7   4   85.86    4.46
  -3  -7  -3   74.09    3.98
   3   7   3   69.88    3.90
  -3  -7  -2   32.41    2.81
   3   7   2   29.68    2.77
  -3  -7  -1  903.10   37.95
   3   7   1  954.20   40.06
  -3  -7   0   57.38    3.89
   3   7   0   50.81    3.87
  -3  -7   1  318.20   14.32
  -3  -7   2  168.20    8.42
  -3  -7   3  687.80   29.55
  -3  -7   4   13.93    3.50
  -3  -7   5  114.30    6.78
  -3  -7   6    7.26    3.51
  -3  -7   7   73.95    5.54
  -3  -7   8   55.72    4.74
  -3  -7  13  292.40   13.94
  -3  -7  14   74.75    5.70
  -3  -7  15   49.53    4.83
  -3  -7  15   61.09    5.23
  -3  -7  16   -1.75    3.90
  -3  -7  16   -2.53    3.54
  -3  -7  17   35.45    4.35
  -3  -7  17   41.72    5.08
  -3  -7  18    7.69    3.91
  -3  -7  18   10.91    3.59
  -3  -7  19    7.15    3.69
  -3  -7  19   10.01    4.12
  -3  -7  20    2.73    3.72
  -3  -7  20    5.59    3.43
   4   8  16   16.61    4.36
   4   8  16   14.78    4.02
   4   8  15   14.45    3.64
   4   8  14    8.68    3.22
   4   8  13   18.35    3.12
   4   8  12  264.70   11.85
   4   8  11  128.40    6.34
   4   8  10  119.80    6.14
   4   8   9  172.80    8.05
   4   8   8  170.00    8.03
  -4  -8  -7   26.61    2.39
   4   8   7   32.23    2.92
  -4  -8  -6  509.60   21.59
   4   8   6  518.80   22.11
  -4  -8  -5    2.64    2.08
   4   8   5    9.32    2.15
  -4  -8  -4   74.28    4.21
   4   8   4   84.20    4.68
  -4  -8  -3  310.50   13.59
   4   8   3  309.00   13.60
  -4  -8  -2   49.40    3.33
   4   8   2   52.93    3.69
  -4  -8  -1  278.60   12.49
   4   8   1  277.40   12.58
  -4  -8   0  425.40   18.51
   4   8   0  522.50   22.62
  -4  -8   1   13.65    2.98
  -4  -8   2  438.90   19.32
  -4  -8   3  122.80    6.89
  -4  -8   4    6.90    3.15
  -4  -8   5   19.82    3.50
  -4  -8   6  201.60   10.21
  -4  -8   7  102.60    6.43
  -4  -8   8   97.94    6.39
  -4  -8   9   38.53    4.65
  -4  -8  10  134.90    7.72
  -4  -8  11  509.00   22.78
  -4  -8  12   50.13    5.18
  -4  -8  13   58.54    5.47
  -4  -8  14   64.62    5.39
  -4  -8  15  -11.82    3.86
  -4  -8  16   33.90    4.41
  -4  -8  17   66.06    5.55
  -4  -8  17   68.40    5.38
  -4  -8  18    0.13    3.49
  -4  -8  18   -0.84    3.78
  -4  -8  19   67.05    5.26
  -4  -8  19   56.93    5.32
  -4  -8  20    3.30    3.86
  -4  -8  20    9.86    3.75
   5   9  15    0.72    3.19
   5   9  15    5.05    3.67
   5   9  14   11.06    3.42
   5   9  13   15.37    3.19
   5   9  12   17.88    3.01
   5   9  11    0.12    2.65
   5   9  10  136.70    6.83
   5   9   9   -1.24    2.27
  -5  -9  -8   48.41    3.27
   5   9   8   46.44    3.60
  -5  -9  -7   16.08    2.34
   5   9   7   20.31    2.79
  -5  -9  -6   49.18    3.40
   5   9   6   52.35    3.65
  -5  -9  -5   10.03    2.37
   5   9   5    9.45    2.31
  -5  -9  -4  138.50    6.92
   5   9   4  121.90    6.18
  -5  -9  -3   83.08    4.71
   5   9   3   84.73    4.89
  -5  -9  -2  507.80   21.81
   5   9   2  431.60   18.76
  -5  -9  -1  100.80    5.75
   5   9   1   83.63    5.07
  -5  -9   0   45.09    3.69
   5   9   0   36.19    3.49
  -5  -9   1    0.55    2.52
   5   9  -1    7.03    2.96
  -5  -9   2  136.70    7.44
  -5  -9   3   16.42    3.27
  -5  -9   4  550.80   24.05
  -5  -9   5  249.60   12.04
  -5  -9   6  313.80   14.64
  -5  -9   7  122.10    7.29
  -5  -9   8   57.90    5.05
  -5  -9   9   29.10    4.48
  -5  -9  10  195.80   10.22
  -5  -9  11   21.48    4.19
  -5  -9  12   57.95    5.18
  -5  -9  13   64.61    5.53
  -5  -9  14  251.50   12.30
  -5  -9  15    7.82    3.81
  -5  -9  16   -1.60    3.58
  -5  -9  17    6.85    3.55
  -5  -9  18   88.83    5.98
  -5  -9  18   92.82    6.28
  -5  -9  19   11.59    3.88
  -5  -9  19   18.91    4.10
  -5  -9  20   23.40    4.21
  -5  -9  20   25.37    4.23
   6  10  14    9.97    3.16
   6  10  13    3.12    3.25
   6  10  12   75.83    4.89
   6  10  11   13.22    3.17
   6  10  10   43.90    3.65
   6  10   9   27.90    3.30
  -6 -10  -8   12.47    2.44
   6  10   8   17.59    2.76
  -6 -10  -7    7.55    2.32
   6  10   7   16.66    2.60
  -6 -10  -6  167.90    7.99
   6  10   6  166.70    8.02
  -6 -10  -5    0.30    2.51
   6  10   5    2.40    2.53
  -6 -10  -4  133.60    6.72
   6  10   4  129.40    6.70
  -6 -10  -3  224.50   10.40
   6  10   3  231.70   10.79
  -6 -10  -2   32.44    3.33
   6  10   2   30.61    3.17
  -6 -10  -1   17.55    3.08
   6  10   1   12.51    2.86
  -6 -10   0  193.60    9.32
   6  10   0  165.70    8.32
  -6 -10   1   -0.68    2.98
   6  10  -1   -2.04    2.96
  -6 -10   2  420.30   18.87
  -6 -10   3   19.04    3.51
  -6 -10   4    3.96    3.47
  -6 -10   5  142.10    7.78
  -6 -10   6  338.00   15.68
  -6 -10   7  126.10    7.47
  -6 -10   8    9.23    3.92
  -6 -10   9    3.69    3.51
  -6 -10  10  149.30    8.47
  -6 -10  11   31.59    4.64
  -6 -10  12   -3.74    3.45
  -6 -10  13    3.77    3.67
  -6 -10  14   51.92    4.87
  -6 -10  15   26.66    4.03
  -6 -10  16  105.20    6.64
  -6 -10  17    1.95    3.67
  -6 -10  18   14.34    4.22
  -6 -10  19   35.04    4.62
  -6 -10  19   20.71    4.26
  -6 -10  20   -4.42    3.60
  -6 -10  20   -1.41    4.17
   7  11  12    6.68    3.23
   7  11  11   18.22    3.30
   7  11  10    5.53    2.83
   7  11   9    2.68    2.69
  -7 -11  -8   27.77    3.18
   7  11   8   22.85    3.13
  -7 -11  -7    3.97    2.46
   7  11   7   -0.77    2.70
  -7 -11  -6    2.45    2.57
   7  11   6    5.54    2.75
  -7 -11  -5  251.80   11.51
   7  11   5  248.40   11.42
  -7 -11  -4    2.49    2.52
   7  11   4    1.00    2.67
  -7 -11  -3   51.40    3.98
   7  11   3   55.26    4.10
  -7 -11  -2   23.20    3.26
   7  11   2   24.33    3.23
  -7 -11  -1   76.14    4.90
   7  11   1   73.59    4.90
  -7 -11   0   40.41    3.95
   7  11   0   34.39    3.78
  -7 -11   1  158.80    8.13
   7  11  -1  156.80    8.30
  -7 -11   2   43.18    4.33
  -7 -11   3  122.30    6.88
  -7 -11   4   24.52    3.95
  -7 -11   5   15.34    3.85
  -7 -11   6   99.90    6.40
  -7 -11   7   28.33    4.01
  -7 -11   8    4.95    3.57
  -7 -11   9  178.10    9.44
  -7 -11  10   -2.33    3.84
  -7 -11  11   45.87    4.79
  -7 -11  12    9.84    3.72
  -7 -11  13    0.12    3.79
  -7 -11  14   13.34    3.82
  -7 -11  15   41.47    4.60
  -7 -11  16   11.41    3.71
  -7 -11  17  114.40    6.93
  -7 -11  18   10.08    4.12
  -7 -11  19   -1.11    3.71
  -7 -11  20    1.68    3.95
  -7 -11  20    3.12    3.98
   8  12  11    5.00    3.40
   8  12  10    0.22    3.01
   8  12   9   39.82    3.86
  -8 -12  -8   -1.06    2.68
   8  12   8   -2.40    3.12
  -8 -12  -7   55.56    4.06
   8  12   7   54.68    4.30
  -8 -12  -6    3.48    2.99
   8  12   6    3.97    2.78
  -8 -12  -5    3.17    2.99
   8  12   5   -1.57    2.69
  -8 -12  -4   10.37    2.88
   8  12   4    6.35    3.10
  -8 -12  -3   74.38    5.00
   8  12   3   76.41    5.35
  -8 -12  -2    1.99    3.10
   8  12   2    2.42    3.01
  -8 -12  -1  200.20    9.79
   8  12   1  178.10    8.99
  -8 -12   0   13.88    3.34
   8  12   0    6.87    3.38
  -8 -12   1   -0.87    3.13
   8  12  -1    4.43    3.26
  -8 -12   2  194.80    9.74
  -8 -12   3   -2.48    3.27
  -8 -12   4    4.57    3.63
  -8 -12   5   84.77    6.09
  -8 -12   6   44.20    4.62
  -8 -12   7   62.67    5.50
  -8 -12   8    0.47    3.70
  -8 -12   9   18.14    4.16
  -8 -12  10   41.26    5.08
  -8 -12  11   26.00    4.63
  -8 -12  12    6.40    3.82
  -8 -12  13   97.00    6.52
  -8 -12  14    7.16    3.70
  -8 -12  15   71.35    5.60
  -8 -12  16    8.19    3.66
  -8 -12  17   -4.09    3.67
  -8 -12  18   27.90    4.50
  -8 -12  19    8.96    3.88
   9  13  10    8.36    3.51
   9  13   9    3.08    3.52
  -9 -13  -8   12.51    3.28
   9  13   8   13.47    3.54
  -9 -13  -7    2.56    3.10
   9  13   7    6.40    3.72
  -9 -13  -6   12.32    3.31
   9  13   6   18.92    3.63
  -9 -13  -5   14.00    3.30
   9  13   5    9.04    3.28
  -9 -13  -4   17.20    3.39
   9  13   4    4.31    3.03
  -9 -13  -3   31.13    3.87
   9  13   3   28.66    3.76
  -9 -13  -2   83.08    5.43
   9  13   2   81.65    5.36
  -9 -13  -1   39.50    4.33
   9  13   1   40.58    4.11
  -9 -13   0  311.90   14.40
   9  13   0  276.20   12.83
  -9 -13   1   14.94    3.44
  -9 -13   2    2.30    3.43
  -9 -13   3  112.50    6.75
  -9 -13   4  106.80    6.43
  -9 -13   5   55.18    5.03
  -9 -13   6  187.50    9.61
  -9 -13   7   13.08    3.91
  -9 -13   8  171.90    9.32
  -9 -13   9  129.00    7.69
  -9 -13  10   32.49    4.38
  -9 -13  11   48.19    4.67
  -9 -13  12   79.41    5.85
  -9 -13  13    8.38    3.88
  -9 -13  14  116.50    7.16
  -9 -13  15    1.54    3.58
  -9 -13  16    5.18    3.78
  -9 -13  17   27.33    4.26
  -9 -13  18   27.77    4.20
  -9 -13  19    4.54    3.81
 -10 -14  -8    1.53    3.74
  10  14   8   -1.01    3.78
 -10 -14  -7   -0.85    3.83
  10  14   7   -1.33    3.69
 -10 -14  -6   18.59    3.88
  10  14   6   25.18    4.35
 -10 -14  -5   -1.31    3.33
  10  14   5   -1.89    3.42
 -10 -14  -4   74.91    5.05
  10  14   4   72.72    5.31
 -10 -14  -3   -7.92    3.59
  10  14   3   -0.35    3.08
 -10 -14  -2   44.42    4.33
  10  14   2   48.99    4.33
 -10 -14  -1   -3.97    3.38
  10  14   1   -3.29    3.05
 -10 -14   0    4.54    3.38
 -10 -14   1   56.29    4.64
 -10 -14   2  102.60    6.24
 -10 -14   3   -1.40    3.08
 -10 -14   4  204.80   10.33
 -10 -14   5    2.39    3.62
 -10 -14   6   29.57    4.03
 -10 -14   7    4.90    3.55
 -10 -14   8  117.00    6.95
 -10 -14   9    6.57    3.67
 -10 -14  10  261.00   12.65
 -10 -14  11   -3.46    3.66
 -10 -14  12   25.81    4.53
 -10 -14  13    1.13    3.99
 -10 -14  14    9.04    3.86
 -10 -14  15    7.44    3.53
 -10 -14  16   89.85    5.80
 -10 -14  17    0.07    3.42
 -10 -14  18   10.02    3.48
 -11 -15  -6    9.65    4.45
 -11 -15  -5   16.40    4.27
 -11 -15  -4    1.03    3.92
 -11 -15  -3   11.98    3.89
 -11 -15  -2    9.31    3.64
 -11 -15  -1   13.30    3.98
 -11 -15   0   38.49    4.43
 -11 -15   1   43.99    4.54
 -11 -15   2   21.62    3.83
 -11 -15   3   61.83    5.13
 -11 -15   4   -1.75    3.69
 -11 -15   5   51.57    4.75
 -11 -15   6   65.42    5.02
 -11 -15   7    0.76    3.87
 -11 -15   8   87.72    6.03
 -11 -15   9  129.70    7.39
 -11 -15  10    0.50    3.72
 -11 -15  11   41.00    4.88
 -11 -15  12   17.76    3.84
 -11 -15  13   -2.10    3.73
 -11 -15  14    9.97    3.68
 -11 -15  15   21.12    3.99
 -11 -15  16    2.22    3.34
 -11 -15  17   19.35    3.83
 -12 -16  -4   -1.51    4.78
 -12 -16  -3    6.39    4.72
 -12 -16  -2    2.41    4.45
 -12 -16  -1   20.62    4.32
 -12 -16   0    0.84    4.08
 -12 -16   1   58.22    5.20
 -12 -16   2    0.37    3.71
 -12 -16   3   26.43    3.77
 -12 -16   4    9.91    3.76
 -12 -16   5   19.69    3.81
 -12 -16   6    4.89    3.83
 -12 -16   7  117.80    7.07
 -12 -16   8    2.39    3.82
 -12 -16   9   74.78    5.63
 -12 -16  10   -8.94    4.25
 -12 -16  11   15.87    4.39
 -12 -16  12    5.34    3.55
 -12 -16  13   45.52    4.83
 -12 -16  14    9.89    3.90
 -12 -16  15   13.32    4.13
 -13 -17  -1    1.32    5.38
 -13 -17   0   -2.28    4.83
 -13 -17   1    4.60    4.55
 -13 -17   2    4.73    4.30
 -13 -17   3   15.05    4.44
 -13 -17   4    5.76    3.98
 -13 -17   5   16.63    4.25
 -13 -17   6   -4.39    3.78
 -13 -17   7    5.51    4.18
 -13 -17   8   41.43    4.49
 -13 -17   9    4.27    3.60
 -13 -17  10   -2.28    3.69
 -13 -17  11   41.69    4.79
 -13 -17  12   -2.54    3.55
 -13 -17  13    6.90    3.85
 -14 -18   4   24.96    5.15
 -14 -18   5    4.70    4.25
 -14 -18   6   18.23    4.56
 -14 -18   7    2.78    4.15
 -14 -18   8    8.95    4.14
 -14 -18   9    3.91    4.04
 -19 -13  14   13.31    3.73
 -19 -13  13    5.16    3.61
 -19 -13  12    7.58    3.69
  19  13 -11   41.28    4.29
 -19 -13  11   37.30    4.32
  19  13 -10   37.48    4.69
 -19 -13  10   45.86    4.76
  19  13  -9    1.65    4.10
 -19 -13   9    7.48    3.63
  19  13  -8   25.70    4.16
 -19 -13   8   34.25    4.18
  19  13  -7   -0.43    3.91
 -19 -13   7    5.07    3.69
  19  13  -6   -4.70    3.97
 -19 -13   6    3.91    4.27
  19  13  -5    7.44    3.85
 -19 -13   5    5.94    4.48
  19  13  -4   -2.97    3.71
 -19 -13   4    5.61    4.22
 -18 -12  17   43.73    4.54
 -18 -12  16   -7.91    3.59
 -18 -12  15   44.79    4.40
 -18 -12  14   -3.80    3.59
 -18 -12  13    6.82    3.60
 -18 -12  12   13.53    4.15
  18  12 -11   12.63    3.90
 -18 -12  11    8.15    3.82
  18  12 -10    3.05    3.92
 -18 -12  10    3.62    4.05
  18  12  -9   66.94    5.43
 -18 -12   9   60.47    5.10
  18  12  -8    5.75    3.74
 -18 -12   8   12.65    3.68
  18  12  -7   17.17    4.13
 -18 -12   7   24.24    4.22
  18  12  -6    7.64    3.81
 -18 -12   6    6.95    3.91
  18  12  -5    1.80    3.97
 -18 -12   5   11.46    4.52
  18  12  -4    9.30    3.81
 -18 -12   4    2.48    3.69
  18  12  -3    2.71    4.08
 -18 -12   3    5.09    3.87
  18  12  -2   -3.22    3.82
 -18 -12   2    0.68    3.90
  18  12  -1   11.56    3.98
 -18 -12   1   13.04    4.20
  18  12   0    8.01    4.28
 -18 -12   0    5.36    5.29
 -17 -11  19   24.92    4.22
 -17 -11  18    1.21    3.52
 -17 -11  17   26.22    3.94
 -17 -11  16   25.66    4.02
 -17 -11  15   13.34    3.86
 -17 -11  14    0.71    3.60
 -17 -11  13   83.03    5.75
  17  11 -12   -0.76    3.49
 -17 -11  12    3.52    4.13
  17  11 -11   76.45    5.50
 -17 -11  11   74.72    5.59
  17  11 -10   12.80    3.90
 -17 -11  10   16.84    4.34
  17  11  -9    3.06    3.56
 -17 -11   9    4.20    3.81
  17  11  -8    0.10    3.46
 -17 -11   8    5.90    3.56
  17  11  -7   60.92    5.05
 -17 -11   7   63.74    5.13
  17  11  -6   -4.11    4.08
 -17 -11   6   -2.06    4.02
  17  11  -5   43.52    4.53
 -17 -11   5   35.53    4.33
  17  11  -4    2.97    3.62
 -17 -11   4    2.48    4.08
  17  11  -3   40.31    4.70
 -17 -11   3   53.24    5.16
  17  11  -2    1.90    3.75
 -17 -11   2    4.08    3.84
  17  11  -1    2.68    3.94
 -17 -11   1   -5.41    4.09
  17  11   0    2.00    4.13
 -17 -11   0    1.49    3.94
  17  11   1   47.67    4.77
 -17 -11  -1   47.22    5.29
  17  11   2   -2.04    3.79
 -17 -11  -2    1.49    4.05
 -16 -10  20   34.11    4.29
 -16 -10  19   -2.10    3.94
 -16 -10  18   17.09    3.97
 -16 -10  17   12.56    4.11
 -16 -10  16   20.69    3.88
 -16 -10  15   20.88    4.20
 -16 -10  14   20.41    3.95
 -16 -10  13   29.69    4.46
  16  10 -12   31.67    4.01
 -16 -10  12   36.92    4.77
  16  10 -11    3.67    3.70
 -16 -10  11   -2.67    3.48
  16  10 -10   69.65    5.54
 -16 -10  10   69.90    5.74
  16  10  -9    5.36    3.52
 -16 -10   9    5.03    3.64
  16  10  -8   10.96    3.77
 -16 -10   8   13.80    3.92
  16  10  -7   66.79    5.42
 -16 -10   7   73.15    5.39
  16  10  -6   36.66    4.92
 -16 -10   6   19.54    4.06
  16  10  -5   -7.90    3.78
 -16 -10   5    1.24    3.47
  16  10  -4   14.22    3.96
 -16 -10   4   22.92    4.04
  16  10  -3   14.84    3.94
 -16 -10   3   20.10    4.09
  16  10  -2   17.29    4.25
 -16 -10   2   14.32    3.77
  16  10  -1   14.63    3.72
 -16 -10   1   16.18    3.89
  16  10   0    1.75    3.75
 -16 -10   0   -1.71    3.75
  16  10   1   14.18    4.05
 -16 -10  -1   18.63    4.30
  16  10   2   59.41    5.16
 -16 -10  -2   70.06    5.57
  16  10   3   -2.13    4.33
 -16 -10  -3   -4.10    4.24
  16  10   4   32.49    4.71
 -16 -10  -4   29.19    4.96
  16  10   5   13.86    4.70
 -16 -10  -5   16.67    4.83
 -15  -9  21    9.59    4.00
 -15  -9  20   16.54    4.31
 -15  -9  19   14.45    4.00
 -15  -9  18    2.25    4.16
 -15  -9  17    4.63    3.99
 -15  -9  16   61.06    5.40
 -15  -9  15   -3.12    3.84
 -15  -9  14  128.90    7.44
 -15  -9  13    6.63    3.79
  15   9 -12   35.73    4.38
 -15  -9  12   31.23    4.37
  15   9 -11    5.02    4.00
 -15  -9  11   10.55    3.77
  15   9 -10   46.46    4.84
 -15  -9  10   39.89    4.41
  15   9  -9    6.01    3.88
 -15  -9   9   10.00    3.80
  15   9  -8   67.83    5.81
 -15  -9   8   64.25    5.30
  15   9  -7   -0.83    3.57
 -15  -9   7    3.35    3.39
  15   9  -6   82.54    6.17
 -15  -9   6   83.56    6.08
  15   9  -5   73.43    5.75
 -15  -9   5   68.89    5.54
  15   9  -4   -1.70    3.70
 -15  -9   4    2.79    3.86
  15   9  -3    3.19    3.73
 -15  -9   3    6.44    4.08
  15   9  -2   42.10    4.77
 -15  -9   2   44.58    4.58
  15   9  -1   12.86    3.93
 -15  -9   1   12.48    3.64
  15   9   0   71.30    5.66
 -15  -9   0   61.45    5.01
  15   9   1    3.65    3.61
 -15  -9  -1    7.83    3.92
  15   9   2    7.16    4.06
 -15  -9  -2   10.46    3.63
  15   9   3    7.96    3.78
 -15  -9  -3   10.15    4.02
  15   9   4   24.74    4.15
 -15  -9  -4   26.00    4.01
  15   9   5    9.91    3.73
 -15  -9  -5   12.75    4.42
  15   9   6   31.59    4.25
 -15  -9  -6   30.65    5.14
 -14  -8  21   22.90    4.06
 -14  -8  20   45.79    4.75
 -14  -8  19   17.41    4.41
 -14  -8  18   29.16    4.19
 -14  -8  17    5.15    4.20
 -14  -8  16   21.25    4.31
 -14  -8  15   39.98    4.79
 -14  -8  14    1.79    3.62
 -14  -8  13   65.78    5.72
  14   8 -12  172.10    9.36
 -14  -8  12  144.30    8.16
  14   8 -11    9.10    4.17
 -14  -8  11    9.62    3.65
  14   8 -10   35.56    4.89
 -14  -8  10   44.08    4.68
  14   8  -9   38.49    4.74
 -14  -8   9   37.09    4.60
  14   8  -8   -1.23    3.79
 -14  -8   8    5.52    3.83
  14   8  -7   45.19    5.10
 -14  -8   7   41.73    4.93
  14   8  -6   28.70    4.57
 -14  -8   6   35.07    4.47
  14   8  -5    9.43    3.99
 -14  -8   5    9.50    3.73
  14   8  -4   41.81    4.71
 -14  -8   4   46.84    4.66
  14   8  -3  313.20   14.86
 -14  -8   3  320.40   15.10
  14   8  -2   95.95    6.67
 -14  -8   2   99.88    6.43
  14   8  -1   69.55    5.81
 -14  -8   1   83.32    6.08
  14   8   0    5.94    3.83
 -14  -8   0   -1.08    3.50
  14   8   1   65.62    5.38
 -14  -8  -1   63.23    5.16
  14   8   2   16.69    4.12
 -14  -8  -2   21.75    4.44
  14   8   3    4.66    3.62
 -14  -8  -3    4.86    3.63
  14   8   4   62.26    5.29
 -14  -8  -4   53.73    4.80
  14   8   5   68.60    5.63
 -14  -8  -5   91.12    6.03
  14   8   6   29.44    4.39
 -14  -8  -6   32.84    4.58
  14   8   7   50.85    5.26
 -14  -8  -7   37.49    4.83
  14   8   8    6.68    4.55
 -14  -8  -8   -0.35    4.50
 -13  -7  22    6.76    4.20
 -13  -7  21   -4.47    3.98
 -13  -7  20   -2.36    4.00
 -13  -7  19   35.02    4.42
 -13  -7  18   10.09    3.67
 -13  -7  17  118.60    7.16
 -13  -7  16    1.75    3.91
 -13  -7  15    0.76    3.49
 -13  -7  14   -8.36    3.81
 -13  -7  13    3.54    4.31
  13   7 -12    3.23    3.45
 -13  -7  12   -0.38    3.99
  13   7 -11  402.80   18.61
 -13  -7  11  383.90   17.70
  13   7 -10   -2.02    4.07
 -13  -7  10    6.11    3.63
  13   7  -9   77.04    5.72
 -13  -7   9   85.46    6.13
  13   7  -8    6.55    4.15
 -13  -7   8   17.04    4.04
  13   7  -7   -6.61    3.70
 -13  -7   7   -0.76    3.61
  13   7  -6   23.48    4.44
 -13  -7   6   28.74    4.58
  13   7  -5  452.30   20.34
 -13  -7   5  494.40   22.00
  13   7  -4   -1.32    3.88
 -13  -7   4   -0.44    3.41
  13   7  -3  513.40   22.97
 -13  -7   3  475.80   21.25
  13   7  -2    3.74    4.13
 -13  -7   2    5.47    3.37
  13   7  -1   20.28    4.23
 -13  -7   1   19.42    3.82
  13   7   0    1.79    4.09
 -13  -7   0   -2.62    3.65
  13   7   1   18.51    4.14
 -13  -7  -1    7.68    3.93
  13   7   2   45.05    4.56
 -13  -7  -2   40.70    4.44
  13   7   3  193.70    9.91
 -13  -7  -3  208.10   10.57
  13   7   4   31.28    4.31
 -13  -7  -4   25.45    3.73
  13   7   5  262.30   12.53
 -13  -7  -5  237.10   11.40
  13   7   6    2.03    3.77
 -13  -7  -6   -3.06    3.82
  13   7   7   -1.14    3.78
 -13  -7  -7   -0.88    3.70
  13   7   8    3.78    3.92
 -13  -7  -8    8.70    4.10
  13   7   9    9.97    4.30
 -13  -7  -9    4.76    4.37
  13   7  10    6.89    4.80
 -12  -6  22    5.63    4.15
 -12  -6  21   45.85    4.92
 -12  -6  20   -2.94    3.89
 -12  -6  19    5.44    3.92
 -12  -6  18    3.25    3.95
 -12  -6  17    0.81    3.54
 -12  -6  16   84.99    6.03
 -12  -6  15   10.83    3.83
 -12  -6  14   10.21    3.81
 -12  -6  13  105.80    6.79
  12   6 -12   -5.67    3.93
 -12  -6  12   -2.71    3.99
  12   6 -11    2.21    3.54
 -12  -6  11    9.41    4.23
  12   6 -10  189.20   10.07
 -12  -6  10  195.40   10.15
  12   6  -9  160.30    8.80
 -12  -6   9  155.00    8.57
  12   6  -8    4.60    3.85
 -12  -6   8    7.95    3.73
  12   6  -7  392.70   17.94
 -12  -6   7  284.10   13.59
  12   6  -6    2.51    4.00
 -12  -6   6   -1.77    3.78
  12   6  -5   42.89    4.69
 -12  -6   5   54.28    4.85
  12   6  -4  457.70   20.54
 -12  -6   4  470.40   21.01
  12   6  -3   35.12    4.53
 -12  -6   3   24.50    4.27
  12   6  -2   98.36    6.51
 -12  -6   2  113.80    6.81
  12   6  -1  443.60   20.02
 -12  -6   1  402.80   18.21
  12   6   0   12.35    3.83
 -12  -6   0   15.64    3.91
  12   6   1  228.80   11.39
 -12  -6  -1  209.90   10.63
  12   6   2   57.11    5.12
 -12  -6  -2   69.92    5.48
  12   6   3    0.21    3.78
 -12  -6  -3   -1.08    3.38
  12   6   4  141.90    8.10
 -12  -6  -4  157.20    8.48
  12   6   5    4.26    3.42
 -12  -6  -5   -5.25    3.71
  12   6   6   46.65    4.48
 -12  -6  -6   58.56    4.72
  12   6   7   80.74    5.70
 -12  -6  -7   85.76    5.76
  12   6   8   -7.07    3.95
 -12  -6  -8   -1.36    3.74
  12   6   9   51.62    4.98
 -12  -6  -9   64.54    5.14
  12   6  10    4.84    4.09
  12   6  11    2.27    4.56
 -11  -5  23   11.21    4.14
 -11  -5  22   40.27    4.52
 -11  -5  21    7.34    3.99
 -11  -5  20   30.44    4.34
 -11  -5  19   11.43    3.73
 -11  -5  18    3.39    3.51
 -11  -5  17   64.97    5.31
 -11  -5  16   11.34    3.74
 -11  -5  15   97.91    6.49
 -11  -5  14  349.70   16.31
 -11  -5  13   18.05    3.92
  11   5 -12  104.00    6.65
 -11  -5  12  119.90    7.34
  11   5 -11   61.79    5.48
 -11  -5  11   54.79    5.18
  11   5 -10    6.89    3.66
 -11  -5  10    7.73    3.68
  11   5  -9  137.50    7.68
 -11  -5   9  145.00    8.32
  11   5  -8  950.10   40.71
 -11  -5   8  933.90   39.90
  11   5  -7   -4.89    3.53
 -11  -5   7   -2.53    3.35
  11   5  -6  671.70   29.21
 -11  -5   6  632.20   27.67
  11   5  -5    5.63    3.55
 -11  -5   5   -2.39    3.64
  11   5  -4    6.14    3.78
 -11  -5   4   11.39    3.75
  11   5  -3   13.85    3.52
 -11  -5   3   16.31    3.71
  11   5  -2  130.50    7.57
 -11  -5   2  138.20    7.61
  11   5  -1   58.62    5.09
 -11  -5   1   50.39    4.56
  11   5   0  591.30   25.90
 -11  -5   0  504.80   22.23
  11   5   1   11.75    3.86
 -11  -5  -1   14.85    3.33
  11   5   2  222.00   10.91
 -11  -5  -2  233.00   11.24
  11   5   3    7.63    3.74
 -11  -5  -3    7.88    3.47
  11   5   4    3.44    3.33
 -11  -5  -4   -3.42    3.35
  11   5   5    2.75    3.72
 -11  -5  -5   -1.19    3.58
  11   5   6   20.14    3.91
 -11  -5  -6   14.52    3.88
  11   5   7   -0.55    3.53
 -11  -5  -7    7.37    3.62
  11   5   8  141.60    7.89
 -11  -5  -8  116.30    6.70
  11   5   9    3.66    3.47
 -11  -5  -9   -2.19    3.61
  11   5  10   23.46    4.05
  11   5  11    2.47    3.68
  11   5  12   17.80    4.39
 -10  -4  23   -2.15    4.25
 -10  -4  22   26.74    4.15
 -10  -4  21   44.78    5.13
 -10  -4  20    2.37    3.66
 -10  -4  19    2.91    3.39
 -10  -4  18   20.94    3.77
 -10  -4  17    9.19    3.58
 -10  -4  16  292.80   13.98
 -10  -4  15   -0.10    3.60
 -10  -4  14    9.27    3.87
 -10  -4  13   15.91    4.28
 -10  -4  12   43.21    4.75
  10   4 -11   70.37    5.27
 -10  -4  11   88.64    6.16
  10   4 -10  717.50   31.25
 -10  -4  10  672.10   29.26
  10   4  -9   58.36    5.17
 -10  -4   9   58.54    5.02
  10   4  -8 1014.00   43.17
 -10  -4   8 1012.00   43.14
  10   4  -7  480.50   21.37
 -10  -4   7  461.30   20.63
  10   4  -6  176.80    9.12
 -10  -4   6  148.70    8.22
  10   4  -5    7.12    3.41
 -10  -4   5   -0.87    3.66
  10   4  -4  507.60   22.37
 -10  -4   4  452.50   20.12
  10   4  -3   83.33    5.64
 -10  -4   3   86.11    5.81
  10   4  -2  121.30    7.17
 -10  -4   2  132.90    7.55
  10   4  -1    8.24    3.65
 -10  -4   1    8.96    3.66
  10   4   0  112.00    6.59
 -10  -4   0  122.70    7.13
  10   4   1  197.80   10.15
 -10  -4  -1  190.20    9.64
  10   4   2   95.18    6.08
 -10  -4  -2   94.28    6.09
  10   4   3   56.38    4.95
 -10  -4  -3   56.28    4.72
  10   4   4   78.58    5.69
 -10  -4  -4   95.81    5.84
  10   4   5   16.67    3.97
 -10  -4  -5   18.66    3.45
  10   4   6   24.88    3.73
 -10  -4  -6   19.13    4.14
  10   4   7    3.72    3.47
 -10  -4  -7    0.91    3.19
  10   4   8    2.02    3.59
 -10  -4  -8    1.92    3.33
  10   4   9   26.79    3.74
 -10  -4  -9   14.84    3.91
  10   4  10   75.21    5.30
  10   4  11   12.44    3.54
  10   4  12   38.30    4.31
  10   4  13    2.55    3.99
  -9  -3  23   15.15    4.32
  -9  -3  23   18.43    4.05
  -9  -3  22  -13.51    4.08
  -9  -3  21    1.64    4.07
  -9  -3  20    0.32    3.66
  -9  -3  19   91.82    6.17
  -9  -3  18   42.09    4.44
  -9  -3  17  113.40    6.91
  -9  -3  16    1.98    3.41
  -9  -3  15   27.32    4.34
  -9  -3  14   23.64    4.10
  -9  -3  13   25.92    4.30
  -9  -3  12   79.35    5.83
   9   3 -11  372.40   16.94
  -9  -3  11  352.70   16.29
   9   3 -10    6.09    3.61
  -9  -3  10    9.05    3.43
   9   3  -9  434.20   19.49
  -9  -3   9  409.60   18.45
   9   3  -8   23.88    4.07
  -9  -3   8   20.93    4.10
   9   3  -7   38.84    4.34
  -9  -3   7   37.59    4.43
   9   3  -6   15.50    3.63
  -9  -3   6   12.29    3.65
   9   3  -5   90.02    6.02
  -9  -3   5   84.65    6.07
   9   3  -4   12.42    3.51
  -9  -3   4   11.14    3.50
   9   3  -3  491.60   21.81
  -9  -3   3  534.70   23.59
   9   3  -2   41.66    4.40
  -9  -3   2   40.80    4.24
   9   3  -1   33.59    4.36
  -9  -3   1   32.96    4.14
   9   3   0  155.90    8.30
  -9  -3   0  150.50    7.99
   9   3   1  465.80   20.63
  -9  -3  -1  447.80   19.90
   9   3   2    6.92    3.19
  -9  -3  -2    9.24    3.43
   9   3   3   97.53    6.19
  -9  -3  -3  103.00    6.40
   9   3   4   83.81    5.60
  -9  -3  -4   80.42    5.37
   9   3   5   41.61    4.47
  -9  -3  -5   35.41    4.10
   9   3   6  108.40    6.62
  -9  -3  -6  113.00    6.62
   9   3   7   56.31    5.02
  -9  -3  -7   60.86    4.74
   9   3   8    2.58    3.29
  -9  -3  -8    2.45    3.44
   9   3   9   34.52    4.47
  -9  -3  -9   26.29    4.19
   9   3  10    8.97    3.84
   9   3  11   18.62    4.05
   9   3  12    4.46    3.43
   9   3  13   28.59    4.31
   9   3  14    2.23    3.91
  -8  -2  23   -2.98    3.77
  -8  -2  23    3.60    4.02
  -8  -2  22   -0.21    3.87
  -8  -2  22    7.50    3.72
  -8  -2  21   43.78    4.82
  -8  -2  20    8.96    3.88
  -8  -2  19   83.63    5.89
  -8  -2  18   34.61    4.28
  -8  -2  17    4.74    3.47
  -8  -2  16   18.75    3.91
  -8  -2  15  594.50   26.01
  -8  -2  14   19.92    3.95
  -8  -2  13  398.20   18.04
  -8  -2  12   -3.38    3.09
  -8  -2  11   70.73    5.17
   8   2 -10  119.40    7.06
  -8  -2  10  131.90    7.43
   8   2  -9  114.60    6.72
  -8  -2   9  128.70    7.33
   8   2  -8    5.94    3.52
  -8  -2   8    2.92    3.49
   8   2  -7 1008.00   42.76
  -8  -2   7 1045.00   44.34
   8   2  -6    4.65    3.18
  -8  -2   6    8.51    3.52
   8   2  -5 1820.00   76.20
  -8  -2   5 2139.00   89.20
   8   2  -4    4.16    3.45
  -8  -2   4    4.36    3.56
   8   2  -3  235.20   11.28
  -8  -2   3  219.60   10.70
   8   2  -2   10.78    3.40
  -8  -2   2    5.12    3.36
   8   2  -1  213.60   10.44
  -8  -2   1  219.40   10.75
   8   2   0   87.25    5.62
  -8  -2   0   88.72    5.68
   8   2   1  581.50   25.34
  -8  -2  -1  549.90   23.88
   8   2   2   26.87    3.64
  -8  -2  -2   32.69    4.10
   8   2   3  161.70    8.50
  -8  -2  -3  151.50    8.05
   8   2   4    4.34    3.56
  -8  -2  -4    1.48    2.85
   8   2   5   44.20    4.57
  -8  -2  -5   39.62    4.25
   8   2   6    6.26    3.15
  -8  -2  -6    7.27    3.19
   8   2   7  311.70   14.57
  -8  -2  -7  285.90   13.28
   8   2   8   46.12    4.62
  -8  -2  -8   44.17    4.38
   8   2   9    9.58    3.45
  -8  -2  -9    7.22    3.66
   8   2  10  130.60    7.36
   8   2  11   40.65    4.25
   8   2  12    2.58    3.73
   8   2  13   28.12    4.35
   8   2  14   14.23    3.79
   8   2  15   65.64    5.26
  -7  -1  23   11.04    4.00
  -7  -1  23    3.43    4.29
  -7  -1  22   15.93    4.35
  -7  -1  22   21.46    4.26
  -7  -1  21    5.76    4.23
  -7  -1  21    9.44    3.61
  -7  -1  20   34.90    4.67
  -7  -1  20   33.56    4.28
  -7  -1  19   12.52    3.64
  -7  -1  18   34.19    4.28
  -7  -1  17  319.20   14.73
  -7  -1  16    6.25    3.14
  -7  -1  15  193.70    9.83
  -7  -1  14  125.80    7.23
  -7  -1  13   17.10    3.61
  -7  -1  12  284.10   13.35
  -7  -1  11  245.80   11.65
  -7  -1  10  132.40    7.28
   7   1  -9   70.91    4.96
  -7  -1   9   76.22    5.32
   7   1  -8    5.62    3.54
  -7  -1   8    6.26    3.42
   7   1  -7   75.00    5.64
  -7  -1   7   77.52    5.30
   7   1  -6  225.50   10.92
  -7  -1   6  220.20   10.72
   7   1  -5  492.60   21.60
  -7  -1   5  489.00   21.45
   7   1  -4  645.00   27.90
  -7  -1   4  671.90   28.91
   7   1  -3  121.70    7.03
  -7  -1   3  117.20    6.82
   7   1  -2   19.05    3.75
  -7  -1   2   20.94    3.88
   7   1  -1  453.50   20.08
  -7  -1   1  465.80   20.52
   7   1   0  107.00    6.44
  -7  -1   0   98.08    5.99
   7   1   1    4.64    3.24
  -7  -1  -1    2.11    3.27
   7   1   2  578.80   25.24
  -7  -1  -2  530.60   23.17
   7   1   3   30.91    4.01
  -7  -1  -3   27.11    3.71
   7   1   4  165.40    8.63
  -7  -1  -4  160.80    8.37
   7   1   5   94.89    6.07
  -7  -1  -5  107.30    6.37
   7   1   6   94.86    5.99
  -7  -1  -6   88.94    5.70
   7   1   7   20.76    3.83
  -7  -1  -7   28.03    3.83
   7   1   8  353.00   16.12
  -7  -1  -8  336.50   15.44
   7   1   9    6.98    3.25
   7   1  10   14.56    3.49
   7   1  11  180.30    9.41
   7   1  12    8.02    3.53
   7   1  13   55.30    4.90
   7   1  14   15.45    3.93
   7   1  15    9.66    3.90
   7   1  16   41.42    4.79
  -6   0  22   40.48    4.16
  -6   0  22   38.06    4.49
  -6   0  21    8.50    4.19
  -6   0  21    9.10    3.60
  -6   0  20    2.93    3.98
  -6   0  20    1.48    3.34
  -6   0  19    1.54    3.57
  -6   0  19   -0.28    3.27
  -6   0  18    1.09    3.53
  -6   0  17   -3.60    3.38
  -6   0  16  263.90   12.49
  -6   0  15    6.24    3.35
  -6   0  14   81.76    5.45
  -6   0  13   -2.67    3.14
  -6   0  12   28.97    3.70
  -6   0  11   -1.74    3.04
  -6   0  10  217.50   10.50
  -6   0   9    3.74    2.76
   6   0  -8  138.60    7.30
  -6   0   8  130.40    7.03
   6   0  -7   -1.37    2.86
  -6   0   7   -2.30    2.83
   6   0  -6  474.80   20.90
  -6   0   6  421.80   18.61
   6   0  -5   -3.72    3.50
  -6   0   5    3.48    3.25
   6   0  -4 1614.00   67.46
  -6   0   4 1744.00   72.88
   6   0  -3   -0.58    3.66
  -6   0   3    3.78    3.83
   6   0  -2   12.33    3.64
  -6   0   2    8.02    3.78
   6   0  -1   -3.11    3.20
  -6   0   1    0.97    3.50
   6   0   0  294.10   13.59
  -6   0   0  284.00   13.17
   6   0   1    1.05    3.71
  -6   0  -1   -2.42    3.54
   6   0   2  377.00   16.98
  -6   0  -2  453.80   20.02
   6   0   3    0.20    3.06
  -6   0  -3   -2.55    3.67
   6   0   4  319.90   14.75
  -6   0  -4  383.70   17.32
   6   0   5    3.70    3.26
  -6   0  -5    1.45    3.20
   6   0   6  351.20   16.02
  -6   0  -6  358.20   16.30
   6   0   7    2.57    3.45
  -6   0  -7    1.25    3.31
   6   0   8   77.36    5.45
  -6   0  -8   84.60    5.73
   6   0   9   -1.65    3.12
   6   0  10  220.40   10.94
   6   0  11    6.12    3.65
   6   0  12  338.90   15.63
   6   0  13   -2.98    3.42
   6   0  14   91.98    5.99
   6   0  15    0.35    3.76
   6   0  16    6.41    3.69
   6   0  17    2.44    4.48
  -5   1  22   12.54    4.24
  -5   1  22   11.51    4.41
  -5   1  21    9.88    3.72
  -5   1  21   19.93    4.39
  -5   1  20   95.05    5.83
  -5   1  20   76.20    5.77
  -5   1  19    4.14    3.42
  -5   1  19    2.77    3.48
  -5   1  18    9.93    3.41
  -5   1  18    3.50    3.40
  -5   1  17   60.35    4.76
  -5   1  17   66.13    4.92
  -5   1  16   -0.44    3.12
  -5   1  15   71.00    5.03
  -5   1  14   93.02    5.70
  -5   1  13    3.26    2.94
  -5   1  12  160.20    8.20
  -5   1  11    3.29    2.82
  -5   1  10  642.80   27.55
  -5   1   9  117.60    6.29
  -5   1   8  174.90    8.58
   5  -1  -7  132.20    6.72
  -5   1   7  147.70    7.49
   5  -1  -6  206.30    9.89
  -5   1   6  216.10   10.13
   5  -1  -5   23.72    3.65
  -5   1   5   13.14    3.37
   5  -1  -4 3403.00  141.10
  -5   1   4 2917.00  121.00
   5  -1  -3    2.61    3.38
  -5   1   3    2.71    3.45
   5  -1  -2 1786.00   74.71
  -5   1   2 1649.00   68.93
   5  -1  -1 1932.00   80.63
  -5   1   1 1876.00   78.27
   5  -1   0  573.60   24.82
  -5   1   0  554.00   24.02
   5  -1   1  280.80   13.00
  -5   1  -1  317.70   14.55
   5  -1   2 1103.00   46.63
  -5   1  -2  954.30   40.67
   5  -1   3  656.40   28.33
  -5   1  -3  676.80   29.12
   5  -1   4  412.80   18.42
  -5   1  -4  402.50   17.91
   5  -1   5   96.06    6.26
  -5   1  -5   97.51    5.84
   5  -1   6   52.17    4.81
  -5   1  -6   40.25    4.20
   5  -1   7   92.76    5.92
  -5   1  -7   77.81    5.21
   5  -1   8  392.90   17.84
   5  -1   9   11.76    3.83
   5  -1  10  381.20   17.48
   5  -1  11   12.26    3.76
   5  -1  12    9.56    3.84
   5  -1  13  118.30    7.13
   5  -1  14   27.06    4.30
   5  -1  15   19.15    3.95
   5  -1  16   36.80    4.13
   5  -1  17    1.17    4.05
  -4   2  22   -1.35    4.50
  -4   2  22    0.69    4.80
  -4   2  21   23.12    4.43
  -4   2  21   20.35    4.37
  -4   2  20    5.86    3.97
  -4   2  20    1.97    3.56
  -4   2  19  157.60    8.42
  -4   2  19  167.70    8.72
  -4   2  18    6.74    3.46
  -4   2  18    5.09    2.87
  -4   2  17   40.18    4.09
  -4   2  17   37.26    4.01
  -4   2  16    1.27    3.11
  -4   2  16    7.69    3.08
  -4   2  15   64.86    4.73
  -4   2  15   61.45    4.56
  -4   2  14   16.93    3.15
  -4   2  14   13.31    2.87
  -4   2  13  213.00   10.13
  -4   2  12   36.14    3.52
  -4   2  11  511.20   22.09
  -4   2  10    9.12    2.73
  -4   2   9  296.60   13.32
  -4   2   8    7.97    2.50
  -4   2   7   37.82    3.20
   4  -2  -6  110.10    5.67
  -4   2   6  111.20    5.79
   4  -2  -5   48.97    3.46
  -4   2   5   48.18    3.54
   4  -2  -4   68.58    4.36
  -4   2   4   66.29    4.35
   4  -2  -3 2862.00  118.50
  -4   2   3 2999.00  124.20
   4  -2  -2 1037.00   43.50
  -4   2   2 1115.00   46.73
   4  -2  -1  570.50   24.62
  -4   2   1  603.80   25.91
   4  -2   0  557.90   24.30
  -4   2   0  561.90   24.40
   4  -2   1   88.11    6.14
  -4   2  -1   92.24    6.13
   4  -2   2  171.60    8.71
  -4   2  -2  171.10    8.71
   4  -2   3  875.00   37.29
  -4   2  -3  873.60   37.19
   4  -2   4    4.97    3.14
  -4   2  -4    4.60    3.19
   4  -2   5   59.24    4.68
  -4   2  -5   57.51    4.56
   4  -2   6   65.50    5.07
   4  -2   7  184.70    9.43
   4  -2   8  138.20    7.67
   4  -2   9  339.80   15.60
   4  -2  10    1.36    3.49
   4  -2  11  293.60   13.94
   4  -2  12   23.26    4.12
   4  -2  13    3.20    3.43
   4  -2  14    1.38    3.53
   4  -2  15  119.90    7.02
   4  -2  16    4.55    3.66
   4  -2  17   21.64    4.24
   4  -2  18   -1.06    4.25
  -3   3  21   54.52    5.42
  -3   3  21   38.37    5.36
  -3   3  20    8.82    4.07
  -3   3  20    6.90    3.86
  -3   3  19    7.16    3.54
  -3   3  19    5.30    3.47
  -3   3  18   38.24    4.06
  -3   3  18   41.84    4.52
  -3   3  17   69.12    4.94
  -3   3  17   53.27    4.38
  -3   3  16   32.11    3.80
  -3   3  16   31.61    3.83
  -3   3  15  223.20   10.60
  -3   3  15  214.50   10.07
  -3   3  14   51.55    3.93
  -3   3  14   53.81    4.15
  -3   3  13  109.70    5.98
  -3   3  13  101.40    5.64
  -3   3  12  211.90    9.86
  -3   3  12  219.50   10.26
  -3   3  11   12.05    2.45
  -3   3  10   34.13    3.04
  -3   3   9  150.90    7.18
  -3   3   8   22.49    2.50
  -3   3   7  394.30   16.88
  -3   3   6  202.20    8.98
   3  -3  -5    9.14    1.84
  -3   3   5   11.88    2.03
   3  -3  -4  501.00   21.14
  -3   3   4  494.70   20.88
   3  -3  -3 2649.00  109.60
  -3   3   3 2590.00  107.20
   3  -3  -2  500.50   21.32
  -3   3   2  542.30   23.03
   3  -3  -1  166.00    8.08
  -3   3   1  185.70    9.01
   3  -3   0   20.05    3.85
  -3   3   0   17.94    3.73
   3  -3   1  366.20   16.54
  -3   3  -1  354.10   16.02
   3  -3   2  931.00   39.47
  -3   3  -2  949.40   40.24
   3  -3   3  226.10   10.95
  -3   3  -3  212.90   10.37
   3  -3   4  165.00    8.54
   3  -3   5 1086.00   45.95
   3  -3   6   18.42    3.90
   3  -3   7  421.30   18.80
   3  -3   8    3.45    3.65
   3  -3   9   46.38    4.70
   3  -3  10   16.81    3.96
   3  -3  11   48.46    5.01
   3  -3  12  226.20   11.54
   3  -3  13  280.20   13.32
   3  -3  14    5.85    3.86
   3  -3  15   73.99    5.45
   3  -3  16   41.42    4.65
   3  -3  17    5.90    3.94
   3  -3  18    8.22    4.07
  -2   4  21    0.33    5.02
  -2   4  21    2.22    5.24
  -2   4  20   15.31    4.22
  -2   4  20    8.14    4.34
  -2   4  19   33.62    4.30
  -2   4  19   25.90    4.21
  -2   4  18   -0.13    3.21
  -2   4  18    1.59    3.23
  -2   4  17  122.70    6.68
  -2   4  17  130.60    7.01
  -2   4  16  133.40    6.94
  -2   4  16  115.80    6.49
  -2   4  15    1.67    2.83
  -2   4  15    2.53    2.75
  -2   4  14  191.50    9.15
  -2   4  14  178.70    8.72
  -2   4  13   17.36    2.79
  -2   4  13   19.37    2.86
  -2   4  12   19.10    2.55
  -2   4  12   16.18    2.89
  -2   4  11    5.86    2.19
  -2   4  11    6.27    2.15
  -2   4  10  252.20   11.19
  -2   4  10  245.50   10.87
  -2   4   9   -1.10    1.81
  -2   4   9   -2.34    1.68
  -2   4   8  464.30   19.67
  -2   4   8  427.10   18.10
  -2   4   7   37.54    2.44
  -2   4   7   41.89    2.53
  -2   4   6  438.90   18.44
  -2   4   5  953.10   39.85
   2  -4  -4  336.80   14.18
  -2   4   4  366.30   15.41
   2  -4  -3   75.75    3.80
  -2   4   3   76.70    3.77
   2  -4  -2 1841.00   76.32
  -2   4   2 1949.00   80.78
   2  -4  -1  386.80   16.69
  -2   4   1  369.70   16.05
   2  -4   0  116.20    6.37
  -2   4   0  129.20    6.76
   2  -4   1   27.96    4.03
   2  -4   2  264.50   12.40
   2  -4   3  358.10   16.15
   2  -4   4  308.40   14.33
   2  -4   5  219.70   10.57
   2  -4   6  593.90   25.91
   2  -4   7    6.09    3.43
   2  -4   8  933.00   39.83
   2  -4   9  147.80    8.12
   2  -4  10   31.63    4.09
   2  -4  11  150.70    8.44
   2  -4  12    2.58    4.10
   2  -4  13   13.27    3.94
   2  -4  14  220.30   10.92
   2  -4  15    5.14    3.47
   2  -4  16   66.41    5.05
   2  -4  17   26.32    4.33
   2  -4  18    2.56    3.93
   2  -4  19   -3.17    4.13
  -1   5  20   12.45    4.60
  -1   5  20    5.29    4.60
  -1   5  18   96.03    5.82
  -1   5  18  108.50    6.33
  -1   5  17   41.94    3.98
  -1   5  17   50.28    4.19
  -1   5  16  148.00    7.37
  -1   5  16  149.90    7.62
  -1   5  15   38.96    3.42
  -1   5  15   44.88    4.06
  -1   5  14   20.82    2.94
  -1   5  14   26.15    3.14
  -1   5  13   38.97    3.24
  -1   5  13   31.53    3.01
  -1   5  12  493.10   21.13
  -1   5  12  518.60   22.15
  -1   5  11    9.75    2.25
  -1   5  11   11.18    2.26
  -1   5  10  320.40   13.92
  -1   5  10  311.60   13.51
  -1   5   9   87.81    4.42
  -1   5   9   85.15    4.32
  -1   5   8   10.19    1.53
  -1   5   8   10.77    1.57
  -1   5   7   64.68    3.12
  -1   5   7   61.05    2.93
   1  -5  -3   86.16    3.90
   1  -5  -3   90.37    4.11
   1  -5  -2    2.17    1.76
   1  -5  -1   56.86    3.61
   1  -5   0    6.11    2.64
   1  -5   3   48.17    4.15
   1  -5   4  664.60   28.73
   1  -5   5    4.21    3.34
   1  -5   6  346.90   15.95
   1  -5   7   -0.42    3.20
   1  -5   8   10.43    3.62
   1  -5   9   63.62    5.29
   1  -5  10  633.70   27.66
   1  -5  11   13.42    3.58
   1  -5  12   38.17    4.69
   1  -5  13   20.32    3.68
   1  -5  14    4.74    3.35
   1  -5  15    9.30    4.29
   1  -5  16   45.16    4.44
   1  -5  17    0.99    3.60
   1  -5  18   45.27    5.07
   1  -5  19    8.72    3.86
   0   6  19   67.71    5.77
   0   6  19   64.17    5.52
   0   6  18    0.80    3.65
   0   6  18    9.72    3.79
   0   6  17   65.22    4.53
   0   6  17   58.00    4.70
   0   6  16   -1.80    2.59
   0   6  16    0.54    2.96
   0   6  15   32.75    3.28
   0   6  15   35.62    3.33
   0   6  14    7.82    2.58
   0   6  14   10.91    2.62
   0   6  13   25.29    2.78
   0   6  13   23.68    2.74
   0   6  12    9.87    2.27
   0   6  12    9.16    2.17
   0   6  11  542.10   23.06
   0   6  11  546.30   23.16
   0   6  10    3.49    1.75
   0   6   9  306.20   13.09
   0   6   8  145.10    6.38
   0  -6  -3  470.50   19.73
   0  -6  -2  300.00   12.91
   0  -6  -1   31.14    2.69
   0  -6   8  196.60   10.19
   0  -6   9  315.40   14.75
   0  -6  10    7.82    3.78
   0  -6  11  520.60   23.03
   0  -6  12   16.83    4.04
   0  -6  13   35.06    4.57
   0  -6  14   10.61    3.80
   0  -6  15   40.05    4.79
   0  -6  16    6.95    3.93
   0  -6  17   70.64    5.17
   0  -6  18    0.12    3.71
   1   7  18    1.97    3.71
   1   7  18   -2.47    3.63
   1   7  17    3.60    3.40
   1   7  17    3.61    3.37
   1   7  16    2.83    2.73
   1   7  16   -1.98    3.04
   1   7  15   72.33    4.30
   1   7  15   69.36    4.35
   1   7  14   38.58    3.28
   1   7  14   43.22    3.35
   1   7  13  171.30    8.04
   1   7  13  164.50    7.65
   1   7  12    3.09    2.04
   1   7  11    3.62    1.84
   1   7  10    5.89    1.74
   1   7   9  187.80    8.19
   1   7   8   47.38    2.58
   1   7   7  642.40   27.08
   1   7   6    4.61    0.90
  -1  -7  -5  143.20    6.20
  -1  -7  -4   84.00    3.94
  -1  -7  -3   62.68    3.25
  -1  -7  -2    8.76    1.98
  -1  -7  -1  792.30   33.38
  -1  -7   0  291.20   12.99
  -1  -7   1  411.50   18.07
  -1  -7  11    0.49    3.62
  -1  -7  12   87.59    6.20
  -1  -7  13  149.80    8.24
  -1  -7  14   24.63    4.03
  -1  -7  15  103.10    6.44
  -1  -7  16   20.33    4.03
  -1  -7  17   18.79    3.84
  -1  -7  18    4.09    3.86
  -1  -7  18    0.22    3.57
  -1  -7  19   -5.61    3.75
  -1  -7  19    3.94    3.90
   2   8  17   20.79    3.27
   2   8  17   16.79    3.23
   2   8  16    3.80    2.74
   2   8  16    2.50    2.70
   2   8  15   -0.86    2.25
   2   8  15    4.55    2.49
   2   8  14   65.37    3.77
   2   8  14   65.53    3.82
   2   8  13   34.08    2.79
   2   8  13   28.34    2.60
   2   8  12  163.70    7.43
   2   8  11    3.28    1.75
   2   8  10   75.71    3.85
   2   8   9   65.00    3.33
   2   8   8  220.00    9.51
   2   8   7    6.58    1.33
  -2  -8  -6  345.00   14.58
   2   8   6  337.50   14.34
  -2  -8  -5   63.51    3.16
   2   8   5   66.41    3.33
  -2  -8  -4   52.42    2.94
  -2  -8  -3  642.30   26.98
  -2  -8  -2  407.60   17.44
  -2  -8  -1  115.70    5.95
  -2  -8   0  929.60   39.13
  -2  -8   1   11.79    3.07
  -2  -8   2  285.80   13.11
  -2  -8   3  709.60   30.75
  -2  -8   4   18.87    3.64
  -2  -8  13  201.10   10.42
  -2  -8  14    6.73    3.54
  -2  -8  15   -0.88    3.93
  -2  -8  16   -8.53    3.58
  -2  -8  16    0.58    3.75
  -2  -8  17   77.17    5.77
  -2  -8  17   97.27    6.18
  -2  -8  18   -5.96    4.04
  -2  -8  18   -2.40    3.77
  -2  -8  19    7.16    3.59
  -2  -8  19   15.94    4.64
  -2  -8  20    1.60    3.84
  -2  -8  20    8.84    3.61
   3   9  13    0.06    1.67
   3   9  13    1.23    1.69
   3   9  12   32.51    2.41
   3   9  11   73.87    3.81
   3   9  10  146.80    6.66
   3   9   9   -0.58    1.52
   3   9   8  263.30   11.33
  -3  -9  -7   -0.56    1.24
   3   9   7    2.70    1.56
  -3  -9  -6    0.04    1.48
   3   9   6    2.01    1.57
  -3  -9  -5   15.52    1.82
   3   9   5   17.47    1.96
  -3  -9  -4  152.20    6.98
   3   9   4  148.00    6.85
  -3  -9  -3    1.57    1.87
  -3  -9  -2  597.90   25.31
  -3  -9  -1   32.73    3.07
  -3  -9   0  456.70   19.84
  -3  -9   1    1.68    2.60
  -3  -9   2  191.20    9.42
  -3  -9   3   85.97    5.60
  -3  -9   4  673.60   29.19
  -3  -9   5    2.16    3.51
  -3  -9   6  266.90   12.77
  -3  -9   7   -0.99    3.40
  -3  -9   8    0.34    3.42
  -3  -9   9   23.19    4.24
  -3  -9  10  336.90   15.80
  -3  -9  11   12.88    3.97
  -3  -9  12    7.29    3.86
  -3  -9  13    1.04    3.63
  -3  -9  14  111.60    7.02
  -3  -9  15    0.21    3.48
  -3  -9  15   -3.97    3.66
  -3  -9  16   84.12    5.90
  -3  -9  16   67.03    5.69
  -3  -9  18   32.09    4.33
  -3  -9  18   43.45    4.94
  -3  -9  19    0.20    3.84
  -3  -9  19    2.03    3.91
  -3  -9  20   18.47    4.20
  -3  -9  20   23.22    3.93
   4  10  11   -1.97    1.31
   4  10  10   23.11    2.04
   4  10   9    0.35    1.69
   4  10   8   17.22    2.07
  -4 -10  -7   37.02    2.46
   4  10   7   28.61    2.24
  -4 -10  -6  261.00   11.37
   4  10   6  256.20   11.29
  -4 -10  -5   95.05    4.84
   4  10   5   96.59    4.97
  -4 -10  -4  350.70   15.09
   4  10   4  374.00   16.20
  -4 -10  -3   39.38    3.20
   4  10   3   53.53    3.68
  -4 -10  -2    4.81    2.28
  -4 -10  -1   80.79    4.68
  -4 -10   0  164.70    8.31
  -4 -10   1   11.65    2.89
  -4 -10   2  251.40   11.94
  -4 -10   3  123.20    6.96
  -4 -10   4   26.50    3.95
  -4 -10   5   48.20    4.51
  -4 -10   6    5.19    3.39
  -4 -10   7   61.92    5.37
  -4 -10   8  113.40    6.91
  -4 -10   9    1.61    3.60
  -4 -10  10    4.01    3.78
  -4 -10  11  118.20    7.54
  -4 -10  12   15.35    4.08
  -4 -10  13   89.63    6.41
  -4 -10  14   35.17    4.61
  -4 -10  15    3.97    3.84
  -4 -10  16   58.39    5.06
  -4 -10  16   45.38    4.82
  -4 -10  18   17.25    4.06
  -4 -10  18   15.84    4.50
  -4 -10  19    2.21    3.87
  -4 -10  19   -1.71    3.97
   5  11  10   50.81    2.71
   5  11   9    5.95    1.85
   5  11   8   39.42    2.73
  -5 -11  -7   47.98    2.84
   5  11   7   49.16    3.30
  -5 -11  -6   -2.32    2.05
   5  11   6    1.54    1.97
  -5 -11  -5  448.70   19.20
   5  11   5  485.90   20.83
  -5 -11  -4   10.53    2.37
   5  11   4   10.41    2.44
  -5 -11  -3   56.53    3.90
   5  11   3   64.76    4.43
  -5 -11  -2   71.95    4.59
  -5 -11  -1   54.45    4.08
  -5 -11   0   40.12    3.83
  -5 -11   1  406.30   17.94
  -5 -11   2   14.45    3.57
  -5 -11   3  108.50    6.35
  -5 -11   4    6.72    3.37
  -5 -11   5   50.30    4.53
  -5 -11   6   39.93    4.44
  -5 -11   7   82.84    5.71
  -5 -11   8    4.03    3.72
  -5 -11   9   88.94    6.10
  -5 -11  10  136.00    7.86
  -5 -11  11   18.63    3.93
  -5 -11  12    0.58    3.48
  -5 -11  13   21.07    4.26
  -5 -11  14   11.83    4.14
  -5 -11  15  141.60    7.87
  -5 -11  16   28.62    4.14
  -5 -11  18   19.23    3.82
  -5 -11  18    9.11    3.81
  -5 -11  19    2.13    3.70
  -5 -11  19    1.85    3.62
   6  12   8    5.63    2.08
  -6 -12  -7   63.64    3.63
   6  12   7   62.62    3.95
  -6 -12  -6   28.61    2.92
   6  12   6   27.11    3.10
  -6 -12  -5    9.64    2.46
   6  12   5   10.08    2.46
  -6 -12  -4   64.61    4.13
   6  12   4   66.22    4.20
  -6 -12  -3  192.90    9.22
  -6 -12  -2   12.03    2.77
  -6 -12  -1   67.65    4.73
  -6 -12   0   30.98    3.49
  -6 -12   1    2.16    2.82
  -6 -12   2   76.51    5.40
  -6 -12   3   12.50    3.24
  -6 -12   4   31.70    4.11
  -6 -12   5  279.20   13.29
  -6 -12   6  110.70    6.84
  -6 -12   7  118.80    7.33
  -6 -12   8    2.97    3.84
  -6 -12   9   31.13    4.22
  -6 -12  10    6.13    3.92
  -6 -12  11   98.60    6.45
  -6 -12  12   21.26    4.08
  -6 -12  13  152.50    8.32
  -6 -12  14   -3.03    3.77
  -6 -12  15  115.60    7.04
  -6 -12  16    6.21    3.64
  -6 -12  17   22.43    4.16
  -6 -12  18   -2.20    3.30
  -6 -12  18   -2.86    3.91
  -6 -12  19   35.96    4.18
  -6 -12  19   27.10    4.17
  -7 -13  -7    4.92    2.33
  -7 -13  -6    0.79    2.42
  -7 -13  -5   19.24    3.12
  -7 -13  -4    3.73    2.92
  -7 -13  -3   30.52    3.61
  -7 -13  -2  216.20   10.28
  -7 -13  -1   40.63    3.83
  -7 -13   0  134.70    7.19
  -7 -13   1    2.66    3.24
  -7 -13   2    3.48    2.94
  -7 -13   3  189.20    9.78
  -7 -13   4   34.70    4.11
  -7 -13   5   -3.01    3.84
  -7 -13   6  159.20    8.58
  -7 -13   7  150.40    8.43
  -7 -13   8   46.78    5.08
  -7 -13   9    3.24    3.66
  -7 -13  10    1.36    3.95
  -7 -13  11    1.63    3.88
  -7 -13  12   72.54    5.48
  -7 -13  13   -1.66    3.45
  -7 -13  14  100.30    6.48
  -7 -13  15   20.67    4.01
  -7 -13  16    8.10    3.73
  -7 -13  17   -2.62    3.69
  -7 -13  18   23.92    4.14
  -8 -14  -7   -0.60    2.48
  -8 -14  -6   31.69    3.45
  -8 -14  -5    1.90    2.67
  -8 -14  -4   19.60    3.25
  -8 -14  -3    7.66    2.90
  -8 -14  -2    2.65    3.44
  -8 -14  -1  133.00    7.08
  -8 -14   0   94.36    5.80
  -8 -14   1   -1.08    2.79
  -8 -14   2   96.37    6.08
  -8 -14   3    1.96    3.30
  -8 -14   4   44.65    4.53
  -8 -14   5    6.59    3.49
  -8 -14   6   30.05    4.21
  -8 -14   7    6.73    3.99
  -8 -14   8  173.70    9.17
  -8 -14   9   19.69    3.90
  -8 -14  10  246.40   11.98
  -8 -14  11   -3.08    3.72
  -8 -14  12    8.88    3.69
  -8 -14  13    2.83    3.80
  -8 -14  14   36.80    4.62
  -8 -14  15    3.02    3.63
  -8 -14  16   82.88    5.74
  -8 -14  17    2.65    3.86
  -8 -14  18    3.95    3.57
  -9 -15  -7    4.09    3.31
  -9 -15  -6   -0.26    3.27
  -9 -15  -5   48.61    4.21
  -9 -15  -4   17.56    3.64
  -9 -15  -3    5.35    3.50
  -9 -15  -2   11.58    3.52
  -9 -15  -1   16.10    3.77
  -9 -15   0   25.01    3.92
  -9 -15   1   80.93    5.36
  -9 -15   2    8.58    3.63
  -9 -15   3   86.88    5.77
  -9 -15   4   47.90    4.57
  -9 -15   5    6.74    3.99
  -9 -15   6  111.20    6.84
  -9 -15   7   46.10    4.66
  -9 -15   8   36.55    4.64
  -9 -15   9   26.97    4.41
  -9 -15  10   16.56    4.11
  -9 -15  11   45.73    4.55
  -9 -15  12   44.86    4.69
  -9 -15  13    6.13    3.65
  -9 -15  14   43.88    4.70
  -9 -15  15   58.45    5.14
  -9 -15  16   -2.93    3.46
  -9 -15  17    1.08    3.48
 -10 -16  -6   -1.16    4.00
 -10 -16  -5    8.50    4.01
 -10 -16  -4    2.54    4.39
 -10 -16  -3    9.45    3.89
 -10 -16  -2   -1.35    3.50
 -10 -16  -1   42.54    4.49
 -10 -16   0   -1.18    3.69
 -10 -16   1   73.33    5.18
 -10 -16   2    3.29    3.55
 -10 -16   3    5.29    3.69
 -10 -16   4   13.00    3.75
 -10 -16   5   74.26    5.62
 -10 -16   6    4.25    3.67
 -10 -16   7  148.90    8.10
 -10 -16   8    6.08    4.16
 -10 -16   9   10.46    3.70
 -10 -16  10   -2.37    3.73
 -10 -16  11   36.52    4.59
 -10 -16  12   -2.00    3.53
 -10 -16  13   59.58    5.16
 -10 -16  14    7.50    3.61
 -10 -16  15   14.04    3.80
 -10 -16  16   -1.28    3.24
 -11 -17  -4   10.29    4.85
 -11 -17  -3    3.71    4.71
 -11 -17  -2   12.72    4.37
 -11 -17  -1    3.46    4.12
 -11 -17   0    3.73    4.13
 -11 -17   1    4.23    3.97
 -11 -17   2    1.89    3.80
 -11 -17   3  123.90    7.33
 -11 -17   4    4.67    3.65
 -11 -17   5   51.27    4.82
 -11 -17   6   10.90    4.01
 -11 -17   7   12.86    3.93
 -11 -17   8    9.78    3.95
 -11 -17   9   28.02    4.49
 -11 -17  10   -7.55    3.84
 -11 -17  11   24.00    4.09
 -11 -17  12    8.82    4.12
 -11 -17  13    1.02    3.40
 -11 -17  14    9.31    3.65
 -12 -18   0    6.70    4.78
 -12 -18   1    4.69    4.79
 -12 -18   2   11.37    4.40
 -12 -18   3    2.08    4.31
 -12 -18   4   14.65    4.24
 -12 -18   5   14.36    4.30
 -12 -18   6   16.85    4.18
 -12 -18   7   15.56    4.41
 -12 -18   8   17.74    4.24
 -12 -18   9   16.02    4.53
 -12 -18  10   27.67    4.42
 -12 -18  11   -5.31    3.64
 -12 -18  12    6.75    4.25
 -20 -12  14    8.15    4.00
  20  12 -13   -5.49    3.19
 -20 -12  13    3.14    3.45
  20  12 -12    8.67    3.90
 -20 -12  12   10.00    3.56
  20  12 -11   46.59    5.01
 -20 -12  11   39.32    4.47
  20  12 -10   -2.83    3.62
 -20 -12  10   -1.76    3.50
  20  12  -9   30.57    4.29
 -20 -12   9   34.12    4.62
  20  12  -8    2.55    3.64
 -20 -12   8    4.60    4.12
  20  12  -7    5.35    3.52
 -20 -12   7   -6.34    4.63
  20  12  -6    4.41    3.61
 -20 -12   6   -0.60    4.19
  20  12  -5    3.12    3.78
 -20 -12   5    1.83    4.20
 -19 -11  17    6.12    3.72
 -19 -11  16    9.24    4.04
 -19 -11  15    8.35    3.73
 -19 -11  14    5.39    3.72
  19  11 -13   78.36    5.49
 -19 -11  13   70.28    5.51
  19  11 -12    0.06    3.81
 -19 -11  12   -0.63    3.90
  19  11 -11   28.33    4.41
 -19 -11  11   27.54    4.32
  19  11 -10    5.95    3.80
 -19 -11  10    4.68    3.71
  19  11  -9   -6.09    3.72
 -19 -11   9    3.01    3.70
  19  11  -8   -3.04    3.68
 -19 -11   8    3.74    4.12
  19  11  -7   24.01    4.23
 -19 -11   7   32.31    4.75
  19  11  -6   -0.03    3.94
 -19 -11   6    4.38    3.57
  19  11  -5   10.90    4.21
 -19 -11   5   13.36    3.73
  19  11  -4    2.96    3.67
 -19 -11   4   -4.10    4.05
  19  11  -3   14.52    4.21
 -19 -11   3    7.99    4.37
  19  11  -2    1.60    3.60
 -19 -11   2   -1.80    4.01
  19  11  -1    0.26    3.76
 -19 -11   1   -1.58    4.19
 -18 -10  19    0.12    3.87
 -18 -10  18   18.72    3.95
 -18 -10  17   11.40    4.06
 -18 -10  16   -6.38    3.83
 -18 -10  15   53.98    4.89
 -18 -10  14   31.33    4.30
  18  10 -13    8.31    4.02
 -18 -10  13    2.25    3.68
  18  10 -12   51.89    4.92
 -18 -10  12   69.12    5.53
  18  10 -11    6.00    4.14
 -18 -10  11    7.97    3.68
  18  10 -10   14.53    3.90
 -18 -10  10    6.45    4.11
  18  10  -9   59.18    5.11
 -18 -10   9   46.49    4.76
  18  10  -8   -2.13    3.51
 -18 -10   8   -6.29    3.66
  18  10  -7   14.71    4.21
 -18 -10   7   10.49    3.76
  18  10  -6   27.37    4.45
 -18 -10   6   28.94    4.32
  18  10  -5    1.08    3.90
 -18 -10   5   -3.30    4.20
  18  10  -4   39.06    4.55
 -18 -10   4   42.37    4.72
  18  10  -3    0.01    3.99
 -18 -10   3    9.68    3.63
  18  10  -2   10.31    3.83
 -18 -10   2   18.15    4.05
  18  10  -1   22.96    4.23
 -18 -10   1   20.38    4.37
  18  10   0   23.00    4.00
 -18 -10   0   14.74    4.41
  18  10   1    0.70    3.95
 -18 -10  -1    1.70    4.54
  18  10   2   13.58    4.87
 -18 -10  -2   14.55    4.97
 -17  -9  20    9.96    3.94
 -17  -9  19    0.92    3.72
 -17  -9  18    2.18    3.99
 -17  -9  17   13.19    4.05
 -17  -9  16   89.58    6.00
 -17  -9  15   -0.68    3.47
  17   9 -14  127.40    7.18
 -17  -9  14  118.90    7.16
  17   9 -13    3.76    3.66
 -17  -9  13   -1.78    3.57
  17   9 -12   -1.50    3.54
 -17  -9  12   -2.39    3.57
  17   9 -11    9.29    3.68
 -17  -9  11    8.93    3.75
  17   9 -10   44.26    4.65
 -17  -9  10   50.36    4.87
  17   9  -9   14.29    4.07
 -17  -9   9    4.41    3.56
  17   9  -8   63.14    5.30
 -17  -9   8   72.42    5.34
  17   9  -7   42.09    4.98
 -17  -9   7   23.87    4.33
  17   9  -6   20.88    3.99
 -17  -9   6   21.69    4.18
  17   9  -5   -2.15    3.67
 -17  -9   5   -1.31    3.59
  17   9  -4   32.87    4.33
 -17  -9   4   30.92    4.46
  17   9  -3   20.79    4.33
 -17  -9   3   16.68    3.99
  17   9  -2   13.60    4.29
 -17  -9   2    6.81    3.76
  17   9  -1    2.28    3.98
 -17  -9   1    3.70    3.54
  17   9   0   32.88    4.80
 -17  -9   0   16.71    4.16
  17   9   1   -0.40    4.24
 -17  -9  -1    3.85    4.01
  17   9   2    1.32    4.01
 -17  -9  -2    7.13    4.37
  17   9   3    2.46    3.93
 -17  -9  -3   -2.76    3.97
  17   9   4   30.98    4.48
 -17  -9  -4   24.82    4.99
 -16  -8  21    7.89    4.19
 -16  -8  20    9.89    3.87
 -16  -8  19    6.97    4.12
 -16  -8  18   30.35    4.46
 -16  -8  17   21.78    4.05
 -16  -8  16    0.40    3.92
 -16  -8  15   75.89    5.68
  16   8 -14   66.20    5.38
 -16  -8  14   58.78    5.07
  16   8 -13   88.43    6.55
 -16  -8  13   76.61    5.74
  16   8 -12   55.62    4.86
 -16  -8  12   62.41    5.20
  16   8 -11   39.28    5.13
 -16  -8  11   38.26    4.79
  16   8 -10   32.58    4.49
 -16  -8  10   25.39    4.24
  16   8  -9   16.81    4.02
 -16  -8   9    2.65    3.71
  16   8  -8    3.01    3.83
 -16  -8   8    1.88    3.78
  16   8  -7    0.24    3.91
 -16  -8   7   11.18    4.03
  16   8  -6  138.30    7.92
 -16  -8   6  138.00    7.95
  16   8  -5   95.54    6.44
 -16  -8   5   99.75    6.51
  16   8  -4   92.89    6.36
 -16  -8   4  101.30    6.42
  16   8  -3   47.04    4.97
 -16  -8   3   50.27    4.83
  16   8  -2   59.37    5.30
 -16  -8   2   55.53    4.97
  16   8  -1   27.71    4.80
 -16  -8   1   29.67    4.09
  16   8   0   30.29    4.41
 -16  -8   0   34.34    4.55
  16   8   1   21.01    3.92
 -16  -8  -1   18.63    4.04
  16   8   2   21.40    3.92
 -16  -8  -2   15.53    4.16
  16   8   3   11.07    4.22
 -16  -8  -3   11.74    4.11
  16   8   4   46.10    4.82
 -16  -8  -4   59.71    5.82
  16   8   5   -1.41    4.19
 -16  -8  -5    1.89    4.32
  16   8   6   -1.43    4.20
 -16  -8  -6   -4.00    4.23
 -15  -7  22    0.82    3.88
 -15  -7  21   17.97    4.22
 -15  -7  20   12.70    4.40
 -15  -7  19   79.30    5.90
 -15  -7  18    2.08    4.22
 -15  -7  17   43.08    4.96
 -15  -7  16    1.01    4.11
 -15  -7  15   15.47    3.75
  15   7 -14   -1.99    3.37
 -15  -7  14   -4.46    3.61
  15   7 -13   67.32    5.49
 -15  -7  13   44.44    4.88
  15   7 -12   -0.26    3.73
 -15  -7  12   -2.17    3.70
  15   7 -11  186.30    9.83
 -15  -7  11  198.40   10.14
  15   7 -10   -3.85    4.00
 -15  -7  10   -0.93    4.04
  15   7  -9   48.19    5.30
 -15  -7   9   44.65    4.81
  15   7  -8   -5.95    4.03
 -15  -7   8   -1.50    3.63
  15   7  -7   22.37    4.35
 -15  -7   7   36.40    4.55
  15   7  -6    5.22    3.84
 -15  -7   6    0.87    3.56
  15   7  -5  107.40    6.84
 -15  -7   5   89.95    6.26
  15   7  -4   66.25    5.94
 -15  -7   4   63.52    5.45
  15   7  -3  114.50    7.29
 -15  -7   3  107.70    6.86
  15   7  -2   37.23    4.60
 -15  -7   2   32.77    4.39
  15   7  -1   14.29    4.09
 -15  -7   1   12.80    4.11
  15   7   0   39.18    4.97
 -15  -7   0   25.81    3.97
  15   7   1  120.80    7.20
 -15  -7  -1  124.10    7.62
  15   7   2    6.04    4.06
 -15  -7  -2    1.61    3.43
  15   7   3  128.10    7.85
 -15  -7  -3  124.10    7.12
  15   7   4   30.36    4.48
 -15  -7  -4   21.72    3.71
  15   7   5   19.16    4.32
 -15  -7  -5   17.07    4.08
  15   7   6   21.69    4.15
 -15  -7  -6   13.64    4.10
  15   7   7    1.09    4.27
 -15  -7  -7    2.90    4.41
 -14  -6  22   12.04    4.08
 -14  -6  21   38.56    4.73
 -14  -6  20   -0.98    4.23
 -14  -6  19   13.02    3.98
 -14  -6  18   85.78    6.14
 -14  -6  17   17.94    4.16
 -14  -6  16   24.21    4.22
 -14  -6  15   16.61    4.28
 -14  -6  14    9.41    4.08
  14   6 -13   25.48    4.70
 -14  -6  13   34.33    4.68
  14   6 -12   29.14    4.31
 -14  -6  12   23.92    4.07
  14   6 -11    7.78    3.82
 -14  -6  11    4.75    3.83
  14   6 -10  213.90   11.03
 -14  -6  10  194.80   10.12
  14   6  -9   88.80    6.63
 -14  -6   9   90.66    6.55
  14   6  -8   20.51    4.21
 -14  -6   8   18.25    4.09
  14   6  -7  141.60    8.59
 -14  -6   7  111.60    7.03
  14   6  -6  212.10   10.87
 -14  -6   6  225.20   11.25
  14   6  -5    1.88    4.25
 -14  -6   5    2.68    3.61
  14   6  -4   95.15    6.79
 -14  -6   4   85.40    5.97
  14   6  -3   31.92    4.54
 -14  -6   3   26.66    4.16
  14   6  -2   91.20    6.35
 -14  -6   2   95.58    6.44
  14   6  -1  348.00   16.27
 -14  -6   1  351.30   16.57
  14   6   0    0.65    3.83
 -14  -6   0    6.59    3.58
  14   6   1    1.14    3.54
 -14  -6  -1    6.45    3.69
  14   6   2  138.60    7.89
 -14  -6  -2  139.60    7.90
  14   6   3   -2.57    3.95
 -14  -6  -3    8.37    3.74
  14   6   4   51.66    4.99
 -14  -6  -4   62.36    5.03
  14   6   5   51.14    5.01
 -14  -6  -5   56.48    4.61
  14   6   6    6.45    4.08
 -14  -6  -6   13.92    3.67
  14   6   7   63.82    5.16
 -14  -6  -7   69.27    5.46
  14   6   8    1.68    3.81
 -14  -6  -8    1.80    4.28
  14   6   9    7.34    3.95
 -14  -6  -9    6.38    4.59
 -13  -5  23    3.06    4.51
 -13  -5  22   23.82    4.54
 -13  -5  21    3.36    4.22
 -13  -5  20   10.63    4.18
 -13  -5  19   -0.63    4.06
 -13  -5  18   47.93    4.60
 -13  -5  17    5.84    3.41
 -13  -5  16   54.05    4.88
 -13  -5  15   18.70    4.05
 -13  -5  14  160.40    8.77
  13   5 -13   27.40    3.98
 -13  -5  13   24.15    4.23
  13   5 -12   50.11    5.17
 -13  -5  12   55.58    5.03
  13   5 -11   87.29    6.30
 -13  -5  11   68.95    5.55
  13   5 -10    1.73    3.87
 -13  -5  10    2.92    3.67
  13   5  -9    6.90    3.69
 -13  -5   9    6.31    3.67
  13   5  -8  233.30   11.74
 -13  -5   8  198.40   10.35
  13   5  -7   30.14    4.38
 -13  -5   7   36.53    4.61
  13   5  -6  439.50   19.99
 -13  -5   6  415.30   18.83
  13   5  -5    6.07    3.75
 -13  -5   5    5.92    3.44
  13   5  -4  161.40    8.64
 -13  -5   4  155.30    8.58
  13   5  -3   45.28    4.93
 -13  -5   3   39.68    4.58
  13   5  -2  139.80    8.09
 -13  -5   2  188.70    9.67
  13   5  -1    0.10    3.73
 -13  -5   1    5.65    3.48
  13   5   0  336.60   15.78
 -13  -5   0  309.30   14.41
  13   5   1    7.57    4.12
 -13  -5  -1    3.15    3.47
  13   5   2    4.98    4.06
 -13  -5  -2    0.74    3.83
  13   5   3   22.95    3.97
 -13  -5  -3   21.29    4.08
  13   5   4   10.31    3.59
 -13  -5  -4    7.05    3.36
  13   5   5   -2.82    3.32
 -13  -5  -5    5.60    3.75
  13   5   6  161.40    8.65
 -13  -5  -6  160.60    8.47
  13   5   7    4.11    4.01
 -13  -5  -7    4.03    3.81
  13   5   8   84.92    5.95
 -13  -5  -8   85.55    5.97
  13   5   9    0.53    4.22
 -13  -5  -9    4.56    4.33
  13   5  10    1.34    4.20
 -12  -4  23    4.73    4.07
 -12  -4  22   -6.44    4.09
 -12  -4  21    6.48    4.31
 -12  -4  20   11.68    4.16
 -12  -4  19   -0.70    3.72
 -12  -4  18   28.71    4.08
 -12  -4  17    1.48    3.74
 -12  -4  16  139.30    8.03
 -12  -4  15   -1.72    3.92
 -12  -4  14   81.85    5.87
  12   4 -13   11.99    3.70
 -12  -4  13    1.26    4.08
  12   4 -12   40.83    4.47
 -12  -4  12   45.99    5.03
  12   4 -11   26.86    4.23
 -12  -4  11   20.90    4.01
  12   4 -10  512.80   22.95
 -12  -4  10  546.40   24.17
  12   4  -9   65.67    5.47
 -12  -4   9   77.29    5.61
  12   4  -8  103.80    6.61
 -12  -4   8  129.90    7.48
  12   4  -7   39.48    4.54
 -12  -4   7   32.44    4.26
  12   4  -6  113.10    6.94
 -12  -4   6   97.17    6.27
  12   4  -5   46.79    4.68
 -12  -4   5   41.93    4.43
  12   4  -4  797.30   34.54
 -12  -4   4  765.50   33.06
  12   4  -3   80.67    5.94
 -12  -4   3   79.55    5.77
  12   4  -2  223.50   11.20
 -12  -4   2  200.90   10.30
  12   4  -1  112.90    7.02
 -12  -4   1  114.90    7.04
  12   4   0   -3.26    3.40
 -12  -4   0    9.72    3.72
  12   4   1    1.89    3.81
 -12  -4  -1    4.76    3.56
  12   4   2  114.40    7.22
 -12  -4  -2  109.00    6.82
  12   4   3   16.01    4.38
 -12  -4  -3   23.10    3.98
  12   4   4  169.20    8.86
 -12  -4  -4  173.80    9.12
  12   4   5   23.00    4.08
 -12  -4  -5   17.86    3.58
  12   4   6   31.20    4.34
 -12  -4  -6   35.31    4.28
  12   4   7   71.32    5.47
 -12  -4  -7   91.57    5.98
  12   4   8   -2.40    3.69
 -12  -4  -8    5.21    3.42
  12   4   9    8.32    3.82
 -12  -4  -9    2.92    3.90
  12   4  10   27.14    4.29
  12   4  11    3.17    4.27
 -11  -3  23   16.43    4.40
 -11  -3  22    1.04    3.99
 -11  -3  21   12.36    4.32
 -11  -3  20   31.77    4.48
 -11  -3  19   29.46    4.26
 -11  -3  18    2.51    3.24
 -11  -3  17  115.50    7.02
 -11  -3  16   28.17    4.15
 -11  -3  15   34.18    4.37
 -11  -3  14    5.10    3.79
 -11  -3  13   12.33    3.71
  11   3 -12   28.44    4.43
 -11  -3  12   24.82    4.19
  11   3 -11  364.90   16.71
 -11  -3  11  368.40   16.97
  11   3 -10    5.36    3.61
 -11  -3  10    2.91    3.43
  11   3  -9  227.00   11.49
 -11  -3   9  208.00   10.61
  11   3  -8   79.86    5.77
 -11  -3   8   90.65    6.12
  11   3  -7   13.77    3.58
 -11  -3   7   18.26    3.86
  11   3  -6  183.00    9.62
 -11  -3   6  201.10   10.22
  11   3  -5   16.11    3.90
 -11  -3   5   20.52    3.80
  11   3  -4   38.49    4.46
 -11  -3   4   38.61    4.34
  11   3  -3  761.60   32.83
 -11  -3   3  688.80   29.79
  11   3  -2  239.80   11.81
 -11  -3   2  247.30   11.92
  11   3  -1  293.20   13.79
 -11  -3   1  266.80   12.76
  11   3   0   64.48    5.32
 -11  -3   0   58.50    4.93
  11   3   1    4.06    3.63
 -11  -3  -1    0.73    3.14
  11   3   2   59.24    5.33
 -11  -3  -2   67.18    5.13
  11   3   3  141.20    7.89
 -11  -3  -3  151.90    8.24
  11   3   4    9.22    3.89
 -11  -3  -4    7.73    3.58
  11   3   5  186.10    9.92
 -11  -3  -5  165.80    8.84
  11   3   6   77.53    5.48
 -11  -3  -6   75.11    5.49
  11   3   7   74.43    5.52
 -11  -3  -7   75.29    5.52
  11   3   8   15.33    3.68
 -11  -3  -8    9.20    3.77
  11   3   9   47.57    4.70
 -11  -3  -9   42.90    4.69
  11   3  10    2.35    3.55
  11   3  11   66.58    5.21
  11   3  12    5.37    4.12
 -10  -2  23    2.45    4.02
 -10  -2  22   -3.58    4.01
 -10  -2  21   27.32    4.38
 -10  -2  20   18.64    3.82
 -10  -2  19   87.91    5.98
 -10  -2  18   16.36    3.50
 -10  -2  17   13.02    3.67
 -10  -2  16   36.16    4.59
 -10  -2  15   87.19    6.05
 -10  -2  14   51.95    4.78
 -10  -2  13  287.60   13.69
  10   2 -12   -6.16    3.90
 -10  -2  12    1.47    3.51
  10   2 -11   12.21    3.85
 -10  -2  11   18.23    3.71
  10   2 -10   29.58    3.70
 -10  -2  10   20.58    3.96
  10   2  -9  631.30   27.41
 -10  -2   9  652.30   28.34
  10   2  -8   19.44    3.88
 -10  -2   8   22.89    3.93
  10   2  -7  223.70   11.11
 -10  -2   7  213.60   10.70
  10   2  -6   47.48    4.62
 -10  -2   6   34.12    4.30
  10   2  -5  326.30   15.25
 -10  -2   5  316.30   14.67
  10   2  -4   72.76    5.49
 -10  -2   4   64.02    4.93
  10   2  -3   82.61    5.72
 -10  -2   3   72.99    5.46
  10   2  -2   24.40    3.83
 -10  -2   2   26.13    3.77
  10   2  -1  457.70   20.35
 -10  -2   1  399.80   18.04
  10   2   0   78.83    5.70
 -10  -2   0   87.60    5.83
  10   2   1  735.40   31.76
 -10  -2  -1  721.20   31.08
  10   2   2    6.86    3.68
 -10  -2  -2   12.57    3.46
  10   2   3  206.00   10.41
 -10  -2  -3  202.50    9.99
  10   2   4   65.56    5.40
 -10  -2  -4   87.74    6.39
  10   2   5   10.66    3.56
 -10  -2  -5   17.37    3.89
  10   2   6   55.71    4.91
 -10  -2  -6   51.88    4.61
  10   2   7   56.46    5.12
 -10  -2  -7   47.83    4.79
  10   2   8    6.53    3.95
 -10  -2  -8    6.79    3.93
  10   2   9  101.70    6.41
 -10  -2  -9  103.70    6.49
  10   2  10   20.61    4.15
  10   2  11   72.69    5.57
  10   2  12   -0.97    3.83
  10   2  13   22.01    4.28
  -9  -1  23   11.63    4.16
  -9  -1  23    2.42    3.90
  -9  -1  22   16.26    4.34
  -9  -1  22   28.88    4.22
  -9  -1  21   17.66    3.94
  -9  -1  20   51.93    5.07
  -9  -1  19    5.80    3.50
  -9  -1  18    1.65    3.07
  -9  -1  17  222.60   10.90
  -9  -1  16  164.20    8.80
  -9  -1  15   -0.46    3.58
  -9  -1  14  242.60   11.74
  -9  -1  13    5.80    3.56
  -9  -1  12  195.10    9.86
   9   1 -11  278.70   13.06
  -9  -1  11  264.00   12.49
   9   1 -10   -3.82    3.19
  -9  -1  10    0.51    3.46
   9   1  -9  242.40   11.73
  -9  -1   9  270.60   12.85
   9   1  -8  389.10   17.52
  -9  -1   8  463.10   20.51
   9   1  -7  257.80   12.37
  -9  -1   7  257.80   12.26
   9   1  -6  804.20   34.47
  -9  -1   6  798.90   34.23
   9   1  -5  215.10   10.60
  -9  -1   5  231.30   11.22
   9   1  -4  185.00    9.39
  -9  -1   4  175.40    9.09
   9   1  -3   82.12    5.66
  -9  -1   3   81.22    5.84
   9   1  -2   63.98    5.09
  -9  -1   2   62.99    5.22
   9   1  -1  455.40   20.39
  -9  -1   1  470.20   20.91
   9   1   0  333.20   15.43
  -9  -1   0  314.20   14.57
   9   1   1   72.01    5.14
  -9  -1  -1   82.32    5.84
   9   1   2  258.60   12.44
  -9  -1  -2  259.80   12.37
   9   1   3  143.50    8.01
  -9  -1  -3  134.00    7.26
   9   1   4    4.13    3.59
  -9  -1  -4    4.32    3.28
   9   1   5  179.40    9.38
  -9  -1  -5  166.70    8.83
   9   1   6   27.34    4.19
  -9  -1  -6   44.28    4.53
   9   1   7   21.44    3.85
  -9  -1  -7    7.07    3.48
   9   1   8  117.10    7.14
  -9  -1  -8   90.26    5.95
   9   1   9    4.88    4.05
  -9  -1  -9    2.12    3.31
   9   1  10   10.42    4.04
   9   1  11   87.28    5.98
   9   1  12   -2.03    3.75
   9   1  13   10.67    3.82
   9   1  14   38.32    4.49
  -8   0  23    1.64    3.85
  -8   0  23    3.56    4.10
  -8   0  22   21.64    4.43
  -8   0  22   22.51    4.32
  -8   0  21   -0.35    3.64
  -8   0  21    8.67    4.31
  -8   0  20   11.10    3.73
  -8   0  19   -5.96    3.58
  -8   0  18  208.20   10.29
  -8   0  17   -4.72    3.34
  -8   0  16  424.70   19.03
  -8   0  15    3.38    3.43
  -8   0  14   98.31    6.21
  -8   0  13   -5.55    3.29
  -8   0  12    2.45    3.32
   8   0 -11   -0.82    2.68
  -8   0  11    1.72    3.12
   8   0 -10  329.70   15.14
  -8   0  10  336.00   15.27
   8   0  -9    1.12    3.04
  -8   0   9    2.29    2.90
   8   0  -8  143.50    7.65
  -8   0   8  148.70    7.88
   8   0  -7   -1.63    3.08
  -8   0   7   -0.83    2.99
   8   0  -6  995.90   42.32
  -8   0   6  954.90   40.51
   8   0  -5   -1.97    3.40
  -8   0   5   -4.56    3.24
   8   0  -4  346.70   15.81
  -8   0   4  320.40   14.65
   8   0  -3   -3.93    3.87
  -8   0   3   -1.20    3.27
   8   0  -2  330.30   15.14
  -8   0   2  327.90   15.02
   8   0  -1   -7.45    3.01
  -8   0   1   -1.55    3.07
   8   0   0  328.00   15.04
  -8   0   0  339.50   15.52
   8   0   1   -3.06    3.58
  -8   0  -1    2.69    3.58
   8   0   2   10.50    3.76
  -8   0  -2    5.14    3.52
   8   0   3   -4.82    3.29
  -8   0  -3    6.79    3.29
   8   0   4  394.50   17.87
  -8   0  -4  406.10   18.21
   8   0   5   -0.92    3.38
  -8   0  -5   -0.43    2.86
   8   0   6  310.30   14.62
  -8   0  -6  286.30   13.40
   8   0   7    3.19    3.37
  -8   0  -7   -2.15    3.08
   8   0   8   -1.75    3.65
  -8   0  -8    0.22    3.20
   8   0   9   -5.48    3.33
   8   0  10  229.40   11.44
   8   0  11   -5.61    3.32
   8   0  12   46.70    4.87
   8   0  13    0.13    3.16
   8   0  14   52.95    4.70
   8   0  15    5.67    3.44
  -7   1  23    4.74    4.74
  -7   1  23    1.96    4.61
  -7   1  22   20.13    4.38
  -7   1  22   19.23    3.94
  -7   1  21    0.14    3.85
  -7   1  21   -0.28    3.50
  -7   1  20   36.26    4.39
  -7   1  20   31.66    4.07
  -7   1  19   26.21    3.99
  -7   1  19   22.36    3.55
  -7   1  18   25.19    3.59
  -7   1  17  288.70   13.43
  -7   1  16    5.74    3.38
  -7   1  15  184.70    9.28
  -7   1  14  125.90    6.88
  -7   1  13   12.65    3.23
  -7   1  12  253.00   11.92
  -7   1  11  247.30   11.59
   7  -1 -10  138.40    7.20
  -7   1  10  123.90    6.77
   7  -1  -9   89.26    5.74
  -7   1   9   82.49    5.24
   7  -1  -8    3.12    3.24
  -7   1   8    5.89    3.03
   7  -1  -7   64.83    4.58
  -7   1   7   64.68    4.71
   7  -1  -6  233.30   11.05
  -7   1   6  217.70   10.47
   7  -1  -5  478.50   21.03
  -7   1   5  499.20   21.78
   7  -1  -4  662.50   28.48
  -7   1   4  626.00   26.96
   7  -1  -3  124.80    7.02
  -7   1   3  139.20    7.49
   7  -1  -2   11.39    3.57
  -7   1   2    8.53    3.78
   7  -1  -1  476.00   21.08
  -7   1   1  413.60   18.40
   7  -1   0  105.90    6.41
  -7   1   0  101.60    6.35
   7  -1   1    4.29    3.30
  -7   1  -1    2.58    3.44
   7  -1   2  501.40   22.13
  -7   1  -2  521.40   22.86
   7  -1   3   32.00    4.09
  -7   1  -3   29.78    3.88
   7  -1   4  155.60    8.29
  -7   1  -4  163.40    8.68
   7  -1   5  104.70    6.56
  -7   1  -5  116.70    6.72
   7  -1   6  103.50    6.50
  -7   1  -6  102.00    6.26
   7  -1   7   28.60    4.06
  -7   1  -7   30.26    3.94
   7  -1   8  344.40   15.94
  -7   1  -8  397.60   18.16
   7  -1   9    6.49    3.60
   7  -1  10   14.60    3.76
   7  -1  11  191.50    9.81
   7  -1  12    7.15    3.66
   7  -1  13   44.91    4.69
   7  -1  14   20.16    3.90
   7  -1  15    4.09    3.76
   7  -1  16   50.94    4.98
  -6   2  22    5.90    4.10
  -6   2  22    2.71    4.05
  -6   2  21   67.91    5.16
  -6   2  21   63.87    5.34
  -6   2  20    4.67    3.65
  -6   2  20    7.85    3.37
  -6   2  19  108.30    6.40
  -6   2  19  117.30    6.67
  -6   2  18    9.53    3.45
  -6   2  18    0.93    3.14
  -6   2  17   59.03    4.62
  -6   2  16    1.52    3.04
  -6   2  15   14.53    3.25
  -6   2  14    4.56    2.81
  -6   2  13  359.40   16.04
  -6   2  12   10.55    2.86
  -6   2  11  491.30   21.31
  -6   2  10   84.28    5.02
   6  -2  -9   77.21    4.93
  -6   2   9   80.91    4.91
   6  -2  -8    7.67    2.82
  -6   2   8    7.09    2.96
   6  -2  -7    1.71    2.50
  -6   2   7    4.91    2.78
   6  -2  -6    7.47    2.79
  -6   2   6    9.45    2.94
   6  -2  -5 1407.00   58.86
  -6   2   5 1427.00   59.67
   6  -2  -4    6.03    3.20
  -6   2   4    4.32    3.20
   6  -2  -3 1178.00   49.57
  -6   2   3 1236.00   51.95
   6  -2  -2   82.83    5.41
  -6   2   2   82.85    5.51
   6  -2  -1 1082.00   45.71
  -6   2   1 1212.00   51.10
   6  -2   0   14.91    3.64
  -6   2   0    9.79    3.32
   6  -2   1 1221.00   51.50
  -6   2  -1 1228.00   51.71
   6  -2   2   20.07    3.64
  -6   2  -2   21.51    3.66
   6  -2   3  716.30   30.89
  -6   2  -3  791.60   33.92
   6  -2   4   26.07    4.12
  -6   2  -4   32.20    3.93
   6  -2   5   12.05    3.80
  -6   2  -5    9.51    3.37
   6  -2   6   12.14    3.75
  -6   2  -6   12.96    3.46
   6  -2   7  359.80   16.58
  -6   2  -7  359.80   16.46
   6  -2   8   98.77    6.51
   6  -2   9  363.80   16.78
   6  -2  10  220.40   11.12
   6  -2  11  142.70    8.00
   6  -2  12   33.30    4.60
   6  -2  13   30.66    4.39
   6  -2  14   -7.82    3.58
   6  -2  15   64.76    4.96
   6  -2  16   -4.37    3.79
   6  -2  17   39.23    5.16
  -5   3  22    1.60    4.62
  -5   3  22   -1.67    4.27
  -5   3  21   30.25    4.74
  -5   3  21   35.05    4.68
  -5   3  20   14.49    3.85
  -5   3  20   28.50    4.09
  -5   3  19    0.09    3.05
  -5   3  19   -0.67    3.16
  -5   3  18  103.60    6.13
  -5   3  18  102.40    5.85
  -5   3  17   15.97    3.32
  -5   3  17    8.32    3.12
  -5   3  16   49.14    4.16
  -5   3  16   42.94    3.88
  -5   3  15  122.30    6.66
  -5   3  15  133.70    7.03
  -5   3  14  180.20    8.83
  -5   3  13  166.10    8.16
  -5   3  12  195.50    9.20
  -5   3  11    7.79    2.59
  -5   3  10  139.00    6.95
  -5   3   9  407.80   17.65
   5  -3  -8    3.00    2.37
  -5   3   8    4.15    2.37
   5  -3  -7  509.80   21.96
  -5   3   7  486.40   20.81
   5  -3  -6   85.40    4.95
  -5   3   6   85.42    4.80
   5  -3  -5   78.21    4.67
  -5   3   5   72.20    4.45
   5  -3  -4  639.90   27.28
  -5   3   4  791.00   33.40
   5  -3  -3  399.20   17.63
  -5   3   3  364.20   16.09
   5  -3  -2   93.30    5.97
  -5   3   2   98.54    5.79
   5  -3  -1   48.98    4.31
  -5   3   1   49.80    4.35
   5  -3   0  152.70    8.05
  -5   3   0  183.10    9.16
   5  -3   1  396.90   17.85
  -5   3  -1  404.80   18.03
   5  -3   2   91.38    6.05
  -5   3  -2   74.01    5.21
   5  -3   3  290.90   13.48
  -5   3  -3  295.40   13.78
   5  -3   4   12.89    3.54
  -5   3  -4    7.29    3.49
   5  -3   5  320.80   14.86
  -5   3  -5  288.20   13.47
   5  -3   6    6.01    3.36
   5  -3   7  353.70   16.24
   5  -3   8   43.35    4.46
   5  -3   9   64.09    5.30
   5  -3  10   12.08    3.73
   5  -3  11  180.10    9.39
   5  -3  12   94.76    6.30
   5  -3  13  292.30   13.81
   5  -3  14    7.81    3.69
   5  -3  15   32.85    4.56
   5  -3  16    6.65    3.69
   5  -3  17   -4.03    4.15
  -4   4  21   11.99    4.79
  -4   4  21    5.07    4.23
  -4   4  20   28.52    4.33
  -4   4  20   24.86    4.01
  -4   4  19    0.34    3.25
  -4   4  19    4.49    3.23
  -4   4  18    7.74    3.15
  -4   4  18   10.24    3.27
  -4   4  17   24.80    3.42
  -4   4  17   29.43    3.64
  -4   4  16   79.90    5.00
  -4   4  16   71.99    4.66
  -4   4  15   37.78    3.39
  -4   4  15   33.86    3.55
  -4   4  14  270.60   12.26
  -4   4  14  292.80   13.14
  -4   4  13   29.13    3.17
  -4   4  13   23.66    2.80
  -4   4  12    5.79    2.31
  -4   4  11   74.23    4.19
  -4   4  10  125.10    6.05
  -4   4   9   50.79    3.22
  -4   4   8   58.43    3.41
   4  -4  -7   70.22    3.77
  -4   4   7   71.70    3.87
   4  -4  -6    3.86    1.78
  -4   4   6    3.73    1.70
   4  -4  -5   37.09    2.68
  -4   4   5   48.24    3.15
   4  -4  -4 1118.00   46.61
  -4   4   4 1115.00   46.49
   4  -4  -3   44.91    3.53
  -4   4   3   50.89    3.68
   4  -4  -2    7.45    3.12
  -4   4   2    2.46    2.64
   4  -4  -1  510.90   22.25
  -4   4   1  542.40   23.42
   4  -4   0  866.90   36.79
  -4   4   0  848.30   36.07
   4  -4   1   -1.41    3.27
  -4   4  -1   -1.37    3.12
   4  -4   2   28.85    3.92
  -4   4  -2   25.26    3.55
   4  -4   3   39.19    4.39
  -4   4  -3   56.28    4.95
   4  -4   4  757.50   32.57
  -4   4  -4  721.80   31.13
   4  -4   5    0.17    3.26
   4  -4   6  179.10    9.18
   4  -4   7   74.78    5.77
   4  -4   8  468.60   21.02
   4  -4   9    6.39    3.74
   4  -4  10   33.09    4.79
   4  -4  11  192.20    9.87
   4  -4  12   45.02    4.72
   4  -4  13    8.92    3.87
   4  -4  14  255.70   12.30
   4  -4  15  -10.74    3.63
   4  -4  16   19.72    3.90
   4  -4  17    8.81    3.80
   4  -4  18    3.34    4.18
  -3   5  21   10.07    4.88
  -3   5  21    5.63    4.90
  -3   5  20   30.07    4.49
  -3   5  20   19.57    4.25
  -3   5  19   14.53    3.71
  -3   5  19   12.77    3.65
  -3   5  18  114.70    6.38
  -3   5  18  118.30    6.59
  -3   5  17    1.54    2.80
  -3   5  17   -3.64    2.87
  -3   5  16   25.78    3.19
  -3   5  16   20.12    3.19
  -3   5  15    7.74    2.60
  -3   5  15    7.75    2.70
  -3   5  14  153.60    7.48
  -3   5  14  176.20    8.39
  -3   5  13    3.03    2.30
  -3   5  13    7.64    2.30
  -3   5  12  316.70   13.77
  -3   5  12  326.90   14.28
  -3   5  11    4.11    1.78
  -3   5  11    1.10    1.75
  -3   5  10  301.70   13.01
  -3   5  10  290.00   12.52
  -3   5   9   37.59    2.43
  -3   5   9   33.05    2.23
  -3   5   8    6.66    1.43
  -3   5   7   10.33    1.29
  -3   5   6 1193.00   49.73
   3  -5  -5   54.14    2.80
  -3   5   5   55.63    2.86
   3  -5  -4  227.20    9.86
  -3   5   4  196.40    8.67
   3  -5  -3    1.54    1.92
  -3   5   3    2.37    2.00
   3  -5  -2 1163.00   48.53
  -3   5   2 1134.00   47.37
   3  -5  -1  134.80    7.00
  -3   5   1  147.30    7.38
   3  -5   0    5.25    3.32
  -3   5   0    0.86    3.08
   3  -5   1  187.80    9.51
  -3   5  -1  167.00    8.55
   3  -5   2  162.20    8.45
   3  -5   3  128.70    7.34
   3  -5   4  431.10   19.23
   3  -5   5   19.09    3.84
   3  -5   6  121.80    7.02
   3  -5   7  129.80    7.46
   3  -5   8  445.60   20.13
   3  -5   9   77.18    5.96
   3  -5  10  136.90    7.71
   3  -5  11  212.70   10.85
   3  -5  12   30.52    4.38
   3  -5  13    1.32    3.61
   3  -5  14    0.85    4.26
   3  -5  15   -1.99    3.67
   3  -5  16   87.02    6.02
   3  -5  17    2.55    3.48
   3  -5  18   27.59    4.19
  -2   6  20    9.52    4.43
  -2   6  20    5.84    4.46
  -2   6  19   37.63    4.24
  -2   6  19   41.18    4.28
  -2   6  18    1.77    2.98
  -2   6  18    0.95    3.19
  -2   6  17   31.22    3.26
  -2   6  17   28.30    3.30
  -2   6  16   25.33    2.98
  -2   6  16   16.24    2.79
  -2   6  15   12.21    2.45
  -2   6  15    8.75    2.41
  -2   6  14   40.48    3.06
  -2   6  14   47.35    3.30
  -2   6  13   20.23    2.37
  -2   6  13   20.94    2.40
  -2   6  12    4.35    1.94
  -2   6  12    0.00    1.61
  -2   6  11  373.80   15.91
  -2   6  11  348.10   14.81
   2  -6  -4  914.10   38.13
   2  -6  -3  144.80    6.57
   2  -6  -2  177.20    8.14
   2  -6  -1  136.80    6.83
   2  -6   0   -0.03    2.77
   2  -6   1   74.65    4.85
   2  -6   2   13.73    3.35
   2  -6   3   37.00    4.24
   2  -6   4   -6.63    3.05
   2  -6   5   85.76    5.83
   2  -6   6  173.70    8.93
   2  -6   7    3.23    3.53
   2  -6   8  238.20   11.64
   2  -6   9  357.10   16.47
   2  -6  10   21.44    4.03
   2  -6  11  169.40    9.01
   2  -6  12    1.17    3.70
   2  -6  13    2.87    4.03
   2  -6  14   90.24    6.27
   2  -6  15    8.95    3.55
   2  -6  16   10.95    3.72
   2  -6  17   31.34    4.18
   2  -6  18    4.41    3.85
  -1   7  19    1.02    3.25
  -1   7  19    4.79    3.43
  -1   7  18    1.70    2.92
  -1   7  18    1.95    2.88
  -1   7  17    7.58    2.59
  -1   7  17   15.69    2.92
  -1   7  16   14.04    2.40
  -1   7  16   11.24    2.50
  -1   7  15   82.02    4.36
  -1   7  15   88.68    4.62
  -1   7  14   18.53    2.18
  -1   7  14   21.65    2.30
  -1   7  13  115.60    5.42
  -1   7  13  113.40    5.38
  -1   7  12   77.89    3.74
  -1   7  12   86.68    4.13
   1  -7  -4  197.20    8.47
   1  -7  -4  174.10    7.50
   1  -7  -3  462.20   19.48
   1  -7  -3  484.20   20.38
   1  -7  -2   31.82    2.77
   1  -7  -1  433.20   18.81
   1  -7   0  284.10   12.76
   1  -7   3   64.41    4.69
   1  -7   4   93.48    5.99
   1  -7   5  177.40    9.29
   1  -7   6    3.68    3.26
   1  -7   7  677.50   29.44
   1  -7   8   58.33    5.21
   1  -7   9  225.50   11.29
   1  -7  10    3.73    3.78
   1  -7  11   -0.79    3.70
   1  -7  12    1.49    3.81
   1  -7  13  171.20    9.14
   1  -7  14   41.44    4.40
   1  -7  15   79.70    5.64
   1  -7  16   -3.56    3.69
   1  -7  17    5.32    3.78
   1  -7  18    9.79    3.92
   1  -7  19    8.10    4.41
   0  -8  -4   69.52    3.21
   0  -8  -4   67.09    3.17
   0  -8  -3 1332.00   55.34
   0  -8  -2  110.80    5.41
   0  -8  -1  327.10   14.54
   0  -8   8  282.00   13.34
   0  -8   9  103.90    6.79
   0  -8  10   12.36    4.05
   0  -8  11  258.20   12.47
   0  -8  12    2.95    3.73
   0  -8  13   39.84    4.39
   0  -8  14   72.28    5.49
   0  -8  15    1.74    3.44
   0  -8  16   11.26    3.55
   0  -8  17   43.17    4.71
   0  -8  18    0.07    3.86
   0  -8  19   15.51    3.91
   0  -8  19   10.80    4.01
  -1  -9  -4   74.21    3.58
  -1  -9  -3   16.62    1.98
  -1  -9  -2  652.30   27.50
  -1  -9  -1   -0.06    2.22
  -1  -9   0   -2.75    2.33
  -1  -9   1  423.30   18.66
  -1  -9   2  857.50   36.53
  -1  -9  11  217.60   11.10
  -1  -9  12    9.38    3.99
  -1  -9  13   84.16    6.13
  -1  -9  14    0.87    3.59
  -1  -9  15   -0.52    3.89
  -1  -9  16   53.88    4.75
  -1  -9  17    2.86    3.49
  -1  -9  17   -1.58    3.27
  -1  -9  18   52.42    4.69
  -1  -9  18   51.70    4.99
  -1  -9  19    2.35    3.66
  -1  -9  19    0.44    3.82
  -2 -10  -5   72.13    3.54
  -2 -10  -4   29.43    2.15
  -2 -10  -3   32.36    2.61
  -2 -10  -2   28.58    2.74
  -2 -10  -1   87.55    4.87
  -2 -10   0  774.80   32.97
  -2 -10   1  131.40    6.89
  -2 -10   2  289.90   13.50
  -2 -10   3  156.00    8.10
  -2 -10   4   23.87    4.12
  -2 -10   5   55.51    4.83
  -2 -10   6  150.30    8.52
  -2 -10  12   16.11    3.62
  -2 -10  13   87.13    5.87
  -2 -10  15   -4.31    3.52
  -2 -10  15   -2.39    3.65
  -2 -10  16   53.51    4.80
  -2 -10  16   47.56    4.81
  -2 -10  17   14.35    3.53
  -2 -10  17   20.43    4.35
  -2 -10  18   13.02    3.87
  -2 -10  18    1.67    3.99
  -2 -10  19    2.99    3.43
  -2 -10  19   14.64    4.24
  -3 -11  -6   12.86    1.34
  -3 -11  -5  455.80   19.24
  -3 -11  -4  229.60   10.22
  -3 -11  -3    3.93    1.95
  -3 -11  -2   95.08    5.40
  -3 -11  -1  212.90    9.83
  -3 -11   0   74.18    4.96
  -3 -11   1  855.50   36.33
  -3 -11   2   -1.06    3.23
  -3 -11   3   91.82    5.65
  -3 -11   4   13.02    3.38
  -3 -11   5   57.87    4.65
  -3 -11   6    8.59    3.89
  -3 -11   7  164.40    8.76
  -3 -11   8    3.71    3.89
  -3 -11   9  147.40    8.50
  -3 -11  10   -2.38    3.79
  -3 -11  11   23.54    4.28
  -3 -11  12   12.98    3.95
  -3 -11  13   34.72    4.57
  -3 -11  14    3.92    3.56
  -3 -11  14    2.75    4.24
  -3 -11  15   64.33    5.27
  -3 -11  15   60.80    5.28
  -3 -11  16   16.25    3.98
  -3 -11  16   11.34    3.95
  -3 -11  17   19.37    3.83
  -3 -11  17   24.48    4.50
  -3 -11  18   -5.30    3.50
  -3 -11  18    0.11    3.97
  -3 -11  19   -5.53    3.85
  -3 -11  19    8.22    4.05
  -4 -12  -6   34.85    2.17
  -4 -12  -5   -0.34    1.89
  -4 -12  -4    5.25    1.99
  -4 -12  -3  532.60   22.74
  -4 -12  -2    5.38    2.77
  -4 -12  -1  109.60    6.04
  -4 -12   0    5.08    2.89
  -4 -12   1   -4.26    2.92
  -4 -12   2   69.39    4.95
  -4 -12   3  319.40   14.71
  -4 -12   4   35.04    3.92
  -4 -12   5  191.40    9.81
  -4 -12   6   75.38    5.41
  -4 -12   7   66.05    5.20
  -4 -12   8   46.71    5.03
  -4 -12   9   93.90    6.61
  -4 -12  10   48.99    5.04
  -4 -12  11   69.27    5.55
  -4 -12  12   12.73    4.09
  -4 -12  13  185.80    9.77
  -4 -12  14   28.04    4.41
  -4 -12  15    3.20    3.39
  -4 -12  15    1.58    3.83
  -4 -12  16   33.73    4.43
  -4 -12  16   20.54    4.33
  -4 -12  17   59.23    5.35
  -4 -12  17   63.20    5.29
  -4 -12  18    0.29    3.93
  -4 -12  18   -2.33    3.71
  -5 -13  -6    1.94    1.65
  -5 -13  -5   73.46    4.07
  -5 -13  -4   47.48    3.46
  -5 -13  -3   16.63    2.87
  -5 -13  -2  225.20   10.45
  -5 -13  -1   59.49    4.39
  -5 -13   0  112.40    6.25
  -5 -13   1   25.66    3.82
  -5 -13   2   12.76    3.26
  -5 -13   3   95.18    6.29
  -5 -13   4  337.60   15.43
  -5 -13   5   23.81    4.54
  -5 -13   6  539.90   23.83
  -5 -13   7   22.52    4.49
  -5 -13   8   47.54    4.84
  -5 -13   9   99.07    6.41
  -5 -13  10    7.10    3.54
  -5 -13  11    3.46    3.67
  -5 -13  12  141.80    8.04
  -5 -13  13   13.51    3.75
  -5 -13  14  105.40    6.53
  -5 -13  15   14.81    3.80
  -5 -13  16    1.81    3.20
  -5 -13  16    3.23    3.70
  -5 -13  17   -3.07    4.13
  -5 -13  17    5.95    3.51
  -5 -13  18   42.02    5.08
  -5 -13  18   44.38    4.55
  -6 -14  -6   39.34    2.79
  -6 -14  -5   -0.10    2.40
  -6 -14  -4   59.21    3.98
  -6 -14  -3    6.46    2.97
  -6 -14  -2    0.25    2.88
  -6 -14  -1   13.03    3.08
  -6 -14   0   61.94    4.59
  -6 -14   1   26.00    3.56
  -6 -14   2  134.50    7.54
  -6 -14   3    0.72    3.19
  -6 -14   4   66.36    5.31
  -6 -14   5  102.50    6.61
  -6 -14   6    5.24    3.57
  -6 -14   7    3.62    3.79
  -6 -14   8   98.47    6.51
  -6 -14   9    9.42    4.10
  -6 -14  10   91.62    6.26
  -6 -14  11    2.41    3.83
  -6 -14  12    1.28    3.51
  -6 -14  13   14.47    4.04
  -6 -14  14   44.03    4.57
  -6 -14  15    0.06    3.51
  -6 -14  16   57.87    5.13
  -6 -14  17    4.12    3.23
  -6 -14  17    1.92    3.57
  -6 -14  18   13.12    4.17
  -7 -15  -6    0.25    2.21
  -7 -15  -5   10.13    2.77
  -7 -15  -4    7.12    3.06
  -7 -15  -3   19.83    3.29
  -7 -15  -2    3.56    3.06
  -7 -15  -1    4.69    2.93
  -7 -15   0   23.16    3.52
  -7 -15   1   26.32    3.72
  -7 -15   2   10.25    3.47
  -7 -15   3   37.95    4.13
  -7 -15   4   -0.30    3.43
  -7 -15   5   -2.22    3.50
  -7 -15   6   29.97    4.47
  -7 -15   7    9.24    3.61
  -7 -15   8   20.42    4.07
  -7 -15   9   89.81    6.51
  -7 -15  10   45.28    4.86
  -7 -15  11    2.13    3.57
  -7 -15  12   59.92    5.10
  -7 -15  13   13.82    4.25
  -7 -15  14   15.75    4.08
  -7 -15  15   37.36    4.28
  -7 -15  16   -0.28    3.52
  -7 -15  17   -3.68    3.47
  -8 -16  -6    4.82    2.47
  -8 -16  -5    9.87    3.11
  -8 -16  -4    2.91    3.38
  -8 -16  -3   21.68    3.65
  -8 -16  -2    2.14    3.42
  -8 -16  -1   86.27    5.56
  -8 -16   0    2.37    3.14
  -8 -16   1   35.19    4.15
  -8 -16   2    2.55    3.25
  -8 -16   3    7.92    3.65
  -8 -16   4    7.70    3.88
  -8 -16   5   95.80    6.48
  -8 -16   6   23.60    4.13
  -8 -16   7  147.60    8.19
  -8 -16   8   23.04    4.38
  -8 -16   9    9.88    3.92
  -8 -16  10    3.77    3.55
  -8 -16  11   69.89    5.37
  -8 -16  12    1.97    3.63
  -8 -16  13  101.80    6.68
  -8 -16  14   -8.47    3.51
  -8 -16  15    8.81    3.83
  -8 -16  16   -1.43    3.33
  -9 -17  -5    4.44    3.59
  -9 -17  -4    7.03    3.84
  -9 -17  -3    7.20    3.97
  -9 -17  -2   17.28    3.97
  -9 -17  -1    5.63    3.85
  -9 -17   0   46.30    4.47
  -9 -17   1   35.58    4.31
  -9 -17   2    3.81    3.59
  -9 -17   3   81.84    5.61
  -9 -17   4    5.57    3.60
  -9 -17   5   -1.53    3.68
  -9 -17   6   33.57    4.49
  -9 -17   7   -0.11    3.40
  -9 -17   8    8.37    3.90
  -9 -17   9   76.27    5.95
  -9 -17  10    1.52    4.15
  -9 -17  11   37.75    4.62
  -9 -17  12    6.20    3.94
  -9 -17  13   -0.21    3.77
  -9 -17  14    7.65    3.56
  -9 -17  15   10.48    3.58
 -10 -18  -3   -4.39    4.93
 -10 -18  -2   -4.56    4.27
 -10 -18  -1    5.25    4.18
 -10 -18   0   -2.13    4.17
 -10 -18   1    7.29    4.29
 -10 -18   2   26.61    4.61
 -10 -18   3   11.07    3.99
 -10 -18   4   37.62    4.58
 -10 -18   5   26.93    4.33
 -10 -18   6   -0.50    3.66
 -10 -18   7   -0.58    3.83
 -10 -18   8   37.61    4.52
 -10 -18   9   10.89    3.61
 -10 -18  10   20.24    3.83
 -10 -18  11   -2.08    3.93
 -10 -18  12    7.11    3.65
 -10 -18  13   10.25    3.84
 -11 -19   0    4.82    5.88
 -11 -19   1   -3.57    5.20
 -11 -19   2   13.31    4.93
 -11 -19   3    0.75    4.62
 -11 -19   4    2.75    4.54
 -11 -19   5    9.86    4.39
 -11 -19   6    7.89    4.07
 -11 -19   7   21.31    4.38
 -11 -19   8   39.94    4.51
 -11 -19   9   11.02    4.05
 -11 -19  10   -3.88    4.14
  21  11 -14   13.32    4.39
 -21 -11  14    3.94    3.89
  21  11 -13   13.78    4.42
 -21 -11  13    6.35    3.61
  21  11 -12   10.87    3.54
 -21 -11  12   12.70    3.67
  21  11 -11    4.77    3.62
 -21 -11  11    6.70    3.76
  21  11 -10    0.31    3.57
 -21 -11  10    4.92    4.16
  21  11  -9   -3.27    3.63
 -21 -11   9   -2.41    3.80
  21  11  -8    2.28    3.83
 -21 -11   8    1.00    4.13
  21  11  -7   31.51    4.31
 -21 -11   7   34.28    4.57
  21  11  -6    7.03    4.51
 -21 -11   6    7.11    4.21
 -20 -10  17   12.18    3.91
 -20 -10  16    3.06    3.69
  20  10 -15   15.97    3.70
 -20 -10  15   12.10    4.05
  20  10 -14   44.16    4.88
 -20 -10  14   55.51    4.76
  20  10 -13    6.22    3.60
 -20 -10  13    5.61    3.61
  20  10 -12   44.80    4.46
 -20 -10  12   46.63    4.51
  20  10 -11   16.03    4.28
 -20 -10  11   13.54    3.88
  20  10 -10    8.25    3.99
 -20 -10  10    0.07    3.42
  20  10  -9   28.25    4.20
 -20 -10   9   27.00    4.34
  20  10  -8   -0.52    3.97
 -20 -10   8    1.53    4.05
  20  10  -7   10.11    4.06
 -20 -10   7   12.66    4.43
  20  10  -6   67.56    5.46
 -20 -10   6   57.12    5.29
  20  10  -5   -5.45    3.61
 -20 -10   5    2.42    3.89
  20  10  -4    2.34    3.98
 -20 -10   4    8.15    3.84
  20  10  -3    8.01    4.22
 -20 -10   3   20.33    4.78
  20  10  -2   -0.64    3.63
 -20 -10   2   -5.51    4.04
 -19  -9  19   -4.63    3.78
 -19  -9  18    8.59    3.91
 -19  -9  17    2.53    3.79
 -19  -9  16   97.24    6.47
  19   9 -15   -1.61    3.53
 -19  -9  15   -2.03    3.74
  19   9 -14   18.55    4.42
 -19  -9  14   27.00    4.27
  19   9 -13    8.58    3.84
 -19  -9  13   14.88    4.02
  19   9 -12   14.06    4.18
 -19  -9  12    7.52    4.08
  19   9 -11   -6.90    3.67
 -19  -9  11    1.43    3.55
  19   9 -10   60.54    5.16
 -19  -9  10   70.81    5.73
  19   9  -9    9.38    4.12
 -19  -9   9   10.16    3.72
  19   9  -8   76.95    5.66
 -19  -9   8   59.32    5.13
  19   9  -7   -0.79    3.73
 -19  -9   7   -1.87    3.68
  19   9  -6   20.95    4.11
 -19  -9   6   11.34    3.92
  19   9  -5   -2.06    4.09
 -19  -9   5    1.02    3.96
  19   9  -4   29.69    4.52
 -19  -9   4   33.04    4.30
  19   9  -3    2.37    3.83
 -19  -9   3   -6.59    4.20
  19   9  -2   14.79    4.31
 -19  -9   2   12.74    3.96
  19   9  -1   -0.97    3.83
 -19  -9   1    1.41    4.16
  19   9   0   20.14    4.07
 -19  -9   0   20.36    4.43
  19   9   1    1.73    4.38
 -19  -9  -1   -2.54    4.29
 -18  -8  20   21.52    3.97
 -18  -8  19    1.13    4.06
 -18  -8  18   -0.81    3.89
 -18  -8  17   52.29    5.22
 -18  -8  16    3.63    3.80
  18   8 -15   45.70    4.62
 -18  -8  15   49.94    5.12
  18   8 -14   16.06    3.68
 -18  -8  14    7.44    3.74
  18   8 -13    7.49    3.75
 -18  -8  13   10.92    3.84
  18   8 -12   41.64    4.70
 -18  -8  12   40.09    4.57
  18   8 -11   44.75    4.81
 -18  -8  11   42.36    4.71
  18   8 -10   27.74    4.19
 -18  -8  10   17.58    4.03
  18   8  -9    3.30    4.00
 -18  -8   9    5.83    3.83
  18   8  -8   40.21    4.65
 -18  -8   8   44.82    4.79
  18   8  -7   37.96    4.74
 -18  -8   7   64.98    5.40
  18   8  -6   13.84    3.93
 -18  -8   6   23.64    4.42
  18   8  -5   13.37    3.87
 -18  -8   5    1.92    4.28
  18   8  -4   30.78    4.43
 -18  -8   4   16.97    4.26
  18   8  -3   51.97    5.49
 -18  -8   3   58.19    5.31
  18   8  -2   10.76    4.00
 -18  -8   2    6.69    3.70
  18   8  -1   16.17    4.56
 -18  -8   1   17.97    4.04
  18   8   0    6.90    3.67
 -18  -8   0    5.27    4.06
  18   8   1    7.55    3.54
 -18  -8  -1    6.43    4.20
  18   8   2   21.81    3.71
 -18  -8  -2   16.84    4.35
  18   8   3    3.95    3.79
 -18  -8  -3    3.43    4.13
 -17  -7  21   20.81    4.02
 -17  -7  20    5.47    3.94
 -17  -7  19   60.76    5.47
 -17  -7  18    6.79    3.73
 -17  -7  17   15.13    3.80
 -17  -7  16    1.50    3.70
  17   7 -15   17.50    3.57
 -17  -7  15   19.14    4.11
  17   7 -14   -1.40    3.46
 -17  -7  14   -0.40    3.48
  17   7 -13  170.90    9.28
 -17  -7  13  159.30    8.71
  17   7 -12    5.28    3.75
 -17  -7  12   -1.49    3.81
  17   7 -11   75.70    5.70
 -17  -7  11   60.79    5.18
  17   7 -10    9.87    4.41
 -17  -7  10    6.91    3.85
  17   7  -9   12.83    4.44
 -17  -7   9   12.00    4.07
  17   7  -8   35.63    4.53
 -17  -7   8   23.21    4.42
  17   7  -7   36.14    4.70
 -17  -7   7   69.58    5.58
  17   7  -6   18.40    4.12
 -17  -7   6   10.75    3.67
  17   7  -5  236.20   11.88
 -17  -7   5  206.60   10.61
  17   7  -4   -0.37    4.24
 -17  -7   4   -4.66    3.72
  17   7  -3  169.80    9.44
 -17  -7   3  159.20    8.63
  17   7  -2   44.47    4.90
 -17  -7   2   69.95    5.39
  17   7  -1   38.74    4.75
 -17  -7   1   44.67    4.65
  17   7   0   -0.05    4.11
 -17  -7   0    4.59    3.58
  17   7   1   48.60    5.12
 -17  -7  -1   41.66    4.73
  17   7   2    6.84    3.85
 -17  -7  -2    2.60    3.95
  17   7   3   41.66    4.76
 -17  -7  -3   63.19    5.18
  17   7   4   -6.87    4.04
 -17  -7  -4   -8.36    3.94
  17   7   5   20.74    4.82
 -17  -7  -5   15.34    4.69
 -16  -6  22    4.59    4.07
 -16  -6  21    8.47    3.95
 -16  -6  20   46.27    5.05
 -16  -6  19    6.18    3.73
 -16  -6  18   18.32    3.96
 -16  -6  17   41.03    4.50
 -16  -6  16    6.33    3.55
  16   6 -15   67.70    5.71
 -16  -6  15   58.70    5.19
  16   6 -14    0.45    3.73
 -16  -6  14    0.50    3.51
  16   6 -13  139.90    7.87
 -16  -6  13  163.90    8.80
  16   6 -12   33.88    4.26
 -16  -6  12   44.68    5.00
  16   6 -11    3.20    3.96
 -16  -6  11    9.23    3.84
  16   6 -10   47.42    5.15
 -16  -6  10   40.26    4.97
  16   6  -9   69.48    5.66
 -16  -6   9   98.42    6.43
  16   6  -8   -6.74    4.35
 -16  -6   8    4.30    3.49
  16   6  -7  115.10    7.32
 -16  -6   7   87.64    6.27
  16   6  -6   69.26    5.83
 -16  -6   6   68.69    5.58
  16   6  -5   23.76    4.60
 -16  -6   5   16.27    4.26
  16   6  -4    9.57    4.19
 -16  -6   4   -3.12    4.16
  16   6  -3   10.39    3.86
 -16  -6   3   15.00    3.99
  16   6  -2    7.09    3.88
 -16  -6   2   -0.48    3.71
  16   6  -1   15.37    4.03
 -16  -6   1   12.56    4.07
  16   6   0   68.85    5.80
 -16  -6   0   60.33    5.31
  16   6   1    1.09    4.01
 -16  -6  -1    7.86    4.08
  16   6   2   44.67    5.05
 -16  -6  -2   44.25    4.36
  16   6   3    2.79    3.87
 -16  -6  -3   -0.32    3.51
  16   6   4    5.69    4.10
 -16  -6  -4    3.46    3.50
  16   6   5   33.95    4.44
 -16  -6  -5   43.48    5.07
  16   6   6    4.93    4.56
 -16  -6  -6   -0.06    4.21
  16   6   7   15.05    4.74
 -16  -6  -7   13.15    4.73
 -15  -5  22   61.91    5.47
 -15  -5  21    3.86    4.19
 -15  -5  20   90.47    6.62
 -15  -5  19    6.51    3.76
 -15  -5  18    6.80    3.82
 -15  -5  17   -0.34    3.39
 -15  -5  16   27.95    4.07
  15   5 -15    1.29    3.45
 -15  -5  15    3.46    3.76
  15   5 -14  105.60    6.64
 -15  -5  14  100.60    6.54
  15   5 -13   -0.48    3.85
 -15  -5  13    1.65    3.74
  15   5 -12   96.05    6.66
 -15  -5  12   87.77    6.17
  15   5 -11    3.78    3.68
 -15  -5  11   -3.05    4.06
  15   5 -10    2.49    4.17
 -15  -5  10   -2.72    3.73
  15   5  -9    2.56    4.01
 -15  -5   9    6.63    3.82
  15   5  -8  277.10   13.42
 -15  -5   8  294.10   14.00
  15   5  -7    5.00    3.91
 -15  -5   7    7.96    3.61
  15   5  -6   38.96    4.88
 -15  -5   6   36.46    4.88
  15   5  -5   24.80    4.23
 -15  -5   5   31.98    4.40
  15   5  -4   85.11    6.43
 -15  -5   4   97.95    6.49
  15   5  -3    7.44    4.44
 -15  -5   3    3.36    3.66
  15   5  -2  136.50    8.04
 -15  -5   2  145.30    8.52
  15   5  -1   10.73    4.26
 -15  -5   1   16.32    4.33
  15   5   0   70.82    5.75
 -15  -5   0   67.16    5.31
  15   5   1   -5.94    3.84
 -15  -5  -1   -8.90    3.70
  15   5   2   14.87    3.84
 -15  -5  -2   13.44    3.90
  15   5   3   14.64    3.89
 -15  -5  -3   14.05    3.82
  15   5   4   46.09    4.77
 -15  -5  -4   56.17    4.78
  15   5   5   12.58    3.90
 -15  -5  -5   -0.33    3.50
  15   5   6   58.10    5.34
 -15  -5  -6   53.03    5.00
  15   5   7    3.29    3.96
 -15  -5  -7   -2.30    4.08
  15   5   8   25.66    4.49
 -15  -5  -8   31.64    5.07
 -14  -4  23   -2.50    4.45
 -14  -4  22    0.91    4.33
 -14  -4  21    7.14    4.58
 -14  -4  20    6.59    4.47
 -14  -4  19   23.01    4.32
 -14  -4  18  125.30    7.27
 -14  -4  17   82.24    5.98
 -14  -4  16   70.95    5.62
 -14  -4  15   -4.65    3.38
  14   4 -14   56.28    5.60
 -14  -4  14   44.85    4.60
  14   4 -13   -2.91    3.40
 -14  -4  13    3.05    3.60
  14   4 -12  118.20    7.20
 -14  -4  12  104.30    6.83
  14   4 -11    3.71    4.26
 -14  -4  11   -5.52    3.69
  14   4 -10  268.00   13.17
 -14  -4  10  227.80   11.35
  14   4  -9   -3.47    3.59
 -14  -4   9    5.46    3.78
  14   4  -8   48.70    5.13
 -14  -4   8   54.47    5.14
  14   4  -7  281.80   13.64
 -14  -4   7  276.40   13.35
  14   4  -6  275.50   13.23
 -14  -4   6  257.50   12.64
  14   4  -5   62.34    5.41
 -14  -4   5   71.88    5.71
  14   4  -4  486.90   21.84
 -14  -4   4  500.30   22.30
  14   4  -3   41.18    5.03
 -14  -4   3   33.17    4.55
  14   4  -2   28.64    4.62
 -14  -4   2   31.76    4.65
  14   4  -1   28.71    4.81
 -14  -4   1   16.71    4.07
  14   4   0   -4.60    3.71
 -14  -4   0    3.34    3.55
  14   4   1   11.73    3.90
 -14  -4  -1   -3.25    3.85
  14   4   2  291.70   13.85
 -14  -4  -2  222.60   11.10
  14   4   3   42.33    4.61
 -14  -4  -3   43.10    4.43
  14   4   4  147.80    8.25
 -14  -4  -4   93.66    6.16
  14   4   5   32.09    4.61
 -14  -4  -5   27.43    3.90
  14   4   6    4.28    3.50
 -14  -4  -6    4.66    3.43
  14   4   7    0.65    4.05
 -14  -4  -7    9.56    3.75
  14   4   8   -2.63    3.98
 -14  -4  -8   -2.60    3.52
  14   4   9    4.30    4.32
 -14  -4  -9    4.12    3.94
 -13  -3  23   14.41    4.63
 -13  -3  22    5.32    4.14
 -13  -3  21    3.88    4.13
 -13  -3  20   47.58    5.09
 -13  -3  19   25.14    4.39
 -13  -3  18   14.14    3.82
 -13  -3  17  171.00    9.15
 -13  -3  16   26.10    4.10
 -13  -3  15   -2.36    3.62
  13   3 -14    0.68    4.19
 -13  -3  14    3.73    3.90
  13   3 -13   13.01    4.01
 -13  -3  13    6.55    3.83
  13   3 -12    4.29    3.57
 -13  -3  12    0.69    3.47
  13   3 -11  250.90   12.20
 -13  -3  11  248.60   12.21
  13   3 -10    0.64    3.80
 -13  -3  10    1.20    3.53
  13   3  -9  188.70   10.30
 -13  -3   9  169.80    9.24
  13   3  -8   97.79    6.31
 -13  -3   8  124.20    7.39
  13   3  -7   21.85    4.02
 -13  -3   7   17.95    3.85
  13   3  -6   15.17    3.79
 -13  -3   6   17.79    3.95
  13   3  -5  484.20   21.64
 -13  -3   5  468.10   20.95
  13   3  -4   12.60    4.14
 -13  -3   4   25.69    4.23
  13   3  -3  301.80   14.36
 -13  -3   3  291.70   13.87
  13   3  -2  130.60    7.57
 -13  -3   2  123.30    7.27
  13   3  -1   58.22    5.04
 -13  -3   1   67.98    5.32
  13   3   0  125.00    7.69
 -13  -3   0  142.30    7.91
  13   3   1   29.73    4.62
 -13  -3  -1   33.33    4.69
  13   3   2   70.27    5.73
 -13  -3  -2   75.61    5.69
  13   3   3  200.80   10.33
 -13  -3  -3  172.50    9.18
  13   3   4   57.49    5.19
 -13  -3  -4   58.79    4.98
  13   3   5  174.30    9.25
 -13  -3  -5  169.50    8.73
  13   3   6   25.02    4.14
 -13  -3  -6   22.65    4.05
  13   3   7   -0.06    3.93
 -13  -3  -7    5.07    3.61
  13   3   8   36.23    4.06
 -13  -3  -8   29.80    3.99
  13   3   9    5.81    3.96
 -13  -3  -9    6.48    4.21
  13   3  10   -6.21    3.47
  13   3  11   22.58    4.82
 -12  -2  23   -1.34    4.23
 -12  -2  22   -4.98    4.18
 -12  -2  21   43.51    4.93
 -12  -2  20    3.84    3.92
 -12  -2  19   93.07    6.21
 -12  -2  18    1.21    3.38
 -12  -2  17    3.28    3.36
 -12  -2  16   28.99    4.19
 -12  -2  15   86.12    6.09
  12   2 -14    0.88    3.15
 -12  -2  14    6.27    4.16
  12   2 -13  239.70   11.90
 -12  -2  13  235.30   11.66
  12   2 -12   41.86    4.70
 -12  -2  12   33.65    4.31
  12   2 -11   35.17    4.25
 -12  -2  11   41.38    4.68
  12   2 -10   -6.26    3.36
 -12  -2  10    4.28    3.61
  12   2  -9   85.73    6.16
 -12  -2   9  105.60    6.62
  12   2  -8   36.21    4.50
 -12  -2   8   22.84    4.27
  12   2  -7  227.10   11.32
 -12  -2   7  219.70   10.91
  12   2  -6   26.53    4.23
 -12  -2   6   29.10    4.01
  12   2  -5  324.40   15.25
 -12  -2   5  299.80   14.02
  12   2  -4   35.63    4.61
 -12  -2   4   25.96    4.13
  12   2  -3   15.25    3.98
 -12  -2   3   20.44    3.83
  12   2  -2   -2.01    3.58
 -12  -2   2    2.45    3.42
  12   2  -1  415.50   18.89
 -12  -2   1  409.50   18.52
  12   2   0   68.91    5.40
 -12  -2   0   51.41    4.92
  12   2   1  347.50   16.20
 -12  -2  -1  332.30   15.29
  12   2   2   33.80    4.56
 -12  -2  -2   22.70    4.11
  12   2   3   62.47    5.23
 -12  -2  -3   65.26    5.28
  12   2   4   10.37    3.88
 -12  -2  -4    7.49    3.80
  12   2   5   50.09    4.98
 -12  -2  -5   52.83    4.83
  12   2   6  166.80    8.89
 -12  -2  -6  165.40    8.65
  12   2   7  263.30   12.56
 -12  -2  -7  273.40   13.05
  12   2   8   13.17    3.83
 -12  -2  -8   14.67    4.34
  12   2   9   44.00    4.66
 -12  -2  -9   43.31    4.68
  12   2  10   -2.56    3.60
  12   2  11   -3.25    3.57
  12   2  12   11.59    4.33
 -11  -1  23   10.42    4.33
 -11  -1  22    5.56    4.30
 -11  -1  21   -8.02    4.12
 -11  -1  20   50.93    4.91
 -11  -1  19   18.01    3.94
 -11  -1  18    4.95    3.63
 -11  -1  17   72.02    5.37
 -11  -1  16    6.21    3.63
 -11  -1  15   47.70    4.92
 -11  -1  14   -4.48    3.39
  11   1 -13  118.30    6.78
 -11  -1  13  113.10    6.99
  11   1 -12    5.28    3.23
 -11  -1  12    2.16    3.32
  11   1 -11  371.40   17.10
 -11  -1  11  393.30   17.84
  11   1 -10  241.90   11.87
 -11  -1  10  211.90   10.53
  11   1  -9   75.32    5.39
 -11  -1   9   88.12    6.12
  11   1  -8    5.44    3.52
 -11  -1   8   -2.64    3.30
  11   1  -7    9.11    3.57
 -11  -1   7   12.39    3.86
  11   1  -6   41.15    4.36
 -11  -1   6   39.32    4.64
  11   1  -5    3.85    3.34
 -11  -1   5   12.33    3.80
  11   1  -4    2.08    3.41
 -11  -1   4    3.46    3.78
  11   1  -3  304.30   14.25
 -11  -1   3  367.60   16.80
  11   1  -2   46.14    4.60
 -11  -1   2   43.61    4.37
  11   1  -1  357.00   16.47
 -11  -1   1  337.50   15.57
  11   1   0  609.10   26.69
 -11  -1   0  602.50   26.42
  11   1   1    9.44    3.98
 -11  -1  -1    7.55    3.46
  11   1   2   77.78    5.68
 -11  -1  -2   75.08    5.37
  11   1   3  221.30   11.20
 -11  -1  -3  212.60   10.55
  11   1   4   68.47    5.45
 -11  -1  -4   64.15    5.29
  11   1   5   94.19    6.35
 -11  -1  -5   92.04    6.17
  11   1   6    4.25    3.72
 -11  -1  -6    0.67    3.30
  11   1   7    5.51    4.21
 -11  -1  -7    6.59    3.34
  11   1   8  272.10   13.01
 -11  -1  -8  299.10   14.05
  11   1   9    5.03    3.88
 -11  -1  -9    7.63    3.88
  11   1  10   11.77    3.54
  11   1  11   80.19    5.81
  11   1  12   -0.46    3.35
  11   1  13   -2.60    4.61
 -10   0  23    2.33    4.04
 -10   0  23   -5.79    3.63
 -10   0  22    5.45    4.00
 -10   0  21   -4.81    4.16
 -10   0  20   41.58    4.64
 -10   0  19   -2.30    3.63
 -10   0  18  271.00   12.76
 -10   0  17   -5.86    3.51
 -10   0  16    4.34    3.53
 -10   0  15   -1.10    3.46
 -10   0  14   38.09    4.41
  10   0 -13   -5.23    3.57
 -10   0  13   -1.67    3.35
  10   0 -12  654.60   28.26
 -10   0  12  644.30   28.02
  10   0 -11    0.48    3.11
 -10   0  11    2.86    3.40
  10   0 -10  267.50   12.84
 -10   0  10  286.50   13.43
  10   0  -9    5.60    3.48
 -10   0   9    3.25    3.07
  10   0  -8  222.90   10.94
 -10   0   8  226.20   11.09
  10   0  -7    0.67    3.13
 -10   0   7   -2.40    3.22
  10   0  -6   -4.37    3.44
 -10   0   6    1.18    3.25
  10   0  -5    1.29    3.66
 -10   0   5   -2.58    3.42
  10   0  -4  163.10    8.72
 -10   0   4  160.10    8.69
  10   0  -3   -1.49    3.58
 -10   0   3    5.27    3.36
  10   0  -2  878.10   37.60
 -10   0   2  899.50   38.36
  10   0  -1    0.87    3.40
 -10   0   1   -3.10    3.53
  10   0   0  841.90   36.10
 -10   0   0  823.80   35.29
  10   0   1   -0.04    3.76
 -10   0  -1   -1.25    3.38
  10   0   2   52.52    4.79
 -10   0  -2   52.76    4.88
  10   0   3    2.82    3.66
 -10   0  -3    5.80    4.20
  10   0   4  335.10   15.64
 -10   0  -4  353.20   16.16
  10   0   5   -2.08    3.51
 -10   0  -5   -3.88    3.53
  10   0   6   84.54    6.13
 -10   0  -6   82.91    6.07
  10   0   7   -1.35    3.63
 -10   0  -7   -1.03    3.74
  10   0   8   -6.02    4.15
 -10   0  -8    0.41    3.43
  10   0   9    2.53    3.98
  10   0  10  114.20    7.15
  10   0  11    0.31    3.67
  10   0  12   28.41    4.43
  10   0  13    1.21    3.41
  10   0  14    3.56    4.24
  -9   1  23    5.59    4.03
  -9   1  23    1.01    4.25
  -9   1  22   16.15    4.06
  -9   1  22   18.52    4.27
  -9   1  21   15.98    4.48
  -9   1  20   52.67    4.94
  -9   1  19   17.63    3.70
  -9   1  18   -1.17    3.29
  -9   1  17  220.10   10.76
  -9   1  16  190.20    9.57
  -9   1  15   -0.54    3.26
  -9   1  14  229.60   11.19
  -9   1  13   -2.57    3.14
   9  -1 -12  196.70    9.93
  -9   1  12  174.30    8.91
   9  -1 -11  270.60   12.67
  -9   1  11  284.20   13.25
   9  -1 -10    0.20    2.72
  -9   1  10    4.37    3.23
   9  -1  -9  252.20   12.01
  -9   1   9  226.60   10.95
   9  -1  -8  434.30   19.19
  -9   1   8  445.40   19.71
   9  -1  -7  255.40   11.93
  -9   1   7  264.60   12.35
   9  -1  -6  781.80   33.35
  -9   1   6  871.50   37.21
   9  -1  -5  233.00   11.23
  -9   1   5  242.90   11.69
   9  -1  -4  186.10    9.42
  -9   1   4  179.60    9.27
   9  -1  -3   85.02    5.60
  -9   1   3   83.10    5.67
   9  -1  -2   71.05    5.71
  -9   1   2   66.79    5.24
   9  -1  -1  504.70   22.38
  -9   1   1  451.00   20.17
   9  -1   0  330.00   15.30
  -9   1   0  345.50   15.83
   9  -1   1   85.88    5.76
  -9   1  -1   70.50    5.08
   9  -1   2  254.30   12.27
  -9   1  -2  236.40   11.41
   9  -1   3  133.00    7.69
  -9   1  -3  142.40    7.97
   9  -1   4    4.32    3.73
  -9   1  -4   -3.87    3.47
   9  -1   5  167.50    8.93
  -9   1  -5  156.70    8.46
   9  -1   6   24.58    4.28
  -9   1  -6   38.72    4.51
   9  -1   7   15.48    3.97
  -9   1  -7   22.31    3.90
   9  -1   8  103.90    6.65
  -9   1  -8   91.99    6.12
   9  -1   9   -0.96    3.49
   9  -1  10   13.47    3.93
   9  -1  11   83.26    5.95
   9  -1  12   -4.73    3.42
   9  -1  13   11.00    3.58
   9  -1  14   36.98    4.36
  -8   2  23    3.53    4.47
  -8   2  23   -0.17    4.33
  -8   2  22   14.25    4.12
  -8   2  22    2.47    3.97
  -8   2  21   43.78    4.59
  -8   2  21   36.05    4.44
  -8   2  20    9.07    3.49
  -8   2  20    8.95    3.85
  -8   2  19   82.76    5.53
  -8   2  18   30.52    3.87
  -8   2  17   -1.16    3.12
  -8   2  16   17.13    3.52
  -8   2  15  535.60   23.38
  -8   2  14   16.35    3.23
  -8   2  13  389.20   17.33
  -8   2  12    3.08    2.96
   8  -2 -11   82.48    5.43
  -8   2  11   72.33    4.83
   8  -2 -10  117.50    6.18
  -8   2  10  125.70    6.77
   8  -2  -9  135.30    7.22
  -8   2   9  116.60    6.56
   8  -2  -8    7.71    3.30
  -8   2   8    8.51    3.21
   8  -2  -7  960.10   40.70
  -8   2   7 1004.00   42.40
   8  -2  -6    7.95    3.25
  -8   2   6    7.48    3.09
   8  -2  -5 1708.00   71.41
  -8   2   5 1687.00   70.54
   8  -2  -4    1.52    3.33
  -8   2   4   -0.83    3.13
   8  -2  -3  219.90   10.74
  -8   2   3  242.90   11.83
   8  -2  -2   11.18    3.61
  -8   2   2    9.05    3.47
   8  -2  -1  230.40   11.21
  -8   2   1  201.80   10.13
   8  -2   0  105.80    6.55
  -8   2   0  101.30    6.34
   8  -2   1  605.40   26.44
  -8   2  -1  571.50   24.94
   8  -2   2   32.06    4.23
  -8   2  -2   28.64    4.03
   8  -2   3  166.80    8.82
  -8   2  -3  170.20    9.04
   8  -2   4   -1.40    3.76
  -8   2  -4   -0.21    3.57
   8  -2   5   42.19    4.54
  -8   2  -5   47.09    4.63
   8  -2   6   10.31    3.92
  -8   2  -6    4.12    3.40
   8  -2   7  308.10   14.52
  -8   2  -7  286.50   13.52
   8  -2   8   41.31    4.53
   8  -2   9    4.83    3.62
   8  -2  10  139.60    7.91
   8  -2  11   45.30    4.66
   8  -2  12    0.70    3.66
   8  -2  13   36.15    4.45
   8  -2  14    2.73    3.58
   8  -2  15   73.14    5.62
  -7   3  22   -3.58    4.34
  -7   3  22    3.26    4.47
  -7   3  21    6.66    3.87
  -7   3  21   -2.55    3.40
  -7   3  20   43.72    4.57
  -7   3  20   39.22    4.14
  -7   3  19   12.98    3.42
  -7   3  19   10.22    3.38
  -7   3  18    2.16    2.80
  -7   3  18   11.92    3.51
  -7   3  17  280.90   13.01
  -7   3  16   35.58    4.04
  -7   3  15  239.80   11.26
  -7   3  14  204.10    9.83
  -7   3  13   34.62    3.59
  -7   3  12  128.00    6.76
  -7   3  11  212.50   10.02
   7  -3 -10   19.71    2.96
  -7   3  10   20.12    2.93
   7  -3  -9  407.30   17.80
  -7   3   9  467.70   20.25
   7  -3  -8  338.80   15.05
  -7   3   8  355.00   15.72
   7  -3  -7  589.40   25.31
  -7   3   7  554.30   23.87
   7  -3  -6  551.60   23.72
  -7   3   6  523.30   22.66
   7  -3  -5   41.22    3.78
  -7   3   5   44.54    4.00
   7  -3  -4   31.34    3.79
  -7   3   4   25.92    3.72
   7  -3  -3  920.40   39.11
  -7   3   3  841.60   35.77
   7  -3  -2   -1.11    3.24
  -7   3   2    5.68    3.12
   7  -3  -1    0.77    3.54
  -7   3   1    5.18    3.59
   7  -3   0   72.76    5.35
  -7   3   0   74.85    5.28
   7  -3   1   52.04    4.70
  -7   3  -1   48.83    4.76
   7  -3   2  278.20   13.33
  -7   3  -2  312.70   14.62
   7  -3   3  299.90   14.05
  -7   3  -3  299.90   13.93
   7  -3   4   21.26    4.00
  -7   3  -4   23.05    3.86
   7  -3   5  416.00   18.87
  -7   3  -5  416.40   18.76
   7  -3   6   59.98    5.21
  -7   3  -6   69.65    5.39
   7  -3   7  111.70    6.77
   7  -3   8    7.15    3.66
   7  -3   9   60.75    5.18
   7  -3  10   18.86    3.92
   7  -3  11  285.70   13.61
   7  -3  12   58.18    5.02
   7  -3  13  119.70    6.94
   7  -3  14   11.66    3.63
   7  -3  15   11.34    4.02
   7  -3  16    7.61    4.05
  -6   4  22   37.55    5.19
  -6   4  22   38.49    5.26
  -6   4  21    6.84    3.85
  -6   4  21    3.72    3.97
  -6   4  20    4.93    3.47
  -6   4  20   -5.52    3.47
  -6   4  19   -0.24    3.22
  -6   4  19   -1.26    2.81
  -6   4  18   33.36    3.60
  -6   4  18   27.87    3.52
  -6   4  17   27.64    3.41
  -6   4  17   26.23    3.65
  -6   4  16  317.50   14.28
  -6   4  16  333.80   14.95
  -6   4  15   63.24    4.37
  -6   4  14  292.40   13.20
  -6   4  13  140.40    7.07
  -6   4  12    1.06    2.39
  -6   4  11   99.15    5.25
  -6   4  10  258.10   11.57
   6  -4  -9   53.92    3.58
  -6   4   9   61.68    3.97
   6  -4  -8 1348.00   56.18
  -6   4   8 1277.00   53.32
   6  -4  -7    5.22    2.45
  -6   4   7    9.58    2.31
   6  -4  -6  112.30    6.06
  -6   4   6   94.74    5.29
   6  -4  -5   42.15    3.81
  -6   4   5   37.54    3.40
   6  -4  -4  172.60    8.27
  -6   4   4  157.20    7.86
   6  -4  -3  395.10   17.40
  -6   4   3  415.60   18.30
   6  -4  -2   84.70    5.51
  -6   4   2   97.85    5.76
   6  -4  -1    1.10    3.47
  -6   4   1    1.03    3.26
   6  -4   0  402.10   18.02
  -6   4   0  395.80   17.71
   6  -4   1   41.72    4.17
  -6   4  -1   34.74    4.03
   6  -4   2  118.60    7.16
  -6   4  -2  113.10    6.69
   6  -4   3  499.50   22.18
  -6   4  -3  457.20   20.25
   6  -4   4   27.60    4.17
  -6   4  -4   26.38    3.98
   6  -4   5   65.46    5.18
  -6   4  -5   56.39    4.93
   6  -4   6  279.90   13.50
   6  -4   7   52.65    4.76
   6  -4   8   10.79    3.73
   6  -4   9   80.85    6.06
   6  -4  10  125.90    7.36
   6  -4  11   43.23    4.64
   6  -4  12  135.60    7.72
   6  -4  13    8.14    3.50
   6  -4  14  115.10    6.87
   6  -4  15    8.96    4.09
   6  -4  16    5.69    4.04
  -5   5  21   -2.24    4.34
  -5   5  21    6.29    4.38
  -5   5  20   74.83    5.19
  -5   5  20   87.15    5.81
  -5   5  19    7.93    3.33
  -5   5  19    5.20    3.33
  -5   5  18   62.58    4.39
  -5   5  18   62.89    4.54
  -5   5  17    3.14    2.75
  -5   5  17    4.77    2.95
  -5   5  16   10.67    2.63
  -5   5  16   11.48    2.58
  -5   5  15   58.87    4.02
  -5   5  15   56.89    3.81
  -5   5  14    4.49    2.44
  -5   5  14    5.17    2.50
  -5   5  13   15.69    2.53
  -5   5  12  705.60   29.78
  -5   5  11   -0.29    1.89
  -5   5  10  318.90   13.82
  -5   5   9   38.37    2.76
   5  -5  -8   15.98    2.02
  -5   5   8   23.71    2.20
   5  -5  -7   71.88    3.88
  -5   5   7   71.46    3.92
   5  -5  -6  674.60   28.48
  -5   5   6  719.30   30.22
   5  -5  -5   68.45    4.21
  -5   5   5   64.19    3.93
   5  -5  -4  112.10    5.98
  -5   5   4  107.50    5.66
   5  -5  -3  108.20    5.87
  -5   5   3  114.30    6.04
   5  -5  -2  149.10    7.57
  -5   5   2  143.70    7.37
   5  -5  -1    7.81    2.98
  -5   5   1    6.36    2.94
   5  -5   0  234.70   11.25
  -5   5   0  239.40   11.31
   5  -5   1   47.54    4.65
  -5   5  -1   44.11    4.33
   5  -5   2  118.40    6.87
  -5   5  -2  120.90    7.19
   5  -5   3  314.80   14.54
  -5   5  -3  360.90   16.42
   5  -5   4   34.53    4.06
  -5   5  -4   32.41    3.95
   5  -5   5   13.50    3.90
   5  -5   6   -6.13    3.20
   5  -5   7  133.60    7.76
   5  -5   8  128.30    7.48
   5  -5   9   37.95    4.62
   5  -5  10  421.40   19.18
   5  -5  11   42.57    4.47
   5  -5  12   41.10    4.58
   5  -5  13    7.24    3.58
   5  -5  14   31.46    4.13
   5  -5  15    6.52    3.70
   5  -5  16   48.81    4.74
   5  -5  17   -1.03    3.90
  -4   6  21   11.93    4.22
  -4   6  21   12.94    4.28
  -4   6  20   14.57    3.98
  -4   6  20   17.89    3.89
  -4   6  19  107.50    6.00
  -4   6  19   97.16    5.84
  -4   6  18    0.39    2.84
  -4   6  18    0.33    2.76
  -4   6  17   48.55    3.59
  -4   6  17   43.21    3.51
  -4   6  16   92.97    5.05
  -4   6  16   91.81    4.92
  -4   6  15    1.97    2.18
  -4   6  15    1.65    2.24
  -4   6  14   56.12    3.57
  -4   6  14   48.61    3.40
  -4   6  13   70.20    3.87
  -4   6  13   65.09    3.66
  -4   6  12   12.06    1.81
  -4   6  12    8.65    1.80
  -4   6  11  390.10   16.54
  -4   6  11  382.70   16.27
  -4   6  10   19.51    1.65
  -4   6  10   16.63    1.58
  -4   6   9   38.74    2.18
  -4   6   8   35.02    2.00
   4  -6  -7  157.40    6.83
  -4   6   7  134.10    5.95
   4  -6  -6   60.41    3.09
  -4   6   6   51.87    2.84
   4  -6  -5 1500.00   62.29
  -4   6   5 1564.00   64.95
   4  -6  -4  970.40   40.63
  -4   6   4  943.10   39.46
   4  -6  -3    3.69    2.51
  -4   6   3   -0.83    2.32
   4  -6  -2   36.48    3.50
  -4   6   2   33.45    3.30
   4  -6  -1   33.13    3.27
  -4   6   1   29.07    3.54
   4  -6   0  114.50    6.36
  -4   6   0  116.60    6.68
   4  -6   1  333.90   15.24
  -4   6  -1  380.30   17.06
   4  -6   2   70.53    5.30
   4  -6   3  312.30   14.54
   4  -6   4    8.48    3.68
   4  -6   5   47.27    4.75
   4  -6   6  194.10   10.13
   4  -6   7  139.20    8.09
   4  -6   8   43.78    4.72
   4  -6   9   66.69    5.55
   4  -6  10   16.10    4.05
   4  -6  11  273.80   13.21
   4  -6  12   46.33    5.25
   4  -6  13   -2.98    3.77
   4  -6  14  141.60    7.85
   4  -6  15    7.47    3.85
   4  -6  16    8.17    3.88
   4  -6  17   23.28    4.40
  -3   7  19    5.62    2.58
  -3   7  19    5.82    2.54
  -3   7  18    5.73    2.28
  -3   7  18    3.73    2.22
  -3   7  17   26.76    2.45
  -3   7  17   22.68    2.47
  -3   7  16    6.11    1.85
  -3   7  16    2.69    1.82
  -3   7  15   46.12    2.77
  -3   7  15   47.66    2.84
  -3   7  14   60.75    3.12
  -3   7  14   58.97    3.06
   3  -7  -5  100.30    4.52
   3  -7  -4   17.50    1.99
   3  -7  -3  621.90   26.34
   3  -7  -2  187.10    8.87
   3  -7  -1  309.80   13.91
   3  -7   0   43.67    4.03
   3  -7   1  984.50   41.65
   3  -7   2   33.27    3.81
   3  -7   3   79.68    5.56
   3  -7   4  114.00    6.97
   3  -7   5  407.80   18.42
   3  -7   6    5.10    3.38
   3  -7   7  954.30   40.82
   3  -7   8    5.92    3.92
   3  -7   9  257.70   12.48
   3  -7  10   -4.19    3.50
   3  -7  11    1.47    3.67
   3  -7  12   -0.83    3.85
   3  -7  13  227.20   11.32
   3  -7  14   23.63    4.49
   3  -7  15   94.04    6.75
   3  -7  16    4.66    3.76
   3  -7  17    6.05    3.87
   2  -8  -4   14.78    1.58
   2  -8  -4   20.09    1.94
   2  -8  -3  509.50   21.58
   2  -8  -2  263.70   11.69
   2  -8  -1    9.87    2.63
   2  -8   0  943.20   39.92
   2  -8   1  111.70    6.48
   2  -8   2  405.00   17.91
   2  -8   3  638.70   27.55
   2  -8   4   64.50    5.07
   2  -8   5   69.93    5.21
   2  -8   6  367.80   16.93
   2  -8   7    7.06    3.57
   2  -8   8  258.60   12.48
   2  -8   9   99.31    6.78
   2  -8  10   87.71    6.12
   2  -8  11    2.14    3.58
   2  -8  12  185.00    9.66
   2  -8  13   34.83    4.38
   2  -8  14   83.16    5.80
   2  -8  15   -4.19    3.48
   2  -8  16    4.32    3.89
   2  -8  17    8.06    4.14
   2  -8  18    1.62    3.47
   1  -9  -4  350.80   14.88
   1  -9  -4  322.90   13.75
   1  -9  -3    7.84    1.76
   1  -9  -3   10.26    1.89
   1  -9  -2  838.70   35.18
   1  -9  -1  370.00   16.09
   1  -9   0   -1.40    2.54
   1  -9   1    0.71    2.80
   1  -9   2  665.80   28.64
   1  -9   3   23.72    3.98
   1  -9   4   73.49    5.42
   1  -9   5    9.09    3.32
   1  -9   6   67.72    5.29
   1  -9   7   18.31    3.98
   1  -9   8  180.00    9.53
   1  -9   9    0.30    3.62
   1  -9  10  277.80   13.47
   1  -9  11   61.39    5.14
   1  -9  12    9.06    3.92
   1  -9  13   -2.87    3.55
   1  -9  14    4.70    3.60
   1  -9  15   -2.61    3.36
   1  -9  16   60.59    5.65
   1  -9  17    2.44    3.80
   1  -9  18   33.16    4.61
   0 -10  -4    1.99    1.49
   0 -10  -4    2.68    1.31
   0 -10  -3  235.40   10.44
   0 -10  -3  262.50   11.50
   0 -10  -2   21.80    2.45
   0 -10  -1   23.15    2.87
   0 -10   0 1466.00   61.38
   0 -10   7   -2.01    3.33
   0 -10   8   26.31    4.25
   0 -10   9   88.66    6.44
   0 -10  10   25.10    4.05
   0 -10  11   -0.87    3.79
   0 -10  12   17.92    3.85
   0 -10  13   85.82    5.98
   0 -10  14   77.88    5.64
   0 -10  15   13.98    3.90
   0 -10  16   11.88    3.74
   0 -10  17   14.58    4.01
   0 -10  18    1.80    3.72
   0 -10  18   -0.02    3.58
  -1 -11  -4  148.40    6.71
  -1 -11  -4  162.00    7.17
  -1 -11  -3   46.38    3.07
  -1 -11  -2   23.36    2.71
  -1 -11  -1  329.80   14.54
  -1 -11   0  173.10    8.61
  -1 -11   1  653.70   28.09
  -1 -11   2  417.20   19.00
  -1 -11   3   16.44    3.36
  -1 -11  10    3.73    4.15
  -1 -11  11   28.42    3.91
  -1 -11  12    1.17    3.62
  -1 -11  13   33.65    4.35
  -1 -11  14    1.50    3.59
  -1 -11  15   91.19    6.02
  -1 -11  16   -6.26    3.65
  -1 -11  16   -1.00    3.78
  -1 -11  17   -4.51    3.96
  -1 -11  17    2.32    3.82
  -1 -11  18   -4.27    3.59
  -1 -11  18    0.50    3.81
  -2 -12  -5   62.67    3.08
  -2 -12  -5   62.58    3.11
  -2 -12  -4   26.66    2.37
  -2 -12  -3  470.30   20.04
  -2 -12  -2    7.13    2.62
  -2 -12  -1  194.50    9.21
  -2 -12   0   46.54    3.99
  -2 -12   1   68.38    4.70
  -2 -12   2   18.24    3.47
  -2 -12   3  337.70   15.42
  -2 -12   4    4.85    3.67
  -2 -12   5  180.50    9.40
  -2 -12   6    5.35    3.37
  -2 -12   7   -4.81    3.53
  -2 -12   8    0.58    3.58
  -2 -12   9  108.10    7.03
  -2 -12  10   54.65    5.15
  -2 -12  11   98.41    6.48
  -2 -12  11   88.61    6.27
  -2 -12  12   10.57    3.45
  -2 -12  12   10.79    3.83
  -2 -12  13   16.50    4.34
  -2 -12  13   19.77    4.60
  -2 -12  14   -1.99    3.57
  -2 -12  14    2.55    3.73
  -2 -12  15   20.28    3.76
  -2 -12  15   21.67    4.18
  -2 -12  16   11.85    3.54
  -2 -12  16   23.47    4.60
  -2 -12  17   31.39    4.11
  -2 -12  17   26.92    4.31
  -2 -12  18   -4.09    4.27
  -2 -12  18    0.85    3.72
  -3 -13  -5   81.51    3.99
  -3 -13  -4   35.83    2.74
  -3 -13  -3    3.53    2.34
  -3 -13  -2  158.90    7.64
  -3 -13  -1   50.22    4.08
  -3 -13   0   93.06    5.60
  -3 -13   1   -2.57    2.88
  -3 -13   2  169.60    8.76
  -3 -13   3   16.92    3.87
  -3 -13   4  137.10    7.69
  -3 -13   5    1.55    3.45
  -3 -13   6    6.85    3.69
  -3 -13   7   46.83    4.92
  -3 -13   8   25.24    4.27
  -3 -13   9   -1.11    3.73
  -3 -13  10   54.77    5.34
  -3 -13  11    1.40    3.89
  -3 -13  12  232.40   11.45
  -3 -13  13    0.56    3.30
  -3 -13  13    3.41    3.66
  -3 -13  14   11.16    3.59
  -3 -13  14    6.09    3.79
  -3 -13  15   17.26    3.97
  -3 -13  15   26.69    4.50
  -3 -13  16   14.71    4.13
  -3 -13  16   21.25    4.14
  -3 -13  17   11.52    3.62
  -3 -13  17    9.23    3.76
  -4 -14  -5    2.84    1.89
  -4 -14  -4   77.34    4.22
  -4 -14  -3   -2.01    2.29
  -4 -14  -2    1.83    2.88
  -4 -14  -1   75.75    4.80
  -4 -14   0   84.30    5.41
  -4 -14   1   86.76    5.57
  -4 -14   2  322.50   14.70
  -4 -14   3  140.80    7.98
  -4 -14   4   24.91    3.86
  -4 -14   5   11.05    4.07
  -4 -14   6   31.83    4.51
  -4 -14   7    0.47    4.02
  -4 -14   8  177.70    9.63
  -4 -14   9    8.18    3.63
  -4 -14  10   96.55    6.23
  -4 -14  11    8.12    3.64
  -4 -14  12    2.57    3.69
  -4 -14  13   27.22    4.24
  -4 -14  14   91.88    6.14
  -4 -14  14   94.93    6.18
  -4 -14  15    4.86    3.89
  -4 -14  15    1.93    3.67
  -4 -14  16   37.28    4.60
  -4 -14  16   36.20    4.09
  -4 -14  17    3.70    3.84
  -4 -14  17   12.60    3.58
  -5 -15  -5   11.90    2.17
  -5 -15  -4    2.73    2.40
  -5 -15  -3   35.74    3.32
  -5 -15  -2    8.09    2.84
  -5 -15  -1   11.95    3.01
  -5 -15   0   28.70    3.55
  -5 -15   1   11.90    3.26
  -5 -15   2   -3.20    3.50
  -5 -15   3   67.59    5.11
  -5 -15   4    0.26    3.63
  -5 -15   5   20.02    4.09
  -5 -15   6  115.30    7.09
  -5 -15   7   33.22    4.49
  -5 -15   8   15.10    4.17
  -5 -15   9   64.19    5.29
  -5 -15  10   35.73    4.38
  -5 -15  11    7.77    3.94
  -5 -15  12   53.41    4.90
  -5 -15  13    4.56    3.74
  -5 -15  14   19.52    4.19
  -5 -15  15   58.36    4.87
  -5 -15  15   65.33    5.24
  -5 -15  16    8.39    4.01
  -5 -15  16    9.64    3.59
  -6 -16  -5    6.63    2.00
  -6 -16  -4    1.65    2.73
  -6 -16  -3   39.60    3.66
  -6 -16  -2   -3.35    2.74
  -6 -16  -1  100.40    5.79
  -6 -16   0    9.19    3.13
  -6 -16   1   15.58    3.42
  -6 -16   2    1.97    3.11
  -6 -16   3   16.85    3.67
  -6 -16   4   13.28    3.67
  -6 -16   5  111.40    7.00
  -6 -16   6    1.70    3.59
  -6 -16   7  121.60    7.29
  -6 -16   8   26.12    4.48
  -6 -16   9   -1.04    3.77
  -6 -16  10    0.19    3.93
  -6 -16  11   50.78    5.14
  -6 -16  12   -1.23    3.64
  -6 -16  13   86.64    6.22
  -6 -16  14    3.13    3.75
  -6 -16  15   -4.61    3.58
  -6 -16  16    0.70    3.85
  -6 -16  16    0.07    3.40
  -7 -17  -5    6.94    2.62
  -7 -17  -4    0.43    2.91
  -7 -17  -3    1.64    3.05
  -7 -17  -2   90.84    5.78
  -7 -17  -1    1.39    3.07
  -7 -17   0   21.85    3.68
  -7 -17   1   73.50    5.25
  -7 -17   2    5.21    3.31
  -7 -17   3   20.96    4.09
  -7 -17   4   33.65    4.37
  -7 -17   5   11.48    3.60
  -7 -17   6   72.88    5.45
  -7 -17   7   19.89    4.19
  -7 -17   8   10.81    3.90
  -7 -17   9   57.69    4.88
  -7 -17  10    3.20    3.88
  -7 -17  11   38.12    4.84
  -7 -17  12    9.87    4.01
  -7 -17  13    4.26    3.75
  -7 -17  14   -0.79    3.65
  -7 -17  15    9.41    3.50
  -8 -18  -4   17.02    3.92
  -8 -18  -3   -2.15    3.66
  -8 -18  -2   -0.31    3.74
  -8 -18  -1   -1.24    3.72
  -8 -18   0    8.55    3.61
  -8 -18   1    8.62    3.87
  -8 -18   2   69.25    5.43
  -8 -18   3   25.64    3.98
  -8 -18   4   -5.09    3.77
  -8 -18   5    4.19    3.84
  -8 -18   6   -5.40    3.80
  -8 -18   7   -1.35    3.64
  -8 -18   8    4.25    4.12
  -8 -18   9    1.49    4.05
  -8 -18  10   43.37    4.81
  -8 -18  11    5.11    3.61
  -8 -18  12    6.49    3.81
  -8 -18  13    1.20    3.42
  -9 -19  -3   -6.00    4.64
  -9 -19  -2   -4.81    4.64
  -9 -19  -1   -0.83    4.37
  -9 -19   0    1.62    4.09
  -9 -19   1    2.98    4.38
  -9 -19   2   -5.75    4.11
  -9 -19   3    1.48    4.12
  -9 -19   4   32.19    4.36
  -9 -19   5    8.31    3.96
  -9 -19   6   35.57    4.57
  -9 -19   7    4.37    3.93
  -9 -19   8   12.75    4.19
  -9 -19   9    5.56    4.04
  -9 -19  10    6.22    3.62
  -9 -19  11    5.92    3.97
 -10 -20   2    5.17    5.01
 -10 -20   3   -0.20    4.69
 -10 -20   4   11.98    4.76
 -10 -20   5   20.42    4.69
 -10 -20   6   -0.42    3.68
 -10 -20   7   13.21    4.37
  22  10 -13    4.21    4.38
  22  10 -12    5.84    4.04
 -22 -10  12   17.02    4.06
  22  10 -11   12.82    3.77
 -22 -10  11    5.87    3.96
  22  10 -10    0.71    3.49
 -22 -10  10    7.16    3.73
  22  10  -9    6.52    4.06
 -22 -10   9    7.92    4.36
  22  10  -8   20.34    4.59
 -21  -9  17    2.19    3.78
  21   9 -16   35.43    4.31
 -21  -9  16   28.02    4.05
  21   9 -15    4.39    3.90
 -21  -9  15    0.69    3.52
  21   9 -14    2.59    3.67
 -21  -9  14    5.22    3.59
  21   9 -13   15.10    3.82
 -21  -9  13   17.97    4.10
  21   9 -12   20.50    3.91
 -21  -9  12   28.00    4.12
  21   9 -11   -1.54    3.68
 -21  -9  11    3.49    3.93
  21   9 -10   57.07    5.03
 -21  -9  10   59.20    4.94
  21   9  -9    6.20    3.80
 -21  -9   9   -8.04    3.94
  21   9  -8   27.73    4.21
 -21  -9   8   27.78    4.29
  21   9  -7   15.85    4.09
 -21  -9   7    7.03    3.81
  21   9  -6   -2.65    3.83
 -21  -9   6    1.53    3.56
  21   9  -5   -5.47    4.24
 -21  -9   5    2.70    3.65
  21   9  -4   23.67    4.11
 -21  -9   4   26.38    4.90
  21   9  -3    3.62    3.80
 -21  -9   3    5.36    4.24
 -20  -8  19    0.56    4.18
 -20  -8  18   10.26    4.07
 -20  -8  17   27.45    4.41
  20   8 -16    6.07    3.44
 -20  -8  16   -5.46    4.24
  20   8 -15   27.11    4.22
 -20  -8  15   20.22    4.16
  20   8 -14   20.41    4.10
 -20  -8  14    7.59    3.97
  20   8 -13    6.05    3.78
 -20  -8  13    4.83    3.78
  20   8 -12   13.70    4.06
 -20  -8  12    8.86    3.67
  20   8 -11   55.66    5.12
 -20  -8  11   50.52    4.66
  20   8 -10    2.24    3.64
 -20  -8  10   -6.67    3.83
  20   8  -9   35.66    4.57
 -20  -8   9   28.73    4.10
  20   8  -8   10.24    4.07
 -20  -8   8    3.57    3.77
  20   8  -7   26.20    4.24
 -20  -8   7   33.29    4.66
  20   8  -6   20.36    4.14
 -20  -8   6   17.30    3.88
  20   8  -5   -0.37    3.69
 -20  -8   5    6.68    3.78
  20   8  -4   15.19    4.02
 -20  -8   4   13.93    4.14
  20   8  -3    2.48    3.90
 -20  -8   3    6.17    3.87
  20   8  -2   12.09    4.40
 -20  -8   2   -2.16    3.93
  20   8  -1   40.73    4.82
 -20  -8   1   30.88    4.62
  20   8   0    8.13    4.22
 -20  -8   0    6.69    4.16
 -19  -7  20  -10.21    4.19
 -19  -7  19   49.29    5.00
 -19  -7  18    3.98    4.08
 -19  -7  17    1.21    3.87
  19   7 -16    1.73    3.59
 -19  -7  16    1.92    3.77
  19   7 -15    4.50    3.60
 -19  -7  15    6.99    4.00
  19   7 -14   -8.40    3.44
 -19  -7  14   -3.30    4.00
  19   7 -13   55.60    4.85
 -19  -7  13   42.01    4.76
  19   7 -12    1.68    3.97
 -19  -7  12    6.15    3.75
  19   7 -11   55.50    5.16
 -19  -7  11   56.95    5.17
  19   7 -10   21.83    4.08
 -19  -7  10   15.90    4.21
  19   7  -9   -0.18    3.76
 -19  -7   9    1.96    3.71
  19   7  -8    5.44    3.56
 -19  -7   8   -1.68    3.64
  19   7  -7   46.18    4.61
 -19  -7   7   43.99    4.84
  19   7  -6   -0.74    3.78
 -19  -7   6   -7.11    3.91
  19   7  -5   72.44    5.64
 -19  -7   5   62.85    5.24
  19   7  -4   25.17    4.76
 -19  -7   4   14.69    4.04
  19   7  -3    3.99    4.18
 -19  -7   3    1.06    3.75
  19   7  -2    9.27    3.73
 -19  -7   2    8.97    4.04
  19   7  -1    3.21    3.88
 -19  -7   1   -0.27    4.31
  19   7   0    1.62    3.85
 -19  -7   0    6.91    4.09
  19   7   1   36.04    4.41
 -19  -7  -1   36.58    4.64
  19   7   2    6.77    4.18
 -19  -7  -2   -7.36    4.12
 -18  -6  21    0.20    3.78
 -18  -6  20   13.24    3.86
 -18  -6  19    9.72    4.02
 -18  -6  18    5.77    3.94
 -18  -6  17   34.37    4.68
  18   6 -16    5.35    3.93
 -18  -6  16    2.53    3.70
  18   6 -15   69.81    5.51
 -18  -6  15   76.63    5.75
  18   6 -14   40.19    4.60
 -18  -6  14   42.07    4.58
  18   6 -13   13.87    3.93
 -18  -6  13   15.79    3.87
  18   6 -12    8.34    4.05
 -18  -6  12    6.03    3.86
  18   6 -11    8.67    4.18
 -18  -6  11   10.96    3.78
  18   6 -10   24.77    4.55
 -18  -6  10   35.66    4.70
  18   6  -9  164.70    9.14
 -18  -6   9  171.60    9.03
  18   6  -8    9.44    3.87
 -18  -6   8    9.06    3.68
  18   6  -7   67.08    5.50
 -18  -6   7   58.56    5.03
  18   6  -6   80.65    6.28
 -18  -6   6   60.27    5.53
  18   6  -5   -7.76    3.76
 -18  -6   5   -5.97    3.77
  18   6  -4   18.09    4.09
 -18  -6   4   13.04    3.77
  18   6  -3   90.22    6.10
 -18  -6   3   88.66    6.11
  18   6  -2    3.04    3.99
 -18  -6   2    7.33    4.08
  18   6  -1   55.63    5.16
 -18  -6   1   48.93    5.14
  18   6   0    6.55    4.28
 -18  -6   0   -2.42    3.87
  18   6   1   10.39    4.21
 -18  -6  -1    6.27    3.83
  18   6   2    9.35    4.24
 -18  -6  -2   10.85    3.98
  18   6   3    0.21    4.21
 -18  -6  -3    0.80    3.88
  18   6   4    3.16    3.77
 -18  -6  -4    3.70    4.44
 -17  -5  22   17.45    3.98
 -17  -5  21    0.95    4.01
 -17  -5  20   -8.86    3.78
 -17  -5  19   -4.62    3.99
 -17  -5  18   17.68    4.12
 -17  -5  17    5.06    4.00
  17   5 -16   19.75    3.68
 -17  -5  16   25.74    4.16
  17   5 -15    2.11    4.03
 -17  -5  15    7.79    3.89
  17   5 -14  170.40    9.41
 -17  -5  14  180.10    9.36
  17   5 -13    4.94    3.79
 -17  -5  13   -1.33    3.66
  17   5 -12   18.21    4.17
 -17  -5  12   19.56    4.33
  17   5 -11   72.39    5.68
 -17  -5  11   58.77    5.11
  17   5 -10   21.56    4.35
 -17  -5  10    6.71    3.96
  17   5  -9    0.24    3.56
 -17  -5   9    1.49    3.59
  17   5  -8  205.60   10.61
 -17  -5   8  193.40   10.17
  17   5  -7   10.89    4.73
 -17  -5   7   11.31    4.24
  17   5  -6   67.22    5.70
 -17  -5   6   74.02    5.90
  17   5  -5   62.39    5.80
 -17  -5   5   56.84    5.22
  17   5  -4    3.46    3.83
 -17  -5   4    4.80    3.67
  17   5  -3   10.84    4.01
 -17  -5   3   16.24    4.29
  17   5  -2   43.83    4.82
 -17  -5   2   50.31    4.78
  17   5  -1   11.34    4.49
 -17  -5   1   19.60    4.07
  17   5   0   45.28    4.83
 -17  -5   0   29.00    4.27
  17   5   1   12.91    4.34
 -17  -5  -1   10.04    3.58
  17   5   2    2.89    3.73
 -17  -5  -2    5.23    3.57
  17   5   3   21.10    4.28
 -17  -5  -3   17.07    4.65
  17   5   4   21.90    4.44
 -17  -5  -4   25.11    4.14
  17   5   5    0.92    3.92
 -17  -5  -5    2.80    4.28
  17   5   6   10.37    4.38
 -17  -5  -6   14.72    4.78
 -16  -4  22   19.37    4.50
 -16  -4  21   13.61    4.36
 -16  -4  20   67.67    5.47
 -16  -4  19    5.20    4.05
 -16  -4  18   46.92    4.88
 -16  -4  17   10.21    3.90
  16   4 -16   46.62    5.09
 -16  -4  16   55.71    4.88
  16   4 -15   -2.04    3.84
 -16  -4  15    4.66    3.88
  16   4 -14   44.12    4.58
 -16  -4  14   58.77    5.34
  16   4 -13    8.82    3.54
 -16  -4  13    6.78    4.24
  16   4 -12  133.40    8.05
 -16  -4  12  121.60    7.43
  16   4 -11    3.13    4.18
 -16  -4  11    1.36    3.78
  16   4 -10  165.00    8.99
 -16  -4  10  184.20    9.63
  16   4  -9   33.01    4.52
 -16  -4   9   35.08    4.71
  16   4  -8    4.33    4.04
 -16  -4   8    4.44    3.80
  16   4  -7   11.52    4.44
 -16  -4   7    4.23    3.71
  16   4  -6  173.70    9.57
 -16  -4   6  159.30    8.90
  16   4  -5   11.28    4.47
 -16  -4   5   20.10    4.24
  16   4  -4  159.60    8.84
 -16  -4   4  158.50    8.88
  16   4  -3    2.56    4.13
 -16  -4   3   -1.44    3.86
  16   4  -2   29.48    4.55
 -16  -4   2   27.29    4.60
  16   4  -1   27.76    4.61
 -16  -4   1   31.76    4.60
  16   4   0   63.30    5.36
 -16  -4   0   59.06    5.34
  16   4   1    7.48    3.88
 -16  -4  -1   -3.15    3.82
  16   4   2  157.60    8.57
 -16  -4  -2  150.40    8.08
  16   4   3    4.11    3.63
 -16  -4  -3   -2.80    3.35
  16   4   4   25.33    4.37
 -16  -4  -4   23.58    4.05
  16   4   5   -0.69    3.88
 -16  -4  -5    3.23    3.47
  16   4   6   -1.25    4.17
 -16  -4  -6    6.89    3.86
  16   4   7   -3.72    4.30
 -16  -4  -7   -3.31    3.79
 -15  -3  23    9.57    3.88
 -15  -3  22   -3.55    3.62
 -15  -3  21   15.53    4.36
 -15  -3  20   45.48    4.94
 -15  -3  19   70.53    5.32
 -15  -3  18   -0.02    3.44
 -15  -3  17   47.60    4.53
  15   3 -16   75.01    5.24
 -15  -3  16   84.17    5.78
  15   3 -15    5.60    3.97
 -15  -3  15   -4.56    3.45
  15   3 -14   28.93    4.51
 -15  -3  14   35.40    4.54
  15   3 -13   56.13    4.91
 -15  -3  13   53.68    5.28
  15   3 -12   99.04    6.27
 -15  -3  12   93.56    6.51
  15   3 -11  364.70   16.85
 -15  -3  11  306.80   14.65
  15   3 -10   57.48    5.92
 -15  -3  10   50.50    4.89
  15   3  -9  152.00    8.57
 -15  -3   9  143.00    8.18
  15   3  -8   30.96    4.55
 -15  -3   8   37.86    4.80
  15   3  -7  310.50   14.91
 -15  -3   7  280.00   13.40
  15   3  -6   60.99    5.55
 -15  -3   6   61.52    5.54
  15   3  -5  169.40    9.39
 -15  -3   5  182.30    9.72
  15   3  -4    3.65    4.27
 -15  -3   4   -2.61    3.80
  15   3  -3  159.60    8.89
 -15  -3   3  178.00    9.76
  15   3  -2   67.63    5.97
 -15  -3   2   75.12    5.71
  15   3  -1    2.59    4.12
 -15  -3   1   -4.65    3.60
  15   3   0   85.96    6.11
 -15  -3   0   76.22    5.83
  15   3   1  168.20    9.28
 -15  -3  -1  154.30    8.58
  15   3   2    9.95    4.11
 -15  -3  -2    5.91    3.48
  15   3   3  115.70    7.10
 -15  -3  -3  118.10    7.06
  15   3   4   69.48    5.54
 -15  -3  -4   66.55    5.12
  15   3   5   24.24    4.54
 -15  -3  -5   24.99    3.82
  15   3   6   17.29    4.13
 -15  -3  -6    9.62    4.10
  15   3   7    2.99    4.08
 -15  -3  -7    0.83    3.92
  15   3   8   13.02    4.33
 -15  -3  -8   14.36    4.46
  15   3   9   17.62    4.89
 -15  -3  -9   19.45    5.29
 -14  -2  23   27.45    4.32
 -14  -2  22   -2.55    4.37
 -14  -2  21  150.50    8.36
 -14  -2  20    8.76    4.13
 -14  -2  19   82.38    5.91
 -14  -2  18    0.76    3.69
 -14  -2  17   18.12    3.91
 -14  -2  16    4.53    3.65
  14   2 -15  134.80    7.41
 -14  -2  15  151.10    8.37
  14   2 -14    7.15    3.95
 -14  -2  14   11.08    3.86
  14   2 -13  341.20   16.00
 -14  -2  13  343.90   15.97
  14   2 -12   47.68    4.98
 -14  -2  12   38.84    4.97
  14   2 -11   26.53    4.34
 -14  -2  11   33.65    4.49
  14   2 -10   53.84    4.91
 -14  -2  10   58.54    5.07
  14   2  -9  226.20   11.45
 -14  -2   9  238.60   11.81
  14   2  -8    0.79    3.66
 -14  -2   8    1.43    3.58
  14   2  -7  113.80    6.84
 -14  -2   7  115.40    6.99
  14   2  -6   75.67    5.93
 -14  -2   6   65.66    5.40
  14   2  -5    5.69    4.31
 -14  -2   5    5.16    3.78
  14   2  -4   -0.70    3.70
 -14  -2   4    0.46    3.96
  14   2  -3   46.52    4.97
 -14  -2   3   48.59    5.03
  14   2  -2   68.31    5.56
 -14  -2   2   49.49    4.98
  14   2  -1  237.60   11.85
 -14  -2   1  242.40   11.84
  14   2   0   18.67    4.17
 -14  -2   0    8.98    3.85
  14   2   1  195.60   10.22
 -14  -2  -1  188.90    9.98
  14   2   2   -6.13    3.79
 -14  -2  -2    0.34    3.77
  14   2   3    1.65    3.51
 -14  -2  -3   -2.16    3.40
  14   2   4    4.42    3.63
 -14  -2  -4   -3.05    3.36
  14   2   5  180.10    9.25
 -14  -2  -5  196.90   10.11
  14   2   6    2.17    3.73
 -14  -2  -6    3.10    3.50
  14   2   7  129.10    7.58
 -14  -2  -7  119.90    7.03
  14   2   8    1.37    3.40
 -14  -2  -8    5.51    4.17
  14   2   9    6.14    3.47
 -14  -2  -9   -1.70    4.57
  14   2  10    4.73    4.06
 -13  -1  23    0.88    4.24
 -13  -1  22   34.78    5.01
 -13  -1  21    3.17    4.35
 -13  -1  20   55.41    4.95
 -13  -1  19   31.08    4.43
 -13  -1  18    3.05    3.24
 -13  -1  17   36.44    4.03
 -13  -1  16   92.64    6.19
  13   1 -15   18.10    4.28
 -13  -1  15   17.04    4.02
  13   1 -14  315.80   14.69
 -13  -1  14  298.90   14.17
  13   1 -13  136.20    7.64
 -13  -1  13  132.20    7.78
  13   1 -12    1.79    3.60
 -13  -1  12    0.82    3.49
  13   1 -11   42.65    4.63
 -13  -1  11   51.29    5.09
  13   1 -10   36.60    4.26
 -13  -1  10   30.58    4.41
  13   1  -9   22.03    3.99
 -13  -1   9   23.80    3.98
  13   1  -8  115.10    6.95
 -13  -1   8  127.60    7.33
  13   1  -7   -2.17    3.74
 -13  -1   7    1.76    3.39
  13   1  -6  286.00   13.55
 -13  -1   6  302.10   14.21
  13   1  -5  120.00    7.15
 -13  -1   5  117.80    7.22
  13   1  -4    1.84    3.76
 -13  -1   4   -0.88    3.60
  13   1  -3  287.60   13.71
 -13  -1   3  379.20   17.40
  13   1  -2   48.91    4.92
 -13  -1   2   54.20    4.90
  13   1  -1   -0.35    3.70
 -13  -1   1   -5.47    3.73
  13   1   0  245.20   11.91
 -13  -1   0  275.20   13.23
  13   1   1    7.63    4.04
 -13  -1  -1    3.50    3.50
  13   1   2   18.72    4.11
 -13  -1  -2   22.98    4.04
  13   1   3  282.30   13.48
 -13  -1  -3  377.80   17.76
  13   1   4   -1.17    3.28
 -13  -1  -4    4.50    3.48
  13   1   5   17.57    4.08
 -13  -1  -5   23.07    3.85
  13   1   6  213.00   10.67
 -13  -1  -6  242.40   11.84
  13   1   7    1.14    3.36
 -13  -1  -7    5.13    3.94
  13   1   8  125.70    7.14
 -13  -1  -8  109.20    6.66
  13   1   9   -0.09    3.39
 -13  -1  -9    0.84    3.52
  13   1  10    2.74    3.81
  13   1  11   18.90    4.33
 -12   0  23    3.48    4.39
 -12   0  22    2.97    4.33
 -12   0  21   -1.01    3.92
 -12   0  20   18.73    4.08
 -12   0  19    5.95    3.91
 -12   0  18  123.30    7.02
 -12   0  17    0.09    3.68
 -12   0  16  195.50    9.92
 -12   0  15    2.06    3.74
  12   0 -14   76.00    6.35
 -12   0  14   52.36    4.78
  12   0 -13   -0.24    3.11
 -12   0  13   -4.43    3.39
  12   0 -12  359.30   16.28
 -12   0  12  401.80   18.23
  12   0 -11   -1.34    3.64
 -12   0  11   -0.72    3.57
  12   0 -10   35.53    4.29
 -12   0  10   33.07    4.11
  12   0  -9   -0.68    3.41
 -12   0   9    5.96    3.70
  12   0  -8    1.79    3.45
 -12   0   8    4.93    3.43
  12   0  -7    5.05    3.56
 -12   0   7    6.75    3.42
  12   0  -6   38.23    4.52
 -12   0   6   37.69    4.30
  12   0  -5   -0.30    3.87
 -12   0   5   -1.50    3.61
  12   0  -4  116.60    7.07
 -12   0   4  134.20    7.65
  12   0  -3    1.92    4.14
 -12   0   3    1.90    3.70
  12   0  -2  769.50   33.23
 -12   0   2  760.40   32.79
  12   0  -1    8.43    3.59
 -12   0   1   -5.02    3.64
  12   0   0   -4.00    3.88
 -12   0   0    4.07    3.57
  12   0   1   -0.84    3.42
 -12   0  -1   -0.29    3.30
  12   0   2  131.00    7.54
 -12   0  -2  124.80    7.27
  12   0   3    8.85    4.13
 -12   0  -3    7.52    3.64
  12   0   4  381.70   17.47
 -12   0  -4  368.10   16.86
  12   0   5    3.55    3.55
 -12   0  -5   -0.06    3.44
  12   0   6   99.45    6.64
 -12   0  -6   97.64    6.36
  12   0   7    2.76    3.47
 -12   0  -7    3.22    3.87
  12   0   8    1.04    3.78
 -12   0  -8    0.31    3.56
  12   0   9   -3.16    3.78
 -12   0  -9    3.09    3.39
  12   0  10  180.60    9.12
  12   0  11   -1.88    3.76
  12   0  12   21.48    4.08
 -11   1  23   13.75    4.57
 -11   1  22   19.70    4.63
 -11   1  21   -1.32    4.28
 -11   1  20   55.54    5.17
 -11   1  19   16.64    4.05
 -11   1  18    2.67    3.42
 -11   1  17   71.55    5.44
 -11   1  16   11.30    3.57
 -11   1  15   48.63    4.57
  11  -1 -14    6.89    3.11
 -11   1  14   10.07    3.45
  11  -1 -13  107.80    6.83
 -11   1  13  109.50    6.71
  11  -1 -12    6.03    3.15
 -11   1  12    2.51    3.01
  11  -1 -11  367.30   16.46
 -11   1  11  347.30   15.86
  11  -1 -10  221.00   10.76
 -11   1  10  233.00   11.43
  11  -1  -9   74.15    5.37
 -11   1   9   65.15    4.92
  11  -1  -8    5.41    3.23
 -11   1   8   10.40    3.28
  11  -1  -7   20.05    3.76
 -11   1   7   14.10    3.58
  11  -1  -6   30.25    4.10
 -11   1   6   25.32    3.82
  11  -1  -5    7.37    3.66
 -11   1   5    5.31    3.78
  11  -1  -4   -0.10    3.75
 -11   1   4   -0.66    3.39
  11  -1  -3  332.10   15.30
 -11   1   3  362.30   16.67
  11  -1  -2   42.29    4.57
 -11   1   2   53.87    5.08
  11  -1  -1  306.80   14.49
 -11   1   1  337.30   15.49
  11  -1   0  716.40   31.02
 -11   1   0  615.00   26.86
  11  -1   1    4.37    3.69
 -11   1  -1    2.35    3.44
  11  -1   2   81.97    5.94
 -11   1  -2   78.70    5.56
  11  -1   3  249.60   12.02
 -11   1  -3  224.50   11.17
  11  -1   4   77.24    5.77
 -11   1  -4   59.36    5.20
  11  -1   5   99.11    6.53
 -11   1  -5   89.37    6.22
  11  -1   6    0.13    3.50
 -11   1  -6    3.16    3.81
  11  -1   7    3.23    3.72
 -11   1  -7    8.23    4.02
  11  -1   8  293.00   13.85
 -11   1  -8  273.90   12.94
  11  -1   9    4.02    3.66
  11  -1  10   14.46    3.83
  11  -1  11   81.15    5.75
  11  -1  12    2.53    3.67
  11  -1  13    3.57    4.21
 -10   2  23   -1.78    4.25
 -10   2  23    0.39    4.72
 -10   2  22   -0.21    4.44
 -10   2  21   30.40    4.44
 -10   2  20   24.95    4.17
 -10   2  19   79.95    5.58
 -10   2  18   32.63    4.24
 -10   2  17   13.75    3.55
 -10   2  16   28.18    3.93
 -10   2  15   77.75    5.60
 -10   2  14   38.21    4.02
  10  -2 -13  275.30   12.75
 -10   2  13  280.90   13.03
  10  -2 -12    6.57    3.37
 -10   2  12    1.73    2.99
  10  -2 -11   15.83    3.66
 -10   2  11   14.64    3.45
  10  -2 -10   22.75    3.51
 -10   2  10   25.34    3.71
  10  -2  -9  615.70   26.63
 -10   2   9  614.50   26.61
  10  -2  -8   22.37    3.81
 -10   2   8   18.19    3.64
  10  -2  -7  210.10   10.40
 -10   2   7  251.40   11.93
  10  -2  -6   38.87    4.18
 -10   2   6   46.02    4.46
  10  -2  -5  330.80   15.23
 -10   2   5  342.60   15.56
  10  -2  -4   65.86    5.26
 -10   2   4   73.83    5.30
  10  -2  -3   80.77    5.76
 -10   2   3   89.62    5.95
  10  -2  -2   26.11    3.90
 -10   2   2   23.63    3.98
  10  -2  -1  427.10   19.17
 -10   2   1  449.70   20.17
  10  -2   0  101.40    6.61
 -10   2   0   93.50    6.06
  10  -2   1  724.70   31.42
 -10   2  -1  705.40   30.46
  10  -2   2   10.41    3.92
 -10   2  -2   11.90    3.85
  10  -2   3  184.90    9.73
 -10   2  -3  196.90   10.05
  10  -2   4   61.32    5.21
 -10   2  -4   57.35    4.86
  10  -2   5    7.50    3.99
 -10   2  -5   10.17    3.83
  10  -2   6   58.27    5.27
 -10   2  -6   60.05    5.28
  10  -2   7   46.71    4.74
 -10   2  -7   42.72    4.95
  10  -2   8    5.18    3.94
 -10   2  -8    1.76    3.66
  10  -2   9   97.03    6.46
  10  -2  10   19.83    3.90
  10  -2  11   77.18    5.41
  10  -2  12    3.87    3.53
  10  -2  13   28.53    4.16
  -9   3  23   22.54    5.08
  -9   3  23   10.48    4.96
  -9   3  22    0.07    3.87
  -9   3  22    3.18    4.19
  -9   3  21    3.31    3.43
  -9   3  21    6.57    4.14
  -9   3  20    4.26    3.77
  -9   3  19  104.00    6.42
  -9   3  18   40.86    4.26
  -9   3  17   81.29    5.43
  -9   3  16    2.59    3.23
  -9   3  15   27.70    3.83
  -9   3  14   17.48    3.32
  -9   3  13   17.52    3.33
   9  -3 -12   88.42    5.76
  -9   3  12   69.80    4.77
   9  -3 -11  334.30   15.24
  -9   3  11  349.50   15.69
   9  -3 -10    6.47    2.94
  -9   3  10    3.96    2.94
   9  -3  -9  394.30   17.27
  -9   3   9  406.20   17.92
   9  -3  -8   23.13    3.21
  -9   3   8   19.66    3.24
   9  -3  -7   46.25    4.41
  -9   3   7   43.14    4.01
   9  -3  -6   16.69    3.51
  -9   3   6    6.44    3.16
   9  -3  -5   92.82    5.72
  -9   3   5   96.30    5.80
   9  -3  -4    5.13    3.22
  -9   3   4   10.11    3.21
   9  -3  -3  491.10   21.64
  -9   3   3  522.90   22.93
   9  -3  -2   31.55    4.16
  -9   3   2   40.49    4.25
   9  -3  -1   29.20    4.05
  -9   3   1   28.36    4.12
   9  -3   0  149.20    8.04
  -9   3   0  129.80    7.40
   9  -3   1  363.00   16.66
  -9   3  -1  416.10   18.88
   9  -3   2   18.46    4.30
  -9   3  -2   15.43    3.74
   9  -3   3  112.50    7.04
  -9   3  -3  105.40    6.51
   9  -3   4   71.71    5.60
  -9   3  -4   86.85    5.83
   9  -3   5   43.16    4.55
  -9   3  -5   47.34    4.86
   9  -3   6  135.10    7.83
  -9   3  -6  125.80    7.53
   9  -3   7   70.12    5.68
  -9   3  -7   50.81    4.84
   9  -3   8    1.29    3.57
   9  -3   9   38.35    4.66
   9  -3  10    3.22    3.58
   9  -3  11   16.52    3.80
   9  -3  12    2.55    3.60
   9  -3  13   24.38    4.00
   9  -3  14    0.44    3.54
  -8   4  22   10.55    4.45
  -8   4  22   16.46    4.76
  -8   4  21   -0.19    3.27
  -8   4  21    2.79    4.09
  -8   4  20    0.68    3.23
  -8   4  20   -0.74    3.41
  -8   4  19    5.85    3.23
  -8   4  19    4.83    3.69
  -8   4  18   35.86    3.92
  -8   4  17    6.47    3.16
  -8   4  16  287.90   13.19
  -8   4  15   14.59    3.13
  -8   4  14   89.37    5.41
  -8   4  13  242.40   11.20
  -8   4  12   32.56    3.39
   8  -4 -11   33.77    3.36
  -8   4  11   41.53    3.47
   8  -4 -10  320.10   14.55
  -8   4  10  300.50   13.49
   8  -4  -9  508.00   22.04
  -8   4   9  513.20   22.23
   8  -4  -8  738.10   31.36
  -8   4   8  621.00   26.57
   8  -4  -7  785.60   33.53
  -8   4   7  674.50   28.82
   8  -4  -6  152.70    7.85
  -8   4   6  126.90    6.78
   8  -4  -5  212.50   10.32
  -8   4   5  212.70   10.21
   8  -4  -4  407.50   18.06
  -8   4   4  415.00   18.36
   8  -4  -3   -3.91    2.95
  -8   4   3    4.09    2.95
   8  -4  -2   29.33    3.70
  -8   4   2   36.33    3.92
   8  -4  -1    3.86    3.64
  -8   4   1   16.00    3.60
   8  -4   0  147.10    8.08
  -8   4   0   87.76    5.80
   8  -4   1  301.50   14.09
  -8   4  -1  265.90   12.77
   8  -4   2   43.32    4.55
  -8   4  -2   51.33    4.64
   8  -4   3  104.60    6.68
  -8   4  -3   97.72    6.12
   8  -4   4  251.60   12.15
  -8   4  -4  249.10   12.14
   8  -4   5   52.83    5.09
  -8   4  -5   66.95    5.29
   8  -4   6   18.33    4.14
  -8   4  -6   21.57    4.56
   8  -4   7   31.52    4.77
   8  -4   8    4.10    4.23
   8  -4   9   12.90    3.98
   8  -4  10  121.60    7.39
   8  -4  11   11.72    3.65
   8  -4  12   42.77    4.38
   8  -4  13   13.67    3.66
   8  -4  14    9.20    3.56
   8  -4  15   13.83    4.00
  -7   5  22    4.01    4.30
  -7   5  22   11.30    4.91
  -7   5  21   -4.62    3.91
  -7   5  21    2.90    3.93
  -7   5  20   25.72    3.83
  -7   5  20   26.10    4.14
  -7   5  19    4.01    3.29
  -7   5  19   -7.03    3.01
  -7   5  18   32.51    3.58
  -7   5  18   23.08    3.27
  -7   5  17   -0.22    2.59
  -7   5  17    0.14    2.73
  -7   5  16   19.64    2.92
  -7   5  15   26.35    3.19
  -7   5  14  344.80   15.22
  -7   5  13   21.49    2.78
  -7   5  12  349.50   15.36
  -7   5  11    0.60    2.14
   7  -5 -10   60.79    3.95
  -7   5  10   64.09    3.97
   7  -5  -9   10.52    2.57
  -7   5   9    6.21    2.28
   7  -5  -8   39.40    3.20
  -7   5   8   41.08    3.32
   7  -5  -7   59.56    3.84
  -7   5   7   53.72    3.81
   7  -5  -6 3396.00  140.70
  -7   5   6 3521.00  145.80
   7  -5  -5    7.53    2.86
  -7   5   5    3.11    2.76
   7  -5  -4  155.40    8.03
  -7   5   4  145.90    7.50
   7  -5  -3   74.03    4.92
  -7   5   3   77.63    4.98
   7  -5  -2   66.88    4.97
  -7   5   2   76.46    5.16
   7  -5  -1   43.28    4.20
  -7   5   1   48.48    4.50
   7  -5   0 1135.00   48.07
  -7   5   0  883.90   38.02
   7  -5   1   22.93    4.36
  -7   5  -1   15.78    3.75
   7  -5   2    0.66    3.69
  -7   5  -2    3.63    3.32
   7  -5   3   28.69    4.20
  -7   5  -3   26.83    4.06
   7  -5   4  250.10   12.23
  -7   5  -4  191.90    9.80
   7  -5   5    9.80    3.67
  -7   5  -5    4.26    3.70
   7  -5   6    4.56    3.48
   7  -5   7   24.54    4.51
   7  -5   8  202.40   10.48
   7  -5   9    4.36    3.62
   7  -5  10  166.40    9.06
   7  -5  11   -4.32    3.95
   7  -5  12   19.39    4.18
   7  -5  13    2.73    3.74
   7  -5  14   18.11    3.75
   7  -5  15   -0.68    3.62
  -6   6  21    8.77    3.95
  -6   6  21    6.20    3.93
  -6   6  20    3.70    3.44
  -6   6  20    2.18    3.29
  -6   6  19   36.93    3.43
  -6   6  19   38.76    3.89
  -6   6  18   21.93    3.01
  -6   6  18   16.62    3.07
  -6   6  17    8.65    2.49
  -6   6  17    7.20    2.76
  -6   6  16   90.63    4.87
  -6   6  16   85.94    4.68
  -6   6  15   16.69    2.46
  -6   6  15   18.56    2.48
  -6   6  14  106.80    5.44
  -6   6  14  104.80    5.33
  -6   6  13  793.40   33.33
  -6   6  12   36.60    2.76
  -6   6  11  148.50    6.85
  -6   6  10  257.20   11.23
   6  -6  -9    5.83    1.94
  -6   6   9    2.89    1.87
   6  -6  -8  438.70   18.77
  -6   6   8  440.40   18.77
   6  -6  -7  205.70    9.25
  -6   6   7  211.90    9.51
   6  -6  -6  179.20    8.25
  -6   6   6  167.60    7.88
   6  -6  -5  636.30   27.02
  -6   6   5  633.80   26.94
   6  -6  -4  195.00    9.25
  -6   6   4  223.50   10.33
   6  -6  -3   52.52    4.22
  -6   6   3   55.40    4.22
   6  -6  -2  163.00    8.38
  -6   6   2  121.90    6.76
   6  -6  -1   54.32    4.53
  -6   6   1   53.63    4.47
   6  -6   0    1.28    3.01
  -6   6   0   -2.48    2.97
   6  -6   1   55.21    4.92
  -6   6  -1   67.27    4.94
   6  -6   2  377.10   17.24
  -6   6  -2  455.80   20.30
   6  -6   3   81.32    5.72
  -6   6  -3   82.56    5.79
   6  -6   4    6.67    3.42
   6  -6   5   19.52    4.14
   6  -6   6  156.50    8.54
   6  -6   7   -1.32    3.67
   6  -6   8   19.43    4.27
   6  -6   9  118.50    7.25
   6  -6  10   65.02    5.53
   6  -6  11   52.89    5.07
   6  -6  12  144.70    8.20
   6  -6  13   36.67    4.32
   6  -6  14   43.80    4.85
   6  -6  15    9.71    3.94
   6  -6  16   -4.60    4.10
  -5   7  19    0.54    2.10
  -5   7  19    4.66    2.24
  -5   7  18    1.31    2.01
  -5   7  18    0.93    2.03
  -5   7  17   96.81    4.78
  -5   7  17  100.60    4.92
  -5   7  16    5.76    1.84
  -5   7  16    5.56    1.78
  -5   7  15  132.60    6.07
  -5   7  15  141.80    6.44
  -5   7  14   63.42    3.25
  -5   7  14   56.09    2.97
  -5   7  13  444.90   18.87
  -5   7  13  458.10   19.38
  -5   7  12   82.13    3.80
  -5   7  12   83.98    3.88
  -5   7  11   91.15    4.13
  -5   7  11   88.06    3.98
  -5   7  10    2.59    1.01
  -5   7   9  291.60   12.42
   5  -7  -8    0.95    1.27
  -5   7   8    1.77    1.26
   5  -7  -7  449.70   19.00
  -5   7   7  453.80   19.16
   5  -7  -6   73.83    3.98
  -5   7   6   71.39    3.86
   5  -7  -5    0.29    1.91
  -5   7   5    2.62    2.06
   5  -7  -4    4.47    2.25
  -5   7   4    9.61    2.47
   5  -7  -3  181.80    8.68
  -5   7   3  205.00    9.58
   5  -7  -2   36.07    3.78
  -5   7   2   32.58    3.43
   5  -7  -1  509.70   22.27
  -5   7   1  480.20   20.99
   5  -7   0   64.64    4.78
  -5   7   0   63.49    4.79
   5  -7   1   20.84    3.49
  -5   7  -1   18.42    3.33
   5  -7   2   68.09    5.05
   5  -7   3  175.70    9.59
   5  -7   4  118.00    7.34
   5  -7   5  355.80   16.33
   5  -7   6    4.52    3.55
   5  -7   7  362.80   16.76
   5  -7   8   40.66    4.99
   5  -7   9   33.31    4.90
   5  -7  10    3.64    3.74
   5  -7  11  278.70   13.30
   5  -7  12   47.53    4.77
   5  -7  13  199.40   10.13
   5  -7  14    0.41    3.99
   5  -7  15   37.72    4.43
   5  -7  16    0.51    3.80
   4  -8  -6  176.60    7.69
   4  -8  -5   21.84    2.19
   4  -8  -4    5.49    1.94
   4  -8  -3  141.70    6.80
   4  -8  -2  425.50   18.50
   4  -8  -1   16.53    3.03
   4  -8   0  434.30   19.21
   4  -8   1  248.20   11.83
   4  -8   2   45.20    4.49
   4  -8   3  361.80   16.33
   4  -8   4   76.11    6.15
   4  -8   5   -4.91    4.30
   4  -8   6  660.60   29.17
   4  -8   7   34.88    4.33
   4  -8   8  163.60    9.13
   4  -8   9  204.50   10.58
   4  -8  10  108.40    6.88
   4  -8  11  115.80    7.27
   4  -8  12  274.40   13.10
   4  -8  13   22.43    4.43
   4  -8  14   15.08    4.04
   4  -8  15   24.09    3.91
   4  -8  16   17.23    4.07
   3  -9  -5    8.55    1.62
   3  -9  -4  590.60   24.99
   3  -9  -3   87.54    4.72
   3  -9  -2  126.30    6.42
   3  -9  -1    4.06    2.53
   3  -9   0  448.40   19.59
   3  -9   1   34.40    3.88
   3  -9   2  624.00   27.20
   3  -9   3    2.33    3.39
   3  -9   4  162.40    8.54
   3  -9   5   21.92    3.70
   3  -9   6    5.24    3.84
   3  -9   7   -1.57    3.54
   3  -9   8  337.10   15.61
   3  -9   9   -0.36    3.65
   3  -9  10  152.10    8.40
   3  -9  11   44.61    5.30
   3  -9  12   33.67    4.57
   3  -9  13    5.65    3.89
   3  -9  14    1.80    3.77
   3  -9  15   13.47    3.79
   3  -9  16   32.59    4.28
   3  -9  17   -2.13    3.77
   2 -10  -5   48.88    2.58
   2 -10  -5   50.52    2.52
   2 -10  -4   21.72    2.20
   2 -10  -4   26.61    2.29
   2 -10  -3  153.10    7.23
   2 -10  -2  272.50   12.30
   2 -10  -1  124.70    6.65
   2 -10   0  830.50   35.13
   2 -10   1   78.68    5.00
   2 -10   2   24.65    3.62
   2 -10   3   29.11    3.80
   2 -10   4   34.66    4.36
   2 -10   5   67.60    5.32
   2 -10   6  585.40   25.59
   2 -10   7   54.65    4.94
   2 -10   8  230.10   11.55
   2 -10   9  149.20    8.16
   2 -10  10    3.27    3.55
   2 -10  11    3.85    3.53
   2 -10  12   68.96    5.35
   2 -10  13   22.68    3.99
   2 -10  14   44.57    5.32
   2 -10  15   63.43    5.45
   2 -10  16    5.78    3.91
   2 -10  17   17.11    4.12
   1 -11  -4    6.44    1.58
   1 -11  -4   12.04    1.72
   1 -11  -3   27.60    2.45
   1 -11  -3   27.42    2.76
   1 -11  -2  354.10   15.55
   1 -11  -2  347.70   15.19
   1 -11  -1  639.00   27.39
   1 -11   0  192.90    9.45
   1 -11   1  238.90   11.51
   1 -11   2   22.85    3.32
   1 -11   3   50.13    4.15
   1 -11   4  170.20    8.93
   1 -11   5  249.50   12.21
   1 -11   6   24.21    4.35
   1 -11   7  461.00   20.63
   1 -11   8    1.60    3.32
   1 -11   9   73.87    5.83
   1 -11  10   20.31    3.90
   1 -11  11   52.52    4.66
   1 -11  12    2.54    3.57
   1 -11  13  157.40    8.63
   1 -11  14   10.76    3.46
   1 -11  15   78.79    5.53
   1 -11  16    1.31    4.39
   1 -11  17    6.65    3.90
   0 -12  -4    1.85    1.69
   0 -12  -4    1.18    1.89
   0 -12  -3  162.70    7.60
   0 -12  -3  162.80    7.55
   0 -12   0   14.62    2.82
   0 -12   0   21.57    3.44
   0 -12   1  218.10   10.86
   0 -12   1  195.90    9.68
   0 -12   4   -2.34    2.93
   0 -12   5  312.80   14.42
   0 -12   6   35.95    4.25
   0 -12   7    0.96    3.66
   0 -12   8   18.72    3.68
   0 -12   9    4.30    3.54
   0 -12  10    6.94    3.88
   0 -12  11  124.90    7.22
   0 -12  12    6.93    3.50
   0 -12  13    7.26    3.72
   0 -12  14    8.60    3.60
   0 -12  15   -2.09    3.47
   0 -12  16   37.91    4.34
   0 -12  17   31.29    4.09
   0 -12  17   28.84    4.34
  -1 -13  -4  161.90    7.33
  -1 -13  -4  179.40    8.06
  -1 -13  -3   46.86    3.32
  -1 -13  -3   45.33    3.30
  -1 -13  -2   45.41    3.63
  -1 -13  -2   44.27    3.52
  -1 -13  -1   84.48    5.13
  -1 -13   0   21.60    3.31
  -1 -13   1   42.26    3.93
  -1 -13   2   14.76    3.66
  -1 -13   3   31.26    3.93
  -1 -13   4   70.73    5.49
  -1 -13   5   -0.12    3.94
  -1 -13   6   77.12    5.69
  -1 -13   8   22.30    4.08
  -1 -13   9   -1.65    3.67
  -1 -13  10   26.24    4.30
  -1 -13  11   17.51    4.04
  -1 -13  12   20.11    3.78
  -1 -13  13   45.70    4.65
  -1 -13  13   31.97    4.03
  -1 -13  14   -3.61    3.56
  -1 -13  14    0.42    3.77
  -1 -13  15   11.43    3.60
  -1 -13  15    5.88    3.96
  -1 -13  16   -4.57    3.61
  -1 -13  16   -2.35    3.77
  -1 -13  17    0.03    3.55
  -1 -13  17   -0.86    4.21
  -2 -14  -3    1.56    2.06
  -2 -14  -2   28.45    3.47
  -2 -14  -1   18.61    3.32
  -2 -14   0   62.98    4.57
  -2 -14   1  275.00   13.01
  -2 -14   2  185.90    9.41
  -2 -14   3    3.08    3.48
  -2 -14   4   53.70    4.80
  -2 -14   5    1.53    3.55
  -2 -14   6   79.14    6.16
  -2 -14   7    0.96    3.74
  -2 -14   8   80.13    6.07
  -2 -14   9   17.89    4.71
  -2 -14  10   25.53    4.35
  -2 -14  10   27.74    4.53
  -2 -14  11   17.32    4.17
  -2 -14  11   17.50    4.74
  -2 -14  12   12.20    3.84
  -2 -14  12    6.42    4.27
  -2 -14  13    3.89    4.07
  -2 -14  13    2.22    4.32
  -2 -14  15    2.75    3.41
  -2 -14  15   -1.31    3.73
  -2 -14  16    6.16    3.83
  -2 -14  16    4.77    3.55
  -3 -15  -4   42.89    2.95
  -3 -15  -4   47.07    3.11
  -3 -15  -3   10.98    2.74
  -3 -15  -2   43.92    3.63
  -3 -15  -1   65.13    4.74
  -3 -15   0   -1.70    3.10
  -3 -15   1   42.11    4.08
  -3 -15   2   -3.84    3.33
  -3 -15   3   85.35    5.87
  -3 -15   4   74.58    5.68
  -3 -15   5    7.45    3.93
  -3 -15   6   65.78    5.26
  -3 -15   7   46.06    4.81
  -3 -15   8    0.74    4.20
  -3 -15   9  175.70    9.44
  -3 -15  10   94.69    6.25
  -3 -15  11   27.83    3.91
  -3 -15  11   26.93    4.39
  -3 -15  12   42.79    4.45
  -3 -15  12   57.59    5.04
  -3 -15  14    1.25    2.97
  -3 -15  14   -0.15    3.70
  -3 -15  15   26.35    3.74
  -3 -15  15   27.97    4.40
  -3 -15  16   11.16    3.72
  -3 -15  16   14.91    3.63
  -4 -16  -5   22.33    1.73
  -4 -16  -4    6.08    2.08
  -4 -16  -4    6.59    2.14
  -4 -16  -3   46.65    3.78
  -4 -16  -2    6.75    2.67
  -4 -16  -1  141.60    7.33
  -4 -16   0   41.06    4.07
  -4 -16   1    9.14    3.27
  -4 -16   2   28.43    3.95
  -4 -16   3   60.50    4.86
  -4 -16   4    2.24    3.43
  -4 -16   5  193.50    9.95
  -4 -16   6   -2.38    3.61
  -4 -16   7   50.28    5.04
  -4 -16   8    9.73    3.91
  -4 -16   9   17.06    3.92
  -4 -16  10    8.62    3.66
  -4 -16  11  113.20    7.02
  -4 -16  12    4.90    3.25
  -4 -16  12    6.11    3.61
  -4 -16  13   51.63    4.92
  -4 -16  13   53.05    4.45
  -4 -16  14    0.34    3.53
  -4 -16  14   -2.73    3.46
  -4 -16  15    0.97    3.53
  -4 -16  15    4.45    3.46
  -5 -17  -4   33.43    3.03
  -5 -17  -4   38.98    3.22
  -5 -17  -3    3.83    2.87
  -5 -17  -2   29.22    3.51
  -5 -17  -1    0.75    3.20
  -5 -17   0    3.09    3.12
  -5 -17   1   95.87    5.87
  -5 -17   2    2.84    3.50
  -5 -17   3   58.32    4.94
  -5 -17   4  114.90    6.78
  -5 -17   5    4.09    3.67
  -5 -17   6   50.80    4.90
  -5 -17   7   55.78    4.99
  -5 -17   8   -1.27    3.82
  -5 -17   9   50.12    5.19
  -5 -17  10   10.00    4.33
  -5 -17  11   25.20    4.15
  -5 -17  12   24.08    4.28
  -5 -17  13   16.64    3.62
  -5 -17  13   10.61    3.71
  -5 -17  14    1.70    3.39
  -5 -17  14   -0.70    3.47
  -6 -18  -4   36.60    3.36
  -6 -18  -4   36.07    3.34
  -6 -18  -3    7.45    3.02
  -6 -18  -2    5.52    3.25
  -6 -18  -1    4.37    3.39
  -6 -18   0   13.69    3.66
  -6 -18   1   15.41    3.95
  -6 -18   2   48.99    4.85
  -6 -18   3    3.82    3.41
  -6 -18   4   31.64    4.26
  -6 -18   5   -3.35    3.72
  -6 -18   6    4.07    3.97
  -6 -18   7    4.19    3.69
  -6 -18   8  146.80    8.14
  -6 -18   9    1.35    4.44
  -6 -18  10   12.40    4.52
  -6 -18  11    1.75    4.18
  -6 -18  12    1.49    4.23
  -6 -18  13   -9.60    3.45
  -7 -19  -3   -1.63    3.59
  -7 -19  -2   -9.97    4.03
  -7 -19  -1   -4.13    3.87
  -7 -19   0    5.12    3.88
  -7 -19   1   -0.23    4.05
  -7 -19   2    2.33    3.82
  -7 -19   3    2.72    3.77
  -7 -19   4   25.78    4.69
  -7 -19   5    7.48    3.78
  -7 -19   6    7.16    3.51
  -7 -19   7    3.88    4.28
  -7 -19   8   -3.40    4.05
  -7 -19   9   22.33    4.56
  -7 -19  10   10.92    3.72
  -7 -19  11    2.18    3.63
  -7 -19  12   16.83    3.95
  -8 -20  -1    4.34    5.26
  -8 -20   0   11.77    4.59
  -8 -20   1   11.14    4.60
  -8 -20   2    9.74    4.70
  -8 -20   3    3.82    4.17
  -8 -20   4    4.74    4.47
  -8 -20   5   70.40    5.98
  -8 -20   6    2.01    4.40
  -8 -20   7    8.46    4.12
  -8 -20   8   10.64    4.17
  -8 -20   9   10.59    4.23
  22   8 -16    5.90    3.79
 -22  -8  16    0.79    3.85
  22   8 -15    5.59    3.65
 -22  -8  15   11.60    3.90
  22   8 -14    5.04    3.86
 -22  -8  14    4.61    3.47
  22   8 -13    3.84    3.49
 -22  -8  13   12.13    3.80
  22   8 -12   13.68    4.05
 -22  -8  12   17.45    3.79
  22   8 -11   28.84    4.66
 -22  -8  11   27.61    4.07
  22   8 -10   -2.56    3.66
 -22  -8  10    2.07    4.00
  22   8  -9   13.77    4.10
 -22  -8   9    9.18    3.85
  22   8  -8    1.00    3.65
 -22  -8   8   -2.26    3.91
  22   8  -7   -5.63    3.68
 -22  -8   7    7.57    3.90
  22   8  -6   37.99    4.43
 -22  -8   6   15.08    4.54
  22   8  -5    1.40    3.51
 -22  -8   5    5.88    4.38
 -21  -7  18    4.30    3.85
  21   7 -17    3.48    3.70
 -21  -7  17    0.09    3.85
  21   7 -16   -2.03    3.48
 -21  -7  16   -3.44    3.48
  21   7 -15   30.21    3.93
 -21  -7  15   16.30    4.01
  21   7 -14   -2.66    3.41
 -21  -7  14    8.48    3.72
  21   7 -13   70.82    5.55
 -21  -7  13   78.52    5.57
  21   7 -12   -0.38    3.95
 -21  -7  12   -2.11    3.45
  21   7 -11   15.27    4.32
 -21  -7  11   13.53    3.63
  21   7 -10   -3.21    3.84
 -21  -7  10    5.81    3.97
  21   7  -9    6.43    4.02
 -21  -7   9    6.42    3.95
  21   7  -8   -0.97    3.98
 -21  -7   8    3.68    3.78
  21   7  -7   41.37    4.72
 -21  -7   7   34.48    4.50
  21   7  -6   -2.09    3.72
 -21  -7   6   10.07    3.97
  21   7  -5   63.24    5.31
 -21  -7   5   60.47    5.23
  21   7  -4    2.82    3.78
 -21  -7   4    6.32    3.79
  21   7  -3   18.53    4.44
 -21  -7   3   12.24    3.99
  21   7  -2   -3.40    3.61
 -21  -7   2    4.13    4.55
 -20  -6  20   14.48    4.20
 -20  -6  19   11.72    4.20
 -20  -6  18   -1.53    3.88
  20   6 -17   60.32    5.50
 -20  -6  17   52.75    5.02
  20   6 -16    6.96    4.28
 -20  -6  16   -2.38    4.19
  20   6 -15   29.31    4.25
 -20  -6  15   21.64    4.22
  20   6 -14    2.54    3.56
 -20  -6  14    1.19    3.67
  20   6 -13    0.94    3.36
 -20  -6  13    6.94    3.68
  20   6 -12   11.79    4.14
 -20  -6  12   10.71    3.73
  20   6 -11   22.76    4.53
 -20  -6  11    3.30    3.68
  20   6 -10   61.66    5.25
 -20  -6  10   51.55    4.98
  20   6  -9   86.74    6.25
 -20  -6   9   87.44    6.24
  20   6  -8    3.79    3.84
 -20  -6   8    7.59    3.89
  20   6  -7   30.28    4.47
 -20  -6   7   28.68    4.45
  20   6  -6   46.53    4.96
 -20  -6   6   44.60    4.66
  20   6  -5   -0.32    4.35
 -20  -6   5    0.21    3.68
  20   6  -4   -6.40    4.19
 -20  -6   4    4.03    4.23
  20   6  -3   53.72    5.04
 -20  -6   3   56.43    5.02
  20   6  -2    7.51    3.83
 -20  -6   2    9.62    4.05
  20   6  -1   -2.71    3.99
 -20  -6   1   10.05    4.17
  20   6   0   13.23    4.32
 -20  -6   0    5.74    4.21
  20   6   1    4.23    4.00
 -20  -6  -1   -1.72    4.01
 -19  -5  21   -0.56    4.38
 -19  -5  20   -0.62    3.99
 -19  -5  19   -2.69    3.86
 -19  -5  18   37.18    4.66
  19   5 -17   -6.01    3.93
 -19  -5  17   -6.02    3.76
  19   5 -16   95.77    6.27
 -19  -5  16  100.50    6.50
  19   5 -15    1.70    3.88
 -19  -5  15   -3.11    3.70
  19   5 -14   18.59    3.78
 -19  -5  14   30.29    4.25
  19   5 -13    5.46    3.58
 -19  -5  13   11.77    3.87
  19   5 -12    4.80    3.81
 -19  -5  12    3.18    4.02
  19   5 -11    1.10    3.86
 -19  -5  11   -4.28    3.83
  19   5 -10   67.69    5.54
 -19  -5  10   53.61    4.85
  19   5  -9   10.32    4.09
 -19  -5   9   10.70    3.89
  19   5  -8  224.50   11.27
 -19  -5   8  246.00   11.93
  19   5  -7   -3.08    3.73
 -19  -5   7    0.94    4.00
  19   5  -6   35.43    4.99
 -19  -5   6   31.76    4.45
  19   5  -5   22.09    4.37
 -19  -5   5   11.18    4.07
  19   5  -4   26.26    4.65
 -19  -5   4   39.52    4.57
  19   5  -3   -0.18    4.26
 -19  -5   3    5.70    3.90
  19   5  -2   91.18    6.29
 -19  -5   2  135.60    7.72
  19   5  -1    7.48    4.38
 -19  -5   1   10.26    4.36
  19   5   0   40.91    5.07
 -19  -5   0   34.61    4.32
  19   5   1   13.52    4.26
 -19  -5  -1    5.89    3.91
  19   5   2    1.80    4.03
 -19  -5  -2    0.98    3.63
  19   5   3    4.54    3.84
 -19  -5  -3   -1.14    3.81
 -18  -4  22    1.30    3.80
 -18  -4  21    2.07    4.45
 -18  -4  20   17.69    4.32
 -18  -4  19   -2.97    3.82
 -18  -4  18   39.34    4.61
  18   4 -17    6.16    4.08
 -18  -4  17    3.49    4.16
  18   4 -16    6.03    3.68
 -18  -4  16    0.39    3.64
  18   4 -15   39.27    4.51
 -18  -4  15   35.10    4.70
  18   4 -14   25.97    4.39
 -18  -4  14   32.76    4.29
  18   4 -13   25.56    4.71
 -18  -4  13   21.31    3.84
  18   4 -12  106.50    6.79
 -18  -4  12   88.95    6.15
  18   4 -11   26.25    3.98
 -18  -4  11   30.08    4.24
  18   4 -10   32.08    4.49
 -18  -4  10   27.00    4.47
  18   4  -9   26.59    4.44
 -18  -4   9   12.89    3.87
  18   4  -8    1.89    3.78
 -18  -4   8   -2.11    3.56
  18   4  -7   26.43    4.99
 -18  -4   7   20.68    4.20
  18   4  -6  122.20    7.48
 -18  -4   6  124.40    7.58
  18   4  -5   40.42    4.88
 -18  -4   5   49.98    4.99
  18   4  -4  104.60    7.16
 -18  -4   4  128.10    7.49
  18   4  -3   26.58    4.63
 -18  -4   3   18.44    4.25
  18   4  -2    3.99    3.98
 -18  -4   2   -0.20    3.59
  18   4  -1   -3.16    3.63
 -18  -4   1    1.11    3.94
  18   4   0   30.47    4.58
 -18  -4   0   44.08    4.56
  18   4   1    2.09    4.39
 -18  -4  -1   -5.18    3.50
  18   4   2   74.41    5.88
 -18  -4  -2   90.44    6.04
  18   4   3    2.59    4.04
 -18  -4  -3    0.92    3.73
  18   4   4   25.11    4.33
 -18  -4  -4   18.53    4.70
  18   4   5    2.85    4.27
 -18  -4  -5   29.60    4.55
 -17  -3  22    2.91    3.99
 -17  -3  21   39.40    4.76
 -17  -3  20    3.70    3.96
 -17  -3  19   49.82    5.23
 -17  -3  18    3.44    3.94
  17   3 -17   40.03    4.62
 -17  -3  17   38.33    4.45
  17   3 -16  111.90    6.91
 -17  -3  16   97.91    6.25
  17   3 -15   23.17    4.53
 -17  -3  15   29.91    4.25
  17   3 -14   10.77    4.15
 -17  -3  14   10.83    3.94
  17   3 -13   34.20    4.60
 -17  -3  13   46.08    4.82
  17   3 -12   -1.85    3.72
 -17  -3  12    5.98    3.72
  17   3 -11   54.13    5.51
 -17  -3  11   40.36    4.71
  17   3 -10   25.05    4.34
 -17  -3  10   24.06    4.19
  17   3  -9    5.66    3.95
 -17  -3   9    3.97    3.76
  17   3  -8   14.33    4.34
 -17  -3   8   10.34    3.84
  17   3  -7   35.10    4.75
 -17  -3   7   42.09    4.77
  17   3  -6   81.12    6.18
 -17  -3   6   96.61    6.73
  17   3  -5   65.73    6.21
 -17  -3   5   57.67    5.18
  17   3  -4   56.79    5.76
 -17  -3   4   42.75    4.75
  17   3  -3   51.30    5.17
 -17  -3   3   38.89    4.66
  17   3  -2    3.00    3.81
 -17  -3   2    7.78    3.85
  17   3  -1   90.23    6.20
 -17  -3   1   84.78    6.31
  17   3   0   57.02    5.17
 -17  -3   0   60.92    5.37
  17   3   1   29.91    4.30
 -17  -3  -1   31.72    4.24
  17   3   2   11.33    3.90
 -17  -3  -2    8.82    3.63
  17   3   3   25.87    4.28
 -17  -3  -3   21.22    3.96
  17   3   4    5.00    4.27
 -17  -3  -4    5.78    4.02
  17   3   5   20.89    4.26
 -17  -3  -5   27.86    4.53
  17   3   6    9.17    4.27
 -17  -3  -6    1.79    3.83
 -16  -2  23   17.33    4.65
 -16  -2  22    6.25    4.38
 -16  -2  21   80.27    5.86
 -16  -2  20    9.74    4.29
 -16  -2  19   -6.71    3.67
 -16  -2  18    4.00    3.64
  16   2 -17   81.68    5.91
 -16  -2  17   76.68    5.47
  16   2 -16   16.91    4.30
 -16  -2  16   12.87    3.84
  16   2 -15  104.20    6.54
 -16  -2  15   83.37    6.07
  16   2 -14    1.73    3.83
 -16  -2  14   -7.85    3.94
  16   2 -13   84.50    6.54
 -16  -2  13   70.08    5.74
  16   2 -12   -8.40    3.83
 -16  -2  12    3.83    3.58
  16   2 -11   26.58    4.21
 -16  -2  11   21.45    4.04
  16   2 -10    2.04    3.71
 -16  -2  10   -3.05    3.69
  16   2  -9  177.30    9.75
 -16  -2   9  165.70    8.98
  16   2  -8   30.50    4.36
 -16  -2   8   24.51    4.13
  16   2  -7   11.42    4.29
 -16  -2   7   15.22    4.67
  16   2  -6   -5.15    4.54
 -16  -2   6    6.78    4.17
  16   2  -5   28.13    4.59
 -16  -2   5   32.00    4.45
  16   2  -4   -3.90    3.83
 -16  -2   4    2.64    3.74
  16   2  -3  117.60    7.48
 -16  -2   3  109.40    7.13
  16   2  -2    4.98    3.67
 -16  -2   2   -4.57    3.60
  16   2  -1   96.87    6.51
 -16  -2   1  112.00    7.07
  16   2   0   61.97    5.46
 -16  -2   0   59.73    5.29
  16   2   1   32.46    4.53
 -16  -2  -1   35.36    4.60
  16   2   2   12.44    3.99
 -16  -2  -2   12.37    4.07
  16   2   3   52.11    5.03
 -16  -2  -3   49.31    4.69
  16   2   4    7.87    4.16
 -16  -2  -4    8.36    3.75
  16   2   5   58.07    5.17
 -16  -2  -5   49.36    4.95
  16   2   6   11.95    4.05
 -16  -2  -6   -0.19    3.71
  16   2   7   61.67    5.36
 -16  -2  -7   54.25    5.33
  16   2   8   -0.01    4.05
 -16  -2  -8   -0.11    4.00
 -15  -1  23    3.04    3.83
 -15  -1  22   55.43    5.05
 -15  -1  21   -4.91    3.92
 -15  -1  20   54.46    5.25
 -15  -1  19   75.83    5.57
 -15  -1  18   14.74    3.63
 -15  -1  17   19.17    3.87
  15   1 -16   36.13    5.01
 -15  -1  16   47.57    4.78
  15   1 -15    6.84    4.19
 -15  -1  15   14.19    4.09
  15   1 -14   77.90    5.55
 -15  -1  14   54.92    5.14
  15   1 -13  186.30    9.89
 -15  -1  13  170.90    9.35
  15   1 -12    0.42    3.81
 -15  -1  12   -2.29    3.70
  15   1 -11   53.88    5.18
 -15  -1  11   66.04    5.59
  15   1 -10   25.94    4.26
 -15  -1  10   34.85    4.76
  15   1  -9   12.44    4.10
 -15  -1   9   20.67    3.95
  15   1  -8   80.13    6.19
 -15  -1   8   64.98    5.51
  15   1  -7   22.02    4.65
 -15  -1   7   21.61    4.20
  15   1  -6    4.06    4.06
 -15  -1   6    4.19    4.24
  15   1  -5   37.37    5.04
 -15  -1   5   39.02    4.57
  15   1  -4   14.35    4.13
 -15  -1   4   20.82    4.37
  15   1  -3   81.09    6.00
 -15  -1   3   86.53    6.31
  15   1  -2  117.50    7.56
 -15  -1   2  116.90    7.10
  15   1  -1    2.93    3.84
 -15  -1   1    7.73    3.91
  15   1   0  120.40    7.57
 -15  -1   0  126.20    7.46
  15   1   1    4.98    3.99
 -15  -1  -1   12.11    4.07
  15   1   2    9.37    3.69
 -15  -1  -2    3.89    3.70
  15   1   3  187.30    9.65
 -15  -1  -3  182.90    9.54
  15   1   4   29.67    4.24
 -15  -1  -4   36.46    4.94
  15   1   5    3.96    4.04
 -15  -1  -5    2.89    3.99
  15   1   6   33.30    4.17
 -15  -1  -6   27.44    3.96
  15   1   7    1.20    3.86
 -15  -1  -7   -2.60    3.92
  15   1   8   30.19    4.35
 -15  -1  -8   28.91    4.46
  15   1   9    2.05    3.91
 -15  -1  -9    3.61    4.14
 -14   0  23    0.35    4.48
 -14   0  22    7.44    4.39
 -14   0  21   -3.13    4.28
 -14   0  20   42.56    4.83
 -14   0  19   -1.07    3.72
 -14   0  18  149.80    8.07
 -14   0  17   -2.85    3.28
  14   0 -16   11.49    3.75
 -14   0  16   17.94    3.96
  14   0 -15    2.02    3.75
 -14   0  15    1.95    3.74
  14   0 -14  209.10   10.66
 -14   0  14  221.00   11.23
  14   0 -13    2.42    3.58
 -14   0  13    8.01    4.11
  14   0 -12  256.20   12.28
 -14   0  12  266.10   12.93
  14   0 -11    0.48    3.58
 -14   0  11    4.54    3.82
  14   0 -10   98.73    6.81
 -14   0  10   89.30    6.18
  14   0  -9    5.68    3.60
 -14   0   9    6.14    3.71
  14   0  -8   39.11    4.45
 -14   0   8   40.35    4.48
  14   0  -7   -5.49    3.90
 -14   0   7   -1.58    3.77
  14   0  -6  462.60   20.89
 -14   0   6  482.80   21.54
  14   0  -5    3.37    3.47
 -14   0   5   -2.79    3.43
  14   0  -4  502.20   22.48
 -14   0   4  451.40   20.26
  14   0  -3   -1.95    4.15
 -14   0   3    3.97    3.67
  14   0  -2  143.60    8.34
 -14   0   2  148.30    8.35
  14   0  -1    1.52    3.76
 -14   0   1    3.65    4.12
  14   0   0   18.83    4.20
 -14   0   0   13.53    4.10
  14   0   1   -1.74    3.59
 -14   0  -1    4.55    3.88
  14   0   2  218.70   11.38
 -14   0  -2  220.60   10.95
  14   0   3    1.17    3.90
 -14   0  -3    1.09    3.50
  14   0   4  171.80    9.32
 -14   0  -4  175.00    9.22
  14   0   5   -2.19    3.51
 -14   0  -5   -4.20    3.43
  14   0   6    3.06    3.95
 -14   0  -6    1.25    3.90
  14   0   7   -0.20    3.35
 -14   0  -7   -2.90    3.53
  14   0   8    3.91    3.49
 -14   0  -8    5.59    4.16
  14   0   9   -3.34    3.41
  14   0  10   55.73    5.19
 -13   1  23   -7.69    4.35
 -13   1  22   30.31    4.44
 -13   1  21   -4.20    3.74
 -13   1  20   62.09    5.33
 -13   1  19   35.00    4.33
 -13   1  18    3.88    3.60
 -13   1  17   38.91    4.37
 -13   1  16   73.89    5.37
  13  -1 -15   10.91    3.89
 -13   1  15   11.50    3.83
  13  -1 -14  288.30   13.84
 -13   1  14  314.80   14.76
  13  -1 -13  130.10    7.84
 -13   1  13  141.80    8.02
  13  -1 -12    6.38    3.50
 -13   1  12   -4.59    3.91
  13  -1 -11   51.29    4.45
 -13   1  11   60.61    5.20
  13  -1 -10   34.62    4.18
 -13   1  10   39.06    4.30
  13  -1  -9    0.08    3.53
 -13   1   9   22.36    3.92
  13  -1  -8  127.70    7.51
 -13   1   8  113.00    6.96
  13  -1  -7    4.86    3.59
 -13   1   7   -0.62    3.52
  13  -1  -6  266.10   12.84
 -13   1   6  273.90   13.05
  13  -1  -5  123.10    7.34
 -13   1   5   95.24    6.27
  13  -1  -4    0.25    3.55
 -13   1   4    9.53    3.56
  13  -1  -3  331.30   15.43
 -13   1   3  350.40   16.19
  13  -1  -2   67.36    5.67
 -13   1   2   53.07    4.98
  13  -1  -1   -1.33    3.65
 -13   1   1    4.03    4.00
  13  -1   0  272.90   13.16
 -13   1   0  252.90   12.44
  13  -1   1    1.51    4.19
 -13   1  -1    0.48    3.80
  13  -1   2   26.12    4.11
 -13   1  -2   28.04    4.77
  13  -1   3  259.80   12.73
 -13   1  -3  288.40   13.73
  13  -1   4    3.34    3.93
 -13   1  -4    3.83    3.67
  13  -1   5   26.45    4.14
 -13   1  -5   15.81    4.04
  13  -1   6  223.00   11.11
 -13   1  -6  232.90   11.43
  13  -1   7    4.31    3.54
 -13   1  -7    5.21    3.84
  13  -1   8  118.20    7.04
 -13   1  -8  110.20    6.99
  13  -1   9    7.90    3.57
  13  -1  10   -0.56    4.06
  13  -1  11   17.87    4.18
 -12   2  23    3.11    4.47
 -12   2  22   -5.05    4.09
 -12   2  21   42.43    4.73
 -12   2  20    9.89    3.87
 -12   2  19   80.48    5.59
 -12   2  18    3.33    3.54
 -12   2  17    7.84    3.45
 -12   2  16   25.18    3.53
  12  -2 -15   83.88    5.68
 -12   2  15   94.98    6.07
  12  -2 -14   -1.34    3.17
 -12   2  14   -0.44    3.54
  12  -2 -13  241.90   11.71
 -12   2  13  249.40   11.95
  12  -2 -12   45.54    4.60
 -12   2  12   26.94    3.98
  12  -2 -11   46.42    4.54
 -12   2  11   48.96    4.51
  12  -2 -10   -0.75    3.16
 -12   2  10   -3.28    3.32
  12  -2  -9   90.83    5.83
 -12   2   9   85.75    5.74
  12  -2  -8   28.61    4.10
 -12   2   8   27.65    4.11
  12  -2  -7  221.00   10.94
 -12   2   7  235.60   11.44
  12  -2  -6   18.88    3.74
 -12   2   6   32.71    4.07
  12  -2  -5  322.90   15.02
 -12   2   5  326.40   15.13
  12  -2  -4   22.36    4.46
 -12   2   4   26.89    4.41
  12  -2  -3   15.30    3.89
 -12   2   3   21.44    4.09
  12  -2  -2   -0.50    3.28
 -12   2   2    6.70    3.88
  12  -2  -1  417.20   18.94
 -12   2   1  403.50   18.33
  12  -2   0   58.16    5.19
 -12   2   0   69.04    5.41
  12  -2   1  355.30   16.41
 -12   2  -1  356.40   16.50
  12  -2   2   23.14    4.80
 -12   2  -2   25.27    4.26
  12  -2   3   76.48    5.88
 -12   2  -3   85.27    6.55
  12  -2   4    7.71    3.81
 -12   2  -4    5.29    3.57
  12  -2   5   44.39    4.88
 -12   2  -5   45.37    4.82
  12  -2   6  158.10    8.75
 -12   2  -6  173.80    9.12
  12  -2   7  299.70   14.24
 -12   2  -7  213.90   10.74
  12  -2   8   13.07    3.77
 -12   2  -8   10.52    4.20
  12  -2   9   50.41    4.97
  12  -2  10    3.59    4.11
  12  -2  11    5.57    3.59
  12  -2  12   17.22    4.39
 -11   3  23    7.71    4.66
 -11   3  23    7.21    4.71
 -11   3  22   -3.05    4.08
 -11   3  21    9.07    3.87
 -11   3  20   18.24    3.91
 -11   3  19   23.86    3.78
 -11   3  18    3.57    3.46
 -11   3  17   92.74    5.83
 -11   3  16   27.77    3.58
 -11   3  15   33.80    4.29
  11  -3 -14   -0.85    3.24
 -11   3  14    0.79    3.21
  11  -3 -13   18.29    3.44
 -11   3  13   31.09    3.98
  11  -3 -12   16.66    3.46
 -11   3  12   20.62    3.60
  11  -3 -11  391.00   17.72
 -11   3  11  368.00   16.54
  11  -3 -10    0.40    3.10
 -11   3  10    5.59    2.86
  11  -3  -9  188.90    9.39
 -11   3   9  205.90   10.13
  11  -3  -8   88.22    5.74
 -11   3   8   79.49    5.42
  11  -3  -7   21.23    3.69
 -11   3   7   16.54    3.32
  11  -3  -6  168.60    8.96
 -11   3   6  186.90    9.39
  11  -3  -5   15.65    3.52
 -11   3   5   18.21    3.78
  11  -3  -4   34.88    3.92
 -11   3   4   33.97    4.31
  11  -3  -3  786.20   33.88
 -11   3   3  741.00   32.02
  11  -3  -2  237.40   11.77
 -11   3   2  252.40   12.20
  11  -3  -1  253.80   12.28
 -11   3   1  255.10   12.32
  11  -3   0   58.98    5.16
 -11   3   0   56.50    4.81
  11  -3   1    3.78    4.06
 -11   3  -1   -0.22    3.61
  11  -3   2   61.80    5.40
 -11   3  -2   63.50    5.36
  11  -3   3  143.10    8.15
 -11   3  -3  150.90    8.36
  11  -3   4    7.77    3.86
 -11   3  -4    4.02    3.98
  11  -3   5  121.50    7.34
 -11   3  -5  179.10    9.53
  11  -3   6   75.71    6.03
 -11   3  -6   87.34    6.38
  11  -3   7   70.34    5.66
 -11   3  -7   69.67    5.39
  11  -3   8    3.96    3.77
  11  -3   9   37.42    4.54
  11  -3  10    0.00    3.47
  11  -3  11   46.85    4.53
  11  -3  12   -1.00    3.41
  11  -3  13   25.05    4.62
 -10   4  23    2.62    4.68
 -10   4  23    0.01    4.46
 -10   4  22   17.74    4.12
 -10   4  22   24.44    4.77
 -10   4  21   32.94    4.35
 -10   4  21   37.14    4.36
 -10   4  20    1.95    3.59
 -10   4  19    6.21    3.18
 -10   4  18   22.13    3.57
 -10   4  17    0.79    3.09
 -10   4  16  282.80   13.08
 -10   4  15   -1.27    3.10
 -10   4  14    4.38    3.17
  10  -4 -13   16.19    3.46
 -10   4  13   14.51    3.48
  10  -4 -12   30.34    3.37
 -10   4  12   31.02    3.50
  10  -4 -11   89.78    5.60
 -10   4  11   76.39    5.08
  10  -4 -10  644.00   27.91
 -10   4  10  608.40   26.25
  10  -4  -9   53.26    4.32
 -10   4   9   59.47    4.48
  10  -4  -8  828.10   35.16
 -10   4   8  972.00   41.19
  10  -4  -7  483.10   21.19
 -10   4   7  491.50   21.52
  10  -4  -6  167.60    8.83
 -10   4   6  170.10    8.87
  10  -4  -5    4.04    3.62
 -10   4   5    6.07    3.29
  10  -4  -4  468.50   20.81
 -10   4   4  485.20   21.38
  10  -4  -3   74.56    5.33
 -10   4   3   86.82    5.84
  10  -4  -2  130.70    7.48
 -10   4   2  125.60    7.32
  10  -4  -1    5.94    3.98
 -10   4   1    8.27    3.70
  10  -4   0  137.80    7.92
 -10   4   0  198.80   10.65
  10  -4   1  167.60    8.82
 -10   4  -1  220.30   10.97
  10  -4   2   96.25    6.51
 -10   4  -2   89.53    6.05
  10  -4   3   56.37    5.15
 -10   4  -3   58.14    5.11
  10  -4   4   94.44    6.32
 -10   4  -4   94.73    6.38
  10  -4   5   18.53    4.27
 -10   4  -5   13.40    3.79
  10  -4   6   30.68    4.67
 -10   4  -6   35.88    4.44
  10  -4   7    2.47    4.17
 -10   4  -7    6.78    3.62
  10  -4   8   -1.17    4.03
  10  -4   9   24.12    4.52
  10  -4  10   81.02    5.74
  10  -4  11    9.56    3.63
  10  -4  12   54.66    4.96
  10  -4  13   -0.26    3.74
  -9   5  22    3.37    4.11
  -9   5  22   -6.93    4.53
  -9   5  21   -1.39    3.73
  -9   5  21   -0.16    3.47
  -9   5  20   71.63    4.91
  -9   5  20   64.70    4.85
  -9   5  19    4.53    2.90
  -9   5  18   10.62    3.23
  -9   5  17    7.00    3.04
  -9   5  16   27.96    3.45
  -9   5  15  143.10    7.38
  -9   5  14  450.30   19.75
  -9   5  13    1.45    2.68
   9  -5 -12    3.79    2.35
  -9   5  12    9.84    2.83
   9  -5 -11   59.36    3.88
  -9   5  11   60.84    4.11
   9  -5 -10  360.00   15.93
  -9   5  10  390.20   17.11
   9  -5  -9   49.12    4.13
  -9   5   9   38.07    3.52
   9  -5  -8 1140.00   47.96
  -9   5   8 1108.00   46.61
   9  -5  -7  117.90    6.29
  -9   5   7  127.60    6.88
   9  -5  -6 1890.00   78.80
  -9   5   6 1652.00   69.07
   9  -5  -5   62.75    4.79
  -9   5   5   54.93    4.59
   9  -5  -4   27.91    4.04
  -9   5   4   24.82    3.57
   9  -5  -3   20.62    3.95
  -9   5   3    8.47    3.28
   9  -5  -2   15.23    3.43
  -9   5   2    7.87    3.11
   9  -5  -1  166.70    8.75
  -9   5   1  124.20    7.12
   9  -5   0  393.60   17.91
  -9   5   0  441.30   19.74
   9  -5   1   91.59    6.19
  -9   5  -1   94.30    6.19
   9  -5   2  405.70   18.31
  -9   5  -2  379.70   17.29
   9  -5   3  211.60   10.77
  -9   5  -3  197.30   10.09
   9  -5   4   -3.27    3.64
  -9   5  -4    6.49    3.64
   9  -5   5    9.25    3.84
  -9   5  -5   18.27    4.10
   9  -5   6  119.20    7.38
  -9   5  -6  131.80    7.71
   9  -5   7   18.52    4.24
   9  -5   8  101.80    6.79
   9  -5   9    9.24    3.83
   9  -5  10   80.66    5.99
   9  -5  11   49.66    4.69
   9  -5  12    6.28    4.01
   9  -5  13    2.40    3.55
   9  -5  14   34.10    4.44
  -8   6  22   -2.26    4.29
  -8   6  22   -8.65    4.42
  -8   6  21   18.20    4.11
  -8   6  21   13.35    4.32
  -8   6  20    1.58    3.24
  -8   6  20    1.25    3.49
  -8   6  19   17.43    3.19
  -8   6  19   15.65    3.23
  -8   6  18   89.21    5.20
  -8   6  18   92.09    5.37
  -8   6  17    1.22    2.68
  -8   6  16  115.10    6.03
  -8   6  15    3.44    2.52
  -8   6  14   12.16    2.60
  -8   6  13  580.80   24.75
  -8   6  12  189.90    8.86
   8  -6 -11   42.32    3.25
  -8   6  11   46.20    3.50
   8  -6 -10  127.70    6.40
  -8   6  10  133.70    6.69
   8  -6  -9   27.08    3.05
  -8   6   9   21.90    2.70
   8  -6  -8  464.40   20.29
  -8   6   8  473.30   20.43
   8  -6  -7  761.70   32.40
  -8   6   7  745.10   31.63
   8  -6  -6   74.57    4.77
  -8   6   6   84.77    5.17
   8  -6  -5  270.90   12.38
  -8   6   5  308.60   13.99
   8  -6  -4  162.50    8.31
  -8   6   4  161.40    8.30
   8  -6  -3  199.60    9.85
  -8   6   3  217.40   10.40
   8  -6  -2  280.10   13.18
  -8   6   2  263.20   12.43
   8  -6  -1  396.00   17.82
  -8   6   1  469.30   21.00
   8  -6   0    8.29    3.63
  -8   6   0   10.82    3.36
   8  -6   1  178.10    9.34
  -8   6  -1  179.90    9.35
   8  -6   2   11.98    3.82
  -8   6  -2    7.04    3.35
   8  -6   3  306.50   14.41
  -8   6  -3  373.50   17.25
   8  -6   4  130.30    7.66
  -8   6  -4  145.20    8.09
   8  -6   5  220.00   11.25
  -8   6  -5  225.30   11.19
   8  -6   6   16.13    3.99
   8  -6   7  128.50    7.68
   8  -6   8    5.60    3.91
   8  -6   9  299.70   14.11
   8  -6  10   -2.13    3.83
   8  -6  11   28.91    4.56
   8  -6  12    1.31    3.95
   8  -6  13   -0.74    3.54
   8  -6  14   14.23    4.24
  -7   7  20   14.77    2.67
  -7   7  20   12.14    2.92
  -7   7  19   11.15    2.60
  -7   7  19    5.44    2.35
  -7   7  18   16.41    2.53
  -7   7  18   16.86    2.37
  -7   7  17  125.50    6.10
  -7   7  17  136.80    6.47
  -7   7  16    7.34    1.97
  -7   7  16    7.12    2.03
  -7   7  15   60.17    3.56
  -7   7  15   57.23    3.48
  -7   7  14  137.50    6.42
  -7   7  13  139.00    6.48
  -7   7  12    0.37    1.83
  -7   7  11  260.80   11.45
   7  -7 -10    1.14    1.69
  -7   7  10    0.78    1.89
   7  -7  -9  445.30   18.96
  -7   7   9  435.70   18.65
   7  -7  -8   28.63    2.70
  -7   7   8   21.97    2.63
   7  -7  -7  284.90   12.74
  -7   7   7  275.80   12.24
   7  -7  -6    4.78    2.51
  -7   7   6    2.69    2.40
   7  -7  -5   28.20    3.11
  -7   7   5   29.61    3.23
   7  -7  -4   18.61    3.21
  -7   7   4   25.61    3.31
   7  -7  -3  354.60   15.86
  -7   7   3  326.90   14.79
   7  -7  -2   15.02    3.10
  -7   7   2   16.88    3.42
   7  -7  -1  307.80   14.35
  -7   7   1  288.70   13.37
   7  -7   0   22.56    3.90
  -7   7   0   11.57    3.17
   7  -7   1    2.40    3.26
  -7   7  -1    4.81    3.67
   7  -7   2   50.60    4.62
  -7   7  -2   38.71    4.59
   7  -7   3   13.37    3.84
  -7   7  -3    6.67    3.45
   7  -7   4   10.20    3.61
   7  -7   5  371.80   16.91
   7  -7   6   79.85    5.95
   7  -7   7    9.20    4.01
   7  -7   8   10.15    3.89
   7  -7   9    4.47    4.01
   7  -7  10   94.99    6.25
   7  -7  11  110.50    7.08
   7  -7  12   -2.83    3.54
   7  -7  13   57.02    5.02
   7  -7  14    3.21    4.07
   7  -7  15    5.55    4.20
  -6   8  10   41.29    2.22
   6  -8  -9   -2.38    1.21
  -6   8   9    2.24    1.44
   6  -8  -8  304.30   13.11
  -6   8   8  305.40   13.15
   6  -8  -7   55.95    3.42
  -6   8   7   52.05    3.18
   6  -8  -6   11.07    2.22
  -6   8   6   14.23    2.28
   6  -8  -5   42.76    3.33
  -6   8   5   34.17    3.05
   6  -8  -4   78.04    4.73
  -6   8   4   74.68    4.51
   6  -8  -3  328.40   14.65
  -6   8   3  317.40   14.26
   6  -8  -2  363.00   16.06
  -6   8   2  417.00   18.44
   6  -8  -1   15.13    3.51
  -6   8   1    6.42    3.18
   6  -8   0    8.62    3.61
  -6   8   0    3.63    3.26
   6  -8   1  219.60   10.82
   6  -8   2   10.98    3.41
   6  -8   3    7.81    3.38
   6  -8   4  279.40   13.30
   6  -8   5    7.93    3.83
   6  -8   6  291.70   13.70
   6  -8   7   71.69    5.65
   6  -8   8   -2.84    3.56
   6  -8   9   30.99    4.37
   6  -8  10   66.51    5.48
   6  -8  11    6.26    3.60
   6  -8  12   47.71    4.65
   6  -8  13   11.97    3.90
   6  -8  14   19.97    4.23
   6  -8  15   11.26    4.18
   5  -9  -7  103.90    4.89
   5  -9  -6  305.50   13.24
   5  -9  -5  178.10    8.23
   5  -9  -4  525.00   22.62
   5  -9  -3   13.26    3.02
   5  -9  -2  139.40    7.09
   5  -9  -1    3.88    2.63
   5  -9   0   36.56    3.70
   5  -9   1  103.60    6.19
   5  -9   2  429.90   19.37
   5  -9   3   95.63    6.38
   5  -9   4  108.80    6.59
   5  -9   5    9.95    3.65
   5  -9   6   44.39    4.97
   5  -9   7   26.49    4.28
   5  -9   8   54.28    5.03
   5  -9   9   -1.25    3.96
   5  -9  10  112.30    7.14
   5  -9  11   -1.43    3.71
   5  -9  12    8.59    3.59
   5  -9  13   21.98    3.79
   5  -9  14   20.61    4.22
   5  -9  15   -1.01    3.76
   4 -10  -6    5.45    1.47
   4 -10  -5   52.58    3.22
   4 -10  -4   27.16    2.76
   4 -10  -3  170.30    8.39
   4 -10  -2  259.90   11.97
   4 -10  -1    5.91    2.87
   4 -10   0  140.50    7.49
   4 -10   1   83.07    5.39
   4 -10   2    5.23    3.02
   4 -10   3   53.02    5.39
   4 -10   4  258.30   12.77
   4 -10   5   79.62    5.87
   4 -10   6  173.70    9.85
   4 -10   7   60.88    5.76
   4 -10   8   22.20    4.12
   4 -10   9    1.96    3.50
   4 -10  10   41.76    4.88
   4 -10  11    6.77    3.78
   4 -10  12   52.65    5.13
   4 -10  13   -2.92    4.26
   4 -10  14   84.98    5.81
   4 -10  15   14.29    4.08
   4 -10  16    3.95    4.10
   3 -11  -5   46.98    2.69
   3 -11  -5   49.65    2.96
   3 -11  -4    7.06    2.01
   3 -11  -3   69.62    4.16
   3 -11  -2   -1.74    2.49
   3 -11  -1  768.80   32.79
   3 -11   0   84.68    5.61
   3 -11   1  200.60    9.85
   3 -11   2   91.96    5.74
   3 -11   3    7.29    3.09
   3 -11   4  244.20   11.89
   3 -11   5  547.40   24.29
   3 -11   6   20.01    3.88
   3 -11   7  142.50    7.88
   3 -11   8    9.51    3.97
   3 -11   9   14.49    3.74
   3 -11  10   88.04    5.72
   3 -11  11   26.65    5.30
   3 -11  12   -2.13    3.56
   3 -11  13  122.30    7.02
   3 -11  14    7.50    3.81
   3 -11  15   39.81    4.59
   3 -11  16   10.15    4.09
   2 -12  -5  175.70    7.72
   2 -12  -5  175.80    7.74
   2 -12  -4    4.12    1.93
   2 -12  -4    3.30    1.77
   2 -12  -3  307.10   13.46
   2 -12  -3  305.80   13.67
   2 -12  -2   11.24    2.52
   2 -12  -1   71.42    4.57
   2 -12   0   39.40    3.93
   2 -12   1  183.30    9.21
   2 -12   2   11.49    3.67
   2 -12   3  453.80   20.22
   2 -12   4   11.80    3.11
   2 -12   5   67.33    5.06
   2 -12   6   17.90    4.14
   2 -12   7   32.29    4.22
   2 -12   8   -0.86    3.33
   2 -12   9   25.32    4.08
   2 -12  10   42.55    4.45
   2 -12  11  165.10    8.65
   2 -12  12   19.72    3.91
   2 -12  13   10.72    3.87
   2 -12  14    1.63    3.58
   2 -12  15    4.20    3.75
   2 -12  16   -0.04    3.66
   1 -13  -5   -1.20    1.29
   1 -13  -5   -0.05    1.28
   1 -13  -4   73.07    4.06
   1 -13  -4   70.63    4.07
   1 -13  -3   23.18    2.84
   1 -13  -3   27.39    2.82
   1 -13  -2   13.49    2.78
   1 -13  -2   14.03    2.70
   1 -13  -1   49.19    3.96
   1 -13  -1   44.96    3.85
   1 -13   0   19.82    2.88
   1 -13   0   16.85    3.47
   1 -13   1   78.53    5.00
   1 -13   2   49.89    4.52
   1 -13   3   49.29    4.66
   1 -13   4  162.90    8.82
   1 -13   5   74.74    5.19
   1 -13   6   -0.59    3.53
   1 -13   7   33.00    4.09
   1 -13   8    9.69    3.68
   1 -13   9   28.98    3.89
   1 -13  10   58.48    5.04
   1 -13  11    0.53    3.23
   1 -13  12   66.20    5.42
   1 -13  13   14.03    3.76
   1 -13  14    4.53    3.40
   1 -13  15    4.86    3.63
   1 -13  16   30.04    4.31
   0 -14  -4    1.08    2.02
   0 -14  -4    2.07    1.81
   0 -14  -3    0.25    2.03
   0 -14  -3    1.39    2.39
   0 -14  -2  167.90    8.04
   0 -14  -2  187.40    8.91
   0 -14  -1    3.31    2.78
   0 -14  -1    2.92    3.17
   0 -14   0   47.86    4.25
   0 -14   0   41.08    4.08
   0 -14   1   -0.46    3.26
   0 -14   1   -1.58    3.28
   0 -14   3   -0.99    3.15
   0 -14   3   -1.86    3.21
   0 -14   5   -6.03    3.73
   0 -14   6  119.60    7.17
   0 -14   7   -0.46    3.38
   0 -14   8  147.00    8.11
   0 -14   9    5.18    3.88
   0 -14  10   67.88    5.17
   0 -14  11    4.76    3.88
   0 -14  12   11.06    3.40
   0 -14  13   13.65    3.33
   0 -14  15    4.71    3.41
   0 -14  15   -1.20    3.65
  -1 -15  -4   80.87    4.30
  -1 -15  -4   76.31    4.07
  -1 -15  -3    0.56    2.22
  -1 -15  -3    1.26    2.42
  -1 -15  -2   72.15    4.55
  -1 -15  -2   62.63    4.51
  -1 -15   0   24.89    3.14
  -1 -15   0   22.71    3.61
  -1 -15   1  205.50    9.94
  -1 -15   1  198.00    9.86
  -1 -15   2   52.64    4.89
  -1 -15   2   47.14    4.58
  -1 -15   3   13.19    3.74
  -1 -15   3    9.67    3.73
  -1 -15   4   77.03    5.43
  -1 -15   4   71.62    5.45
  -1 -15   5   25.10    3.65
  -1 -15   5   38.00    4.85
  -1 -15   6   55.86    5.09
  -1 -15   6   64.68    5.92
  -1 -15   7   23.22    4.41
  -1 -15   7   21.92    4.68
  -1 -15   8   19.91    3.73
  -1 -15   8   14.28    4.58
  -1 -15   9  146.50    7.99
  -1 -15   9  120.30    7.26
  -1 -15  11    0.41    3.46
  -1 -15  11    5.34    3.87
  -1 -15  12    7.86    3.51
  -1 -15  12    5.62    3.78
  -1 -15  13   13.71    3.59
  -1 -15  13    5.54    4.17
  -1 -15  14    1.97    3.90
  -1 -15  14    1.37    3.62
  -1 -15  15   23.84    3.89
  -1 -15  15   19.77    4.35
  -2 -16  -4    7.98    2.07
  -2 -16  -4    5.84    2.13
  -2 -16  -3   80.31    4.65
  -2 -16  -3   81.36    4.63
  -2 -16  -2   -0.04    2.46
  -2 -16  -2    4.74    2.87
  -2 -16  -1   50.49    3.83
  -2 -16  -1   46.20    4.29
  -2 -16   0   32.08    3.58
  -2 -16   0   28.39    3.66
  -2 -16   1   16.48    3.50
  -2 -16   2  161.90    8.69
  -2 -16   3   42.00    4.42
  -2 -16   4    5.83    3.97
  -2 -16   5   85.81    6.15
  -2 -16   6    2.80    3.30
  -2 -16   6    5.20    3.57
  -2 -16   7   17.18    3.77
  -2 -16   7   14.41    4.55
  -2 -16   8    6.62    3.91
  -2 -16   8    9.44    3.90
  -2 -16   9   33.60    4.52
  -2 -16   9   39.74    4.62
  -2 -16  10    8.41    4.07
  -2 -16  10   18.53    4.12
  -2 -16  11  131.10    7.30
  -2 -16  11  126.70    7.58
  -2 -16  12    0.08    3.76
  -2 -16  12   -1.95    4.42
  -2 -16  13    5.46    3.54
  -2 -16  13    7.47    3.86
  -2 -16  14   -2.59    3.57
  -2 -16  14    1.40    3.64
  -2 -16  15    3.37    3.36
  -2 -16  15    5.20    3.73
  -3 -17  -4   18.50    2.48
  -3 -17  -4   19.35    2.61
  -3 -17  -3   13.88    2.68
  -3 -17  -3   15.14    2.95
  -3 -17  -2   19.24    3.16
  -3 -17  -2   16.56    2.93
  -3 -17  -1   14.19    2.96
  -3 -17  -1    4.61    3.36
  -3 -17   0   -3.68    3.15
  -3 -17   1  147.40    7.88
  -3 -17   2   62.06    4.94
  -3 -17   3   12.46    3.75
  -3 -17   4   31.60    4.45
  -3 -17   5    6.75    3.96
  -3 -17   6   32.80    4.47
  -3 -17   7   27.52    4.32
  -3 -17   8    4.26    3.37
  -3 -17   8    3.45    3.65
  -3 -17   9   40.67    4.43
  -3 -17   9   38.55    4.67
  -3 -17  10   25.73    4.36
  -3 -17  10   25.63    4.32
  -3 -17  11    2.74    3.33
  -3 -17  11    7.58    3.94
  -3 -17  12   32.67    4.10
  -3 -17  12   25.05    4.23
  -3 -17  13   24.75    4.15
  -3 -17  13   34.18    4.32
  -3 -17  14    3.00    3.22
  -3 -17  14   -1.12    3.54
  -4 -18  -4   16.57    2.55
  -4 -18  -4   13.91    2.40
  -4 -18  -3    2.43    2.87
  -4 -18  -3   -3.75    2.55
  -4 -18  -2   -1.78    2.96
  -4 -18  -2    0.72    3.35
  -4 -18  -1    0.40    2.83
  -4 -18  -1    0.20    2.98
  -4 -18   0   35.92    4.46
  -4 -18   1    1.97    3.74
  -4 -18   2   94.88    6.11
  -4 -18   3   -1.60    3.70
  -4 -18   4   18.67    3.85
  -4 -18   5    8.79    3.85
  -4 -18   6   43.39    4.80
  -4 -18   7    2.75    4.06
  -4 -18   8   75.93    5.88
  -4 -18  10   23.81    3.87
  -4 -18  10   22.66    4.56
  -4 -18  11    3.19    3.96
  -4 -18  11    8.63    4.07
  -4 -18  12   -3.14    3.33
  -4 -18  12   -0.77    3.56
  -4 -18  13    1.82    3.54
  -4 -18  13    5.13    3.61
  -5 -19  -3    4.93    3.30
  -5 -19  -3    0.60    2.97
  -5 -19  -1    2.89    3.69
  -5 -19  -1    1.52    3.71
  -5 -19   0    9.73    3.74
  -5 -19   1   12.16    3.83
  -5 -19   2    6.53    4.21
  -5 -19   3   10.56    3.97
  -5 -19   4   36.68    4.99
  -5 -19   5    4.93    4.19
  -5 -19   6   11.20    3.65
  -5 -19   7   15.47    3.80
  -5 -19   8   -4.05    4.31
  -5 -19   9    6.18    3.91
  -5 -19  10    7.44    3.47
  -5 -19  10    9.11    4.00
  -5 -19  11   -2.09    3.90
  -5 -19  11   -4.24    3.48
  -5 -19  12   18.16    4.02
  -5 -19  12   12.93    4.11
  -6 -20  -3    0.68    3.94
  -6 -20  -3    4.68    3.83
  -6 -20  -2    3.57    4.22
  -6 -20  -2    1.92    4.08
  -6 -20  -1    2.52    4.02
  -6 -20  -1   15.09    4.51
  -6 -20   0   19.43    4.47
  -6 -20   1    8.09    4.25
  -6 -20   2    3.27    4.00
  -6 -20   3   20.95    4.75
  -6 -20   4    4.61    4.22
  -6 -20   5   26.72    4.50
  -6 -20   6  -10.96    4.01
  -6 -20   7   11.51    4.31
  -6 -20   8    5.04    4.23
  -6 -20   9    9.11    4.02
  -6 -20  10    9.20    4.18
  -6 -20  10    1.44    3.70
  -7 -21   1    4.26    5.04
  -7 -21   2    1.24    4.40
  -7 -21   3    9.23    4.92
  -7 -21   4   12.62    4.69
  -7 -21   5    4.07    4.62
  -7 -21   6   -0.90    4.52
  23   7 -15    9.19    3.62
 -23  -7  15   15.31    3.83
  23   7 -14    4.25    3.26
 -23  -7  14    8.91    3.93
  23   7 -13   17.88    3.69
 -23  -7  13   17.78    4.19
  23   7 -12   -7.34    4.24
 -23  -7  12    2.16    4.04
  23   7 -11    2.26    4.03
 -23  -7  11    3.00    3.81
  23   7 -10    6.01    3.62
 -23  -7  10   -0.28    4.24
  23   7  -9   -4.06    3.93
 -23  -7   9    0.68    3.69
  23   7  -8    2.96    3.85
 -23  -7   8    0.78    4.00
  23   7  -7   34.12    4.15
 -23  -7   7   29.76    4.42
  22   6 -18   -5.73    3.52
 -22  -6  18    6.51    4.00
  22   6 -17    6.27    3.86
 -22  -6  17   12.82    4.03
  22   6 -16    1.63    3.71
 -22  -6  16    7.25    4.12
  22   6 -15   -3.07    3.73
 -22  -6  15    0.80    3.55
  22   6 -14   15.39    3.71
 -22  -6  14   31.75    4.13
  22   6 -13    8.74    4.03
 -22  -6  13   -1.24    3.55
  22   6 -12    0.44    3.88
 -22  -6  12   -0.45    3.54
  22   6 -11   51.56    4.96
 -22  -6  11   57.41    4.98
  22   6 -10   -2.17    3.95
 -22  -6  10    2.95    3.87
  22   6  -9   48.67    4.71
 -22  -6   9   49.47    4.97
  22   6  -8   17.33    4.04
 -22  -6   8   -0.63    3.95
  22   6  -7    0.80    3.69
 -22  -6   7    4.92    3.74
  22   6  -6   18.59    4.72
 -22  -6   6   24.96    4.42
  22   6  -5   15.93    4.06
 -22  -6   5   21.64    4.24
  22   6  -4   17.15    4.35
 -22  -6   4    8.15    4.26
  22   6  -3   55.58    4.99
 -22  -6   3   56.96    5.64
 -21  -5  19   -1.49    3.98
  21   5 -18   51.32    4.78
 -21  -5  18   51.14    5.02
  21   5 -17    5.23    3.72
 -21  -5  17   -2.29    3.69
  21   5 -16   22.01    4.72
 -21  -5  16   24.98    4.14
  21   5 -15    4.73    3.59
 -21  -5  15   -3.00    4.07
  21   5 -14    3.90    3.43
 -21  -5  14    8.75    3.75
  21   5 -13   13.71    3.67
 -21  -5  13    8.70    3.75
  21   5 -12   14.41    4.05
 -21  -5  12    5.25    4.23
  21   5 -11    3.03    3.86
 -21  -5  11    4.13    3.77
  21   5 -10  184.40    9.42
 -21  -5  10  202.30   10.22
  21   5  -9    2.71    3.84
 -21  -5   9   -0.89    4.03
  21   5  -8   80.78    6.09
 -21  -5   8   96.04    6.26
  21   5  -7    9.68    4.06
 -21  -5   7    8.44    3.79
  21   5  -6    2.15    3.96
 -21  -5   6   -1.42    3.63
  21   5  -5   14.74    4.07
 -21  -5   5   10.90    3.83
  21   5  -4   35.46    4.70
 -21  -5   4   26.45    4.22
  21   5  -3    1.81    3.76
 -21  -5   3   -3.22    4.22
  21   5  -2   37.73    4.88
 -21  -5   2   40.43    5.08
  21   5  -1    1.28    4.14
 -21  -5   1   -2.13    3.71
  21   5   0    5.85    4.68
 -21  -5   0    4.79    4.52
 -20  -4  21    5.34    4.55
 -20  -4  20   41.09    5.22
 -20  -4  19    2.97    4.00
  20   4 -18    4.02    3.96
 -20  -4  18    0.28    4.31
  20   4 -17   26.96    4.23
 -20  -4  17   17.50    4.37
  20   4 -16   -5.20    3.93
 -20  -4  16    2.68    3.67
  20   4 -15    6.33    3.67
 -20  -4  15    5.16    3.65
  20   4 -14   29.67    4.17
 -20  -4  14   34.46    4.45
  20   4 -13    0.07    3.48
 -20  -4  13    0.48    3.65
  20   4 -12   81.46    5.97
 -20  -4  12   78.03    5.79
  20   4 -11   37.78    5.10
 -20  -4  11   26.66    4.30
  20   4 -10   23.43    3.87
 -20  -4  10   23.21    4.23
  20   4  -9  109.20    6.94
 -20  -4   9  109.60    6.89
  20   4  -8    1.52    4.46
 -20  -4   8   13.82    4.19
  20   4  -7    5.36    3.71
 -20  -4   7    9.84    3.81
  20   4  -6  113.50    7.30
 -20  -4   6  136.30    7.86
  20   4  -5   -0.95    3.73
 -20  -4   5    0.13    3.64
  20   4  -4    7.96    4.18
 -20  -4   4   15.86    3.88
  20   4  -3   87.07    6.38
 -20  -4   3   89.08    6.74
  20   4  -2   -4.84    3.92
 -20  -4   2    8.43    4.35
  20   4  -1   12.07    4.15
 -20  -4   1    3.53    3.63
  20   4   0   60.15    5.14
 -20  -4   0   47.24    4.80
  20   4   1   -1.72    3.88
 -20  -4  -1    6.56    3.93
  20   4   2   23.20    4.42
 -20  -4  -2   26.07    4.22
 -19  -3  22   -2.28    5.31
 -19  -3  21    8.08    4.75
 -19  -3  20   -5.23    4.10
 -19  -3  19   29.49    4.76
  19   3 -18    8.99    3.95
 -19  -3  18    1.77    3.82
  19   3 -17    1.68    3.40
 -19  -3  17    0.06    3.67
  19   3 -16   29.68    4.58
 -19  -3  16   29.88    4.28
  19   3 -15   46.86    4.76
 -19  -3  15   52.39    5.12
  19   3 -14   13.45    3.79
 -19  -3  14    9.69    3.68
  19   3 -13   57.08    5.24
 -19  -3  13   68.92    5.27
  19   3 -12    2.10    4.18
 -19  -3  12    5.59    3.84
  19   3 -11  184.80    9.57
 -19  -3  11  194.30    9.89
  19   3 -10   18.81    4.37
 -19  -3  10   15.65    4.28
  19   3  -9    5.14    4.18
 -19  -3   9   12.58    4.00
  19   3  -8   41.73    4.88
 -19  -3   8   40.06    4.65
  19   3  -7   72.10    5.82
 -19  -3   7   66.43    5.30
  19   3  -6   -1.06    4.01
 -19  -3   6   -0.90    3.68
  19   3  -5  108.80    6.79
 -19  -3   5  138.60    7.77
  19   3  -4   -4.62    4.00
 -19  -3   4    1.71    3.61
  19   3  -3    5.01    3.84
 -19  -3   3   10.07    4.14
  19   3  -2    3.46    3.96
 -19  -3   2    3.94    3.93
  19   3  -1   -1.20    3.74
 -19  -3   1   -1.82    3.57
  19   3   0   28.99    4.41
 -19  -3   0   31.46    4.45
  19   3   1   26.05    4.17
 -19  -3  -1   17.76    4.00
  19   3   2    1.35    3.71
 -19  -3  -2   -0.25    4.25
  19   3   3   37.04    4.65
 -19  -3  -3   40.20    4.49
 -18  -2  22    9.71    4.65
 -18  -2  21   12.52    4.61
 -18  -2  20    4.05    4.12
 -18  -2  19    6.01    4.45
  18   2 -18   -3.19    3.73
 -18  -2  18    1.12    4.26
  18   2 -17  153.80    8.51
 -18  -2  17  161.80    8.79
  18   2 -16    0.69    3.61
 -18  -2  16    5.80    3.91
  18   2 -15  107.00    6.64
 -18  -2  15  100.20    6.31
  18   2 -14   13.76    4.64
 -18  -2  14    6.53    3.69
  18   2 -13   37.53    4.95
 -18  -2  13   66.05    5.62
  18   2 -12    8.99    3.95
 -18  -2  12    3.39    4.06
  18   2 -11   15.89    4.21
 -18  -2  11   17.57    4.12
  18   2 -10   13.97    4.37
 -18  -2  10    8.10    4.25
  18   2  -9  109.80    6.86
 -18  -2   9   97.55    6.74
  18   2  -8   13.53    4.01
 -18  -2   8   18.23    4.26
  18   2  -7  118.60    7.52
 -18  -2   7  112.10    6.99
  18   2  -6   -3.08    4.22
 -18  -2   6   -1.21    3.63
  18   2  -5    9.95    4.58
 -18  -2   5    2.78    4.21
  18   2  -4    4.41    3.89
 -18  -2   4    3.28    3.86
  18   2  -3    6.99    3.80
 -18  -2   3    7.37    3.76
  18   2  -2   12.84    4.02
 -18  -2   2   13.09    4.37
  18   2  -1   48.07    5.06
 -18  -2   1   47.70    4.85
  18   2   0    1.98    3.86
 -18  -2   0   -1.10    3.82
  18   2   1    2.50    4.22
 -18  -2  -1    0.53    3.84
  18   2   2   13.71    4.45
 -18  -2  -2   10.72    3.87
  18   2   3    0.07    3.75
 -18  -2  -3    5.93    3.59
  18   2   4    3.18    4.20
 -18  -2  -4    3.19    3.79
  18   2   5   35.76    4.45
 -18  -2  -5   39.67    4.76
 -17  -1  23   17.82    4.93
 -17  -1  22   30.94    4.66
 -17  -1  21    8.24    4.33
 -17  -1  20    4.69    4.08
 -17  -1  19   32.58    4.80
  17   1 -18    3.76    3.61
 -17  -1  18    5.93    4.20
  17   1 -17   26.73    4.17
 -17  -1  17   21.75    4.08
  17   1 -16  174.00    9.40
 -17  -1  16  171.30    9.11
  17   1 -15   28.12    4.10
 -17  -1  15   20.47    4.01
  17   1 -14  153.70    8.36
 -17  -1  14  151.90    8.31
  17   1 -13   58.66    5.62
 -17  -1  13   68.22    5.37
  17   1 -12   13.43    4.63
 -17  -1  12   14.63    4.12
  17   1 -11   52.57    4.99
 -17  -1  11   57.78    5.07
  17   1 -10   62.36    5.81
 -17  -1  10   66.86    5.57
  17   1  -9    3.45    4.07
 -17  -1   9   -0.31    4.06
  17   1  -8   25.24    4.46
 -17  -1   8   27.13    4.73
  17   1  -7   -0.92    4.15
 -17  -1   7    2.13    3.92
  17   1  -6   86.47    6.50
 -17  -1   6   81.19    5.86
  17   1  -5   25.14    4.44
 -17  -1   5   24.30    4.23
  17   1  -4   -0.38    3.56
 -17  -1   4    2.64    4.06
  17   1  -3   15.11    4.62
 -17  -1   3   26.69    4.26
  17   1  -2   26.83    4.67
 -17  -1   2   21.12    4.51
  17   1  -1   -0.06    4.20
 -17  -1   1   -2.78    3.85
  17   1   0   35.15    4.43
 -17  -1   0   26.29    4.37
  17   1   1   37.17    5.02
 -17  -1  -1   50.32    4.99
  17   1   2    9.06    4.12
 -17  -1  -2    7.36    3.73
  17   1   3   44.13    4.89
 -17  -1  -3   43.17    4.71
  17   1   4   14.56    4.03
 -17  -1  -4    9.64    3.75
  17   1   5    6.98    3.99
 -17  -1  -5    6.02    4.20
  17   1   6   43.57    4.78
 -17  -1  -6   36.71    4.54
 -16   0  23    1.62    4.40
 -16   0  22   -8.09    4.37
 -16   0  21    7.51    4.41
 -16   0  20  141.20    8.09
 -16   0  19   -3.35    3.68
 -16   0  18   26.42    4.04
  16   0 -17   -1.24    3.60
 -16   0  17    4.14    3.90
  16   0 -16  115.90    7.18
 -16   0  16  128.40    7.55
  16   0 -15    3.76    3.96
 -16   0  15    2.15    3.88
  16   0 -14  106.20    6.71
 -16   0  14  116.90    7.18
  16   0 -13   -7.68    3.83
 -16   0  13    7.83    4.12
  16   0 -12   96.18    6.41
 -16   0  12  101.40    6.51
  16   0 -11    5.99    4.08
 -16   0  11   -8.84    3.73
  16   0 -10   43.27    5.26
 -16   0  10   34.57    4.70
  16   0  -9    0.20    3.81
 -16   0   9   -2.30    3.55
  16   0  -8   19.69    4.38
 -16   0   8   26.78    4.37
  16   0  -7    2.85    4.43
 -16   0   7   -2.38    4.02
  16   0  -6   37.23    4.57
 -16   0   6   40.30    4.82
  16   0  -5    2.66    3.74
 -16   0   5   -0.83    3.78
  16   0  -4   41.01    5.27
 -16   0   4   46.56    4.96
  16   0  -3   -0.62    3.79
 -16   0   3    2.02    3.67
  16   0  -2   34.05    5.01
 -16   0   2   42.67    5.05
  16   0  -1    2.25    3.93
 -16   0   1   -1.18    3.60
  16   0   0   47.65    4.86
 -16   0   0   44.03    4.70
  16   0   1   -0.33    4.01
 -16   0  -1    9.47    3.70
  16   0   2  176.20    9.35
 -16   0  -2  178.60    9.42
  16   0   3   -0.43    4.26
 -16   0  -3    4.43    3.59
  16   0   4   83.56    5.89
 -16   0  -4   62.37    5.35
  16   0   5    2.75    3.70
 -16   0  -5   -4.64    3.80
  16   0   6   16.84    4.05
 -16   0  -6    9.89    3.89
  16   0   7    1.19    3.70
 -16   0  -7   -2.10    4.14
  16   0   8    6.22    3.93
 -16   0  -8   -0.35    3.77
 -15   1  23   -0.08    4.51
 -15   1  22   55.85    5.46
 -15   1  21    4.41    4.36
 -15   1  20   47.13    4.81
 -15   1  19   95.90    6.44
 -15   1  18    8.13    3.89
  15  -1 -17   11.65    3.68
 -15   1  17   24.65    4.25
  15  -1 -16   47.50    5.10
 -15   1  16   50.17    4.82
  15  -1 -15    9.38    4.00
 -15   1  15   11.20    3.63
  15  -1 -14   61.71    5.63
 -15   1  14   49.31    4.76
  15  -1 -13  169.20    9.30
 -15   1  13  195.70   10.17
  15  -1 -12   -4.20    3.33
 -15   1  12   -0.63    4.07
  15  -1 -11   59.56    4.99
 -15   1  11   51.00    5.12
  15  -1 -10   23.55    4.43
 -15   1  10   30.37    4.67
  15  -1  -9    7.12    3.76
 -15   1   9   13.70    3.85
  15  -1  -8   74.01    5.69
 -15   1   8   64.48    5.70
  15  -1  -7   20.13    4.14
 -15   1   7   20.22    4.28
  15  -1  -6    2.41    4.19
 -15   1   6    7.26    3.73
  15  -1  -5   38.73    4.74
 -15   1   5   36.03    4.56
  15  -1  -4   20.91    4.02
 -15   1   4   18.77    4.10
  15  -1  -3   79.32    6.22
 -15   1   3   74.97    5.97
  15  -1  -2  126.50    7.82
 -15   1   2  117.50    7.58
  15  -1  -1    7.62    3.74
 -15   1   1   -1.47    3.51
  15  -1   0  137.70    8.13
 -15   1   0  131.60    7.62
  15  -1   1   11.26    4.34
 -15   1  -1   18.89    3.90
  15  -1   2    7.14    3.73
 -15   1  -2    7.33    3.98
  15  -1   3  156.10    8.42
 -15   1  -3  208.80   10.92
  15  -1   4   38.11    4.38
 -15   1  -4   30.60    4.18
  15  -1   5    0.15    3.92
 -15   1  -5    5.47    3.85
  15  -1   6   32.60    4.16
 -15   1  -6   35.44    4.72
  15  -1   7    0.76    3.33
 -15   1  -7    4.33    3.73
  15  -1   8   29.90    4.03
 -15   1  -8   38.41    4.47
  15  -1   9    6.58    3.69
 -14   2  23   33.02    5.04
 -14   2  22    4.02    4.22
 -14   2  21  125.50    7.55
 -14   2  20   10.31    4.09
 -14   2  19   95.10    6.34
 -14   2  18    2.81    3.73
 -14   2  17   20.34    4.01
  14  -2 -16    1.14    3.82
 -14   2  16   -1.94    3.57
  14  -2 -15  143.20    8.06
 -14   2  15  140.70    7.83
  14  -2 -14   13.55    3.49
 -14   2  14    7.37    3.46
  14  -2 -13  368.60   17.15
 -14   2  13  327.20   15.18
  14  -2 -12   51.73    5.58
 -14   2  12   55.20    4.88
  14  -2 -11   24.12    4.01
 -14   2  11   21.33    4.07
  14  -2 -10   61.29    4.90
 -14   2  10   69.69    5.30
  14  -2  -9  239.60   11.91
 -14   2   9  249.20   12.26
  14  -2  -8    6.51    4.29
 -14   2   8    4.07    3.41
  14  -2  -7  110.20    6.89
 -14   2   7   90.12    6.13
  14  -2  -6   73.77    5.52
 -14   2   6   76.10    6.06
  14  -2  -5    0.10    3.87
 -14   2   5    4.20    3.59
  14  -2  -4    8.23    3.91
 -14   2   4    3.15    3.57
  14  -2  -3   46.01    4.68
 -14   2   3   56.16    5.11
  14  -2  -2   63.39    5.33
 -14   2   2   60.07    5.43
  14  -2  -1  259.60   13.12
 -14   2   1  226.50   11.33
  14  -2   0   19.19    3.94
 -14   2   0   13.36    4.06
  14  -2   1  207.40   10.60
 -14   2  -1  284.90   14.08
  14  -2   2    0.25    4.24
 -14   2  -2    1.09    3.80
  14  -2   3    0.81    4.03
 -14   2  -3   -0.04    3.45
  14  -2   4   16.71    4.38
 -14   2  -4    5.18    3.59
  14  -2   5  195.60    9.97
 -14   2  -5  198.40   10.08
  14  -2   6   -3.70    3.87
 -14   2  -6   12.26    4.12
  14  -2   7  132.50    7.65
 -14   2  -7  137.10    7.73
  14  -2   8    4.76    3.91
 -14   2  -8    4.01    3.79
  14  -2   9    6.64    3.95
  14  -2  10    2.51    3.83
 -13   3  23   13.45    5.19
 -13   3  22    2.33    4.17
 -13   3  21   -6.91    3.95
 -13   3  20   46.16    4.79
 -13   3  19   23.70    4.15
 -13   3  18   19.57    3.85
 -13   3  17  237.60   11.48
 -13   3  16   17.74    3.80
  13  -3 -15   -2.12    3.82
 -13   3  15    8.34    3.62
  13  -3 -14    5.01    3.50
 -13   3  14    2.48    3.46
  13  -3 -13    6.21    3.19
 -13   3  13   17.95    3.85
  13  -3 -12    5.09    3.85
 -13   3  12    0.42    3.34
  13  -3 -11  261.20   12.67
 -13   3  11  254.10   12.23
  13  -3 -10    1.95    3.34
 -13   3  10    0.03    3.24
  13  -3  -9  152.10    8.18
 -13   3   9  173.20    8.98
  13  -3  -8  109.40    6.71
 -13   3   8  116.30    6.93
  13  -3  -7   14.14    3.84
 -13   3   7   22.48    3.78
  13  -3  -6   15.74    4.20
 -13   3   6   14.25    3.75
  13  -3  -5  499.50   22.02
 -13   3   5  471.40   21.03
  13  -3  -4   14.88    3.93
 -13   3   4    9.02    3.58
  13  -3  -3  308.80   14.72
 -13   3   3  308.20   14.51
  13  -3  -2  122.10    7.38
 -13   3   2  125.60    7.27
  13  -3  -1   61.46    5.30
 -13   3   1   59.38    5.13
  13  -3   0  103.10    6.99
 -13   3   0  125.40    7.45
  13  -3   1   42.13    4.82
 -13   3  -1   35.28    4.78
  13  -3   2   74.65    6.07
 -13   3  -2   73.45    5.61
  13  -3   3  193.80   10.23
 -13   3  -3  189.60    9.87
  13  -3   4   67.83    5.86
 -13   3  -4   66.68    5.38
  13  -3   5  189.10    9.96
 -13   3  -5  184.70    9.53
  13  -3   6   24.43    4.04
 -13   3  -6   20.22    4.35
  13  -3   7    3.29    3.73
 -13   3  -7   -5.79    3.74
  13  -3   8   31.91    4.26
  13  -3   9   14.78    3.79
  13  -3  10   -4.68    3.85
  13  -3  11   26.87    4.35
 -12   4  23    3.78    5.08
 -12   4  22   -0.81    4.35
 -12   4  21    6.64    4.01
 -12   4  20   10.52    4.01
 -12   4  19    0.88    3.53
 -12   4  18   20.46    3.82
 -12   4  17    6.04    3.48
 -12   4  16  117.20    6.82
  12  -4 -15   -5.61    3.03
 -12   4  15    1.90    3.43
  12  -4 -14   88.60    5.78
 -12   4  14   80.44    5.49
  12  -4 -13    9.76    3.36
 -12   4  13   12.58    3.57
  12  -4 -12   51.32    4.43
 -12   4  12   43.49    4.29
  12  -4 -11   13.51    3.32
 -12   4  11   16.53    3.40
  12  -4 -10  492.30   21.81
 -12   4  10  507.20   22.29
  12  -4  -9   61.50    4.89
 -12   4   9   71.62    5.28
  12  -4  -8  105.80    6.23
 -12   4   8  101.50    6.25
  12  -4  -7   44.69    4.09
 -12   4   7   49.38    4.90
  12  -4  -6  108.60    6.84
 -12   4   6  104.20    6.33
  12  -4  -5   56.34    5.00
 -12   4   5   52.42    4.75
  12  -4  -4  783.40   33.76
 -12   4   4  768.30   33.14
  12  -4  -3   75.00    5.47
 -12   4   3  100.50    6.37
  12  -4  -2  206.80   10.66
 -12   4   2  210.00   10.51
  12  -4  -1  113.60    7.18
 -12   4   1  105.20    6.48
  12  -4   0    1.07    3.70
 -12   4   0    1.96    3.81
  12  -4   1    7.10    4.38
 -12   4  -1   -1.35    3.65
  12  -4   2  119.80    7.41
 -12   4  -2  122.90    7.38
  12  -4   3   18.56    4.31
 -12   4  -3   20.61    4.33
  12  -4   4  180.40    9.86
 -12   4  -4  193.30   10.03
  12  -4   5   29.10    4.48
 -12   4  -5   22.57    4.22
  12  -4   6   51.85    5.18
 -12   4  -6   39.91    4.88
  12  -4   7   94.73    6.40
 -12   4  -7   77.28    6.07
  12  -4   8    1.11    4.13
  12  -4   9   10.18    4.04
  12  -4  10   44.89    4.59
  12  -4  11    1.32    3.71
 -11   5  23    4.64    5.17
 -11   5  23    5.10    5.09
 -11   5  22   27.65    4.89
 -11   5  22   38.38    4.93
 -11   5  21   12.57    3.98
 -11   5  20   18.99    3.87
 -11   5  19    0.74    3.44
 -11   5  18    1.79    3.29
 -11   5  17   52.84    4.52
 -11   5  16    8.99    3.06
 -11   5  15   96.16    5.82
  11  -5 -14  327.20   14.87
 -11   5  14  356.50   16.03
  11  -5 -13   22.79    3.48
 -11   5  13   21.26    3.50
  11  -5 -12  104.60    5.94
 -11   5  12  102.70    6.06
  11  -5 -11   45.28    3.79
 -11   5  11   44.90    4.08
  11  -5 -10   19.37    3.60
 -11   5  10   12.72    3.14
  11  -5  -9  118.00    7.02
 -11   5   9  108.50    6.17
  11  -5  -8  955.20   40.69
 -11   5   8 1030.00   43.75
  11  -5  -7    0.26    2.74
 -11   5   7    0.27    3.05
  11  -5  -6  614.80   26.59
 -11   5   6  617.20   26.85
  11  -5  -5   -1.17    3.02
 -11   5   5    3.96    3.44
  11  -5  -4    5.68    3.55
 -11   5   4    5.50    3.44
  11  -5  -3   13.10    3.98
 -11   5   3    9.21    3.72
  11  -5  -2  169.70    9.01
 -11   5   2  155.90    8.37
  11  -5  -1   50.28    5.05
 -11   5   1   63.96    5.53
  11  -5   0  560.90   24.82
 -11   5   0  581.90   25.52
  11  -5   1   12.20    3.69
 -11   5  -1   13.71    3.76
  11  -5   2  226.60   11.26
 -11   5  -2  225.50   11.22
  11  -5   3   15.16    4.43
 -11   5  -3    2.34    3.69
  11  -5   4    0.49    3.65
 -11   5  -4    4.09    3.62
  11  -5   5    3.74    4.08
 -11   5  -5    7.74    3.78
  11  -5   6   22.51    4.36
 -11   5  -6   21.59    3.99
  11  -5   7    0.57    3.77
  11  -5   8  152.00    8.32
  11  -5   9    1.84    3.79
  11  -5  10   27.36    4.57
  11  -5  11    2.02    3.67
  11  -5  12   20.06    4.28
 -10   6  22    3.57    4.22
 -10   6  22   -1.02    4.22
 -10   6  20    3.76    3.09
 -10   6  20   -0.58    3.76
 -10   6  19    2.92    2.94
 -10   6  18   13.20    2.98
 -10   6  17    4.29    2.82
 -10   6  16   33.50    3.76
 -10   6  15    8.37    3.02
 -10   6  14    2.50    2.84
  10  -6 -13  203.80    9.80
 -10   6  13  194.50    9.45
  10  -6 -12   57.08    4.31
 -10   6  12   44.02    3.97
  10  -6 -11   79.99    4.88
 -10   6  11   90.92    5.30
  10  -6 -10  332.10   14.74
 -10   6  10  338.50   15.09
  10  -6  -9  112.70    6.29
 -10   6   9  111.10    6.25
  10  -6  -8   19.36    3.63
 -10   6   8   11.94    2.96
  10  -6  -7  376.00   16.95
 -10   6   7  380.20   17.02
  10  -6  -6    4.14    3.01
 -10   6   6    0.07    2.94
  10  -6  -5  191.40    9.42
 -10   6   5  193.10    9.61
  10  -6  -4   67.03    5.03
 -10   6   4   69.58    5.13
  10  -6  -3   13.04    3.68
 -10   6   3    2.05    3.27
  10  -6  -2  286.20   13.55
 -10   6   2  255.50   12.23
  10  -6  -1  487.10   21.59
 -10   6   1  500.70   22.24
  10  -6   0    8.64    3.92
 -10   6   0    9.16    3.44
  10  -6   1  141.30    8.24
 -10   6  -1  149.70    8.34
  10  -6   2    3.05    3.77
 -10   6  -2    2.67    3.94
  10  -6   3  136.00    7.69
 -10   6  -3  145.00    8.18
  10  -6   4   23.40    4.51
 -10   6  -4   22.17    4.18
  10  -6   5   35.22    4.54
 -10   6  -5   39.15    4.96
  10  -6   6   -1.38    3.91
  10  -6   7  210.40   10.82
  10  -6   8    9.03    3.87
  10  -6   9   58.94    5.12
  10  -6  10   13.42    4.19
  10  -6  11   -0.96    3.71
  10  -6  12   22.32    4.32
  10  -6  13   42.18    5.00
  -9   7  22    2.78    3.54
  -9   7  22    2.26    3.61
  -9   7  21    4.39    3.19
  -9   7  21    7.93    3.44
  -9   7  20   -1.23    2.80
  -9   7  20    4.45    3.08
  -9   7  19   44.25    3.57
  -9   7  19   51.18    3.95
  -9   7  18   -0.74    2.53
  -9   7  18    1.90    2.65
  -9   7  17   47.15    3.42
  -9   7  16   -1.45    2.43
  -9   7  15   87.76    4.85
  -9   7  14   76.11    4.52
  -9   7  13    2.21    2.40
   9  -7 -12    0.58    2.17
  -9   7  12    0.24    2.30
   9  -7 -11  220.40   10.05
  -9   7  11  239.30   10.83
   9  -7 -10   11.62    2.30
  -9   7  10   12.17    2.63
   9  -7  -9  693.50   29.38
  -9   7   9  739.80   31.37
   9  -7  -8   12.88    2.64
  -9   7   8   12.96    2.81
   9  -7  -7   -1.50    2.88
  -9   7   7    2.25    2.65
   9  -7  -6    8.78    3.08
  -9   7   6   10.01    2.78
   9  -7  -5   78.60    5.05
  -9   7   5   69.20    4.79
   9  -7  -4   88.69    5.69
  -9   7   4  103.30    6.36
   9  -7  -3  610.90   26.47
  -9   7   3  597.70   25.96
   9  -7  -2    9.25    3.49
  -9   7   2    1.84    3.52
   9  -7  -1   76.80    5.75
  -9   7   1   76.68    5.37
   9  -7   0   15.55    3.79
  -9   7   0    8.07    3.49
   9  -7   1   10.23    3.53
  -9   7  -1    0.98    3.47
   9  -7   2    1.51    3.59
  -9   7  -2    2.85    3.37
   9  -7   3  156.90    8.73
  -9   7  -3  162.70    8.85
   9  -7   4  116.30    7.09
  -9   7  -4  116.40    7.34
   9  -7   5   63.27    5.63
   9  -7   6    1.95    3.55
   9  -7   7   17.33    3.84
   9  -7   8   86.13    6.09
   9  -7   9   23.36    4.20
   9  -7  10    8.25    3.77
   9  -7  11   96.42    6.39
   9  -7  12    3.20    3.74
   9  -7  13   28.54    4.48
  -8   8  16    3.53    1.52
  -8   8  16    1.11    1.44
  -8   8  15   30.15    2.24
  -8   8  15   33.19    2.33
  -8   8  14   21.08    2.06
  -8   8  13   50.21    3.06
  -8   8  12    3.87    1.79
   8  -8 -11   39.43    3.00
  -8   8  11   38.37    2.74
   8  -8 -10  200.20    9.11
  -8   8  10  188.20    8.59
   8  -8  -9    6.73    2.20
  -8   8   9    1.15    2.07
   8  -8  -8   97.22    5.21
  -8   8   8   87.12    4.83
   8  -8  -7  367.70   16.19
  -8   8   7  353.10   15.58
   8  -8  -6    7.14    2.87
  -8   8   6    8.90    2.60
   8  -8  -5  254.60   11.85
  -8   8   5  240.20   11.18
   8  -8  -4   20.15    3.34
  -8   8   4   22.48    3.33
   8  -8  -3  163.60    8.39
  -8   8   3  172.40    8.73
   8  -8  -2  103.90    6.05
  -8   8   2  109.40    6.51
   8  -8  -1   93.95    5.92
  -8   8   1   95.34    5.92
   8  -8   0   28.42    4.10
  -8   8   0   35.41    4.17
   8  -8   1  159.60    8.69
  -8   8  -1  111.60    6.80
   8  -8   2    0.18    3.53
  -8   8  -2   -1.79    3.38
   8  -8   3   89.46    6.23
   8  -8   4  237.10   11.84
   8  -8   5   11.06    3.73
   8  -8   6   -0.81    3.62
   8  -8   7   85.35    6.16
   8  -8   8    9.39    3.68
   8  -8   9   20.96    4.69
   8  -8  10   96.31    6.11
   8  -8  11   18.93    3.95
   8  -8  12   66.91    5.25
   8  -8  13    4.50    4.17
   8  -8  14   -5.75    3.84
   7  -9 -10   21.14    1.76
  -7   9  10   25.09    2.06
   7  -9  -9    1.54    1.50
  -7   9   9    2.72    1.69
   7  -9  -8   33.53    2.59
  -7   9   8   37.59    2.87
   7  -9  -7   65.20    3.90
  -7   9   7   67.55    4.00
   7  -9  -6  154.40    7.49
  -7   9   6  154.80    7.53
   7  -9  -5   97.02    5.50
  -7   9   5  112.40    5.94
   7  -9  -4  452.90   19.87
  -7   9   4  490.70   21.33
   7  -9  -3    4.22    2.98
  -7   9   3    9.07    3.12
   7  -9  -2   85.05    5.58
  -7   9   2   83.89    5.43
   7  -9  -1   49.35    4.03
  -7   9   1   58.08    4.81
   7  -9   0  150.80    8.10
  -7   9   0  158.10    8.33
   7  -9   1    2.24    3.70
   7  -9   2  321.80   14.99
   7  -9   3    7.46    3.36
   7  -9   4   94.71    6.18
   7  -9   5    0.10    3.74
   7  -9   6   -1.22    3.90
   7  -9   7   15.75    3.80
   7  -9   8  259.80   12.70
   7  -9   9    0.76    3.64
   7  -9  10  133.30    7.70
   7  -9  11   -1.24    3.55
   7  -9  12   -0.06    3.62
   7  -9  13    7.87    3.86
   7  -9  14   20.71    3.96
   6 -10  -8   16.03    1.63
   6 -10  -7  130.50    6.06
   6 -10  -6  346.30   15.02
   6 -10  -5  155.70    7.49
   6 -10  -4    2.81    2.41
   6 -10  -3   19.08    3.25
   6 -10  -2  387.10   17.50
   6 -10  -1   -4.99    3.15
   6 -10   0  144.30    7.55
   6 -10   1   14.01    3.18
   6 -10   2   26.10    4.00
   6 -10   3  216.20   10.94
   6 -10   4  135.30    7.74
   6 -10   5   -7.62    3.54
   6 -10   6  194.80   10.09
   6 -10   7   16.53    3.85
   6 -10   8   20.43    3.69
   6 -10   9   31.01    4.75
   6 -10  10   56.92    4.98
   6 -10  11   15.01    4.06
   6 -10  12  102.40    6.61
   6 -10  13    8.05    4.10
   6 -10  14   39.71    4.47
   5 -11  -7   71.84    3.56
   5 -11  -6   31.64    2.53
   5 -11  -5   56.78    3.63
   5 -11  -4    3.54    2.19
   5 -11  -3  110.80    5.83
   5 -11  -2    9.06    3.00
   5 -11  -1  427.70   19.09
   5 -11   0   40.18    4.18
   5 -11   1   57.33    4.62
   5 -11   2   53.15    4.57
   5 -11   3   73.78    5.39
   5 -11   4    5.21    3.73
   5 -11   5  417.70   19.01
   5 -11   6   -3.25    3.29
   5 -11   7   68.13    5.58
   5 -11   8   67.22    5.64
   5 -11   9   11.01    3.63
   5 -11  10  115.70    7.70
   5 -11  11   12.47    3.51
   5 -11  12    8.81    3.59
   5 -11  13   48.72    4.54
   5 -11  14    3.66    3.73
   5 -11  15   19.57    5.31
   4 -12  -6   68.80    3.57
   4 -12  -6   74.97    3.76
   4 -12  -5  170.80    7.98
   4 -12  -4   38.70    3.12
   4 -12  -3  308.30   13.65
   4 -12  -2   54.40    3.94
   4 -12  -1    7.72    2.72
   4 -12   0    2.36    3.14
   4 -12   1  104.00    6.58
   4 -12   2   -1.09    3.41
   4 -12   3  525.10   23.06
   4 -12   4    0.31    3.41
   4 -12   5    3.45    4.07
   4 -12   6   53.13    5.01
   4 -12   7   33.63    4.16
   4 -12   8   10.18    3.98
   4 -12   9   82.15    5.94
   4 -12  10   -5.12    3.30
   4 -12  11   71.19    5.58
   4 -12  12   13.32    4.27
   4 -12  13    0.81    4.24
   4 -12  14   -6.49    3.45
   4 -12  15   10.18    3.80
   3 -13  -5   -0.96    1.76
   3 -13  -5    3.43    1.93
   3 -13  -4  122.60    6.10
   3 -13  -4  119.00    5.97
   3 -13  -3   18.70    2.87
   3 -13  -2  189.30    9.27
   3 -13  -1   -0.12    2.70
   3 -13   0   92.98    5.64
   3 -13   1   56.09    4.54
   3 -13   2  162.50    8.73
   3 -13   3    2.61    4.15
   3 -13   4   28.23    4.23
   3 -13   5  118.70    6.95
   3 -13   6    1.35    3.50
   3 -13   7   50.62    4.83
   3 -13   8   27.34    4.17
   3 -13   9    6.08    3.44
   3 -13  10   96.51    6.71
   3 -13  11   24.39    4.22
   3 -13  12    7.17    3.57
   3 -13  13   24.18    3.88
   3 -13  14    5.11    4.13
   3 -13  15    0.09    4.02
   2 -14  -5    1.07    1.73
   2 -14  -5   -0.18    1.77
   2 -14  -4   41.96    3.03
   2 -14  -4   39.09    3.08
   2 -14  -3    2.35    2.38
   2 -14  -3    1.87    2.64
   2 -14  -2  190.50    9.06
   2 -14  -2  175.20    8.78
   2 -14   0   61.53    5.07
   2 -14   1   17.55    3.40
   2 -14   2   27.50    3.90
   2 -14   3    3.27    3.58
   2 -14   4   76.44    5.84
   2 -14   5   23.16    4.30
   2 -14   6  116.50    6.98
   2 -14   7   18.55    3.54
   2 -14   8  183.70    9.73
   2 -14   9    1.92    3.57
   2 -14  10   -4.42    3.50
   2 -14  11    1.00    3.24
   2 -14  12   54.54    4.45
   2 -14  13    2.70    3.70
   2 -14  14   67.28    5.09
   1 -15  -5   23.05    1.90
   1 -15  -5   20.26    1.78
   1 -15  -4   70.61    4.11
   1 -15  -4   76.19    4.44
   1 -15  -3   12.79    2.78
   1 -15  -3   14.04    2.94
   1 -15  -2   41.32    4.01
   1 -15  -2   47.28    3.93
   1 -15  -1  191.00    9.20
   1 -15  -1  201.60    9.90
   1 -15   0   35.00    3.70
   1 -15   0   24.82    3.84
   1 -15   1  118.20    6.81
   1 -15   1  131.80    7.63
   1 -15   2   63.04    5.09
   1 -15   2   61.11    5.20
   1 -15   3   -2.70    3.42
   1 -15   4   77.11    5.45
   1 -15   5   62.55    5.09
   1 -15   6   43.42    4.72
   1 -15   7   38.18    4.74
   1 -15   8    2.78    3.15
   1 -15   9   79.72    5.82
   1 -15  10   69.71    4.94
   1 -15  11   -1.58    3.34
   1 -15  12   18.90    3.83
   1 -15  13   14.41    3.90
   1 -15  14   -1.61    3.68
   0 -16  -4    9.53    2.21
   0 -16  -4    8.55    2.32
   0 -16  -3   64.20    4.09
   0 -16  -3   54.89    3.89
   0 -16  -2    3.60    2.67
   0 -16  -2    4.54    2.68
   0 -16  -1    1.89    3.04
   0 -16  -1    3.02    3.31
   0 -16   0   38.85    3.97
   0 -16   0   25.68    3.82
   0 -16   1    3.68    3.05
   0 -16   1   -0.25    3.37
   0 -16   2   13.55    3.39
   0 -16   2   11.17    3.95
   0 -16   3   64.97    5.19
   0 -16   3   59.09    5.38
   0 -16   4   12.81    3.98
   0 -16   4    3.87    4.04
   0 -16   5   57.23    5.34
   0 -16   5   53.02    5.22
   0 -16   6   17.76    3.49
   0 -16   6    9.53    4.50
   0 -16   7    4.62    3.64
   0 -16   7    5.26    3.84
   0 -16   8    3.30    3.63
   0 -16   8    1.93    4.12
   0 -16   9   36.97    3.97
   0 -16   9   24.90    4.34
   0 -16  10   -0.97    3.62
   0 -16  10    2.12    3.74
   0 -16  11   40.10    4.52
   0 -16  11   26.14    4.85
   0 -16  12    7.56    3.57
   0 -16  12   10.85    3.85
   0 -16  13    2.04    3.19
   0 -16  13   12.98    4.08
   0 -16  14    0.30    3.38
   0 -16  14    7.61    3.78
  -1 -17  -4   38.77    2.89
  -1 -17  -4   42.79    3.13
  -1 -17  -3    2.31    2.55
  -1 -17  -3    3.53    2.65
  -1 -17  -2   -1.02    2.84
  -1 -17  -2    1.64    2.85
  -1 -17  -1   47.77    4.01
  -1 -17  -1   47.01    4.26
  -1 -17   0   29.36    3.68
  -1 -17   0   34.36    4.33
  -1 -17   1    4.12    3.08
  -1 -17   1   -3.19    3.48
  -1 -17   2    2.37    3.35
  -1 -17   2    2.70    3.72
  -1 -17   3   17.51    3.69
  -1 -17   3    9.45    3.97
  -1 -17   4   20.05    3.64
  -1 -17   4    6.66    3.74
  -1 -17   5   -2.73    3.42
  -1 -17   5    1.48    3.75
  -1 -17   6   14.26    3.95
  -1 -17   6   12.77    3.88
  -1 -17   7   45.85    4.77
  -1 -17   7   47.28    4.93
  -1 -17   8   32.67    4.01
  -1 -17   8   27.85    4.78
  -1 -17   9   17.10    3.71
  -1 -17   9   14.11    4.10
  -1 -17  10   23.00    3.58
  -1 -17  10   19.85    4.66
  -1 -17  11   10.23    3.43
  -1 -17  11    5.79    4.23
  -1 -17  12   14.37    3.54
  -1 -17  12   16.12    3.96
  -1 -17  13    9.24    3.48
  -1 -17  13    6.93    3.80
  -2 -18  -4    4.56    2.18
  -2 -18  -4    6.06    2.05
  -2 -18  -3   21.60    3.48
  -2 -18  -3   22.81    3.39
  -2 -18  -2   25.79    3.41
  -2 -18  -2   24.38    3.48
  -2 -18  -1   -3.63    2.95
  -2 -18  -1    0.85    3.24
  -2 -18   0  165.00    8.35
  -2 -18   0  165.40    8.61
  -2 -18   1   19.57    3.53
  -2 -18   1   23.19    3.85
  -2 -18   2   44.30    4.32
  -2 -18   2   29.45    4.27
  -2 -18   3   24.43    4.07
  -2 -18   3   33.20    4.04
  -2 -18   4    3.54    3.58
  -2 -18   4   -0.16    3.70
  -2 -18   5    1.02    3.77
  -2 -18   5    2.67    3.87
  -2 -18   6   32.72    4.33
  -2 -18   6   47.24    4.96
  -2 -18   7    8.95    3.63
  -2 -18   7    0.59    3.92
  -2 -18   8   63.62    4.96
  -2 -18   8   69.81    5.58
  -2 -18   9   12.30    3.69
  -2 -18   9    2.14    4.75
  -2 -18  10    5.25    3.87
  -2 -18  10    5.44    3.99
  -2 -18  11    2.45    3.79
  -2 -18  11   -0.70    3.57
  -2 -18  12   18.83    3.80
  -2 -18  12   21.27    3.97
  -3 -19  -3   -2.04    3.20
  -3 -19  -3   -1.11    2.78
  -3 -19  -2  101.60    6.18
  -3 -19  -2  102.80    6.10
  -3 -19  -1   -0.52    3.74
  -3 -19  -1    2.19    3.40
  -3 -19   0    6.96    3.49
  -3 -19   0    3.84    3.91
  -3 -19   1   30.99    4.04
  -3 -19   1   28.46    4.23
  -3 -19   2   13.54    3.68
  -3 -19   2    8.29    4.08
  -3 -19   3    4.65    3.79
  -3 -19   3    2.95    3.60
  -3 -19   5   -3.93    3.72
  -3 -19   5    0.47    4.06
  -3 -19   6    4.71    3.72
  -3 -19   6    7.93    4.54
  -3 -19   7    2.98    3.59
  -3 -19   7   -5.84    4.29
  -3 -19   8   -1.54    3.35
  -3 -19   8   -1.56    4.27
  -3 -19   9    9.56    3.87
  -3 -19   9    1.46    4.35
  -3 -19  10   22.80    3.93
  -3 -19  10   20.47    4.32
  -3 -19  11   -0.18    3.60
  -3 -19  11    1.92    4.24
  -4 -20  -2    9.85    4.02
  -4 -20  -2   -2.99    3.55
  -4 -20  -1   11.70    4.38
  -4 -20  -1   16.19    4.14
  -4 -20   0    8.28    4.42
  -4 -20   0   -1.46    3.63
  -4 -20   1    1.56    4.00
  -4 -20   1    3.37    4.62
  -4 -20   2    5.63    3.96
  -4 -20   2   15.00    4.14
  -4 -20   3   16.13    4.17
  -4 -20   3   25.42    4.59
  -4 -20   4    5.87    3.91
  -4 -20   4   -3.31    3.93
  -4 -20   5   25.99    4.31
  -4 -20   5   31.72    4.61
  -4 -20   6   16.05    4.05
  -4 -20   6    2.87    4.02
  -4 -20   7    5.83    3.83
  -4 -20   7   13.78    4.49
  -4 -20   8    8.68    3.99
  -4 -20   8    3.41    4.58
  -4 -20   9    8.21    4.06
  -4 -20   9    2.52    4.20
  -4 -20  10   10.63    3.90
  -4 -20  10    0.57    4.63
  -5 -21  -2    3.13    4.67
  -5 -21  -2   -2.41    4.72
  -5 -21  -1    4.57    4.56
  -5 -21  -1    7.32    4.49
  -5 -21   0   -4.11    4.54
  -5 -21   0   -2.27    4.58
  -5 -21   1   27.51    4.95
  -5 -21   1   28.17    4.88
  -5 -21   2   -6.66    4.52
  -5 -21   2    6.68    4.59
  -5 -21   3   16.49    4.73
  -5 -21   3   32.27    4.95
  -5 -21   4   -0.71    4.24
  -5 -21   4   -4.05    4.19
  -5 -21   5   -2.96    3.93
  -5 -21   5   -0.20    4.22
  -5 -21   6   -2.76    4.01
  -5 -21   6   -0.28    4.09
  -5 -21   7   23.20    4.69
  -5 -21   7   23.20    4.61
  23   5 -17   -6.18    3.25
 -23  -5  17   -5.49    3.81
  23   5 -16    9.87    3.37
 -23  -5  16    9.52    4.16
  23   5 -15    3.06    3.38
 -23  -5  15   -7.73    3.63
  23   5 -14   -3.70    3.80
 -23  -5  14    3.81    3.57
  23   5 -13   -0.42    3.73
 -23  -5  13   10.02    3.87
  23   5 -12    7.32    3.59
 -23  -5  12    8.82    3.77
  23   5 -11   -1.00    3.82
 -23  -5  11   -2.83    3.55
  23   5 -10   23.42    4.12
 -23  -5  10   25.12    4.10
  23   5  -9   -0.21    3.62
 -23  -5   9   -3.23    3.50
  23   5  -8    4.72    3.85
 -23  -5   8    6.94    3.78
  23   5  -7    4.31    4.27
 -23  -5   7    0.52    3.63
  23   5  -6    8.61    4.13
 -23  -5   6    7.46    3.90
  23   5  -5    5.00    3.72
 -23  -5   5   -2.02    3.87
  22   4 -19    8.08    3.73
 -22  -4  19    5.74    3.96
  22   4 -18   -2.44    3.34
 -22  -4  18    9.84    4.10
  22   4 -17    0.45    3.53
 -22  -4  17    4.42    3.91
  22   4 -16   -0.17    3.68
 -22  -4  16    1.89    3.70
  22   4 -15    1.95    3.51
 -22  -4  15   -5.14    3.90
  22   4 -14   18.77    3.71
 -22  -4  14   37.44    4.70
  22   4 -13    2.28    3.69
 -22  -4  13    1.10    3.85
  22   4 -12   21.65    4.34
 -22  -4  12   38.74    4.66
  22   4 -11    8.49    4.00
 -22  -4  11   14.53    3.92
  22   4 -10   -2.59    3.59
 -22  -4  10    9.00    3.71
  22   4  -9    3.55    4.02
 -22  -4   9    8.21    3.98
  22   4  -8   19.17    4.59
 -22  -4   8   29.12    4.30
  22   4  -7   -7.19    4.42
 -22  -4   7   -3.21    3.66
  22   4  -6   38.13    4.37
 -22  -4   6   38.47    4.46
  22   4  -5    6.42    3.65
 -22  -4   5    1.90    3.85
  22   4  -4   23.92    4.50
 -22  -4   4   16.16    4.15
  22   4  -3    4.50    3.93
 -22  -4   3    5.29    4.03
  22   4  -2   -0.66    3.90
 -22  -4   2    1.06    4.08
 -21  -3  20    1.91    4.04
  21   3 -19   21.61    3.82
 -21  -3  19   30.00    4.47
  21   3 -18    2.20    4.01
 -21  -3  18    1.53    3.87
  21   3 -17   -2.12    3.83
 -21  -3  17   -2.85    3.89
  21   3 -16    6.96    3.80
 -21  -3  16   12.36    4.04
  21   3 -15   -0.47    3.82
 -21  -3  15   10.48    4.16
  21   3 -14    5.87    3.62
 -21  -3  14    0.35    4.12
  21   3 -13   53.08    4.84
 -21  -3  13   56.90    5.46
  21   3 -12   11.86    4.30
 -21  -3  12   14.71    4.38
  21   3 -11   22.31    4.45
 -21  -3  11   25.31    4.57
  21   3 -10    8.14    3.77
 -21  -3  10    2.80    3.95
  21   3  -9   17.87    4.51
 -21  -3   9   28.59    4.47
  21   3  -8   18.20    4.32
 -21  -3   8   21.70    4.04
  21   3  -7   42.60    4.57
 -21  -3   7   45.50    4.73
  21   3  -6    1.54    3.98
 -21  -3   6    1.75    3.81
  21   3  -5   34.74    4.52
 -21  -3   5   17.84    3.98
  21   3  -4   -3.31    4.20
 -21  -3   4   -0.17    3.80
  21   3  -3    1.12    4.08
 -21  -3   3    1.73    4.10
  21   3  -2   21.90    4.42
 -21  -3   2   25.52    4.26
  21   3  -1   30.09    4.63
 -21  -3   1   35.42    4.35
  21   3   0   10.74    4.11
 -21  -3   0    9.44    3.91
 -20  -2  21   65.84    5.45
 -20  -2  20   -1.37    4.58
  20   2 -19    6.26    4.00
 -20  -2  19   -0.94    4.42
  20   2 -18    2.99    3.77
 -20  -2  18    3.22    4.00
  20   2 -17  114.70    6.99
 -20  -2  17  114.00    6.95
  20   2 -16    3.38    3.58
 -20  -2  16    6.38    4.07
  20   2 -15   13.31    4.30
 -20  -2  15    4.43    4.13
  20   2 -14    4.66    3.54
 -20  -2  14   12.58    3.82
  20   2 -13   16.09    3.94
 -20  -2  13    6.14    3.66
  20   2 -12   16.25    4.10
 -20  -2  12    7.28    4.13
  20   2 -11  105.30    6.54
 -20  -2  11   92.83    6.35
  20   2 -10   -1.15    3.66
 -20  -2  10    1.01    3.65
  20   2  -9  229.60   11.63
 -20  -2   9  226.80   11.28
  20   2  -8    3.71    3.85
 -20  -2   8   21.86    4.50
  20   2  -7   30.59    4.61
 -20  -2   7   32.19    4.41
  20   2  -6    2.18    4.12
 -20  -2   6    2.31    3.75
  20   2  -5   -6.89    3.74
 -20  -2   5    3.75    3.66
  20   2  -4   -4.78    4.28
 -20  -2   4   -0.65    3.88
  20   2  -3   41.33    4.63
 -20  -2   3   38.15    4.88
  20   2  -2    5.86    3.85
 -20  -2   2    6.83    4.10
  20   2  -1   99.12    6.57
 -20  -2   1   98.88    6.26
  20   2   0   -0.16    4.19
 -20  -2   0    0.17    3.69
  20   2   1    9.29    3.90
 -20  -2  -1    4.41    3.70
  20   2   2   -4.95    3.61
 -20  -2  -2   -9.93    4.12
 -19  -1  22   10.41    4.72
 -19  -1  21    1.79    4.03
 -19  -1  20   -0.60    3.90
  19   1 -19   25.55    4.22
 -19  -1  19   29.48    4.47
  19   1 -18   15.70    4.27
 -19  -1  18   21.92    4.28
  19   1 -17   -2.62    4.09
 -19  -1  17   -3.94    4.14
  19   1 -16  129.30    7.48
 -19  -1  16  107.90    6.90
  19   1 -15    5.58    3.78
 -19  -1  15    5.25    3.86
  19   1 -14   21.31    4.43
 -19  -1  14   24.67    4.29
  19   1 -13   92.42    6.48
 -19  -1  13  102.30    6.56
  19   1 -12   -2.72    3.71
 -19  -1  12   -0.41    3.67
  19   1 -11   17.40    3.93
 -19  -1  11   19.08    4.13
  19   1 -10   71.58    6.14
 -19  -1  10   60.41    5.48
  19   1  -9   14.09    4.19
 -19  -1   9    6.66    4.02
  19   1  -8   84.60    5.91
 -19  -1   8   69.84    5.54
  19   1  -7   38.69    4.90
 -19  -1   7   37.57    4.81
  19   1  -6   25.20    4.63
 -19  -1   6   24.57    4.42
  19   1  -5   64.49    5.34
 -19  -1   5   77.43    5.88
  19   1  -4   10.47    4.04
 -19  -1   4   19.99    4.10
  19   1  -3   18.55    4.34
 -19  -1   3   22.60    4.12
  19   1  -2   40.30    5.05
 -19  -1   2   30.00    4.23
  19   1  -1    2.30    3.67
 -19  -1   1   -6.66    3.55
  19   1   0   15.05    3.88
 -19  -1   0   27.96    4.29
  19   1   1   31.85    4.67
 -19  -1  -1   24.19    3.98
  19   1   2   -4.46    3.77
 -19  -1  -2    5.38    3.92
  19   1   3   34.06    4.91
 -19  -1  -3   30.41    4.09
  19   1   4   10.28    3.94
 -19  -1  -4    9.72    4.40
 -18   0  22   14.96    4.83
 -18   0  21   -2.01    4.35
 -18   0  20   28.14    4.79
 -18   0  19   -0.86    4.15
  18   0 -18   71.28    5.77
 -18   0  18   70.02    5.68
  18   0 -17   -1.61    3.69
 -18   0  17    1.81    4.00
  18   0 -16   20.19    3.77
 -18   0  16   14.76    3.76
  18   0 -15    2.97    4.07
 -18   0  15  -12.07    3.52
  18   0 -14  242.60   11.97
 -18   0  14  305.50   14.38
  18   0 -13   -2.66    3.38
 -18   0  13   -1.29    3.41
  18   0 -12  207.70   10.60
 -18   0  12  225.90   11.20
  18   0 -11    2.93    3.92
 -18   0  11    7.93    4.15
  18   0 -10   -0.06    3.91
 -18   0  10   -4.86    3.85
  18   0  -9   -2.09    3.95
 -18   0   9    3.42    4.27
  18   0  -8   11.23    4.65
 -18   0   8   11.14    4.23
  18   0  -7    4.70    4.12
 -18   0   7    0.21    3.83
  18   0  -6  128.30    7.59
 -18   0   6  137.40    8.07
  18   0  -5   -3.33    3.95
 -18   0   5    2.21    3.95
  18   0  -4  171.90    9.12
 -18   0   4  173.60    9.24
  18   0  -3    4.71    3.90
 -18   0   3    1.22    3.66
  18   0  -2   10.05    3.95
 -18   0   2   15.12    3.74
  18   0  -1   -9.86    3.94
 -18   0   1    3.00    3.74
  18   0   0   16.28    4.10
 -18   0   0   11.63    3.88
  18   0   1   -5.43    3.78
 -18   0  -1   -0.79    3.64
  18   0   2   76.74    5.72
 -18   0  -2   83.39    5.84
  18   0   3    1.87    3.87
 -18   0  -3    3.32    3.88
  18   0   4   29.58    4.53
 -18   0  -4   31.64    4.57
  18   0   5   -2.71    4.01
 -18   0  -5    4.28    4.12
 -17   1  23   11.83    4.85
 -17   1  22   40.25    5.42
 -17   1  21   16.58    4.79
 -17   1  20   -1.50    4.32
 -17   1  19   19.23    4.02
  17  -1 -18    1.16    3.87
 -17   1  18   13.04    3.74
  17  -1 -17   17.50    4.38
 -17   1  17   22.44    4.13
  17  -1 -16  152.30    8.41
 -17   1  16  170.70    8.93
  17  -1 -15   26.88    4.29
 -17   1  15   21.40    4.22
  17  -1 -14  132.10    8.15
 -17   1  14  160.30    8.70
  17  -1 -13   63.95    5.60
 -17   1  13   61.81    5.34
  17  -1 -12   12.72    3.53
 -17   1  12    8.17    3.83
  17  -1 -11   49.79    5.04
 -17   1  11   57.53    5.35
  17  -1 -10   60.67    5.55
 -17   1  10   67.10    5.48
  17  -1  -9    2.88    4.28
 -17   1   9    4.24    4.26
  17  -1  -8   10.59    4.03
 -17   1   8    2.52    4.05
  17  -1  -7    3.15    4.01
 -17   1   7   -0.13    4.07
  17  -1  -6   80.24    6.13
 -17   1   6   75.62    5.90
  17  -1  -5   32.99    4.23
 -17   1   5   12.60    3.98
  17  -1  -4    0.52    3.76
 -17   1   4    4.28    4.09
  17  -1  -3   22.60    4.50
 -17   1   3   26.33    4.62
  17  -1  -2   34.54    4.62
 -17   1   2   24.10    4.22
  17  -1  -1   -4.09    3.91
 -17   1   1   -6.54    3.44
  17  -1   0   31.48    4.15
 -17   1   0   26.74    4.13
  17  -1   1   44.67    4.85
 -17   1  -1   41.01    4.88
  17  -1   2    2.96    3.62
 -17   1  -2    2.02    3.90
  17  -1   3   46.95    4.69
 -17   1  -3   48.99    4.79
  17  -1   4   19.82    4.44
 -17   1  -4   13.10    3.68
  17  -1   5   11.46    3.81
 -17   1  -5    4.07    3.69
  17  -1   6   45.70    5.11
 -17   1  -6   52.89    4.94
 -16   2  23   25.26    5.17
 -16   2  22    4.59    4.60
 -16   2  21   83.74    6.36
 -16   2  20    7.84    4.30
 -16   2  19    0.02    4.02
 -16   2  18   -1.07    3.80
  16  -2 -17   65.43    5.10
 -16   2  17   68.77    5.34
  16  -2 -16   11.20    4.37
 -16   2  16   14.04    3.59
  16  -2 -15   94.15    6.30
 -16   2  15   88.67    6.07
  16  -2 -14    1.30    3.49
 -16   2  14    0.51    3.63
  16  -2 -13   73.68    6.28
 -16   2  13   54.31    5.11
  16  -2 -12    0.32    4.12
 -16   2  12    9.82    4.08
  16  -2 -11   34.75    4.72
 -16   2  11   23.11    4.53
  16  -2 -10    7.90    3.66
 -16   2  10    2.45    4.26
  16  -2  -9  146.00    8.57
 -16   2   9  171.30    9.32
  16  -2  -8   21.71    4.29
 -16   2   8   18.39    3.97
  16  -2  -7   11.51    4.11
 -16   2   7    2.94    3.68
  16  -2  -6    0.48    4.07
 -16   2   6    3.48    4.21
  16  -2  -5   37.04    4.64
 -16   2   5   29.42    4.68
  16  -2  -4    3.65    4.20
 -16   2   4    2.41    3.75
  16  -2  -3  109.40    6.96
 -16   2   3  121.70    7.33
  16  -2  -2   -0.39    3.81
 -16   2   2   -3.37    3.89
  16  -2  -1  107.80    6.81
 -16   2   1  116.40    7.07
  16  -2   0   46.04    5.28
 -16   2   0   63.74    5.23
  16  -2   1   44.01    5.08
 -16   2  -1   33.82    4.35
  16  -2   2    9.95    3.60
 -16   2  -2   10.86    3.74
  16  -2   3   71.70    5.46
 -16   2  -3   70.63    5.70
  16  -2   4    1.15    4.13
 -16   2  -4    7.14    3.95
  16  -2   5   49.57    4.74
 -16   2  -5   65.77    5.35
  16  -2   6   10.10    4.13
 -16   2  -6   10.73    4.15
  16  -2   7   53.66    5.08
 -16   2  -7   51.91    4.88
  16  -2   8    4.47    4.09
 -15   3  23    6.31    4.74
 -15   3  22    8.66    4.45
 -15   3  21   -0.62    4.27
 -15   3  20   44.16    5.26
 -15   3  19   72.31    5.62
 -15   3  18    7.72    3.82
  15  -3 -17   48.31    4.78
 -15   3  17   34.45    4.00
  15  -3 -16   99.08    6.22
 -15   3  16   76.25    5.59
  15  -3 -15   -0.23    3.65
 -15   3  15    0.83    3.59
  15  -3 -14   34.06    4.16
 -15   3  14   26.34    4.28
  15  -3 -13   56.98    5.07
 -15   3  13   65.07    5.38
  15  -3 -12   75.23    6.00
 -15   3  12   69.22    5.36
  15  -3 -11  349.20   16.40
 -15   3  11  341.10   15.87
  15  -3 -10   49.97    4.70
 -15   3  10   69.14    5.74
  15  -3  -9  117.40    7.16
 -15   3   9  130.70    7.76
  15  -3  -8   42.03    4.91
 -15   3   8   35.74    4.78
  15  -3  -7  275.70   13.49
 -15   3   7  265.80   13.00
  15  -3  -6   72.62    5.77
 -15   3   6   55.73    5.11
  15  -3  -5  173.00    9.25
 -15   3   5  179.00    9.48
  15  -3  -4    3.54    4.41
 -15   3   4   -3.57    3.74
  15  -3  -3  168.50    9.34
 -15   3   3  181.40    9.73
  15  -3  -2   71.78    5.43
 -15   3   2   76.37    5.78
  15  -3  -1   -7.52    3.55
 -15   3   1   -0.43    3.48
  15  -3   0   85.42    6.26
 -15   3   0  112.80    7.47
  15  -3   1  167.10    8.90
 -15   3  -1  160.70    8.84
  15  -3   2   -2.78    3.72
 -15   3  -2    2.58    4.07
  15  -3   3   94.83    6.17
 -15   3  -3  119.00    7.16
  15  -3   4   92.41    6.23
 -15   3  -4   78.35    6.01
  15  -3   5   25.74    4.51
 -15   3  -5   23.19    4.49
  15  -3   6    6.76    4.29
 -15   3  -6   24.34    4.50
  15  -3   7   -0.45    3.59
 -15   3  -7    0.25    3.58
  15  -3   8    6.22    3.56
  15  -3   9   20.09    4.70
 -14   4  23   -1.73    5.15
 -14   4  22    5.46    4.49
 -14   4  21    0.44    4.20
 -14   4  20    2.92    3.76
 -14   4  19   17.68    4.22
 -14   4  18   79.10    5.73
 -14   4  17   59.55    4.82
  14  -4 -16   64.39    5.04
 -14   4  16   67.60    5.10
  14  -4 -15    2.14    3.29
 -14   4  15    2.09    3.48
  14  -4 -14   47.58    4.93
 -14   4  14   57.28    4.95
  14  -4 -13    5.18    3.43
 -14   4  13   -1.47    3.24
  14  -4 -12  107.20    6.44
 -14   4  12  113.40    6.89
  14  -4 -11    0.28    3.93
 -14   4  11    1.72    3.92
  14  -4 -10  234.10   11.70
 -14   4  10  210.40   10.61
  14  -4  -9   -1.32    3.44
 -14   4   9   -2.28    3.35
  14  -4  -8   50.78    4.52
 -14   4   8   53.70    4.71
  14  -4  -7  272.90   13.06
 -14   4   7  294.00   13.86
  14  -4  -6  279.10   13.60
 -14   4   6  279.10   13.33
  14  -4  -5   54.78    5.39
 -14   4   5   67.22    5.36
  14  -4  -4  477.50   21.20
 -14   4   4  479.00   21.39
  14  -4  -3   36.79    4.66
 -14   4   3   40.83    4.46
  14  -4  -2   31.91    4.86
 -14   4   2   32.69    4.35
  14  -4  -1   21.39    4.23
 -14   4   1   23.31    4.26
  14  -4   0    2.64    3.98
 -14   4   0    6.16    4.12
  14  -4   1    3.63    3.78
 -14   4  -1   -3.34    3.59
  14  -4   2  289.90   13.80
 -14   4  -2  290.60   13.75
  14  -4   3   33.15    4.93
 -14   4  -3   35.69    4.30
  14  -4   4  161.10    8.64
 -14   4  -4  154.10    8.36
  14  -4   5   34.76    4.98
 -14   4  -5   35.66    4.52
  14  -4   6   10.23    3.82
 -14   4  -6    6.89    3.83
  14  -4   7   15.88    3.79
 -14   4  -7    9.66    3.67
  14  -4   8    4.47    3.73
  14  -4   9    6.68    3.62
 -13   5  23    3.13    5.51
 -13   5  22    9.03    4.58
 -13   5  21    1.08    3.71
 -13   5  20    2.48    3.65
 -13   5  19    3.26    3.77
 -13   5  18   60.93    5.12
 -13   5  17   -3.75    3.26
 -13   5  16   48.24    4.53
  13  -5 -15   15.85    3.56
 -13   5  15   15.48    3.56
  13  -5 -14  143.90    7.68
 -13   5  14  165.70    8.52
  13  -5 -13   23.64    3.81
 -13   5  13   30.61    4.21
  13  -5 -12   48.40    4.43
 -13   5  12   52.21    4.69
  13  -5 -11   77.02    5.38
 -13   5  11   84.54    5.81
  13  -5 -10   -1.23    3.47
 -13   5  10    1.68    3.43
  13  -5  -9    4.57    3.87
 -13   5   9    5.35    3.56
  13  -5  -8  218.00   10.85
 -13   5   8  192.50    9.81
  13  -5  -7   29.69    3.88
 -13   5   7   26.64    4.00
  13  -5  -6  399.40   17.97
 -13   5   6  435.00   19.59
  13  -5  -5    1.61    3.84
 -13   5   5    7.30    3.70
  13  -5  -4  185.20   10.11
 -13   5   4  177.60    9.38
  13  -5  -3   29.79    4.30
 -13   5   3   40.89    4.47
  13  -5  -2  175.60    9.26
 -13   5   2  201.40   10.18
  13  -5  -1   -0.69    4.23
 -13   5   1    5.43    3.67
  13  -5   0  299.00   14.25
 -13   5   0  374.30   17.20
  13  -5   1    2.62    3.57
 -13   5  -1   -2.79    3.53
  13  -5   2    9.98    4.30
 -13   5  -2    0.25    3.51
  13  -5   3   26.13    4.64
 -13   5  -3   29.89    4.14
  13  -5   4    6.34    4.28
 -13   5  -4   15.14    3.83
  13  -5   5    1.85    3.72
 -13   5  -5   -1.97    3.53
  13  -5   6  171.00    9.13
 -13   5  -6  170.90    9.30
  13  -5   7   15.70    4.19
  13  -5   8   78.17    5.48
  13  -5   9    7.48    3.74
  13  -5  10    3.26    4.21
 -12   6  22   -0.43    4.33
 -12   6  22   -2.17    4.48
 -12   6  21   39.79    4.53
 -12   6  20   -2.43    3.54
 -12   6  19    7.32    3.38
 -12   6  18    1.18    3.40
 -12   6  17   -3.88    3.10
 -12   6  16   95.86    5.83
  12  -6 -15    9.65    3.12
 -12   6  15   11.70    3.42
  12  -6 -14    6.26    2.87
 -12   6  14   -0.90    3.38
  12  -6 -13   89.63    5.64
 -12   6  13  102.40    6.12
  12  -6 -12   -1.60    3.33
 -12   6  12    7.37    3.44
  12  -6 -11    6.67    3.25
 -12   6  11    9.51    3.45
  12  -6 -10  160.50    8.05
 -12   6  10  200.80    9.81
  12  -6  -9  149.20    8.04
 -12   6   9  157.70    8.10
  12  -6  -8    1.00    3.43
 -12   6   8    5.58    3.23
  12  -6  -7  354.70   16.31
 -12   6   7  379.40   17.20
  12  -6  -6    7.19    3.16
 -12   6   6    1.06    3.42
  12  -6  -5   51.96    4.66
 -12   6   5   43.07    4.26
  12  -6  -4  442.60   19.91
 -12   6   4  457.70   20.43
  12  -6  -3   34.57    4.45
 -12   6   3   35.28    4.13
  12  -6  -2  122.60    7.50
 -12   6   2   96.19    6.36
  12  -6  -1  380.80   17.36
 -12   6   1  431.00   19.47
  12  -6   0    8.14    4.46
 -12   6   0   18.05    3.94
  12  -6   1  205.90   10.66
 -12   6  -1  209.00   10.67
  12  -6   2   66.19    5.55
 -12   6  -2   70.37    5.59
  12  -6   3    0.93    4.16
 -12   6  -3    2.91    3.80
  12  -6   4  145.50    8.30
 -12   6  -4  171.50    9.20
  12  -6   5    3.50    4.00
 -12   6  -5    6.14    3.76
  12  -6   6   51.83    5.39
 -12   6  -6   57.48    4.80
  12  -6   7  125.20    7.44
  12  -6   8   -2.56    3.94
  12  -6   9   78.58    5.76
  12  -6  10   15.64    4.12
  12  -6  11    1.98    3.75
 -11   7  22   -3.03    4.24
 -11   7  22    5.87    4.43
 -11   7  21    3.41    3.87
 -11   7  21    1.78    3.79
 -11   7  20    3.38    3.18
 -11   7  20    2.58    3.21
 -11   7  19   15.89    3.30
 -11   7  18    3.55    2.95
 -11   7  17   38.21    3.51
 -11   7  16   14.35    3.24
 -11   7  15   10.93    3.33
  11  -7 -14   -3.02    2.79
 -11   7  14    0.62    3.09
  11  -7 -13   12.21    2.65
 -11   7  13    3.89    2.84
  11  -7 -12   -2.05    2.79
 -11   7  12    6.23    2.83
  11  -7 -11  259.60   12.22
 -11   7  11  240.10   11.22
  11  -7 -10    3.15    2.86
 -11   7  10   -1.43    2.92
  11  -7  -9  304.20   13.79
 -11   7   9  304.90   13.88
  11  -7  -8    3.26    3.05
 -11   7   8    6.11    3.02
  11  -7  -7    9.05    3.36
 -11   7   7   -0.66    3.01
  11  -7  -6    2.74    3.40
 -11   7   6   11.09    3.32
  11  -7  -5   25.25    3.81
 -11   7   5   25.66    3.76
  11  -7  -4   44.93    4.19
 -11   7   4   45.52    4.23
  11  -7  -3  620.70   27.06
 -11   7   3  620.90   27.03
  11  -7  -2    0.75    3.82
 -11   7   2   -1.16    3.38
  11  -7  -1   59.81    5.26
 -11   7   1   54.71    5.09
  11  -7   0    4.92    3.73
 -11   7   0   12.94    4.22
  11  -7   1    4.84    4.13
 -11   7  -1   -1.21    3.59
  11  -7   2    5.17    3.85
 -11   7  -2    6.25    4.13
  11  -7   3   15.27    3.96
 -11   7  -3   19.51    4.39
  11  -7   4    2.65    4.09
 -11   7  -4   -0.24    3.67
  11  -7   5  109.20    7.08
 -11   7  -5   96.41    6.18
  11  -7   6   72.63    5.53
  11  -7   7   24.83    4.37
  11  -7   8    7.65    4.07
  11  -7   9   18.45    3.90
  11  -7  10    5.46    4.20
  11  -7  11   21.46    4.25
  11  -7  12    6.25    4.13
 -10   8  19    5.55    2.15
 -10   8  19    8.23    2.36
 -10   8  18   14.45    2.40
 -10   8  18   19.21    2.70
 -10   8  17    7.97    2.41
 -10   8  16   87.57    4.76
 -10   8  15   50.26    3.41
 -10   8  14   23.90    2.74
  10  -8 -13   59.36    4.07
 -10   8  13   46.32    3.37
  10  -8 -12   13.49    2.54
 -10   8  12   18.15    2.85
  10  -8 -11    8.10    3.01
 -10   8  11    7.82    2.78
  10  -8 -10  108.90    6.13
 -10   8  10  115.90    6.23
  10  -8  -9  103.60    5.90
 -10   8   9   96.05    5.43
  10  -8  -8  114.00    6.17
 -10   8   8  127.30    6.71
  10  -8  -7  188.30    9.25
 -10   8   7  193.00    9.33
  10  -8  -6    6.90    3.38
 -10   8   6    4.87    2.99
  10  -8  -5   95.37    6.06
 -10   8   5  100.90    6.08
  10  -8  -4  112.20    6.61
 -10   8   4  101.50    6.32
  10  -8  -3    7.67    3.32
 -10   8   3   11.14    3.28
  10  -8  -2   37.27    4.30
 -10   8   2   42.32    4.47
  10  -8  -1   48.54    4.80
 -10   8   1   47.53    4.58
  10  -8   0   12.10    4.16
 -10   8   0    8.93    3.77
  10  -8   1  186.80    9.76
 -10   8  -1  177.90    9.44
  10  -8   2   48.16    4.73
 -10   8  -2   32.56    4.75
  10  -8   3   46.73    4.95
 -10   8  -3   67.88    5.92
  10  -8   4    6.21    3.69
  10  -8   5   35.04    4.33
  10  -8   6  136.90    7.94
  10  -8   7   28.63    4.31
  10  -8   8    0.03    3.94
  10  -8   9    8.73    3.86
  10  -8  10   42.80    4.79
  10  -8  11   -2.43    3.84
  10  -8  12   -1.13    3.67
  -9   9  14  159.70    7.16
  -9   9  13    2.63    1.76
   9  -9 -12  121.30    5.75
  -9   9  12  118.70    5.78
   9  -9 -11   20.53    2.35
  -9   9  11   23.48    2.57
   9  -9 -10    6.56    2.36
  -9   9  10    5.25    2.40
   9  -9  -9   25.40    3.06
  -9   9   9   22.71    2.79
   9  -9  -8  142.00    7.00
  -9   9   8  136.60    7.02
   9  -9  -7   -0.90    2.48
  -9   9   7   -4.06    2.75
   9  -9  -6  136.10    7.07
  -9   9   6  144.90    7.41
   9  -9  -5   36.78    4.02
  -9   9   5   23.37    3.25
   9  -9  -4  365.40   16.64
  -9   9   4  349.20   15.79
   9  -9  -3   27.13    3.64
  -9   9   3   31.30    3.84
   9  -9  -2   31.81    4.01
  -9   9   2   33.80    4.04
   9  -9  -1    5.25    3.33
  -9   9   1    0.51    3.40
   9  -9   0  304.30   14.17
  -9   9   0  233.00   11.51
   9  -9   1   -8.28    3.88
  -9   9  -1    4.51    3.77
   9  -9   2  477.20   21.35
  -9   9  -2  464.10   20.78
   9  -9   3   -0.29    3.34
   9  -9   4   74.41    5.95
   9  -9   5   73.03    5.72
   9  -9   6   48.82    4.71
   9  -9   7   32.84    4.71
   9  -9   8  263.70   12.55
   9  -9   9    3.55    3.61
   9  -9  10   29.28    4.55
   9  -9  11   -5.52    3.62
   9  -9  12    3.71    3.71
   8 -10 -10  123.80    5.79
  -8  10  10  140.20    6.52
   8 -10  -9   15.09    2.39
  -8  10   9   11.90    2.32
   8 -10  -8  110.70    5.77
  -8  10   8  110.40    5.69
   8 -10  -7   25.41    2.86
  -8  10   7   25.98    2.90
   8 -10  -6   99.14    5.45
  -8  10   6  105.20    5.82
   8 -10  -5   20.35    3.21
  -8  10   5   21.49    3.33
   8 -10  -4  250.40   11.80
  -8  10   4  187.60    9.26
   8 -10  -3   68.53    5.02
  -8  10   3   47.31    4.26
   8 -10  -2  380.40   17.32
  -8  10   2  439.40   19.53
   8 -10  -1    8.10    3.54
  -8  10   1    1.65    3.05
   8 -10   0  124.20    6.82
   8 -10   1  206.30   10.32
   8 -10   2   24.02    4.08
   8 -10   3   96.15    6.53
   8 -10   4  148.30    8.08
   8 -10   5   -2.44    3.57
   8 -10   6   81.70    6.03
   8 -10   7    9.19    3.43
   8 -10   8    9.50    3.93
   8 -10   9  101.70    6.40
   8 -10  10   25.08    4.07
   8 -10  11    7.94    4.02
   8 -10  12   23.08    4.06
   8 -10  13    2.27    4.31
   7 -11  -9  167.40    7.34
   7 -11  -8    6.53    2.07
   7 -11  -7   21.77    2.65
   7 -11  -6   78.53    4.70
   7 -11  -5   12.31    2.77
   7 -11  -4   26.23    3.28
   7 -11  -3  107.50    6.04
   7 -11  -2   32.59    3.92
   7 -11  -1  152.10    8.37
   7 -11   0   45.81    4.50
   7 -11   1   70.32    5.22
   7 -11   2   28.23    3.85
   7 -11   3   51.22    5.10
   7 -11   4    3.06    3.85
   7 -11   5  269.30   12.87
   7 -11   6    9.54    3.74
   7 -11   7   -1.97    3.78
   7 -11   8   28.29    4.03
   7 -11   9    3.52    3.75
   7 -11  10    2.27    3.73
   7 -11  11   46.67    4.70
   7 -11  12   17.15    4.37
   7 -11  13   47.61    5.25
   6 -12  -8    1.84    1.07
   6 -12  -7  153.00    7.10
   6 -12  -6   78.46    4.46
   6 -12  -5  258.00   11.84
   6 -12  -4   21.83    3.12
   6 -12  -3   13.85    2.99
   6 -12  -2   62.17    4.55
   6 -12  -1    1.44    3.24
   6 -12   0   31.84    4.38
   6 -12   1   82.74    5.93
   6 -12   2   14.61    3.84
   6 -12   3  230.70   11.22
   6 -12   4   54.47    4.72
   6 -12   5    1.78    4.03
   6 -12   6   35.13    4.29
   6 -12   7   75.42    5.43
   6 -12   8   17.46    3.91
   6 -12   9   64.37    5.03
   6 -12  10   23.54    4.05
   6 -12  11   28.00    4.21
   6 -12  12   22.35    3.94
   6 -12  13    5.93    3.61
   5 -13  -7   11.36    1.53
   5 -13  -7   11.90    1.55
   5 -13  -6  438.60   18.61
   5 -13  -5   26.31    2.78
   5 -13  -4  342.30   15.23
   5 -13  -3   96.79    5.84
   5 -13  -2    6.94    3.23
   5 -13  -1   27.01    3.59
   5 -13   0  116.50    6.42
   5 -13   1   60.02    5.01
   5 -13   2  310.20   14.91
   5 -13   3    2.74    4.07
   5 -13   4   53.09    4.88
   5 -13   5   83.79    5.73
   5 -13   6   -2.40    3.76
   5 -13   7   32.60    4.31
   5 -13   8   51.20    4.81
   5 -13   9    1.49    3.79
   5 -13  10   26.77    4.42
   5 -13  11   16.89    3.68
   5 -13  12   -3.54    3.42
   5 -13  13   14.48    3.87
   4 -14  -6   23.63    2.23
   4 -14  -6   22.41    2.18
   4 -14  -5    0.36    2.23
   4 -14  -5    2.11    2.24
   4 -14  -4   18.34    2.90
   4 -14  -3  124.40    6.47
   4 -14  -2  344.90   15.55
   4 -14  -1   74.19    5.35
   4 -14   0   79.15    5.60
   4 -14   1   55.17    4.70
   4 -14   2    5.87    3.22
   4 -14   3   -1.50    3.69
   4 -14   4  105.00    6.79
   4 -14   5    1.46    3.73
   4 -14   6  110.20    6.54
   4 -14   7   10.36    3.87
   4 -14   8   99.03    6.53
   4 -14   9   10.74    3.76
   4 -14  10   15.45    3.90
   4 -14  11    7.03    3.60
   4 -14  12    7.32    3.94
   4 -14  13   -1.19    3.25
   3 -15  -5    4.76    2.20
   3 -15  -5    6.25    2.20
   3 -15  -4   77.37    4.57
   3 -15  -4   87.89    5.03
   3 -15  -3   70.31    4.81
   3 -15  -3   63.43    4.57
   3 -15  -2    0.36    2.61
   3 -15  -2    5.13    3.12
   3 -15  -1   30.49    3.45
   3 -15   0    8.07    3.33
   3 -15   1   46.78    4.79
   3 -15   2   62.80    5.53
   3 -15   3    9.07    3.60
   3 -15   4   48.22    4.54
   3 -15   5   54.00    5.21
   3 -15   6    5.19    3.96
   3 -15   7   17.88    3.55
   3 -15   8   10.59    4.53
   3 -15   9    5.07    3.42
   3 -15  10   24.75    4.39
   3 -15  11   37.10    4.39
   3 -15  12   10.76    3.88
   3 -15  13    7.52    3.85
   2 -16  -5   68.55    3.75
   2 -16  -5   76.78    4.08
   2 -16  -4    1.16    2.30
   2 -16  -4    7.82    2.48
   2 -16  -3   29.07    3.21
   2 -16  -3   25.41    3.47
   2 -16  -2  134.40    6.94
   2 -16  -2  127.40    6.99
   2 -16  -1   10.31    3.50
   2 -16  -1   10.11    3.35
   2 -16   0   36.39    4.08
   2 -16   0   29.77    4.24
   2 -16   1   42.29    4.70
   2 -16   1   43.96    3.99
   2 -16   2    6.28    3.13
   2 -16   3   84.36    5.89
   2 -16   4    6.28    3.80
   2 -16   5   45.57    4.65
   2 -16   6   -4.65    3.47
   2 -16   7    3.14    4.05
   2 -16   8   15.26    3.70
   2 -16   9  124.00    7.08
   2 -16  10   -1.81    3.26
   2 -16  11   51.44    5.28
   2 -16  12    0.56    3.20
   2 -16  13   -3.74    3.27
   1 -17  -4   15.57    2.75
   1 -17  -4   15.96    2.78
   1 -17  -3   14.68    2.75
   1 -17  -3   12.62    3.08
   1 -17  -2   -0.80    3.15
   1 -17  -2   -0.29    3.10
   1 -17  -1    3.96    3.08
   1 -17  -1   -1.55    3.35
   1 -17   0   34.54    3.91
   1 -17   0   29.40    3.81
   1 -17   1   41.48    4.09
   1 -17   1   46.16    4.88
   1 -17   2    4.45    3.49
   1 -17   2    7.31    3.91
   1 -17   3    3.66    3.72
   1 -17   3    1.58    3.93
   1 -17   4   49.27    4.78
   1 -17   4   51.29    4.84
   1 -17   5   -1.63    3.87
   1 -17   5    0.14    3.56
   1 -17   6    3.56    3.80
   1 -17   6   -0.81    3.84
   1 -17   7   76.06    5.44
   1 -17   7   83.11    6.06
   1 -17   8   13.86    3.88
   1 -17   8   11.12    3.98
   1 -17   9   21.15    3.80
   1 -17   9   29.57    4.36
   1 -17  10    7.38    3.48
   1 -17  10    8.76    3.98
   1 -17  11    3.74    3.40
   1 -17  11    9.05    3.98
   1 -17  12    5.32    3.36
   1 -17  12    4.63    4.25
   0 -18  -4   -0.50    2.47
   0 -18  -4   -0.23    2.14
   0 -18  -3   19.82    2.92
   0 -18  -3   26.65    3.49
   0 -18  -2   44.08    4.03
   0 -18  -2   45.73    4.17
   0 -18  -1    0.37    3.46
   0 -18  -1    0.32    3.07
   0 -18   0   69.67    4.96
   0 -18   0   58.83    4.90
   0 -18   1   -1.80    3.50
   0 -18   1   -6.76    3.52
   0 -18   2   52.62    4.91
   0 -18   2   50.50    4.84
   0 -18   3   20.98    3.96
   0 -18   3   14.89    3.92
   0 -18   4    7.55    3.73
   0 -18   4    4.14    3.88
   0 -18   5   -0.28    3.60
   0 -18   5    0.22    3.62
   0 -18   6   53.32    4.83
   0 -18   6   50.14    5.09
   0 -18   7   10.91    4.10
   0 -18   7    1.62    3.90
   0 -18   8   71.56    5.22
   0 -18   8   73.77    5.91
   0 -18   9    4.64    3.86
   0 -18   9   -2.34    3.93
   0 -18  10    5.02    3.73
   0 -18  10    4.76    3.98
   0 -18  11   -0.24    3.37
   0 -18  11   -0.60    3.64
  -1 -19  -3    0.60    3.07
  -1 -19  -3   -0.19    2.89
  -1 -19  -2   58.05    4.71
  -1 -19  -2   52.15    4.33
  -1 -19  -1    2.38    3.43
  -1 -19  -1    0.91    3.61
  -1 -19   0    1.53    3.52
  -1 -19   0    2.02    3.87
  -1 -19   1   10.80    3.75
  -1 -19   1   17.68    4.38
  -1 -19   2   20.48    4.00
  -1 -19   2   18.45    4.07
  -1 -19   3    4.74    3.72
  -1 -19   3    9.24    4.06
  -1 -19   4   64.17    5.10
  -1 -19   4   67.94    5.60
  -1 -19   5   -0.26    3.56
  -1 -19   5    3.60    4.14
  -1 -19   6   10.52    3.74
  -1 -19   6   15.81    4.34
  -1 -19   8    3.56    3.87
  -1 -19   8   -3.33    4.23
  -1 -19   9    3.04    3.74
  -1 -19   9   11.08    4.03
  -1 -19  10   18.19    3.90
  -1 -19  10   14.56    4.43
  -1 -19  11    3.22    3.75
  -1 -19  11    4.24    4.02
  -2 -20  -2    6.21    3.87
  -2 -20  -2    5.57    3.67
  -2 -20  -1   20.36    4.55
  -2 -20  -1   15.17    3.99
  -2 -20   0   17.26    4.48
  -2 -20   0   26.44    4.28
  -2 -20   1    2.10    4.37
  -2 -20   1    6.44    4.32
  -2 -20   2    8.89    3.97
  -2 -20   2    1.78    3.85
  -2 -20   3   23.59    4.35
  -2 -20   3   19.81    4.42
  -2 -20   4   -1.28    3.82
  -2 -20   4    2.03    4.17
  -2 -20   5   32.32    4.44
  -2 -20   5   26.49    4.65
  -2 -20   6   10.56    4.01
  -2 -20   6    3.87    4.38
  -2 -20   7    2.73    4.13
  -2 -20   7    7.77    4.72
  -2 -20   8    8.75    4.49
  -2 -20   8    5.05    4.14
  -2 -20   9    4.40    3.81
  -2 -20   9    6.68    4.28
  -3 -21  -3    0.63    3.57
  -3 -21  -3    0.07    3.45
  -3 -21  -2    6.06    4.42
  -3 -21  -2   -0.05    4.38
  -3 -21  -1   -7.27    4.98
  -3 -21  -1    0.76    4.06
  -3 -21   0    2.52    4.90
  -3 -21   0    0.48    4.21
  -3 -21   1   42.83    5.44
  -3 -21   1   44.03    5.68
  -3 -21   2    2.06    4.18
  -3 -21   2   -7.60    4.47
  -3 -21   3   14.92    4.45
  -3 -21   3   11.91    4.35
  -3 -21   4    3.25    3.90
  -3 -21   4    5.88    4.02
  -3 -21   5    2.75    4.12
  -3 -21   5    1.97    4.23
  -3 -21   6    6.68    4.13
  -3 -21   6    5.09    4.36
  -3 -21   7   28.00    4.83
  -3 -21   7   24.46    4.76
  24   4 -15   -5.58    3.59
 -24  -4  15    1.08    4.72
  24   4 -14    8.96    3.76
 -24  -4  14   11.04    4.17
  24   4 -13    2.13    3.75
 -24  -4  13    3.56    3.93
  24   4 -12    7.61    3.78
 -24  -4  12   11.54    3.87
  24   4 -11   -0.50    3.59
 -24  -4  11   10.98    3.72
  24   4 -10    2.06    3.36
 -24  -4  10    5.53    3.76
  24   4  -9    5.25    3.95
 -24  -4   9    3.02    3.76
  24   4  -8    7.59    3.99
 -24  -4   8    9.18    4.52
  23   3 -18    4.13    3.52
 -23  -3  18    5.42    4.19
  23   3 -17    2.90    3.63
 -23  -3  17    1.59    3.84
  23   3 -16   11.48    3.72
 -23  -3  16   11.02    4.24
  23   3 -15    8.03    3.95
 -23  -3  15    7.50    3.82
  23   3 -14    1.04    3.68
 -23  -3  14    4.92    3.89
  23   3 -13   30.42    4.15
 -23  -3  13   34.25    4.45
  23   3 -12   13.09    3.97
 -23  -3  12    1.71    3.94
  23   3 -11    0.91    3.42
 -23  -3  11   -1.95    3.78
  23   3 -10   19.52    4.24
 -23  -3  10   10.69    4.16
  23   3  -9    3.25    3.75
 -23  -3   9   11.96    3.76
  23   3  -8    7.42    4.22
 -23  -3   8   11.93    3.84
  23   3  -7   16.50    3.82
 -23  -3   7    9.21    3.77
  23   3  -6   -1.74    3.65
 -23  -3   6   -0.73    3.93
  23   3  -5   46.11    4.82
 -23  -3   5   41.29    4.93
  23   3  -4   11.95    3.82
 -23  -3   4    7.91    3.97
  22   2 -20    3.97    4.30
  22   2 -19    7.66    3.61
 -22  -2  19   19.63    4.70
  22   2 -18    4.31    3.65
 -22  -2  18    9.80    4.14
  22   2 -17   35.93    4.26
 -22  -2  17   39.10    4.62
  22   2 -16    5.29    3.93
 -22  -2  16   -0.57    4.10
  22   2 -15   16.79    4.50
 -22  -2  15   12.01    3.89
  22   2 -14    4.79    3.85
 -22  -2  14    7.97    4.09
  22   2 -13   12.89    4.13
 -22  -2  13   16.61    4.16
  22   2 -12    7.05    4.07
 -22  -2  12    1.37    3.84
  22   2 -11   62.92    5.30
 -22  -2  11   52.25    5.02
  22   2 -10    9.97    3.80
 -22  -2  10   13.35    4.24
  22   2  -9   61.60    5.73
 -22  -2   9   60.96    5.23
  22   2  -8   -0.99    3.55
 -22  -2   8    1.03    4.04
  22   2  -7    6.67    3.93
 -22  -2   7    7.31    3.81
  22   2  -6    6.69    4.34
 -22  -2   6   11.17    3.80
  22   2  -5    2.93    4.29
 -22  -2   5   10.37    4.27
  22   2  -4   -3.18    3.97
 -22  -2   4   -2.59    4.05
  22   2  -3   68.79    5.71
 -22  -2   3   74.43    5.48
  22   2  -2   -5.47    3.83
 -22  -2   2    1.71    3.75
  21   1 -20   -5.42    3.50
 -21  -1  20    3.52    4.36
  21   1 -19   24.53    4.24
 -21  -1  19   22.65    4.76
  21   1 -18   14.60    3.87
 -21  -1  18    9.96    4.29
  21   1 -17   -1.91    3.93
 -21  -1  17    2.60    3.78
  21   1 -16   30.28    4.19
 -21  -1  16   28.73    4.39
  21   1 -15   12.11    4.20
 -21  -1  15   19.43    4.40
  21   1 -14    8.48    3.73
 -21  -1  14   12.91    3.90
  21   1 -13   37.76    4.36
 -21  -1  13   50.93    5.04
  21   1 -12   61.10    5.33
 -21  -1  12   82.90    5.89
  21   1 -11   -0.42    4.22
 -21  -1  11   -3.15    4.08
  21   1 -10  121.40    7.24
 -21  -1  10   91.10    6.25
  21   1  -9   -4.01    3.89
 -21  -1   9   -4.68    3.92
  21   1  -8   39.45    4.58
 -21  -1   8   29.12    4.29
  21   1  -7  106.00    6.84
 -21  -1   7  101.20    6.66
  21   1  -6   -1.43    4.34
 -21  -1   6    2.94    3.66
  21   1  -5   -2.23    4.00
 -21  -1   5    2.08    3.76
  21   1  -4   24.90    4.34
 -21  -1   4   17.40    4.14
  21   1  -3    8.49    4.28
 -21  -1   3    7.52    3.77
  21   1  -2   46.37    4.96
 -21  -1   2   48.94    4.71
  21   1  -1   20.10    4.24
 -21  -1   1   15.01    3.83
  21   1   0    2.07    3.92
 -21  -1   0    5.53    3.80
  21   1   1   18.73    4.48
 -20   0  21   -7.78    4.43
 -20   0  20   52.96    5.29
  20   0 -19    2.52    4.20
 -20   0  19   -3.77    3.86
  20   0 -18   12.68    3.89
 -20   0  18   21.37    4.27
  20   0 -17    2.84    3.97
 -20   0  17    2.51    4.21
  20   0 -16   -0.45    3.64
 -20   0  16   -2.52    3.82
  20   0 -15    0.81    3.90
 -20   0  15   -2.26    3.81
  20   0 -14  227.20   11.04
 -20   0  14  234.20   11.50
  20   0 -13    5.82    3.87
 -20   0  13    1.13    4.03
  20   0 -12  112.40    7.13
 -20   0  12  127.80    7.61
  20   0 -11   -1.91    3.75
 -20   0  11   -2.59    3.80
  20   0 -10    0.06    3.78
 -20   0  10   -0.07    3.95
  20   0  -9   -3.99    3.71
 -20   0   9    1.63    3.85
  20   0  -8   24.95    4.32
 -20   0   8   16.49    4.22
  20   0  -7    6.65    4.04
 -20   0   7   -2.92    3.66
  20   0  -6  204.50   10.40
 -20   0   6  225.40   11.14
  20   0  -5    7.38    3.81
 -20   0   5    3.69    3.65
  20   0  -4   15.35    4.13
 -20   0   4   12.28    4.15
  20   0  -3    0.29    3.71
 -20   0   3    0.36    3.74
  20   0  -2    4.18    4.16
 -20   0   2    1.04    3.82
  20   0  -1    0.99    4.30
 -20   0   1   -3.96    4.02
  20   0   0   46.38    4.88
 -20   0   0   41.21    4.37
  20   0   1   -2.77    3.91
 -20   0  -1    4.68    3.93
  20   0   2   66.23    5.53
 -20   0  -2   64.62    5.02
 -19   1  22    5.27    4.53
 -19   1  21    6.59    4.50
 -19   1  20    4.37    4.06
  19  -1 -19   19.98    4.39
 -19   1  19   21.48    4.22
  19  -1 -18   22.70    4.07
 -19   1  18   17.88    3.96
  19  -1 -17    4.32    3.67
 -19   1  17    8.73    4.22
  19  -1 -16  130.30    7.59
 -19   1  16  109.30    6.89
  19  -1 -15    2.79    3.71
 -19   1  15    6.11    4.08
  19  -1 -14   20.93    4.48
 -19   1  14   18.04    4.23
  19  -1 -13  101.50    6.55
 -19   1  13   96.70    6.54
  19  -1 -12    3.83    3.84
 -19   1  12   -2.58    3.99
  19  -1 -11   14.07    4.66
 -19   1  11   13.52    3.98
  19  -1 -10   52.81    5.25
 -19   1  10   61.15    5.50
  19  -1  -9    2.83    3.68
 -19   1   9   -0.03    3.82
  19  -1  -8   81.67    6.27
 -19   1   8   67.60    5.63
  19  -1  -7   42.47    4.75
 -19   1   7   35.98    4.53
  19  -1  -6   27.86    4.12
 -19   1   6   26.67    4.26
  19  -1  -5   71.54    5.66
 -19   1   5   73.21    5.61
  19  -1  -4    6.26    3.73
 -19   1   4   17.81    4.10
  19  -1  -3   15.08    4.12
 -19   1   3   14.77    3.85
  19  -1  -2   41.08    4.63
 -19   1   2   25.42    3.98
  19  -1  -1    5.61    3.99
 -19   1   1    2.69    3.62
  19  -1   0   23.27    4.38
 -19   1   0   22.66    4.13
  19  -1   1   37.57    4.68
 -19   1  -1   31.11    4.29
  19  -1   2   -7.37    3.98
 -19   1  -2   -3.15    3.56
  19  -1   3   33.84    4.52
 -19   1  -3   30.48    4.13
  19  -1   4    6.20    4.25
 -19   1  -4    6.50    3.78
 -18   2  22    8.14    4.67
 -18   2  21    8.59    4.41
 -18   2  20    4.33    4.22
  18  -2 -19    8.75    3.63
 -18   2  19   -2.55    3.79
  18  -2 -18    0.77    3.82
 -18   2  18   -2.15    3.60
  18  -2 -17  149.30    8.08
 -18   2  17  141.90    7.99
  18  -2 -16    1.74    3.90
 -18   2  16   -0.18    3.63
  18  -2 -15   98.09    6.74
 -18   2  15  102.40    6.62
  18  -2 -14   10.11    3.88
 -18   2  14   14.85    4.14
  18  -2 -13   62.29    5.53
 -18   2  13   54.35    5.38
  18  -2 -12    1.12    3.73
 -18   2  12    6.57    4.14
  18  -2 -11   19.62    4.23
 -18   2  11   23.71    4.21
  18  -2 -10   14.43    4.46
 -18   2  10   15.02    4.13
  18  -2  -9  110.80    7.33
 -18   2   9  112.60    7.24
  18  -2  -8   13.21    3.67
 -18   2   8   18.53    4.11
  18  -2  -7  133.00    7.75
 -18   2   7  113.30    7.05
  18  -2  -6    0.16    4.22
 -18   2   6   -4.74    3.80
  18  -2  -5   15.47    3.90
 -18   2   5   14.06    4.22
  18  -2  -4    8.19    4.12
 -18   2   4    9.01    4.28
  18  -2  -3   11.46    4.49
 -18   2   3    8.48    4.15
  18  -2  -2    9.78    3.81
 -18   2   2   17.65    4.01
  18  -2  -1   46.24    4.94
 -18   2   1   49.05    4.76
  18  -2   0    6.40    3.66
 -18   2   0   -0.62    3.88
  18  -2   1   -0.70    3.95
 -18   2  -1   12.29    4.19
  18  -2   2    7.88    3.85
 -18   2  -2    7.28    4.04
  18  -2   3    7.48    3.88
 -18   2  -3   -0.64    3.96
  18  -2   4   15.93    4.26
 -18   2  -4    3.54    3.88
  18  -2   5   36.85    4.22
 -18   2  -5   42.95    4.84
 -17   3  22    1.25    4.47
 -17   3  21   33.26    5.11
 -17   3  20   -0.15    4.27
 -17   3  19   60.39    5.56
  17  -3 -18   -5.30    3.98
 -17   3  18    6.25    4.12
  17  -3 -17   30.98    4.70
 -17   3  17   37.68    4.52
  17  -3 -16  105.90    6.45
 -17   3  16  112.00    6.82
  17  -3 -15   22.19    4.35
 -17   3  15   22.72    4.06
  17  -3 -14    1.61    4.24
 -17   3  14   10.21    3.55
  17  -3 -13   38.56    4.46
 -17   3  13   40.60    4.55
  17  -3 -12    4.55    4.18
 -17   3  12   -0.25    4.16
  17  -3 -11   41.52    4.83
 -17   3  11   58.38    5.30
  17  -3 -10   29.91    4.26
 -17   3  10   25.57    4.54
  17  -3  -9    1.06    3.78
 -17   3   9    0.76    3.64
  17  -3  -8   12.95    4.18
 -17   3   8   16.76    4.02
  17  -3  -7   39.38    4.70
 -17   3   7   28.00    4.37
  17  -3  -6   87.55    6.01
 -17   3   6   73.20    5.74
  17  -3  -5   86.19    6.24
 -17   3   5   71.67    5.92
  17  -3  -4   58.56    5.37
 -17   3   4   58.77    5.58
  17  -3  -3   47.64    4.84
 -17   3   3   38.63    5.04
  17  -3  -2   -1.11    4.30
 -17   3   2    5.63    3.86
  17  -3  -1   90.14    6.34
 -17   3   1  101.80    6.43
  17  -3   0   77.46    5.76
 -17   3   0   50.60    4.77
  17  -3   1   32.69    4.66
 -17   3  -1   41.09    4.48
  17  -3   2   14.78    3.96
 -17   3  -2   14.92    3.80
  17  -3   3   38.87    4.67
 -17   3  -3   23.47    3.98
  17  -3   4   11.29    4.07
 -17   3  -4    5.54    3.55
  17  -3   5   12.35    4.24
 -17   3  -5   22.95    3.95
  17  -3   6    5.02    3.70
 -17   3  -6    1.09    3.63
 -16   4  22   20.21    4.62
 -16   4  21   13.16    4.38
 -16   4  20   68.18    5.71
 -16   4  19   -1.31    3.89
  16  -4 -18   53.06    4.62
 -16   4  18   62.24    5.28
  16  -4 -17   13.54    3.38
 -16   4  17    5.97    3.97
  16  -4 -16   41.75    4.71
 -16   4  16   37.86    4.54
  16  -4 -15    2.70    3.54
 -16   4  15    3.55    3.62
  16  -4 -14   54.30    5.26
 -16   4  14   49.43    5.09
  16  -4 -13   -0.32    3.69
 -16   4  13    9.04    4.20
  16  -4 -12  112.20    7.08
 -16   4  12  120.60    7.47
  16  -4 -11    1.28    4.21
 -16   4  11   -2.20    3.40
  16  -4 -10  166.60    9.30
 -16   4  10  180.80    9.53
  16  -4  -9   44.28    4.59
 -16   4   9   31.24    4.21
  16  -4  -8   -9.96    3.51
 -16   4   8   -2.73    3.63
  16  -4  -7    7.87    4.24
 -16   4   7   10.20    3.77
  16  -4  -6  171.50    9.31
 -16   4   6  150.90    8.39
  16  -4  -5   14.83    3.75
 -16   4   5   31.80    4.57
  16  -4  -4  161.70    8.97
 -16   4   4  157.50    8.69
  16  -4  -3   -3.33    3.80
 -16   4   3    1.91    3.64
  16  -4  -2   32.15    4.32
 -16   4   2   29.30    4.36
  16  -4  -1   30.98    4.16
 -16   4   1   19.97    4.17
  16  -4   0   59.06    5.55
 -16   4   0   75.11    5.68
  16  -4   1    5.37    3.42
 -16   4  -1    8.00    4.27
  16  -4   2  141.20    7.99
 -16   4  -2  160.50    8.49
  16  -4   3    1.43    4.08
 -16   4  -3   -3.13    3.42
  16  -4   4   24.44    4.29
 -16   4  -4   28.79    4.05
  16  -4   5   12.79    4.20
 -16   4  -5    9.40    4.16
  16  -4   6    4.23    3.44
 -16   4  -6    3.02    3.76
  16  -4   7    0.81    3.73
 -16   4  -7   -3.04    3.73
 -15   5  22   53.78    5.81
 -15   5  21    0.66    4.39
 -15   5  20   62.93    5.26
 -15   5  19    3.95    4.06
 -15   5  18    5.46    3.80
  15  -5 -17    6.52    3.46
 -15   5  17    1.81    3.63
  15  -5 -16   30.45    4.11
 -15   5  16   39.54    4.35
  15  -5 -15   -1.96    3.52
 -15   5  15    4.50    3.89
  15  -5 -14   83.00    5.67
 -15   5  14  111.90    7.05
  15  -5 -13   -6.18    3.57
 -15   5  13   -2.13    3.68
  15  -5 -12   92.56    6.25
 -15   5  12   73.45    5.50
  15  -5 -11    4.44    3.57
 -15   5  11   -0.58    3.21
  15  -5 -10   -2.70    3.98
 -15   5  10    2.71    3.66
  15  -5  -9    9.34    3.97
 -15   5   9    6.03    3.50
  15  -5  -8  307.80   14.31
 -15   5   8  300.60   14.18
  15  -5  -7    5.95    3.48
 -15   5   7    3.80    3.60
  15  -5  -6   44.92    5.13
 -15   5   6   42.23    4.83
  15  -5  -5   26.17    4.47
 -15   5   5   28.41    4.56
  15  -5  -4   88.26    5.98
 -15   5   4  102.80    6.72
  15  -5  -3    1.16    3.97
 -15   5   3    2.41    3.80
  15  -5  -2  129.90    7.93
 -15   5   2  125.80    7.60
  15  -5  -1   10.96    4.30
 -15   5   1   16.66    4.27
  15  -5   0   78.66    5.62
 -15   5   0   79.34    5.79
  15  -5   1    1.10    4.20
 -15   5  -1   -5.07    3.40
  15  -5   2    5.23    4.11
 -15   5  -2    7.63    3.64
  15  -5   3   10.43    4.39
 -15   5  -3   13.37    4.14
  15  -5   4   68.34    5.42
 -15   5  -4   55.47    5.02
  15  -5   5    9.31    4.31
 -15   5  -5    4.47    3.66
  15  -5   6   63.18    5.14
 -15   5  -6   52.28    4.93
  15  -5   7   -2.28    3.48
  15  -5   8   33.78    4.32
 -14   6  22    3.39    5.06
 -14   6  21   16.95    4.46
 -14   6  20    0.75    3.70
 -14   6  19   16.07    3.92
 -14   6  18   63.85    5.28
 -14   6  17   14.95    3.99
  14  -6 -16   18.96    3.45
 -14   6  16   20.99    3.98
  14  -6 -15    5.44    3.45
 -14   6  15   11.66    3.92
  14  -6 -14   12.26    3.39
 -14   6  14   15.93    3.52
  14  -6 -13   29.76    4.20
 -14   6  13   28.15    4.12
  14  -6 -12   25.96    4.58
 -14   6  12   29.84    3.89
  14  -6 -11    9.59    3.66
 -14   6  11    9.79    3.42
  14  -6 -10  181.00    9.11
 -14   6  10  228.30   11.16
  14  -6  -9  100.10    6.71
 -14   6   9   92.21    5.98
  14  -6  -8   11.90    4.30
 -14   6   8   14.71    3.88
  14  -6  -7  119.10    7.24
 -14   6   7  119.10    7.30
  14  -6  -6  215.40   10.64
 -14   6   6  231.90   11.52
  14  -6  -5   -0.99    3.87
 -14   6   5   -0.83    3.91
  14  -6  -4   82.05    5.94
 -14   6   4   75.38    5.55
  14  -6  -3   29.52    4.60
 -14   6   3   30.34    4.28
  14  -6  -2   95.58    6.10
 -14   6   2  101.20    6.76
  14  -6  -1  325.90   15.27
 -14   6   1  316.80   14.97
  14  -6   0    6.42    3.99
 -14   6   0    9.49    3.78
  14  -6   1    0.15    3.78
 -14   6  -1    4.32    3.61
  14  -6   2  144.80    8.33
 -14   6  -2  142.80    7.90
  14  -6   3    1.42    4.02
 -14   6  -3   -1.01    3.96
  14  -6   4   59.24    5.16
 -14   6  -4   63.95    5.36
  14  -6   5   52.79    5.21
 -14   6  -5   66.98    5.25
  14  -6   6    4.30    3.97
 -14   6  -6    9.43    3.55
  14  -6   7   75.85    5.55
  14  -6   8    5.42    3.64
  14  -6   9    2.34    4.29
 -13   7  22    8.25    4.88
 -13   7  21    0.33    3.93
 -13   7  20   -4.41    3.42
 -13   7  19   29.00    4.20
 -13   7  18   12.87    3.66
 -13   7  17  104.10    6.24
 -13   7  16    2.68    3.24
  13  -7 -15   -3.31    3.08
 -13   7  15    2.19    3.33
  13  -7 -14    2.67    3.17
 -13   7  14    8.59    3.37
  13  -7 -13   13.06    3.16
 -13   7  13   13.14    3.49
  13  -7 -12   -1.25    3.16
 -13   7  12    2.17    3.14
  13  -7 -11  408.10   18.39
 -13   7  11  362.20   16.38
  13  -7 -10    3.69    3.46
 -13   7  10   10.65    3.39
  13  -7  -9   61.43    4.76
 -13   7   9   75.28    5.37
  13  -7  -8   10.28    3.24
 -13   7   8    8.72    3.70
  13  -7  -7   -1.83    3.49
 -13   7   7    2.28    3.59
  13  -7  -6   37.65    4.57
 -13   7   6   42.43    4.44
  13  -7  -5  519.20   22.90
 -13   7   5  506.10   22.40
  13  -7  -4    2.82    3.17
 -13   7   4   -1.58    3.81
  13  -7  -3  525.00   23.28
 -13   7   3  443.40   19.89
  13  -7  -2    4.94    4.18
 -13   7   2    7.23    3.96
  13  -7  -1   13.27    4.21
 -13   7   1    9.45    4.17
  13  -7   0   -4.30    3.99
 -13   7   0    1.29    3.58
  13  -7   1    5.07    3.95
 -13   7  -1   14.05    4.11
  13  -7   2   40.02    4.83
 -13   7  -2   41.56    4.52
  13  -7   3  233.20   11.32
 -13   7  -3  231.30   11.49
  13  -7   4   17.91    4.16
 -13   7  -4   27.70    4.49
  13  -7   5  294.50   13.85
 -13   7  -5  263.80   12.68
  13  -7   6   -4.88    4.08
  13  -7   7    0.29    3.73
  13  -7   8   -2.81    4.03
  13  -7   9   -4.18    3.93
  13  -7  10    0.65    3.99
 -12   8  21    2.84    3.24
 -12   8  21    8.16    3.54
 -12   8  20   14.63    3.33
 -12   8  19    1.44    2.70
 -12   8  18   53.70    4.05
 -12   8  17    3.64    2.52
 -12   8  16    7.68    2.91
 -12   8  15   72.84    4.76
  12  -8 -14    6.07    3.00
 -12   8  14    8.00    2.89
  12  -8 -13   42.14    4.05
 -12   8  13   50.69    4.10
  12  -8 -12   37.45    3.63
 -12   8  12   35.68    3.80
  12  -8 -11   -0.70    3.20
 -12   8  11    3.07    3.11
  12  -8 -10  201.80   10.19
 -12   8  10  190.90    9.48
  12  -8  -9   59.63    4.93
 -12   8   9   69.41    5.02
  12  -8  -8   14.06    3.45
 -12   8   8   19.89    3.61
  12  -8  -7   35.98    4.14
 -12   8   7   41.72    4.13
  12  -8  -6   49.86    5.04
 -12   8   6   48.87    4.50
  12  -8  -5  411.70   18.67
 -12   8   5  353.80   16.12
  12  -8  -4  196.50    9.79
 -12   8   4  179.90    9.46
  12  -8  -3   47.24    4.67
 -12   8   3   50.63    5.55
  12  -8  -2   67.77    5.21
 -12   8   2   63.38    5.38
  12  -8  -1  104.70    7.06
 -12   8   1   92.60    6.38
  12  -8   0    8.68    4.12
 -12   8   0    8.06    4.01
  12  -8   1  166.10    8.83
 -12   8  -1  166.00    9.04
  12  -8   2    5.00    4.22
 -12   8  -2   -7.58    3.84
  12  -8   3   27.17    4.35
 -12   8  -3   13.35    4.25
  12  -8   4   29.12    4.39
 -12   8  -4   28.30    4.32
  12  -8   5    8.42    3.91
  12  -8   6   68.54    5.41
  12  -8   7   66.14    5.40
  12  -8   8    3.25    4.12
  12  -8   9   16.09    3.84
  12  -8  10   -2.21    4.02
 -11   9  18    0.52    1.86
 -11   9  18   -1.05    1.81
 -11   9  17    5.66    2.11
 -11   9  16   28.23    2.75
 -11   9  15   -2.08    2.41
 -11   9  14  154.50    7.45
  11  -9 -13    0.63    2.51
 -11   9  13   -0.95    2.43
  11  -9 -12   82.75    5.04
 -11   9  12   79.37    4.84
  11  -9 -11   48.13    3.70
 -11   9  11   65.52    4.46
  11  -9 -10   48.15    3.97
 -11   9  10   40.86    3.74
  11  -9  -9   26.45    3.56
 -11   9   9   27.23    3.41
  11  -9  -8   95.94    6.08
 -11   9   8   92.72    5.84
  11  -9  -7    7.38    3.16
 -11   9   7    6.81    3.45
  11  -9  -6  393.30   17.55
 -11   9   6  459.10   20.30
  11  -9  -5   85.55    5.94
 -11   9   5   72.48    5.78
  11  -9  -4  108.90    6.96
 -11   9   4   90.23    5.91
  11  -9  -3   67.19    5.52
 -11   9   3   67.55    5.37
  11  -9  -2   64.49    5.30
 -11   9   2   74.69    5.77
  11  -9  -1    5.38    3.44
 -11   9   1    1.12    3.50
  11  -9   0  391.80   18.03
 -11   9   0  376.80   17.24
  11  -9   1    2.72    4.11
 -11   9  -1    8.48    4.00
  11  -9   2  275.00   13.09
 -11   9  -2  252.00   12.29
  11  -9   3   10.79    3.98
 -11   9  -3    9.22    3.69
  11  -9   4    8.01    3.89
  11  -9   5   -2.83    3.38
  11  -9   6   61.14    5.28
  11  -9   7    7.26    3.56
  11  -9   8  123.30    7.24
  11  -9   9   -9.24    3.92
  11  -9  10   17.14    3.93
  11  -9  11    6.59    4.60
 -10  10  14    7.40    1.70
 -10  10  13    1.74    1.98
  10 -10 -12  128.10    6.43
 -10  10  12  117.60    5.98
  10 -10 -11    9.14    2.63
 -10  10  11    3.26    2.57
  10 -10 -10  201.80    9.35
 -10  10  10  174.10    8.48
  10 -10  -9   32.98    3.37
 -10  10   9   37.57    3.57
  10 -10  -8   46.03    4.34
 -10  10   8   34.63    3.45
  10 -10  -7   94.57    5.74
 -10  10   7   79.83    5.02
  10 -10  -6    0.85    3.08
 -10  10   6    3.75    2.89
  10 -10  -5  342.70   15.43
 -10  10   5  334.20   15.24
  10 -10  -4   24.47    3.78
 -10  10   4   32.06    4.11
  10 -10  -3   36.90    4.59
 -10  10   3   41.38    4.47
  10 -10  -2  515.70   23.08
 -10  10   2  523.10   23.16
  10 -10  -1    5.08    3.93
 -10  10   1   -1.46    3.92
  10 -10   0  139.40    7.84
 -10  10   0  134.70    7.88
  10 -10   1  141.60    8.07
 -10  10  -1  149.30    8.19
  10 -10   2   68.49    5.54
  10 -10   3  120.40    7.12
  10 -10   4  107.70    6.75
  10 -10   5   47.44    5.01
  10 -10   6   17.27    3.57
  10 -10   7   81.57    5.83
  10 -10   8   -2.95    3.82
  10 -10   9   15.23    4.03
  10 -10  10   25.43    4.25
  10 -10  11    2.13    3.94
   9 -11 -11  107.00    5.17
   9 -11 -10    8.01    2.40
  -9  11  10    8.27    2.10
   9 -11  -9  155.10    7.45
  -9  11   9  148.00    7.28
   9 -11  -8   11.44    3.16
  -9  11   8    8.01    2.98
   9 -11  -7  203.90    9.72
  -9  11   7  186.50    9.15
   9 -11  -6   36.57    3.82
  -9  11   6   23.82    3.49
   9 -11  -5    1.32    3.22
  -9  11   5    7.71    3.18
   9 -11  -4   18.80    3.73
  -9  11   4   17.21    3.73
   9 -11  -3  113.00    6.57
  -9  11   3  117.70    6.92
   9 -11  -2  246.50   11.93
   9 -11  -1  117.00    7.30
   9 -11   0   38.01    4.42
   9 -11   1   11.56    3.62
   9 -11   2    0.80    3.27
   9 -11   3   93.15    6.51
   9 -11   4    7.00    3.81
   9 -11   5  118.00    6.97
   9 -11   6   -0.05    3.90
   9 -11   7    5.66    3.45
   9 -11   8    4.94    3.55
   9 -11   9   23.14    4.53
   9 -11  10    0.63    3.79
   9 -11  11   33.60    4.36
   8 -12 -10   31.62    2.02
   8 -12  -9   19.46    2.31
   8 -12  -8    5.66    2.37
   8 -12  -7   51.11    3.67
   8 -12  -6   44.12    3.85
   8 -12  -5   90.01    5.52
   8 -12  -4    2.85    3.20
   8 -12  -3    8.69    3.26
   8 -12  -2  198.80    9.71
   8 -12  -1    0.94    3.83
   8 -12   0   12.90    4.23
   8 -12   1  171.50    9.35
   8 -12   2    3.26    3.98
   8 -12   3   92.48    6.00
   8 -12   4    7.65    3.82
   8 -12   5    1.01    3.73
   8 -12   6    7.12    3.83
   8 -12   7   74.81    5.61
   8 -12   8    2.51    3.42
   8 -12   9   50.01    4.89
   8 -12  10   -0.45    3.71
   8 -12  11    7.34    3.98
   8 -12  12   32.58    4.82
   7 -13  -8   35.16    2.67
   7 -13  -7  137.60    6.92
   7 -13  -6  128.90    6.48
   7 -13  -5    0.14    2.67
   7 -13  -4   28.29    3.70
   7 -13  -3  193.70    9.89
   7 -13  -2   10.09    3.58
   7 -13  -1    3.23    3.50
   7 -13   0  147.30    8.01
   7 -13   1   44.11    4.90
   7 -13   2  189.50   10.00
   7 -13   3   37.13    4.42
   7 -13   4   -2.30    3.51
   7 -13   5   25.56    4.48
   7 -13   6   -4.30    3.77
   7 -13   7   13.43    3.71
   7 -13   8   25.29    4.15
   7 -13   9    1.49    3.77
   7 -13  10   15.43    4.02
   7 -13  11    4.01    3.80
   7 -13  12    7.97    4.00
   6 -14  -7    4.65    2.00
   6 -14  -7    7.04    1.80
   6 -14  -6    6.21    2.67
   6 -14  -5  103.60    5.76
   6 -14  -4   71.80    4.87
   6 -14  -3   15.14    3.32
   6 -14  -2  116.60    6.64
   6 -14  -1   24.36    4.25
   6 -14   0   53.97    4.71
   6 -14   1   10.33    3.76
   6 -14   2    6.90    3.47
   6 -14   3   11.63    3.97
   6 -14   4   47.97    5.06
   6 -14   5   -4.11    3.67
   6 -14   6   54.30    5.07
   6 -14   7   -1.89    3.59
   6 -14   8   11.82    3.55
   6 -14   9    1.19    3.42
   6 -14  10    7.93    3.25
   6 -14  11   11.78    3.87
   6 -14  12   17.58    3.81
   5 -15  -6   94.57    4.95
   5 -15  -6   93.63    4.86
   5 -15  -5   21.29    2.76
   5 -15  -5   14.52    2.74
   5 -15  -4    6.35    3.11
   5 -15  -3   50.20    4.45
   5 -15  -2    1.04    3.32
   5 -15  -1    9.02    3.26
   5 -15   0   25.38    3.79
   5 -15   1    7.83    3.76
   5 -15   2    3.75    3.81
   5 -15   3   57.75    4.88
   5 -15   4   12.07    3.91
   5 -15   5   13.65    4.49
   5 -15   6    5.93    3.86
   5 -15   7   36.64    4.90
   5 -15   8   18.27    4.03
   5 -15   9   -2.84    3.45
   5 -15  10   26.87    4.23
   5 -15  11   -0.17    3.42
   5 -15  12    7.68    3.61
   4 -16  -6    0.85    1.69
   4 -16  -6    0.10    1.66
   4 -16  -5  156.20    7.45
   4 -16  -5  168.30    8.05
   4 -16  -4    1.29    2.88
   4 -16  -4    6.99    2.88
   4 -16  -3   47.64    3.90
   4 -16  -3   63.40    4.92
   4 -16  -2   23.30    3.59
   4 -16  -1   12.28    3.44
   4 -16   0   38.06    4.32
   4 -16   1  112.40    6.57
   4 -16   2    2.52    3.73
   4 -16   3   51.08    5.03
   4 -16   4    7.91    4.19
   4 -16   5   29.45    4.14
   4 -16   6    4.48    4.07
   4 -16   7    9.41    3.81
   4 -16   8    5.53    3.59
   4 -16   9   88.41    5.93
   4 -16  10    5.10    3.39
   4 -16  11    6.13    3.59
   3 -17  -5    6.11    2.24
   3 -17  -5    4.14    2.39
   3 -17  -4   39.29    3.36
   3 -17  -4   44.77    3.85
   3 -17  -3   11.61    3.18
   3 -17  -3    6.00    3.33
   3 -17  -2   57.98    4.44
   3 -17  -2   43.83    4.55
   3 -17  -1  133.80    7.22
   3 -17  -1  137.30    7.64
   3 -17   0    1.44    3.34
   3 -17   0   -1.74    3.67
   3 -17   1   14.03    3.89
   3 -17   2   15.89    3.88
   3 -17   3   12.77    3.84
   3 -17   4   25.81    3.92
   3 -17   5    2.52    4.13
   3 -17   6    1.29    3.97
   3 -17   7  118.50    6.76
   3 -17   8   -1.54    3.42
   3 -17   9    2.08    3.93
   3 -17  10   32.07    4.24
   3 -17  11   69.74    5.26
   2 -18  -5   -0.59    1.92
   2 -18  -5   -2.01    1.86
   2 -18  -4   -0.37    2.94
   2 -18  -4   -2.07    2.82
   2 -18  -3   24.41    3.45
   2 -18  -3   25.92    3.67
   2 -18  -2   31.62    3.74
   2 -18  -2   29.28    3.95
   2 -18  -1   20.89    3.50
   2 -18  -1   20.29    3.70
   2 -18   1    4.64    3.70
   2 -18   1   -4.95    4.09
   2 -18   2   21.53    4.23
   2 -18   2   25.85    4.46
   2 -18   3   36.94    4.50
   2 -18   3   29.58    4.56
   2 -18   4    4.43    4.28
   2 -18   4   10.71    4.10
   2 -18   5    2.73    4.35
   2 -18   5    4.97    4.00
   2 -18   6   56.00    5.41
   2 -18   6   70.96    5.59
   2 -18   7    1.95    4.36
   2 -18   7   -3.88    3.78
   2 -18   8    8.94    4.44
   2 -18   9    1.02    3.78
   2 -18   9    3.94    3.67
   2 -18  10   -3.13    3.62
   2 -18  10    2.59    3.60
   1 -19  -3   -2.07    3.29
   1 -19  -3   -3.63    3.35
   1 -19  -2   17.10    3.53
   1 -19  -2   15.70    3.58
   1 -19  -1   13.39    3.71
   1 -19  -1   15.98    3.81
   1 -19   0    2.36    3.63
   1 -19   0    4.07    3.65
   1 -19   1    4.21    3.73
   1 -19   1   10.74    3.93
   1 -19   2   48.42    5.23
   1 -19   2   54.67    5.13
   1 -19   3   -3.87    3.54
   1 -19   3    3.61    4.04
   1 -19   4   66.32    5.34
   1 -19   4   57.01    5.09
   1 -19   5    0.44    3.94
   1 -19   5    2.29    4.30
   1 -19   6    4.91    3.81
   1 -19   6    5.81    4.32
   1 -19   7   17.76    4.37
   1 -19   7   11.69    4.64
   1 -19   8   18.41    4.11
   1 -19   8    3.40    4.22
   1 -19   9    3.22    3.82
   1 -19   9    4.75    4.41
   1 -19  10   13.71    4.44
   1 -19  10   15.69    4.82
   0 -20  -4    5.63    2.51
   0 -20  -4   -2.59    2.49
   0 -20  -2    1.83    3.89
   0 -20  -2    9.92    3.83
   0 -20  -1   -6.45    4.37
   0 -20  -1    1.64    3.87
   0 -20   0    9.89    4.37
   0 -20   0   10.96    4.02
   0 -20   1   -1.22    4.20
   0 -20   1   -2.78    3.86
   0 -20   2    2.29    3.97
   0 -20   2    7.36    4.25
   0 -20   3   41.01    4.68
   0 -20   3   48.62    5.08
   0 -20   4    7.79    4.26
   0 -20   4    3.16    4.21
   0 -20   5    8.19    4.23
   0 -20   5   17.52    4.77
   0 -20   6    1.85    4.10
   0 -20   6   10.10    4.38
   0 -20   7   -1.42    4.10
   0 -20   7    4.19    4.56
   0 -20   8   -0.49    4.16
   0 -20   8    3.91    4.25
  -1 -21  -3    0.49    3.78
  -1 -21  -3   -2.03    3.72
  -1 -21  -2    9.03    4.08
  -1 -21  -2   -2.30    3.82
  -1 -21  -1   35.89    5.09
  -1 -21  -1   31.89    4.81
  -1 -21   0   -3.26    4.64
  -1 -21   0    6.83    4.36
  -1 -21   1   26.51    5.31
  -1 -21   1   24.06    4.77
  -1 -21   2    1.63    4.17
  -1 -21   2   -6.67    4.47
  -1 -21   3   -1.99    4.34
  -1 -21   3    4.54    4.41
  -1 -21   4    1.06    4.29
  -1 -21   4   -0.39    4.61
  -1 -21   5    8.14    4.53
  -1 -21   5   13.77    4.82
  -1 -21   6   -4.99    4.55
  -1 -21   6   -1.27    4.43
  -2 -22   0   11.71    5.86
  -2 -22   0    3.60    4.82
  -2 -22   1   -1.26    5.41
  -2 -22   1    2.99    4.64
  -2 -22   2    6.95    4.83
  -2 -22   2    1.14    4.68
  24   2 -16    1.30    3.66
 -24  -2  16   11.01    4.34
  24   2 -15   -4.57    3.47
 -24  -2  15    0.63    4.44
  24   2 -14    4.22    3.57
 -24  -2  14   -2.25    3.92
  24   2 -13   16.34    4.24
 -24  -2  13    8.74    3.90
  24   2 -12    5.37    3.27
 -24  -2  12    6.30    3.83
  24   2 -11   19.72    3.96
 -24  -2  11   19.34    4.03
  24   2 -10    1.60    3.57
 -24  -2  10    1.79    3.93
  24   2  -9   42.70    4.66
 -24  -2   9   39.15    4.46
  24   2  -8    0.47    3.63
 -24  -2   8   -1.56    3.52
  24   2  -7   -6.37    3.95
 -24  -2   7   -1.81    4.04
  23   1 -18    4.66    3.98
 -23  -1  18    9.59    4.71
  23   1 -17   -4.50    3.54
 -23  -1  17   -3.65    4.08
  23   1 -16   35.10    4.52
 -23  -1  16   37.42    4.62
  23   1 -15   10.45    3.97
 -23  -1  15   15.92    4.36
  23   1 -14    5.12    3.54
 -23  -1  14    1.29    4.25
  23   1 -13   14.77    4.10
 -23  -1  13   10.57    4.19
  23   1 -12   19.48    3.83
 -23  -1  12   23.09    4.56
  23   1 -11    1.99    3.60
 -23  -1  11   -2.25    3.74
  23   1 -10   11.74    4.10
 -23  -1  10   15.55    4.17
  23   1  -9    9.36    3.62
 -23  -1   9    5.74    3.85
  23   1  -8   -2.16    3.74
 -23  -1   8    7.36    3.84
  23   1  -7   12.54    4.14
 -23  -1   7    7.53    4.02
  23   1  -6    3.92    3.97
 -23  -1   6    3.17    3.89
  23   1  -5   -3.13    4.35
 -23  -1   5    8.00    4.09
  23   1  -4   32.11    4.47
 -23  -1   4   31.41    4.29
  22   0 -20   19.04    4.36
 -22   0  20   26.91    5.61
  22   0 -19    1.88    3.77
 -22   0  19    0.83    4.43
  22   0 -18    0.85    3.90
 -22   0  18    7.24    4.21
  22   0 -17    0.75    3.70
 -22   0  17   -2.92    3.92
  22   0 -16    5.89    4.10
 -22   0  16   -0.87    4.32
  22   0 -15   -4.76    3.74
 -22   0  15    2.99    3.94
  22   0 -14  184.10    9.59
 -22   0  14  169.90    9.11
  22   0 -13    1.67    3.70
 -22   0  13    1.36    3.77
  22   0 -12   20.08    4.38
 -22   0  12    7.07    3.87
  22   0 -11    0.89    4.09
 -22   0  11   -3.14    4.05
  22   0 -10   18.78    4.07
 -22   0  10    9.82    3.91
  22   0  -9   -1.41    4.24
 -22   0   9   -2.23    3.98
  22   0  -8   86.58    6.04
 -22   0   8   59.37    5.28
  22   0  -7    2.94    4.40
 -22   0   7   -1.45    4.01
  22   0  -6   26.88    4.61
 -22   0   6    1.98    4.27
  22   0  -5    2.53    3.90
 -22   0   5    6.52    3.81
  22   0  -4   15.80    4.20
 -22   0   4   16.92    3.82
  22   0  -3    2.83    4.22
 -22   0   3    4.39    3.54
  22   0  -2   10.03    4.19
 -22   0   2   10.52    4.03
  22   0  -1    2.44    4.08
 -22   0   1    2.65    3.63
  21  -1 -20    7.67    4.06
 -21   1  20   -1.04    4.32
  21  -1 -19   30.61    4.56
 -21   1  19   20.62    4.52
  21  -1 -18   15.67    3.87
 -21   1  18   12.76    4.50
  21  -1 -17    1.57    3.85
 -21   1  17    4.28    4.17
  21  -1 -16   32.21    4.42
 -21   1  16   26.43    5.17
  21  -1 -15    7.27    3.95
 -21   1  15   12.35    4.14
  21  -1 -14   18.40    3.84
 -21   1  14   21.63    4.50
  21  -1 -13   39.67    4.63
 -21   1  13   53.02    5.12
  21  -1 -12   67.69    5.69
 -21   1  12   42.80    4.94
  21  -1 -11   -1.06    3.61
 -21   1  11   -0.85    3.88
  21  -1 -10  119.70    7.23
 -21   1  10  106.70    6.64
  21  -1  -9   -7.43    4.31
 -21   1   9    5.84    4.00
  21  -1  -8   36.59    4.47
 -21   1   8   38.01    4.46
  21  -1  -7   93.56    6.73
 -21   1   7   89.38    6.09
  21  -1  -6    3.62    3.74
 -21   1   6    1.58    3.75
  21  -1  -5    2.45    3.82
 -21   1   5    3.38    4.19
  21  -1  -4   19.47    3.89
 -21   1   4   28.78    4.29
  21  -1  -3    6.09    4.24
 -21   1   3    1.68    3.54
  21  -1  -2   47.76    5.03
 -21   1   2   52.05    4.68
  21  -1  -1   14.05    4.19
 -21   1   1   12.99    3.98
  21  -1   0   14.62    4.30
 -21   1   0   12.31    3.91
  21  -1   1    6.59    4.06
 -20   2  21   11.16    4.65
  20  -2 -20    3.99    4.06
 -20   2  20   -3.17    4.38
  20  -2 -19    1.49    4.25
 -20   2  19    5.59    4.31
  20  -2 -18   -6.66    4.26
 -20   2  18    3.23    4.32
  20  -2 -17  109.10    6.72
 -20   2  17  110.80    7.03
  20  -2 -16    1.48    4.03
 -20   2  16    8.39    4.51
  20  -2 -15   13.02    4.29
 -20   2  15    7.86    3.95
  20  -2 -14   12.75    3.94
 -20   2  14   -1.77    4.25
  20  -2 -13    1.59    4.18
 -20   2  13    1.24    4.01
  20  -2 -12    8.53    3.79
 -20   2  12    0.22    3.91
  20  -2 -11  102.20    6.88
 -20   2  11   98.18    6.61
  20  -2 -10    3.72    4.51
 -20   2  10    3.19    3.62
  20  -2  -9  235.40   11.62
 -20   2   9  225.40   11.22
  20  -2  -8    2.52    4.01
 -20   2   8   11.31    3.90
  20  -2  -7   27.75    4.68
 -20   2   7   32.91    4.46
  20  -2  -6   -1.84    3.49
 -20   2   6    3.54    4.02
  20  -2  -5    2.91    3.95
 -20   2   5    2.28    3.56
  20  -2  -4    1.34    3.50
 -20   2   4    2.42    3.54
  20  -2  -3   45.24    4.81
 -20   2   3   44.26    4.51
  20  -2  -2    2.78    3.74
 -20   2   2    3.11    3.74
  20  -2  -1  104.80    6.71
 -20   2   1  107.20    6.57
  20  -2   0   -3.30    4.10
 -20   2   0   -3.69    3.58
  20  -2   1    7.75    4.35
 -20   2  -1   -3.56    3.47
  20  -2   2    4.55    3.78
 -20   2  -2    6.38    3.75
 -19   3  22   -1.25    4.83
 -19   3  21   -5.33    4.41
 -19   3  20    2.63    4.55
  19  -3 -19   15.57    4.43
 -19   3  19   29.13    4.69
  19  -3 -18    3.54    4.12
 -19   3  18    3.70    3.74
  19  -3 -17    5.02    3.58
 -19   3  17    4.00    4.29
  19  -3 -16   32.75    4.49
 -19   3  16   37.20    4.69
  19  -3 -15   60.60    5.47
 -19   3  15   51.28    5.24
  19  -3 -14   10.03    4.28
 -19   3  14    8.64    4.22
  19  -3 -13   56.92    5.36
 -19   3  13   54.16    4.76
  19  -3 -12    2.00    4.52
 -19   3  12   -3.53    3.84
  19  -3 -11  204.10   10.32
 -19   3  11  191.90    9.88
  19  -3 -10    3.94    4.22
 -19   3  10   12.77    3.94
  19  -3  -9    6.90    4.26
 -19   3   9    1.14    3.58
  19  -3  -8   39.33    4.58
 -19   3   8   30.06    4.23
  19  -3  -7   78.38    5.52
 -19   3   7   73.54    5.97
  19  -3  -6   -3.03    3.68
 -19   3   6    2.12    3.77
  19  -3  -5  115.10    6.85
 -19   3   5  137.40    7.84
  19  -3  -4    0.68    3.67
 -19   3   4   -3.22    3.79
  19  -3  -3    9.44    4.03
 -19   3   3    5.93    3.67
  19  -3  -2    5.94    3.77
 -19   3   2    1.52    3.42
  19  -3  -1   -7.99    3.67
 -19   3   1    4.67    3.90
  19  -3   0   34.46    4.60
 -19   3   0   37.09    4.65
  19  -3   1   22.63    4.24
 -19   3  -1   21.38    4.08
  19  -3   2    4.74    3.78
 -19   3  -2    4.34    3.64
  19  -3   3   37.80    4.72
 -19   3  -3   45.60    4.43
 -18   4  22    2.49    4.94
 -18   4  21   -3.52    4.36
 -18   4  20   12.59    4.66
  18  -4 -19   -1.57    3.89
 -18   4  19    1.18    4.40
  18  -4 -18   40.45    4.87
 -18   4  18   31.14    5.13
  18  -4 -17    9.84    4.07
 -18   4  17   12.04    4.50
  18  -4 -16   -4.93    3.73
 -18   4  16   -6.48    3.98
  18  -4 -15   38.29    4.36
 -18   4  15   49.50    5.03
  18  -4 -14   21.79    4.51
 -18   4  14   25.29    4.32
  18  -4 -13   17.61    4.11
 -18   4  13   24.31    3.81
  18  -4 -12   93.62    6.14
 -18   4  12   88.52    5.87
  18  -4 -11   27.60    4.41
 -18   4  11   21.77    4.16
  18  -4 -10   42.63    5.01
 -18   4  10   36.68    4.57
  18  -4  -9   17.30    3.87
 -18   4   9   18.82    3.90
  18  -4  -8    4.44    4.02
 -18   4   8   11.07    3.74
  18  -4  -7   22.96    4.58
 -18   4   7   26.30    4.54
  18  -4  -6  133.70    7.80
 -18   4   6  129.80    7.59
  18  -4  -5   46.33    4.64
 -18   4   5   43.76    4.72
  18  -4  -4  134.10    7.86
 -18   4   4  137.70    7.78
  18  -4  -3   21.74    3.82
 -18   4   3   13.78    3.92
  18  -4  -2    7.22    3.79
 -18   4   2    2.58    4.21
  18  -4  -1   -4.13    3.87
 -18   4   1    5.91    4.00
  18  -4   0   40.39    5.04
 -18   4   0   43.59    4.74
  18  -4   1    1.87    3.41
 -18   4  -1    1.63    3.46
  18  -4   2   88.47    6.05
 -18   4  -2   78.94    5.52
  18  -4   3    2.12    3.40
 -18   4  -3    1.16    3.57
  18  -4   4   27.28    4.47
 -18   4  -4   24.79    4.32
  18  -4   5   13.93    3.76
 -18   4  -5    4.80    4.07
 -17   5  22   12.79    5.48
 -17   5  21    6.50    4.42
 -17   5  20   -6.33    4.37
 -17   5  19    3.19    4.31
  17  -5 -18   17.36    4.27
 -17   5  18   21.48    4.59
  17  -5 -17   -3.18    3.80
 -17   5  17    4.50    3.98
  17  -5 -16   17.14    3.67
 -17   5  16   12.50    4.27
  17  -5 -15    0.07    3.71
 -17   5  15   -2.01    3.68
  17  -5 -14  192.30    9.57
 -17   5  14  159.10    8.48
  17  -5 -13    0.47    3.86
 -17   5  13   -2.60    3.60
  17  -5 -12    4.69    4.17
 -17   5  12   12.12    3.89
  17  -5 -11   66.60    5.08
 -17   5  11   63.40    5.08
  17  -5 -10   22.31    4.21
 -17   5  10   21.52    4.30
  17  -5  -9    0.69    3.65
 -17   5   9    7.70    3.99
  17  -5  -8  196.10    9.91
 -17   5   8  220.20   11.21
  17  -5  -7   17.06    3.84
 -17   5   7   13.46    4.20
  17  -5  -6   54.86    5.22
 -17   5   6   70.74    5.79
  17  -5  -5   34.56    4.57
 -17   5   5   51.92    4.89
  17  -5  -4    7.29    3.57
 -17   5   4   -3.21    3.55
  17  -5  -3   14.51    4.01
 -17   5   3   12.66    3.92
  17  -5  -2   68.68    5.38
 -17   5   2   76.71    5.83
  17  -5  -1   16.08    3.62
 -17   5   1   19.68    4.09
  17  -5   0   37.30    4.59
 -17   5   0   44.34    4.77
  17  -5   1   19.99    3.79
 -17   5  -1   19.56    4.15
  17  -5   2    0.27    3.41
 -17   5  -2    1.00    3.61
  17  -5   3   24.33    4.14
 -17   5  -3   26.42    3.90
  17  -5   4   30.35    4.53
 -17   5  -4   38.82    4.66
  17  -5   5    1.68    4.05
 -17   5  -5    0.53    3.85
  17  -5   6   22.62    4.03
 -17   5  -6   18.72    3.84
 -16   6  22    1.60    5.59
 -16   6  21    8.58    4.84
 -16   6  20   44.74    5.35
 -16   6  19   -0.13    4.27
  16  -6 -18   12.27    3.43
 -16   6  18    9.11    4.40
  16  -6 -17   34.75    4.18
 -16   6  17   36.05    4.62
  16  -6 -16    6.26    3.64
 -16   6  16   -2.35    3.67
  16  -6 -15   64.79    5.09
 -16   6  15   48.73    4.61
  16  -6 -14   -2.56    3.30
 -16   6  14   -6.32    3.40
  16  -6 -13  144.80    7.86
 -16   6  13  141.50    7.90
  16  -6 -12   32.01    4.93
 -16   6  12   44.13    4.55
  16  -6 -11   12.77    4.37
 -16   6  11    8.38    3.83
  16  -6 -10   48.00    4.75
 -16   6  10   33.98    4.50
  16  -6  -9   84.48    6.37
 -16   6   9   90.91    6.04
  16  -6  -8   -2.14    4.25
 -16   6   8   -2.13    3.88
  16  -6  -7  114.90    6.99
 -16   6   7  122.40    7.35
  16  -6  -6   73.56    5.47
 -16   6   6   57.85    5.21
  16  -6  -5   19.79    4.45
 -16   6   5   18.46    3.89
  16  -6  -4    8.86    3.99
 -16   6   4    1.47    3.57
  16  -6  -3   20.60    4.28
 -16   6   3   10.67    4.08
  16  -6  -2    1.82    4.09
 -16   6   2    0.28    3.64
  16  -6  -1   17.20    3.95
 -16   6   1   19.25    4.63
  16  -6   0   69.04    5.28
 -16   6   0   63.79    5.17
  16  -6   1    1.39    3.65
 -16   6  -1   11.13    3.73
  16  -6   2   46.46    4.43
 -16   6  -2   54.37    5.14
  16  -6   3   -2.04    4.07
 -16   6  -3    2.84    3.87
  16  -6   4    0.15    3.74
 -16   6  -4    1.17    3.53
  16  -6   5   55.34    5.23
 -16   6  -5   50.47    4.83
  16  -6   6  -10.99    4.12
  16  -6   7   19.35    4.78
 -15   7  22    8.16    5.62
 -15   7  21   22.92    4.99
 -15   7  20    9.55    4.07
 -15   7  19   62.03    5.06
 -15   7  18   -0.67    3.71
  15  -7 -17   44.65    4.27
 -15   7  17   25.35    4.08
  15  -7 -16    5.91    3.36
 -15   7  16   -4.42    3.46
  15  -7 -15   14.14    3.57
 -15   7  15    4.35    3.45
  15  -7 -14   -4.70    3.70
 -15   7  14   -1.13    3.27
  15  -7 -13   54.02    4.66
 -15   7  13   42.39    4.56
  15  -7 -12    2.15    3.79
 -15   7  12   -4.52    3.47
  15  -7 -11  228.60   11.43
 -15   7  11  194.70    9.84
  15  -7 -10    2.31    3.64
 -15   7  10    6.88    3.79
  15  -7  -9   61.26    4.95
 -15   7   9   41.42    4.41
  15  -7  -8   -4.22    4.00
 -15   7   8   -0.75    3.78
  15  -7  -7   36.13    5.15
 -15   7   7   25.66    4.09
  15  -7  -6   -2.85    3.47
 -15   7   6    5.71    3.71
  15  -7  -5  103.10    6.38
 -15   7   5  110.40    6.95
  15  -7  -4   60.47    4.93
 -15   7   4   59.44    5.56
  15  -7  -3  123.60    7.82
 -15   7   3  123.00    7.41
  15  -7  -2   40.12    4.70
 -15   7   2   38.04    4.29
  15  -7  -1   13.00    4.06
 -15   7   1    9.53    3.63
  15  -7   0   46.36    4.81
 -15   7   0   43.79    4.80
  15  -7   1  126.80    7.34
 -15   7  -1  132.90    7.61
  15  -7   2    4.42    4.06
 -15   7  -2  -10.09    3.83
  15  -7   3  117.00    6.98
 -15   7  -3  149.90    8.41
  15  -7   4   42.49    5.13
 -15   7  -4   19.48    4.20
  15  -7   5   16.80    4.06
 -15   7  -5   20.64    3.98
  15  -7   6   15.99    4.42
  15  -7   7    4.04    4.02
 -14   8  21   19.19    4.25
 -14   8  20   19.73    4.02
 -14   8  19   15.76    3.73
 -14   8  18   19.58    3.72
 -14   8  17    7.49    3.40
  14  -8 -16    5.75    3.30
 -14   8  16    9.58    3.37
  14  -8 -15   22.26    3.53
 -14   8  15   22.19    3.57
  14  -8 -14    2.98    3.18
 -14   8  14   -0.43    3.24
  14  -8 -13   58.01    4.82
 -14   8  13   62.44    4.85
  14  -8 -12  144.00    7.72
 -14   8  12  156.50    8.30
  14  -8 -11   10.18    3.61
 -14   8  11   -3.61    3.34
  14  -8 -10   42.32    4.63
 -14   8  10   39.30    4.31
  14  -8  -9   37.28    4.60
 -14   8   9   44.40    4.32
  14  -8  -8    3.30    3.74
 -14   8   8    2.61    3.49
  14  -8  -7   40.69    4.73
 -14   8   7   39.40    4.50
  14  -8  -6   23.79    4.17
 -14   8   6   29.86    4.30
  14  -8  -5    9.69    4.19
 -14   8   5    6.54    3.53
  14  -8  -4   42.98    4.77
 -14   8   4   55.48    5.24
  14  -8  -3  299.50   13.98
 -14   8   3  355.90   16.78
  14  -8  -2   92.09    6.37
 -14   8   2   91.72    6.12
  14  -8  -1   70.36    5.55
 -14   8   1   71.83    5.51
  14  -8   0   -2.81    3.69
 -14   8   0   -0.74    3.47
  14  -8   1   79.98    5.77
 -14   8  -1   76.78    5.71
  14  -8   2   14.50    3.78
 -14   8  -2   26.64    4.40
  14  -8   3   -4.39    4.12
 -14   8  -3    3.04    3.72
  14  -8   4   70.09    5.57
 -14   8  -4   60.57    5.34
  14  -8   5  101.00    6.76
  14  -8   6   36.70    4.55
  14  -8   7   66.73    5.36
  14  -8   8   -6.07    3.84
 -13   9  20   26.09    3.57
 -13   9  19    0.15    3.12
 -13   9  18   -0.89    2.78
 -13   9  17    1.60    2.80
 -13   9  16   18.28    3.16
  13  -9 -15   -1.74    2.78
 -13   9  15   -0.53    3.11
  13  -9 -14   38.56    3.77
 -13   9  14   38.36    4.00
  13  -9 -13   -0.70    3.00
 -13   9  13    0.75    3.16
  13  -9 -12   11.07    3.41
 -13   9  12    8.15    3.22
  13  -9 -11   15.45    3.48
 -13   9  11   20.39    3.54
  13  -9 -10   70.25    4.97
 -13   9  10   77.25    5.14
  13  -9  -9    4.83    3.56
 -13   9   9    0.17    3.24
  13  -9  -8   72.51    5.72
 -13   9   8   79.85    5.37
  13  -9  -7  102.30    6.15
 -13   9   7    9.50    3.58
  13  -9  -6   60.79    5.14
 -13   9   6   58.67    4.80
  13  -9  -5   21.45    4.30
 -13   9   5   11.52    3.54
  13  -9  -4    9.62    4.09
 -13   9   4    2.02    3.62
  13  -9  -3  232.50   11.54
 -13   9   3  232.70   11.45
  13  -9  -2   44.74    4.27
 -13   9   2   44.56    4.80
  13  -9  -1   39.94    4.58
 -13   9   1   42.70    4.48
  13  -9   0  332.80   15.65
 -13   9   0  381.80   17.37
  13  -9   1   17.49    3.82
 -13   9  -1    8.20    4.14
  13  -9   2   28.19    4.48
 -13   9  -2   15.01    4.12
  13  -9   3   11.60    3.70
 -13   9  -3   14.31    4.27
  13  -9   4   20.57    4.08
  13  -9   5   23.15    4.27
  13  -9   6   63.89    5.56
  13  -9   7   -2.42    4.03
  13  -9   8   68.33    5.36
  13  -9   9   -0.77    3.86
 -12  10  17    4.61    2.09
 -12  10  16   24.32    2.70
 -12  10  15   40.61    3.40
  12 -10 -14    5.01    2.80
 -12  10  14    5.65    2.71
  12 -10 -13   16.75    3.03
 -12  10  13   17.74    3.13
  12 -10 -12  231.90   10.74
 -12  10  12  208.50    9.80
  12 -10 -11    5.95    3.29
 -12  10  11    3.94    3.02
  12 -10 -10   70.33    4.82
 -12  10  10   69.88    4.96
  12 -10  -9   10.10    3.10
 -12  10   9   23.69    3.63
  12 -10  -8    8.02    3.89
 -12  10   8    7.11    3.41
  12 -10  -7   24.20    4.14
 -12  10   7   13.89    3.55
  12 -10  -6   34.01    4.26
 -12  10   6   46.62    4.27
  12 -10  -5    4.06    3.50
 -12  10   5    6.20    3.09
  12 -10  -4   76.45    5.82
 -12  10   4   80.68    5.57
  12 -10  -3  137.70    8.14
 -12  10   3  138.20    7.90
  12 -10  -2  296.00   14.07
 -12  10   2  295.60   14.00
  12 -10  -1    9.77    3.77
 -12  10   1   11.00    4.24
  12 -10   0    2.79    3.74
 -12  10   0    1.17    3.87
  12 -10   1  119.40    7.53
 -12  10  -1  106.10    6.88
  12 -10   2   36.49    4.74
 -12  10  -2   35.70    4.30
  12 -10   3   31.11    4.53
  12 -10   4   99.73    6.45
  12 -10   5   47.25    4.97
  12 -10   6   34.91    4.21
  12 -10   7   25.55    4.12
  12 -10   8    2.63    4.02
  12 -10   9    6.62    3.96
 -11  11  14   30.80    2.52
  11 -11 -13   18.58    2.42
 -11  11  13   17.69    2.50
  11 -11 -12    2.34    2.35
 -11  11  12    6.03    2.41
  11 -11 -11  124.80    6.41
 -11  11  11  128.60    6.48
  11 -11 -10    2.65    3.20
 -11  11  10    1.11    2.90
  11 -11  -9  121.40    6.74
 -11  11   9  126.50    6.77
  11 -11  -8    4.43    3.04
 -11  11   8    8.48    3.31
  11 -11  -7    7.82    3.17
 -11  11   7    7.26    3.27
  11 -11  -6   65.33    5.19
 -11  11   6   73.00    5.16
  11 -11  -5  218.40   10.77
 -11  11   5  221.70   10.74
  11 -11  -4    2.73    3.33
 -11  11   4    2.64    3.69
  11 -11  -3  153.00    8.30
 -11  11   3  157.50    8.41
  11 -11  -2  104.20    6.97
 -11  11   2   73.80    5.70
  11 -11  -1   39.47    5.18
 -11  11   1   42.24    4.53
  11 -11   0   78.95    5.78
  11 -11   1   12.97    3.73
  11 -11   2    4.22    3.85
  11 -11   3  123.60    7.36
  11 -11   4   34.89    4.43
  11 -11   5   93.81    6.31
  11 -11   6    1.57    3.66
  11 -11   7   -2.21    3.39
  11 -11   8   12.28    3.56
  11 -11   9    3.60    3.92
  11 -11  10    6.86    4.03
  10 -12 -12   35.30    2.40
  10 -12 -11    3.37    2.19
  10 -12 -10    5.92    2.29
  10 -12  -9    3.91    2.79
 -10  12   9   -1.81    2.42
  10 -12  -8    4.97    3.36
 -10  12   8    4.81    2.85
  10 -12  -7  224.70   10.58
 -10  12   7  210.30   10.12
  10 -12  -6    7.18    3.15
 -10  12   6   -2.54    3.17
  10 -12  -5  149.70    8.11
 -10  12   5  155.00    8.00
  10 -12  -4    9.52    4.14
  10 -12  -3    5.98    3.61
  10 -12  -2  148.40    8.08
  10 -12  -1   73.79    6.01
  10 -12   0   -1.29    4.31
  10 -12   1  205.40   10.62
  10 -12   2    0.35    3.21
  10 -12   3   81.95    5.96
  10 -12   4   52.33    4.94
  10 -12   5   -3.24    3.52
  10 -12   6    5.48    3.85
  10 -12   7   66.83    5.73
  10 -12   8   18.09    4.00
  10 -12   9   28.47    4.01
  10 -12  10    6.26    4.12
   9 -13 -10   31.95    2.63
   9 -13  -9   87.97    4.63
   9 -13  -8  137.60    6.92
   9 -13  -7    5.07    3.19
   9 -13  -6  172.00    8.55
   9 -13  -5   44.59    3.92
   9 -13  -4  105.00    6.51
   9 -13  -3  116.20    7.20
   9 -13  -2    9.56    3.75
   9 -13  -1   16.74    4.15
   9 -13   0  303.20   14.14
   9 -13   1   42.43    5.22
   9 -13   2   86.81    6.43
   9 -13   3   31.69    4.24
   9 -13   4    8.44    4.10
   9 -13   5    9.91    3.94
   9 -13   6   19.53    3.84
   9 -13   7   11.42    3.70
   9 -13   8   19.08    3.81
   9 -13   9    4.13    4.19
   9 -13  10   28.02    4.20
   8 -14  -9   11.04    1.85
   8 -14  -8  124.90    6.09
   8 -14  -7    5.07    2.50
   8 -14  -6   32.80    3.78
   8 -14  -5   13.70    3.43
   8 -14  -4   55.63    4.60
   8 -14  -3   12.59    3.50
   8 -14  -2   92.45    5.96
   8 -14  -1    3.11    4.06
   8 -14   0   97.32    6.45
   8 -14   1  135.80    7.83
   8 -14   2   11.11    3.71
   8 -14   3    7.68    3.96
   8 -14   4   33.03    4.42
   8 -14   5   -1.37    3.44
   8 -14   6   51.09    4.63
   8 -14   7   -0.76    3.79
   8 -14   8    6.73    3.56
   8 -14   9   -2.16    3.48
   8 -14  10   23.50    3.87
   7 -15  -8   18.77    2.03
   7 -15  -8   16.60    2.04
   7 -15  -7    3.92    2.37
   7 -15  -6   26.73    3.27
   7 -15  -5    1.81    2.78
   7 -15  -4   -4.12    3.24
   7 -15  -3   32.80    4.18
   7 -15  -2   -5.89    3.65
   7 -15  -1   40.15    4.26
   7 -15   0   10.94    3.77
   7 -15   1    2.58    4.28
   7 -15   2    1.94    3.66
   7 -15   3   23.99    4.04
   7 -15   4   12.01    3.78
   7 -15   5   22.97    4.05
   7 -15   6    3.83    3.55
   7 -15   7   41.72    4.50
   7 -15   8   31.24    4.37
   7 -15   9    3.50    3.67
   7 -15  10   28.46    4.34
   6 -16  -7  113.30    5.45
   6 -16  -7  107.20    5.26
   6 -16  -6   -2.61    2.34
   6 -16  -6    5.33    2.93
   6 -16  -5   94.88    5.51
   6 -16  -4   12.29    3.41
   6 -16  -3    6.80    3.11
   6 -16  -2   -4.41    3.33
   6 -16  -1   28.22    4.07
   6 -16   0   14.63    3.58
   6 -16   1   88.44    5.75
   6 -16   2    4.52    3.71
   6 -16   3   39.23    4.68
   6 -16   4   -1.80    3.53
   6 -16   5    4.51    3.20
   6 -16   6    2.27    3.78
   6 -16   7   15.64    3.58
   6 -16   8   -2.03    3.35
   6 -16   9   41.25    4.35
   6 -16  10   -0.99    3.32
   5 -17  -6   38.24    3.11
   5 -17  -6   40.51    3.02
   5 -17  -5    3.65    2.80
   5 -17  -5    6.63    2.91
   5 -17  -4   82.60    5.22
   5 -17  -4   96.54    5.97
   5 -17  -3   52.06    4.41
   5 -17  -2    5.84    3.59
   5 -17  -1  101.30    6.37
   5 -17   0    0.45    3.42
   5 -17   1    4.58    3.65
   5 -17   2   18.45    3.98
   5 -17   3   -2.50    3.57
   5 -17   4   25.70    3.98
   5 -17   5   28.28    4.32
   5 -17   6   -3.32    3.68
   5 -17   7   27.02    4.22
   5 -17   8   23.62    3.97
   5 -17   9    0.59    3.51
   5 -17  10   10.91    3.82
   4 -18  -5    4.80    2.75
   4 -18  -5    5.45    2.90
   4 -18  -4   13.59    3.24
   4 -18  -4   20.03    3.45
   4 -18  -3   -1.51    3.27
   4 -18  -3    1.36    3.43
   4 -18  -2   75.57    5.39
   4 -18  -2   82.86    5.81
   4 -18  -1    6.83    3.52
   4 -18  -1    8.50    3.76
   4 -18   0   24.02    3.76
   4 -18   0   28.53    4.31
   4 -18   1   -2.07    3.46
   4 -18   2    1.33    3.51
   4 -18   3    6.55    3.58
   4 -18   4   12.75    4.28
   4 -18   5   -1.56    3.87
   4 -18   6   92.75    6.31
   4 -18   7    7.38    4.18
   4 -18   8   16.75    4.36
   4 -18   9    3.44    3.77
   3 -19  -5    3.22    2.53
   3 -19  -5   -0.28    2.44
   3 -19  -4   70.80    4.95
   3 -19  -4   63.44    4.72
   3 -19  -3   12.75    4.03
   3 -19  -3    5.95    3.50
   3 -19  -2   11.34    3.80
   3 -19  -2   17.26    3.78
   3 -19  -1   28.37    4.33
   3 -19  -1   24.11    4.00
   3 -19   0    7.50    3.63
   3 -19   0    3.59    4.11
   3 -19   1   -3.93    3.51
   3 -19   1    0.18    3.82
   3 -19   3    1.92    4.07
   3 -19   3   -7.17    4.45
   3 -19   4   46.73    4.77
   3 -19   4   32.70    5.22
   3 -19   5   20.40    4.40
   3 -19   5   19.93    4.28
   3 -19   6   -1.25    3.81
   3 -19   6   -5.93    3.87
   3 -19   7    3.70    4.00
   3 -19   8   17.61    4.50
   2 -20  -4    1.98    3.26
   2 -20  -4   -0.44    3.22
   2 -20  -3   18.69    4.49
   2 -20  -3   20.69    4.17
   2 -20  -2   14.19    4.42
   2 -20  -2    4.75    3.75
   2 -20  -1    4.61    4.19
   2 -20  -1    6.22    4.17
   2 -20   0   12.60    4.27
   2 -20   0   13.28    4.50
   2 -20   1   19.68    4.17
   2 -20   1   14.72    4.82
   2 -20   2    3.22    4.24
   2 -20   2    5.49    4.51
   2 -20   3   17.81    4.41
   2 -20   3   18.28    4.73
   2 -20   4   13.28    4.35
   2 -20   4    5.52    4.37
   2 -20   5   10.35    3.97
   2 -20   5   12.17    4.87
   2 -20   6    4.83    4.08
   2 -20   6   -4.17    4.53
   2 -20   7    2.72    3.83
   2 -20   7   -3.36    4.09
   1 -21  -4    1.34    2.86
   1 -21  -4    1.95    2.94
   1 -21  -3    2.18    4.19
   1 -21  -3    0.89    3.82
   1 -21  -2   -5.47    4.38
   1 -21  -2   -7.51    4.24
   1 -21   0   -0.83    4.28
   1 -21   0   -6.59    4.83
   1 -21   1   39.70    5.43
   1 -21   1   35.32    5.50
   1 -21   2    3.57    4.63
   1 -21   2    5.77    4.66
   1 -21   3    1.46    4.38
   1 -21   3    1.04    4.42
   1 -21   4   -3.82    4.33
   1 -21   4    1.49    4.35
   1 -21   5   10.19    4.20
   1 -21   5    1.99    4.65
   0 -22  -2    8.13    5.62
   0 -22  -2    4.37    4.92
   0 -22  -1    2.08    5.23
   0 -22  -1    0.24    4.43
   0 -22   0   10.24    5.21
   0 -22   0    4.44    4.75
   0 -22   1    3.59    5.10
   0 -22   1   -1.07    4.68
   0 -22   2    9.05    5.49
   0 -22   2   -0.08    5.13
  24   0 -17    0.91    4.16
  24   0 -16    0.74    3.60
 -24   0  16    2.56    4.43
  24   0 -15   -0.45    3.50
 -24   0  15    0.36    3.93
  24   0 -14   36.24    4.36
 -24   0  14   36.30    4.55
  24   0 -13    7.83    3.69
 -24   0  13    5.49    3.76
  24   0 -12    2.17    3.36
 -24   0  12    1.05    4.09
  24   0 -11   -1.83    3.74
 -24   0  11    4.92    3.88
  24   0 -10   -2.67    3.47
 -24   0  10    3.43    3.93
  24   0  -9   -1.00    3.92
 -24   0   9    0.67    4.24
  24   0  -8    4.40    3.72
 -24   0   8   10.07    4.37
  24   0  -7   -4.22    3.66
 -24   0   7   -2.08    3.98
  24   0  -6   17.02    4.51
  23  -1 -18    4.01    3.78
 -23   1  18    4.66    4.92
  23  -1 -17   -1.37    3.69
 -23   1  17    0.16    3.98
  23  -1 -16   44.82    4.92
 -23   1  16   46.64    5.13
  23  -1 -15   11.48    3.99
 -23   1  15   17.42    4.13
  23  -1 -14    1.29    3.49
 -23   1  14    6.03    4.13
  23  -1 -13    1.41    3.79
 -23   1  13    5.20    4.09
  23  -1 -12   37.60    4.47
 -23   1  12   29.25    4.72
  23  -1 -11    1.42    3.75
 -23   1  11   -2.10    4.13
  23  -1 -10   18.82    4.34
 -23   1  10   15.87    4.42
  23  -1  -9    4.31    3.82
 -23   1   9    4.96    3.95
  23  -1  -8   16.04    4.40
 -23   1   8   14.75    4.36
  23  -1  -7   -2.77    3.94
 -23   1   7   -3.38    3.97
  23  -1  -6    3.08    3.77
 -23   1   6    4.11    3.53
  23  -1  -5   12.08    4.02
 -23   1   5    7.68    3.69
  23  -1  -4   26.16    4.44
 -23   1   4   25.76    4.24
  22  -2 -20    0.99    4.14
  22  -2 -19   12.32    3.99
 -22   2  19   12.02    5.11
  22  -2 -18    4.19    3.97
 -22   2  18    7.38    4.50
  22  -2 -17   41.15    4.72
 -22   2  17   51.89    5.51
  22  -2 -16   -1.21    3.84
 -22   2  16    9.07    4.46
  22  -2 -15   14.98    4.46
 -22   2  15   12.44    4.07
  22  -2 -14    9.27    3.76
 -22   2  14   -0.92    4.16
  22  -2 -13   13.83    3.98
 -22   2  13   17.49    4.34
  22  -2 -12   10.49    4.33
 -22   2  12    2.75    4.30
  22  -2 -11   69.70    5.48
 -22   2  11   75.39    5.94
  22  -2 -10   13.22    4.38
 -22   2  10   16.08    4.48
  22  -2  -9   61.80    5.24
 -22   2   9   71.88    5.72
  22  -2  -8   -9.50    4.05
 -22   2   8    5.45    4.32
  22  -2  -7    8.18    3.62
 -22   2   7    6.04    4.22
  22  -2  -6   12.32    3.88
 -22   2   6   10.25    3.75
  22  -2  -5    9.26    3.63
 -22   2   5    9.69    3.96
  22  -2  -4   -0.86    3.76
 -22   2   4   -2.78    3.71
  22  -2  -3   65.80    5.44
 -22   2   3   69.09    5.22
  22  -2  -2   -2.45    4.00
 -22   2   2    0.28    4.18
  22  -2  -1   12.33    3.93
  21  -3 -20   -1.75    4.75
 -21   3  20   -5.89    4.66
  21  -3 -19   23.42    4.24
 -21   3  19   27.34    4.83
  21  -3 -18    4.67    3.88
 -21   3  18    5.52    4.01
  21  -3 -17   -1.34    3.74
 -21   3  17   -3.75    4.30
  21  -3 -16    2.13    3.92
 -21   3  16    6.66    4.22
  21  -3 -15   14.94    4.24
 -21   3  15    8.72    4.26
  21  -3 -14    1.23    4.08
 -21   3  14    2.95    3.80
  21  -3 -13   49.94    5.29
 -21   3  13   51.95    4.93
  21  -3 -12   13.20    3.95
 -21   3  12    7.84    4.06
  21  -3 -11   24.16    4.19
 -21   3  11   38.23    4.51
  21  -3 -10    0.16    4.02
 -21   3  10    8.30    3.81
  21  -3  -9   21.45    4.27
 -21   3   9   24.54    4.48
  21  -3  -8   13.19    4.13
 -21   3   8   20.83    4.34
  21  -3  -7   49.22    4.87
 -21   3   7   61.49    5.22
  21  -3  -6   -1.20    3.69
 -21   3   6   -3.50    3.92
  21  -3  -5   41.32    4.37
 -21   3   5   32.23    4.49
  21  -3  -4    9.36    4.11
 -21   3   4    7.06    3.92
  21  -3  -3    5.16    3.67
 -21   3   3    0.24    3.49
  21  -3  -2   29.92    4.57
 -21   3   2   24.42    4.15
  21  -3  -1   40.32    4.79
 -21   3   1   34.09    4.40
  21  -3   0   10.95    4.34
 -21   3   0    8.45    3.65
 -20   4  21    8.32    5.31
  20  -4 -20   27.21    4.67
 -20   4  20   30.06    4.94
  20  -4 -19    2.52    4.48
 -20   4  19    7.26    4.50
  20  -4 -18    3.57    3.86
 -20   4  18   14.18    4.53
  20  -4 -17   25.49    4.55
 -20   4  17   23.51    4.19
  20  -4 -16    1.11    3.82
 -20   4  16   -0.34    4.08
  20  -4 -15    5.87    4.21
 -20   4  15    6.11    3.70
  20  -4 -14   25.97    4.35
 -20   4  14   22.37    4.62
  20  -4 -13   -1.53    4.21
 -20   4  13   -2.73    3.88
  20  -4 -12   97.90    6.38
 -20   4  12   97.99    6.52
  20  -4 -11   20.97    4.61
 -20   4  11   23.47    4.26
  20  -4 -10   19.10    4.24
 -20   4  10   15.92    3.76
  20  -4  -9  115.90    7.27
 -20   4   9  105.30    6.79
  20  -4  -8   24.75    4.47
 -20   4   8   13.40    4.28
  20  -4  -7   11.27    3.63
 -20   4   7   12.21    4.12
  20  -4  -6  150.20    8.53
 -20   4   6  130.50    7.66
  20  -4  -5    1.44    3.68
 -20   4   5    4.15    3.69
  20  -4  -4   10.85    4.50
 -20   4   4   10.75    4.05
  20  -4  -3   90.72    5.94
 -20   4   3  103.70    7.06
  20  -4  -2   -7.56    4.06
 -20   4   2    5.18    3.79
  20  -4  -1   14.07    4.03
 -20   4   1    2.43    3.65
  20  -4   0   61.34    5.14
 -20   4   0   59.91    5.11
  20  -4   1    4.70    3.79
 -20   4  -1    5.72    3.92
  20  -4   2   28.12    4.32
 -20   4  -2   33.06    4.23
 -19   5  21  -10.19    5.58
 -19   5  20    5.84    4.66
  19  -5 -19    3.81    4.11
 -19   5  19    6.96    4.52
  19  -5 -18   46.39    5.11
 -19   5  18   34.50    4.93
  19  -5 -17    1.17    3.88
 -19   5  17   -0.74    4.17
  19  -5 -16  116.00    7.09
 -19   5  16   75.30    5.90
  19  -5 -15   -4.90    4.30
 -19   5  15   -4.88    3.83
  19  -5 -14   15.59    3.87
 -19   5  14   16.66    3.80
  19  -5 -13    5.22    3.73
 -19   5  13    3.87    3.66
  19  -5 -12    0.58    3.77
 -19   5  12    4.79    3.81
  19  -5 -11   -6.76    3.88
 -19   5  11   -4.31    3.48
  19  -5 -10   63.81    5.66
 -19   5  10   67.21    5.19
  19  -5  -9    5.89    3.99
 -19   5   9   11.33    4.07
  19  -5  -8  236.10   11.40
 -19   5   8  213.80   10.81
  19  -5  -7   -4.45    4.15
 -19   5   7   -6.92    3.50
  19  -5  -6   35.54    4.47
 -19   5   6   39.88    4.72
  19  -5  -5   21.03    3.94
 -19   5   5   19.50    3.85
  19  -5  -4   18.11    4.62
 -19   5   4   32.56    4.37
  19  -5  -3    8.00    3.71
 -19   5   3    8.50    3.78
  19  -5  -2  124.60    7.38
 -19   5   2  131.00    7.66
  19  -5  -1   12.59    3.78
 -19   5   1   14.04    4.84
  19  -5   0   38.81    4.42
 -19   5   0   41.16    4.57
  19  -5   1    9.25    3.73
 -19   5  -1   13.15    3.82
  19  -5   2    7.86    3.77
 -19   5  -2   -0.62    3.57
  19  -5   3    4.21    4.01
 -19   5  -3    2.76    3.64
 -18   6  21    5.06    5.36
 -18   6  20    2.25    4.34
  18  -6 -19   -6.42    4.53
 -18   6  19   -1.78    4.23
  18  -6 -18    7.47    4.19
 -18   6  18    1.52    4.18
  18  -6 -17   32.05    4.56
 -18   6  17   14.76    4.39
  18  -6 -16    4.19    3.84
 -18   6  16   -0.38    4.10
  18  -6 -15   62.33    5.04
 -18   6  15   59.92    5.20
  18  -6 -14   41.46    5.01
 -18   6  14   40.57    4.57
  18  -6 -13   19.29    4.13
 -18   6  13   10.53    3.85
  18  -6 -12    4.16    3.92
 -18   6  12   12.89    3.95
  18  -6 -11    9.36    4.06
 -18   6  11    0.05    3.75
  18  -6 -10   37.90    4.33
 -18   6  10   50.23    4.98
  18  -6  -9  154.20    8.81
 -18   6   9  183.10    9.48
  18  -6  -8    2.74    4.41
 -18   6   8    9.92    4.15
  18  -6  -7   87.90    6.10
 -18   6   7   70.19    5.55
  18  -6  -6   63.04    5.53
 -18   6   6   67.68    5.26
  18  -6  -5   -2.12    3.70
 -18   6   5   -2.14    3.64
  18  -6  -4   18.36    3.88
 -18   6   4   22.21    4.50
  18  -6  -3   75.62    5.78
 -18   6   3  108.60    6.92
  18  -6  -2    5.17    3.60
 -18   6   2   -1.57    4.02
  18  -6  -1   64.81    5.74
 -18   6   1   48.69    4.61
  18  -6   0   -5.42    3.64
 -18   6   0    5.55    3.62
  18  -6   1    4.70    3.95
 -18   6  -1    2.11    3.74
  18  -6   2   21.50    4.06
 -18   6  -2   12.92    3.86
  18  -6   3    1.28    3.58
 -18   6  -3   -1.31    3.63
  18  -6   4    8.28    4.34
 -18   6  -4    3.33    3.69
 -17   7  21    4.75    5.07
 -17   7  20    7.75    4.54
 -17   7  19   63.30    5.43
  17  -7 -18    9.13    4.44
 -17   7  18    2.04    3.93
  17  -7 -17   11.75    3.41
 -17   7  17    7.94    3.93
  17  -7 -16   -0.08    3.55
 -17   7  16    6.87    3.83
  17  -7 -15   15.85    4.17
 -17   7  15   18.58    3.85
  17  -7 -14   -1.16    3.27
 -17   7  14    2.25    3.72
  17  -7 -13  164.40    8.90
 -17   7  13  162.70    8.71
  17  -7 -12   -1.98    3.42
 -17   7  12    4.36    3.52
  17  -7 -11   90.63    6.52
 -17   7  11   73.59    5.55
  17  -7 -10    5.09    4.06
 -17   7  10    6.47    3.87
  17  -7  -9   13.07    3.95
 -17   7   9   13.12    4.11
  17  -7  -8   39.85    4.97
 -17   7   8   25.85    4.28
  17  -7  -7   60.25    5.53
 -17   7   7   66.31    5.29
  17  -7  -6   11.28    3.64
 -17   7   6   16.91    3.85
  17  -7  -5  215.60   10.78
 -17   7   5  193.60    9.91
  17  -7  -4   -3.96    3.74
 -17   7   4    0.19    3.84
  17  -7  -3  188.60    9.84
 -17   7   3  179.10    9.32
  17  -7  -2   52.50    4.70
 -17   7   2   47.33    4.85
  17  -7  -1   47.72    5.01
 -17   7   1   45.36    4.71
  17  -7   0    7.56    4.06
 -17   7   0    7.41    3.81
  17  -7   1   43.15    4.42
 -17   7  -1   42.04    4.62
  17  -7   2    3.98    4.19
 -17   7  -2    3.51    3.81
  17  -7   3   69.42    5.58
 -17   7  -3   68.78    5.37
  17  -7   4    4.92    3.65
 -17   7  -4    3.51    3.87
  17  -7   5   13.21    4.28
 -17   7  -5   18.73    3.60
 -16   8  21   16.38    5.37
 -16   8  20    8.23    4.34
 -16   8  19    3.74    3.88
 -16   8  18   30.77    4.38
  16  -8 -17   17.02    3.87
 -16   8  17   15.07    3.76
  16  -8 -16   -0.90    3.68
 -16   8  16   -3.47    3.41
  16  -8 -15   63.07    4.88
 -16   8  15   63.95    4.98
  16  -8 -14   59.35    5.01
 -16   8  14   59.65    4.86
  16  -8 -13   84.21    5.66
 -16   8  13   81.80    5.81
  16  -8 -12   48.64    4.65
 -16   8  12   56.79    4.97
  16  -8 -11   40.74    4.19
 -16   8  11   36.67    4.42
  16  -8 -10   27.37    4.31
 -16   8  10   43.99    4.60
  16  -8  -9    4.48    3.49
 -16   8   9    8.12    3.72
  16  -8  -8   -1.08    3.77
 -16   8   8    4.05    3.51
  16  -8  -7   24.76    4.07
 -16   8   7   23.57    4.13
  16  -8  -6  142.70    8.33
 -16   8   6  126.90    7.59
  16  -8  -5  107.30    6.84
 -16   8   5   94.66    6.15
  16  -8  -4   87.02    5.94
 -16   8   4  113.70    7.08
  16  -8  -3   39.28    4.63
 -16   8   3   28.72    4.46
  16  -8  -2   60.07    4.97
 -16   8   2   60.05    5.23
  16  -8  -1   37.34    4.51
 -16   8   1   34.03    4.39
  16  -8   0   33.30    4.45
 -16   8   0   41.79    4.68
  16  -8   1   19.14    3.76
 -16   8  -1   20.28    3.96
  16  -8   2   22.27    4.22
 -16   8  -2   22.00    4.35
  16  -8   3   16.38    4.37
 -16   8  -3    3.90    3.94
  16  -8   4   38.25    4.39
 -16   8  -4   41.24    4.65
  16  -8   5    5.72    4.18
  16  -8   6   -1.96    4.64
 -15   9  21    5.53    4.82
 -15   9  20   10.45    4.27
 -15   9  19   16.54    3.82
 -15   9  18   -1.65    3.79
  15  -9 -17   -3.09    3.94
 -15   9  17    4.67    3.66
  15  -9 -16   64.78    5.01
 -15   9  16   71.14    5.24
  15  -9 -15    5.67    3.36
 -15   9  15   -3.56    3.45
  15  -9 -14  111.80    6.68
 -15   9  14  127.20    7.23
  15  -9 -13    5.02    3.58
 -15   9  13    8.34    3.70
  15  -9 -12   20.06    3.65
 -15   9  12   17.05    3.84
  15  -9 -11    4.50    3.63
 -15   9  11    5.09    3.42
  15  -9 -10   33.64    3.95
 -15   9  10   46.43    4.40
  15  -9  -9   -0.68    3.74
 -15   9   9    4.33    3.41
  15  -9  -8   74.47    5.96
 -15   9   8   85.19    5.58
  15  -9  -7   -5.45    3.68
 -15   9   7    4.31    3.32
  15  -9  -6   84.18    5.72
 -15   9   6   72.54    5.30
  15  -9  -5   63.78    5.76
 -15   9   5   65.39    5.11
  15  -9  -4    4.61    4.26
 -15   9   4   -5.48    3.22
  15  -9  -3   -0.29    3.65
 -15   9   3    6.07    3.87
  15  -9  -2   25.87    4.05
 -15   9   2   38.70    4.70
  15  -9  -1    8.77    4.33
 -15   9   1   16.03    4.25
  15  -9   0   80.69    5.63
 -15   9   0   71.86    5.51
  15  -9   1   -3.04    4.07
 -15   9  -1   -2.08    3.86
  15  -9   2   12.65    3.96
 -15   9  -2    1.68    3.90
  15  -9   3    7.63    3.79
 -15   9  -3   13.43    4.26
  15  -9   4   25.76    4.42
  15  -9   5   14.79    3.86
  15  -9   6   46.37    4.66
  15  -9   7    7.61    4.44
 -14  10  19    1.68    3.37
 -14  10  18   30.25    3.63
 -14  10  17    0.96    3.02
  14 -10 -16   34.97    3.83
 -14  10  16   29.11    3.48
  14 -10 -15   21.91    3.50
 -14  10  15   27.22    3.58
  14 -10 -14   14.15    3.39
 -14  10  14   12.34    3.32
  14 -10 -13    4.50    3.35
 -14  10  13    7.49    3.35
  14 -10 -12   31.31    3.92
 -14  10  12   26.47    3.78
  14 -10 -11    1.43    3.26
 -14  10  11   -1.13    3.42
  14 -10 -10   35.28    4.11
 -14  10  10   19.50    3.83
  14 -10  -9    3.21    3.19
 -14  10   9    2.42    3.63
  14 -10  -8    0.74    3.63
 -14  10   8   -0.44    3.47
  14 -10  -7   36.43    4.76
 -14  10   7   22.42    3.93
  14 -10  -6    6.00    4.09
 -14  10   6   12.74    3.27
  14 -10  -5   28.08    3.79
 -14  10   5   23.52    3.60
  14 -10  -4   13.92    3.84
 -14  10   4    7.42    3.73
  14 -10  -3   18.30    4.65
 -14  10   3    7.17    3.84
  14 -10  -2   39.97    4.69
 -14  10   2   47.51    5.02
  14 -10  -1   11.10    4.09
 -14  10   1   17.39    4.23
  14 -10   0    5.41    3.69
 -14  10   0    0.72    3.63
  14 -10   1   -2.95    3.89
 -14  10  -1    7.02    3.74
  14 -10   2   40.64    4.76
 -14  10  -2   33.38    4.46
  14 -10   3   -0.66    3.36
  14 -10   4   74.94    5.63
  14 -10   5   -2.94    3.56
  14 -10   6   -7.45    3.87
  14 -10   7   10.51    3.94
 -13  11  17   22.23    2.51
 -13  11  16    1.33    2.39
  13 -11 -15   -1.16    2.80
 -13  11  15   -1.97    2.50
  13 -11 -14   21.05    3.25
 -13  11  14   16.01    3.31
  13 -11 -13  113.90    6.33
 -13  11  13  109.10    6.30
  13 -11 -12    6.24    3.25
 -13  11  12    2.54    3.36
  13 -11 -11  102.50    6.01
 -13  11  11   74.04    5.27
  13 -11 -10   12.04    3.36
 -13  11  10    4.77    3.08
  13 -11  -9   16.35    3.52
 -13  11   9   14.22    3.48
  13 -11  -8   37.00    4.25
 -13  11   8   24.10    3.59
  13 -11  -7   -3.11    3.14
 -13  11   7   -6.88    3.22
  13 -11  -6    0.91    3.81
 -13  11   6    6.42    3.29
  13 -11  -5   44.75    4.91
 -13  11   5   73.05    5.33
  13 -11  -4   10.03    3.81
 -13  11   4    4.65    3.57
  13 -11  -3  158.80    8.62
 -13  11   3  151.70    8.12
  13 -11  -2    0.87    4.24
 -13  11   2   -1.94    3.80
  13 -11  -1    8.30    4.27
 -13  11   1    6.54    3.97
  13 -11   0   49.43    4.56
 -13  11   0   45.46    4.63
  13 -11   1   10.71    4.18
  13 -11   2   29.62    4.49
  13 -11   3   44.16    4.95
  13 -11   4   -1.89    3.45
  13 -11   5   27.33    4.07
  13 -11   6   20.06    4.18
  13 -11   7    3.62    3.89
  13 -11   8   -3.30    3.74
 -12  12  14    3.15    2.16
  12 -12 -13   19.52    2.83
 -12  12  13   16.65    2.73
  12 -12 -12   29.89    3.20
 -12  12  12   27.58    3.26
  12 -12 -11    3.80    3.02
 -12  12  11    2.77    2.77
  12 -12 -10   94.12    5.61
 -12  12  10  102.80    5.99
  12 -12  -9    3.24    3.11
 -12  12   9   -2.91    3.15
  12 -12  -8   -1.62    3.49
 -12  12   8   11.27    3.24
  12 -12  -7  220.70   10.56
 -12  12   7  217.40   10.49
  12 -12  -6    2.15    3.07
 -12  12   6    1.33    3.33
  12 -12  -5    9.96    3.79
 -12  12   5    9.57    3.53
  12 -12  -4    7.71    4.09
 -12  12   4   -1.94    3.52
  12 -12  -3    3.87    3.79
 -12  12   3    3.19    3.67
  12 -12  -2   59.92    5.22
 -12  12   2   47.87    4.51
  12 -12  -1   99.19    6.69
  12 -12   0   -1.18    4.34
  12 -12   1  150.30    8.14
  12 -12   2    1.19    4.00
  12 -12   3    5.60    3.98
  12 -12   4   12.57    3.83
  12 -12   5   34.10    4.34
  12 -12   6    7.44    3.49
  12 -12   7   38.34    4.49
  12 -12   8   -7.00    3.97
  11 -13 -12   13.45    2.31
  11 -13 -11   93.25    5.18
  11 -13 -10   -2.89    2.69
  11 -13  -9   -2.55    2.95
  11 -13  -8   24.13    3.42
  11 -13  -7    1.62    3.12
  11 -13  -6  124.60    7.09
  11 -13  -5   58.14    4.67
  11 -13  -4    1.56    3.44
  11 -13  -3   67.43    5.60
  11 -13  -2   44.70    4.79
  11 -13  -1   20.04    4.06
  11 -13   0   64.01    5.11
  11 -13   1   -0.35    4.21
  11 -13   2   49.02    4.85
  11 -13   3   12.16    3.94
  11 -13   4    7.50    3.51
  11 -13   5    3.39    3.85
  11 -13   6   37.85    4.49
  11 -13   7   11.62    3.62
  11 -13   8   18.95    3.72
  10 -14 -11    3.04    1.71
  10 -14 -10  214.10    9.77
  10 -14  -9   -0.27    2.55
  10 -14  -8  109.50    6.23
  10 -14  -7    6.96    2.98
  10 -14  -6   40.53    3.99
  10 -14  -5    0.53    3.48
  10 -14  -4  214.10   10.71
  10 -14  -3    7.17    3.56
  10 -14  -2  112.00    6.73
  10 -14  -1   79.93    6.09
  10 -14   0    4.25    4.24
  10 -14   1    0.23    3.59
  10 -14   2   59.99    5.17
  10 -14   3    2.44    3.51
  10 -14   4   73.25    5.36
  10 -14   5    6.45    3.69
  10 -14   6   30.20    4.61
  10 -14   7   -8.21    4.15
  10 -14   8   -1.50    3.61
   9 -15  -9   24.11    2.85
   9 -15  -8   20.43    3.01
   9 -15  -7   45.68    3.93
   9 -15  -6   90.58    5.51
   9 -15  -5    9.61    3.47
   9 -15  -4   58.80    4.95
   9 -15  -3   87.23    5.93
   9 -15  -2    8.12    3.91
   9 -15  -1   79.27    5.41
   9 -15   0   15.14    3.76
   9 -15   1   16.82    4.46
   9 -15   2   23.04    4.58
   9 -15   3    4.15    3.73
   9 -15   4   13.95    4.23
   9 -15   5   79.56    5.75
   9 -15   6    9.96    3.93
   9 -15   7    1.70    3.74
   9 -15   8   25.68    4.02
   8 -16  -8   14.41    2.57
   8 -16  -8   22.97    2.70
   8 -16  -7  113.60    6.11
   8 -16  -6   10.86    3.10
   8 -16  -5   74.88    4.97
   8 -16  -4    7.46    3.42
   8 -16  -3    2.71    3.69
   8 -16  -2   -2.09    3.69
   8 -16  -1   31.32    4.31
   8 -16   0    2.26    4.11
   8 -16   1   98.01    6.26
   8 -16   2   -4.79    3.72
   8 -16   3   16.16    3.88
   8 -16   4    3.05    4.16
   8 -16   5   -1.51    3.53
   8 -16   6    8.96    3.67
   8 -16   7   16.97    3.69
   8 -16   8    2.42    3.53
   7 -17  -7   15.33    2.89
   7 -17  -7   17.84    2.93
   7 -17  -5   10.89    3.47
   7 -17  -4   28.26    3.76
   7 -17  -3    8.87    3.48
   7 -17  -2    5.80    3.65
   7 -17  -1   69.68    5.43
   7 -17   0   13.24    3.84
   7 -17   1    2.17    3.78
   7 -17   2   86.51    5.83
   7 -17   3    0.83    3.71
   7 -17   4   -0.43    3.85
   7 -17   5   14.90    3.91
   7 -17   6    0.52    3.61
   7 -17   7    5.51    3.76
   7 -17   8    6.49    3.54
   6 -18  -6    6.03    2.84
   6 -18  -6    1.90    2.75
   6 -18  -5   -3.38    3.04
   6 -18  -5    1.75    3.39
   6 -18  -4   25.25    4.08
   6 -18  -4   33.77    4.27
   6 -18  -3    3.86    3.55
   6 -18  -2   44.14    4.83
   6 -18  -1    6.89    3.66
   6 -18   0    4.53    3.83
   6 -18   1    0.28    4.07
   6 -18   2   15.26    3.92
   6 -18   3   12.54    3.80
   6 -18   4   59.84    5.09
   6 -18   5    1.24    3.66
   6 -18   6   27.28    4.42
   6 -18   7   -0.50    3.91
   6 -18   8    6.89    3.89
   5 -19  -6    3.66    2.51
   5 -19  -6    1.58    2.37
   5 -19  -5    2.08    3.17
   5 -19  -5    6.98    3.24
   5 -19  -4   32.40    4.43
   5 -19  -4   27.95    4.09
   5 -19  -3    5.22    4.39
   5 -19  -3    5.30    4.00
   5 -19  -2   -2.98    4.08
   5 -19  -2   -1.33    3.91
   5 -19  -1   22.81    4.49
   5 -19  -1   21.32    4.78
   5 -19   0    5.98    4.03
   5 -19   1    1.57    3.53
   5 -19   2   21.07    4.43
   5 -19   3    4.68    4.13
   5 -19   4   18.45    4.45
   5 -19   5   13.86    4.01
   5 -19   6    4.79    3.67
   5 -19   7    2.67    3.60
   4 -20  -4   -2.27    3.86
   4 -20  -4    0.51    3.72
   4 -20  -3   15.69    4.73
   4 -20  -3   21.17    4.23
   4 -20  -2    8.93    4.86
   4 -20  -2   18.34    4.50
   4 -20  -1   12.19    4.40
   4 -20  -1    0.53    4.16
   4 -20   0   15.85    4.89
   4 -20   0   12.76    4.99
   4 -20   1   15.26    4.50
   4 -20   1   17.72    4.73
   4 -20   2    0.35    3.73
   4 -20   2   -0.98    4.34
   4 -20   3   12.06    3.91
   4 -20   3   13.46    4.47
   4 -20   4    8.08    4.57
   4 -20   4    9.89    4.04
   4 -20   5    3.40    3.98
   4 -20   5   11.98    4.27
   4 -20   6   -0.90    4.25
   4 -20   6    8.13    3.86
   3 -21  -4    2.09    3.73
   3 -21  -4    1.59    3.78
   3 -21  -3   12.60    4.37
   3 -21  -3   12.31    4.41
   3 -21  -2    0.33    5.03
   3 -21  -2    2.75    4.29
   3 -21  -1   35.90    5.67
   3 -21  -1   41.12    5.41
   3 -21   0    8.33    4.36
   3 -21   0   11.52    5.26
   3 -21   1    9.04    4.44
   3 -21   1    8.53    4.75
   3 -21   2   -3.89    4.33
   3 -21   2    0.85    4.52
   3 -21   3   -6.24    4.08
   3 -21   3    8.05    4.32
   3 -21   4   -5.86    4.21
   3 -21   4   -4.54    4.69
   2 -22  -2    3.10    5.19
   2 -22  -2    4.10    4.96
   2 -22  -1   -2.53    5.76
   2 -22  -1    0.36    4.65
   2 -22   0   12.49    5.18
   2 -22   0   10.80    5.18
  24  -2 -16    5.19    3.80
 -24   2  16    0.01    4.56
  24  -2 -15    0.29    3.67
 -24   2  15    7.75    4.37
  24  -2 -14    1.86    3.31
 -24   2  14    3.79    4.43
  24  -2 -13    3.29    3.50
 -24   2  13    7.48    4.01
  24  -2 -12   -3.17    3.76
 -24   2  12   -0.15    3.90
  24  -2 -11   19.57    3.95
 -24   2  11   15.59    4.11
  24  -2 -10   -6.97    3.43
 -24   2  10    4.15    3.99
  24  -2  -9   41.29    4.92
 -24   2   9   37.34    4.76
  24  -2  -8    2.77    3.85
 -24   2   8   -3.13    4.41
  24  -2  -7    3.37    3.63
 -24   2   7    0.83    4.12
  23  -3 -18    9.42    4.31
 -23   3  18   16.49    5.14
  23  -3 -17   -1.42    4.04
 -23   3  17    2.25    4.00
  23  -3 -16    8.24    4.13
 -23   3  16   13.25    4.54
  23  -3 -15   17.44    3.89
 -23   3  15    5.81    4.28
  23  -3 -14    7.84    3.65
 -23   3  14    0.02    4.13
  23  -3 -13   24.79    4.25
 -23   3  13   22.09    4.34
  23  -3 -12    2.68    3.67
 -23   3  12   10.73    4.06
  23  -3 -11    1.60    3.44
 -23   3  11   -5.32    3.98
  23  -3 -10   29.09    4.60
 -23   3  10   19.35    4.28
  23  -3  -9    8.94    4.12
 -23   3   9    6.88    4.47
  23  -3  -8   14.47    3.92
 -23   3   8    6.97    4.36
  23  -3  -7   13.12    3.77
 -23   3   7   20.67    4.36
  23  -3  -6    6.21    3.81
 -23   3   6    5.00    3.72
  23  -3  -5   48.37    4.72
 -23   3   5   47.21    4.65
  23  -3  -4   -2.11    3.38
 -23   3   4    2.57    4.17
  22  -4 -19    2.38    3.95
 -22   4  19    4.53    4.74
  22  -4 -18   -2.79    4.11
 -22   4  18    2.38    4.30
  22  -4 -17   -0.38    3.74
 -22   4  17    3.47    4.28
  22  -4 -16    9.37    3.81
 -22   4  16    0.56    3.82
  22  -4 -15    1.20    4.16
 -22   4  15   -5.10    4.12
  22  -4 -14   25.15    4.13
 -22   4  14   22.79    4.32
  22  -4 -13   -2.88    4.05
 -22   4  13   10.38    4.32
  22  -4 -12   25.60    4.39
 -22   4  12   17.93    4.45
  22  -4 -11    8.06    3.95
 -22   4  11   12.63    4.45
  22  -4 -10    0.52    3.76
 -22   4  10    0.63    4.34
  22  -4  -9    4.14    4.24
 -22   4   9    8.71    4.34
  22  -4  -8   21.80    4.21
 -22   4   8   23.65    4.31
  22  -4  -7   -3.10    3.65
 -22   4   7   -0.65    3.65
  22  -4  -6   36.48    4.13
 -22   4   6   34.77    4.67
  22  -4  -5    6.55    3.84
 -22   4   5    5.60    3.78
  22  -4  -4   18.99    4.06
 -22   4   4   22.90    4.72
  22  -4  -3   10.17    3.74
 -22   4   3   11.44    4.11
  22  -4  -2    1.94    3.53
 -22   4   2    3.26    3.69
  21  -5 -20   -1.43    4.63
  21  -5 -19    6.18    3.96
 -21   5  19   -3.33    4.52
  21  -5 -18   49.93    5.12
 -21   5  18   51.65    5.43
  21  -5 -17   -2.71    4.16
 -21   5  17   -0.42    4.19
  21  -5 -16   22.30    4.41
 -21   5  16   28.98    4.30
  21  -5 -15    0.99    3.86
 -21   5  15   -3.24    4.10
  21  -5 -14    2.14    4.27
 -21   5  14    4.91    3.85
  21  -5 -13    6.40    3.78
 -21   5  13    6.12    4.21
  21  -5 -12    6.51    4.08
 -21   5  12    5.76    4.17
  21  -5 -11    2.93    3.60
 -21   5  11    1.99    4.34
  21  -5 -10  207.80   10.52
 -21   5  10  223.70   11.31
  21  -5  -9    4.51    3.97
 -21   5   9   -0.80    4.22
  21  -5  -8   98.75    6.35
 -21   5   8   92.06    6.21
  21  -5  -7    2.69    3.94
 -21   5   7   10.86    4.03
  21  -5  -6   -5.30    3.43
 -21   5   6    6.10    4.03
  21  -5  -5    6.32    4.28
 -21   5   5   18.71    4.18
  21  -5  -4   34.87    4.40
 -21   5   4   32.81    4.43
  21  -5  -3   -7.12    3.70
 -21   5   3   -0.18    4.02
  21  -5  -2   32.26    4.44
 -21   5   2   54.75    5.52
  21  -5  -1    0.16    4.14
 -21   5   1   -3.16    3.59
  21  -5   0    3.49    3.37
  20  -6 -20   10.31    4.52
 -20   6  20   13.86    5.26
  20  -6 -19   12.74    4.59
 -20   6  19    9.28    4.58
  20  -6 -18   -2.48    3.73
 -20   6  18   -4.96    4.19
  20  -6 -17   45.46    5.20
 -20   6  17   41.12    5.05
  20  -6 -16    1.76    4.20
 -20   6  16    5.52    4.32
  20  -6 -15   27.23    4.51
 -20   6  15   21.50    4.13
  20  -6 -14    0.74    3.88
 -20   6  14    5.35    4.13
  20  -6 -13    5.09    4.32
 -20   6  13   -5.07    3.95
  20  -6 -12    4.62    4.07
 -20   6  12   11.09    3.84
  20  -6 -11   13.49    4.18
 -20   6  11   14.22    4.05
  20  -6 -10   48.81    4.76
 -20   6  10   54.93    5.12
  20  -6  -9   87.22    6.17
 -20   6   9   69.63    5.24
  20  -6  -8   11.22    3.57
 -20   6   8    3.43    3.52
  20  -6  -7   33.64    4.47
 -20   6   7   32.19    4.37
  20  -6  -6   32.51    4.09
 -20   6   6   43.40    4.67
  20  -6  -5   -4.55    4.24
 -20   6   5   -1.17    4.10
  20  -6  -4    0.10    3.38
 -20   6   4    2.07    3.74
  20  -6  -3   62.22    5.32
 -20   6   3   54.78    5.18
  20  -6  -2    9.38    3.45
 -20   6   2    7.96    3.67
  20  -6  -1    8.14    3.83
 -20   6   1   -3.47    3.75
  20  -6   0   14.52    3.87
 -20   6   0    5.34    3.89
  20  -6   1    1.89    3.39
 -20   6  -1    2.33    3.59
 -19   7  20   -2.61    4.90
  19  -7 -19   29.90    4.95
 -19   7  19   23.17    4.85
  19  -7 -18    2.58    3.73
 -19   7  18   -0.13    4.17
  19  -7 -17    0.66    3.92
 -19   7  17   -1.59    4.13
  19  -7 -16    4.16    4.13
 -19   7  16    8.34    4.11
  19  -7 -15    3.14    4.09
 -19   7  15    5.76    4.26
  19  -7 -14   -0.14    3.84
 -19   7  14   -0.50    3.86
  19  -7 -13   32.39    4.74
 -19   7  13   48.83    5.00
  19  -7 -12   -1.25    3.85
 -19   7  12   -1.25    3.67
  19  -7 -11   55.39    5.02
 -19   7  11   47.85    4.77
  19  -7 -10   17.04    4.40
 -19   7  10   15.87    3.86
  19  -7  -9   -0.91    3.41
 -19   7   9   -0.76    3.61
  19  -7  -8    9.09    3.93
 -19   7   8   -0.15    3.71
  19  -7  -7   34.80    4.43
 -19   7   7   37.88    4.33
  19  -7  -6    2.26    3.85
 -19   7   6    3.91    3.52
  19  -7  -5   71.06    5.68
 -19   7   5   63.99    5.46
  19  -7  -4   22.06    3.76
 -19   7   4   32.03    4.53
  19  -7  -3    0.72    4.07
 -19   7   3    4.22    4.60
  19  -7  -2   15.39    3.90
 -19   7   2    7.05    3.73
  19  -7  -1    5.48    3.72
 -19   7   1    6.36    3.92
  19  -7   0   12.17    4.08
 -19   7   0    9.67    3.97
  19  -7   1   55.67    5.08
 -19   7  -1   41.09    4.69
  19  -7   2   -1.23    3.66
 -19   7  -2   -0.89    4.30
 -18   8  20   26.38    5.48
  18  -8 -19    0.26    4.31
 -18   8  19   -1.45    4.27
  18  -8 -18   16.27    4.93
 -18   8  18    2.31    4.08
  18  -8 -17   43.60    5.32
 -18   8  17   42.05    5.05
  18  -8 -16    5.03    3.89
 -18   8  16    0.74    4.24
  18  -8 -15   34.97    4.50
 -18   8  15   46.72    4.96
  18  -8 -14   13.33    4.08
 -18   8  14   15.02    4.24
  18  -8 -13    9.22    3.57
 -18   8  13   -0.63    3.92
  18  -8 -12   37.36    4.72
 -18   8  12   38.71    4.64
  18  -8 -11   46.57    4.93
 -18   8  11   57.77    5.01
  18  -8 -10   25.88    4.03
 -18   8  10   27.65    4.26
  18  -8  -9    2.22    4.34
 -18   8   9    7.92    3.72
  18  -8  -8   39.15    4.44
 -18   8   8   49.50    4.63
  18  -8  -7   51.48    4.86
 -18   8   7   55.30    4.78
  18  -8  -6   16.29    4.24
 -18   8   6   19.63    4.32
  18  -8  -5    4.50    3.73
 -18   8   5    2.71    3.87
  18  -8  -4   23.33    4.43
 -18   8   4   26.38    4.47
  18  -8  -3   61.92    5.13
 -18   8   3   55.07    5.14
  18  -8  -2    9.48    3.67
 -18   8   2   17.01    3.92
  18  -8  -1   15.06    3.79
 -18   8   1   22.00    4.01
  18  -8   0   14.13    4.03
 -18   8   0    7.44    3.82
  18  -8   1   10.32    3.99
 -18   8  -1   -4.87    4.30
  18  -8   2   17.70    4.17
 -18   8  -2   24.95    4.37
  18  -8   3   10.22    3.95
 -18   8  -3   13.10    4.20
 -17   9  20    5.57    5.53
 -17   9  19   -1.99    4.54
  17  -9 -18    3.12    4.45
 -17   9  18    4.45    4.31
  17  -9 -17    7.28    4.39
 -17   9  17    3.30    4.36
  17  -9 -16   79.37    5.81
 -17   9  16   75.72    5.83
  17  -9 -15    5.75    3.91
 -17   9  15   13.79    4.10
  17  -9 -14   91.02    5.91
 -17   9  14  102.30    6.46
  17  -9 -13    6.00    3.96
 -17   9  13   12.04    3.82
  17  -9 -12    1.31    3.69
 -17   9  12   -1.29    3.63
  17  -9 -11   10.59    4.22
 -17   9  11    6.09    3.66
  17  -9 -10   45.94    4.69
 -17   9  10   46.63    4.70
  17  -9  -9    3.20    3.23
 -17   9   9   11.36    3.70
  17  -9  -8   83.18    6.36
 -17   9   8   77.22    5.76
  17  -9  -7   36.06    4.53
 -17   9   7   38.69    4.59
  17  -9  -6   27.33    4.02
 -17   9   6   26.81    4.29
  17  -9  -5   -4.57    3.56
 -17   9   5    3.73    4.26
  17  -9  -4   37.40    4.64
 -17   9   4   35.03    4.30
  17  -9  -3   12.12    3.65
 -17   9   3   20.23    3.95
  17  -9  -2   12.66    3.74
 -17   9   2    9.11    3.77
  17  -9  -1    4.48    3.91
 -17   9   1   -0.59    3.91
  17  -9   0   35.87    4.38
 -17   9   0   35.08    4.59
  17  -9   1    6.48    4.17
 -17   9  -1    3.46    4.14
  17  -9   2    4.27    3.82
 -17   9  -2    9.94    4.02
  17  -9   3    4.48    3.36
 -17   9  -3   -1.68    3.83
  17  -9   4   33.99    4.64
 -16  10  20   26.89    5.17
 -16  10  19    1.49    4.24
 -16  10  18   20.91    4.29
  16 -10 -17   12.55    4.60
 -16  10  17    3.62    3.73
  16 -10 -16    8.58    3.84
 -16  10  16   18.64    3.82
  16 -10 -15   14.17    4.11
 -16  10  15    7.24    3.63
  16 -10 -14   12.67    4.08
 -16  10  14   20.27    3.68
  16 -10 -13   24.15    4.10
 -16  10  13   24.12    3.85
  16 -10 -12   32.89    4.30
 -16  10  12   34.71    4.20
  16 -10 -11   -4.33    3.71
 -16  10  11   -4.47    3.85
  16 -10 -10   49.94    4.86
 -16  10  10   57.38    5.25
  16 -10  -9    8.21    3.42
 -16  10   9    7.32    4.07
  16 -10  -8   20.04    3.92
 -16  10   8   12.61    3.94
  16 -10  -7   70.04    5.70
 -16  10   7   70.40    5.43
  16 -10  -6   22.24    4.03
 -16  10   6   19.55    3.64
  16 -10  -5   -0.49    3.53
 -16  10   5    1.37    3.31
  16 -10  -4   25.19    4.41
 -16  10   4    9.38    3.92
  16 -10  -3   23.73    4.52
 -16  10   3   23.86    4.42
  16 -10  -2   12.20    4.03
 -16  10   2    7.44    4.07
  16 -10  -1   14.30    4.38
 -16  10   1   15.77    4.32
  16 -10   0    3.06    3.83
 -16  10   0    5.38    4.30
  16 -10   1    7.90    3.99
 -16  10  -1    5.98    3.89
  16 -10   2   71.07    5.73
 -16  10  -2   82.49    5.91
  16 -10   3   -5.01    3.33
  16 -10   4   47.90    4.61
  16 -10   5   14.40    3.64
 -15  11  19   31.51    3.83
 -15  11  18    4.58    3.93
 -15  11  17   27.14    3.72
  15 -11 -16   -9.64    4.03
 -15  11  16    5.27    3.39
  15 -11 -15    2.91    3.63
 -15  11  15   -2.08    3.46
  15 -11 -14   36.38    4.17
 -15  11  14   25.55    4.07
  15 -11 -13   91.64    5.96
 -15  11  13  104.90    6.41
  15 -11 -12   -5.24    3.53
 -15  11  12   -2.89    3.47
  15 -11 -11   14.24    3.86
 -15  11  11   34.07    4.16
  15 -11 -10    0.85    3.39
 -15  11  10   -0.12    3.76
  15 -11  -9   13.63    3.85
 -15  11   9    3.57    3.50
  15 -11  -8   46.30    4.92
 -15  11   8   40.64    4.34
  15 -11  -7    7.87    3.70
 -15  11   7   12.56    3.74
  15 -11  -6   -5.18    3.37
 -15  11   6    0.59    3.08
  15 -11  -5   94.71    6.50
 -15  11   5   92.22    6.16
  15 -11  -4    1.53    3.44
 -15  11   4    4.05    3.79
  15 -11  -3   90.27    5.99
 -15  11   3   90.87    5.97
  15 -11  -2   26.78    4.65
 -15  11   2   22.15    4.12
  15 -11  -1   16.44    3.65
 -15  11   1   14.95    4.31
  15 -11   0   24.85    4.47
 -15  11   0   16.49    4.34
  15 -11   1   36.68    4.42
 -15  11  -1   19.93    4.06
  15 -11   2   -0.89    3.77
  15 -11   3   75.54    5.68
  15 -11   4    4.02    4.04
  15 -11   5   30.30    4.09
 -14  12  16   -0.67    2.87
  14 -12 -15   43.68    4.26
 -14  12  15   47.36    3.86
  14 -12 -14    3.82    3.15
 -14  12  14    1.09    2.89
  14 -12 -13   32.21    3.84
 -14  12  13   37.79    3.97
  14 -12 -12   81.83    5.42
 -14  12  12   71.70    5.03
  14 -12 -11    7.42    3.32
 -14  12  11   -3.90    3.39
  14 -12 -10   22.84    3.82
 -14  12  10   19.34    3.77
  14 -12  -9   93.39    5.96
 -14  12   9   98.83    6.14
  14 -12  -8   -3.07    3.64
 -14  12   8   -0.80    3.55
  14 -12  -7  107.10    6.43
 -14  12   7   97.29    6.29
  14 -12  -6   -5.56    3.51
 -14  12   6   -4.56    3.53
  14 -12  -5    7.33    3.33
 -14  12   5   -0.06    3.20
  14 -12  -4   21.54    4.12
 -14  12   4   39.11    4.68
  14 -12  -3    6.05    4.15
 -14  12   3    7.68    3.64
  14 -12  -2   14.23    3.53
 -14  12   2   18.15    4.24
  14 -12  -1  125.60    7.62
 -14  12   1  116.00    6.97
  14 -12   0   -0.94    3.50
  14 -12   1  100.10    6.37
  14 -12   2   20.08    3.98
  14 -12   3   -1.49    3.46
  14 -12   4    4.42    4.03
  14 -12   5   28.63    4.10
  14 -12   6    3.37    3.71
  13 -13 -14   50.45    3.86
  13 -13 -13    4.80    2.98
 -13  13  13    6.62    2.97
  13 -13 -12   20.29    3.52
 -13  13  12   28.46    3.65
  13 -13 -11    5.72    3.33
 -13  13  11    4.66    3.52
  13 -13 -10   -1.47    3.17
 -13  13  10    0.58    3.37
  13 -13  -9   11.31    3.75
 -13  13   9   11.11    3.79
  13 -13  -8  114.90    6.85
 -13  13   8  103.90    6.42
  13 -13  -7   17.77    3.47
 -13  13   7   15.65    3.92
  13 -13  -6   20.44    4.07
 -13  13   6   19.03    4.02
  13 -13  -5   25.82    3.93
 -13  13   5   36.53    4.44
  13 -13  -4    0.57    3.49
 -13  13   4   -0.18    3.31
  13 -13  -3    5.59    3.53
  13 -13  -2   14.81    4.38
  13 -13  -1   -0.51    3.92
  13 -13   0   64.88    5.31
  13 -13   1    5.62    3.61
  13 -13   2   37.65    4.60
  13 -13   3    9.65    3.59
  13 -13   4   26.91    4.27
  13 -13   5   14.78    4.30
  13 -13   6   20.10    4.14
  12 -14 -13    3.01    2.11
  12 -14 -12    0.82    2.71
  12 -14 -11   -1.42    3.03
  12 -14 -10   99.59    5.83
  12 -14  -9   -1.37    3.34
  12 -14  -8    6.49    3.37
  12 -14  -7    0.63    3.62
  12 -14  -6   49.13    4.57
  12 -14  -5    8.68    3.60
  12 -14  -4  107.50    6.66
  12 -14  -3    3.31    3.84
  12 -14  -2   53.73    4.89
  12 -14  -1    7.53    4.14
  12 -14   0   -2.56    4.34
  12 -14   1    4.87    3.79
  12 -14   2   52.36    5.13
  12 -14   3   -6.30    3.69
  12 -14   4   25.70    3.97
  12 -14   5    1.82    3.70
  12 -14   6    5.32    3.56
  11 -15 -11   -2.28    2.49
  11 -15 -10    3.09    3.04
  11 -15  -9  102.90    5.84
  11 -15  -8   50.68    4.64
  11 -15  -7    4.43    3.48
  11 -15  -6   47.99    4.52
  11 -15  -5   44.09    4.53
  11 -15  -4    0.87    3.78
  11 -15  -3   46.85    4.78
  11 -15  -2   15.68    4.29
  11 -15  -1   47.54    4.75
  11 -15   0   42.27    4.62
  11 -15   1   19.65    4.13
  11 -15   2   21.48    4.06
  11 -15   3   17.22    3.97
  11 -15   4    0.13    3.76
  11 -15   5   24.65    3.93
  11 -15   6    9.87    3.58
  10 -16 -10    2.36    2.25
  10 -16  -9    9.81    2.97
  10 -16  -8    8.65    3.53
  10 -16  -7  138.50    7.37
  10 -16  -6    7.36    3.58
  10 -16  -5   62.03    4.95
  10 -16  -4   20.09    3.92
  10 -16  -3    5.82    3.82
  10 -16  -2   -1.56    3.80
  10 -16  -1   70.67    5.35
  10 -16   0    7.82    4.14
  10 -16   1   48.60    5.07
  10 -16   2    0.15    3.98
  10 -16   3   12.92    4.14
  10 -16   4   -3.83    3.67
  10 -16   5   -1.95    3.66
  10 -16   6    2.97    3.88
   9 -17  -8    5.50    3.19
   9 -17  -7    5.05    3.32
   9 -17  -6   33.84    4.18
   9 -17  -5    3.26    3.52
   9 -17  -4    0.31    3.73
   9 -17  -3   88.22    6.02
   9 -17  -2    7.31    4.07
   9 -17  -1   37.79    4.70
   9 -17   0   45.87    5.13
   9 -17   1    5.78    4.00
   9 -17   2   20.82    4.49
   9 -17   3   15.02    4.52
   9 -17   4   10.84    3.79
   9 -17   5   18.04    4.24
   9 -17   6    1.09    3.81
   8 -18  -8   -0.51    2.18
   8 -18  -8    4.40    2.19
   8 -18  -7    0.54    3.34
   8 -18  -7   -1.36    3.18
   8 -18  -6    0.58    3.38
   8 -18  -5    4.06    3.89
   8 -18  -4    1.93    3.88
   8 -18  -3   25.56    4.35
   8 -18  -2   75.99    5.59
   8 -18  -1    6.34    4.22
   8 -18   0   18.06    4.50
   8 -18   1    7.21    4.09
   8 -18   2    2.41    4.03
   8 -18   3    6.38    4.06
   8 -18   4   23.96    4.54
   8 -18   5    4.80    4.23
   8 -18   6   26.29    4.75
   7 -19  -7    0.40    2.73
   7 -19  -7    1.23    2.72
   7 -19  -6    7.02    3.51
   7 -19  -6   10.28    3.74
   7 -19  -5   -1.05    4.12
   7 -19  -5    0.67    4.13
   7 -19  -4   33.94    4.88
   7 -19  -4   24.77    4.43
   7 -19  -3    5.72    4.53
   7 -19  -2    6.06    4.20
   7 -19  -1   -0.39    4.28
   7 -19   0    9.66    4.52
   7 -19   1   -3.27    4.17
   7 -19   2   31.34    5.19
   7 -19   3    0.03    4.26
   7 -19   4   17.33    4.71
   7 -19   5    7.85    4.09
   6 -20  -6    4.82    3.21
   6 -20  -6   -2.24    3.12
   6 -20  -5   17.74    4.06
   6 -20  -5   10.27    4.03
   6 -20  -4   -2.10    4.75
   6 -20  -4   -1.12    4.33
   6 -20  -3   21.61    5.23
   6 -20  -3   11.06    4.37
   6 -20  -2   -0.95    4.56
   6 -20  -2    1.16    5.07
   6 -20  -1    3.75    4.57
   6 -20  -1    7.59    4.79
   6 -20   0   12.83    5.02
   6 -20   1   16.45    4.89
   6 -20   2    1.19    3.99
   6 -20   3   20.89    4.65
   6 -20   4    5.75    4.10
   5 -21  -5   -2.00    4.04
   5 -21  -5    1.49    3.80
   5 -21  -4    0.82    4.49
   5 -21  -4   -2.65    4.21
   5 -21  -3   22.32    4.95
   5 -21  -3   13.44    4.87
   5 -21  -2    5.56    5.02
   5 -21  -2    1.72    4.44
   5 -21  -1   12.85    5.38
   5 -21  -1   24.81    5.47
   5 -21   0    6.13    5.20
   5 -21   0   -2.07    4.94
   5 -21   1    6.86    4.85
   5 -21   1    9.32    4.84
   5 -21   2    4.45    4.70
   5 -21   2   -0.65    4.59
  24  -4 -15    4.29    4.06
 -24   4  15   -0.94    4.53
  24  -4 -14    9.86    4.06
 -24   4  14   16.89    4.34
  24  -4 -13   -2.41    4.06
 -24   4  13   -5.06    4.21
  24  -4 -12    7.93    3.56
 -24   4  12   16.26    4.72
  24  -4 -11    1.05    3.65
 -24   4  11    4.79    4.78
  24  -4 -10   -6.18    3.56
 -24   4  10    3.84    4.46
  24  -4  -9   -5.62    3.79
 -24   4   9   -1.67    4.25
  24  -4  -8    7.68    3.65
 -24   4   8    6.30    4.27
  23  -5 -17    0.24    4.07
 -23   5  17    3.34    4.76
  23  -5 -16    9.36    4.30
 -23   5  16    9.05    4.29
  23  -5 -15    3.91    3.61
 -23   5  15   -6.58    4.18
  23  -5 -14    1.08    4.13
 -23   5  14    6.15    4.03
  23  -5 -13   -3.12    4.03
 -23   5  13    2.73    4.39
  23  -5 -12   18.42    4.08
 -23   5  12   10.49    4.57
  23  -5 -11    1.20    4.02
 -23   5  11   -1.09    4.05
  23  -5 -10   22.45    4.38
 -23   5  10   27.29    4.38
  23  -5  -9    0.82    3.90
 -23   5   9   -0.15    3.82
  23  -5  -8   10.72    3.80
 -23   5   8   16.12    4.08
  23  -5  -7    7.21    3.94
 -23   5   7    3.49    4.07
  23  -5  -6    2.76    3.58
 -23   5   6    7.38    4.08
  23  -5  -5   -4.47    3.31
 -23   5   5    3.56    4.26
  22  -6 -18    2.43    4.20
 -22   6  18   -6.72    4.29
  22  -6 -17    9.25    4.41
 -22   6  17    4.64    4.02
  22  -6 -16   -5.26    4.33
 -22   6  16    4.03    4.39
  22  -6 -15   -1.69    4.11
 -22   6  15    3.36    4.17
  22  -6 -14   25.82    4.10
 -22   6  14   24.77    4.89
  22  -6 -13    3.59    3.99
 -22   6  13    1.41    4.25
  22  -6 -12   -1.63    3.80
 -22   6  12   -1.92    4.56
  22  -6 -11   58.64    5.20
 -22   6  11   47.23    5.47
  22  -6 -10    4.23    3.98
 -22   6  10   -0.09    3.84
  22  -6  -9   46.63    4.70
 -22   6   9   41.79    4.77
  22  -6  -8    8.66    3.96
 -22   6   8   11.86    4.02
  22  -6  -7    6.74    3.64
 -22   6   7   10.71    3.87
  22  -6  -6   25.25    4.01
 -22   6   6   32.20    4.86
  22  -6  -5   19.85    3.98
 -22   6   5   26.63    4.70
  22  -6  -4   11.57    4.02
 -22   6   4    9.03    4.31
  22  -6  -3   56.71    4.97
 -22   6   3   48.26    4.79
  21  -7 -19    7.06    5.08
  21  -7 -18    2.06    4.23
 -21   7  18   -1.12    4.62
  21  -7 -17    2.87    4.39
 -21   7  17    1.28    3.93
  21  -7 -16    1.25    3.95
 -21   7  16   -1.10    4.27
  21  -7 -15   12.90    4.33
 -21   7  15   10.11    4.82
  21  -7 -14   -3.90    4.13
 -21   7  14    3.41    4.20
  21  -7 -13   55.82    5.02
 -21   7  13   64.91    5.78
  21  -7 -12   11.53    4.14
 -21   7  12    3.38    4.19
  21  -7 -11   18.51    4.00
 -21   7  11   17.92    4.34
  21  -7 -10   -0.87    3.69
 -21   7  10    7.30    4.26
  21  -7  -9    3.96    3.61
 -21   7   9    0.87    4.05
  21  -7  -8    2.18    3.80
 -21   7   8    2.66    3.89
  21  -7  -7   34.70    4.34
 -21   7   7   34.61    4.73
  21  -7  -6    3.86    3.62
 -21   7   6    7.95    4.25
  21  -7  -5   61.62    5.13
 -21   7   5   60.24    5.48
  21  -7  -4    6.48    4.20
 -21   7   4    3.38    4.69
  21  -7  -3   18.99    3.73
 -21   7   3   21.19    4.18
  21  -7  -2   -1.28    3.55
 -21   7   2    0.97    3.73
  21  -7  -1    4.23    4.06
  20  -8 -19   -1.51    5.01
 -20   8  19   -2.10    5.19
  20  -8 -18    2.65    4.69
 -20   8  18    8.37    4.74
  20  -8 -17   33.53    4.87
 -20   8  17   25.80    4.84
  20  -8 -16   -4.24    4.17
 -20   8  16    1.78    4.57
  20  -8 -15   12.12    4.17
 -20   8  15   18.59    4.61
  20  -8 -14   13.29    4.29
 -20   8  14    7.92    4.62
  20  -8 -13    5.28    4.24
 -20   8  13    0.43    4.33
  20  -8 -12   20.46    4.59
 -20   8  12   11.85    4.43
  20  -8 -11   49.25    4.81
 -20   8  11   45.16    4.93
  20  -8 -10    0.70    3.94
 -20   8  10    5.43    4.13
  20  -8  -9   40.55    4.88
 -20   8   9   36.80    4.66
  20  -8  -8   -1.79    3.93
 -20   8   8   10.53    4.34
  20  -8  -7   18.22    4.10
 -20   8   7   30.38    4.44
  20  -8  -6   25.68    4.37
 -20   8   6   24.34    4.29
  20  -8  -5    2.36    4.09
 -20   8   5    1.12    3.78
  20  -8  -4    6.16    4.09
 -20   8   4   11.89    3.96
  20  -8  -3    4.48    3.47
 -20   8   3    8.47    4.37
  20  -8  -2    2.97    3.77
 -20   8   2    1.62    4.15
  20  -8  -1   35.89    4.49
 -20   8   1   36.21    4.86
  20  -8   0    7.98    3.86
 -20   8   0    7.77    3.94
  19  -9 -19    0.83    4.98
 -19   9  19   -0.69    5.58
  19  -9 -18   11.80    4.77
 -19   9  18    4.09    5.20
  19  -9 -17   -6.56    4.33
 -19   9  17   14.95    4.86
  19  -9 -16   90.87    6.67
 -19   9  16   99.08    6.86
  19  -9 -15   -0.07    3.77
 -19   9  15    1.60    4.32
  19  -9 -14   29.42    4.55
 -19   9  14   26.71    4.66
  19  -9 -13   11.67    4.31
 -19   9  13   14.06    4.45
  19  -9 -12   12.42    4.20
 -19   9  12   15.24    4.26
  19  -9 -11    6.56    4.18
 -19   9  11    4.81    3.98
  19  -9 -10   69.93    5.75
 -19   9  10   72.80    5.38
  19  -9  -9    6.72    3.64
 -19   9   9    2.03    4.07
  19  -9  -8   68.10    5.76
 -19   9   8   69.46    5.66
  19  -9  -7    3.45    3.75
 -19   9   7   -1.86    4.17
  19  -9  -6   13.31    4.36
 -19   9   6    9.16    3.98
  19  -9  -5    0.07    3.50
 -19   9   5   -0.39    3.66
  19  -9  -4   32.99    4.09
 -19   9   4   32.70    4.38
  19  -9  -3   -2.31    3.81
 -19   9   3    5.28    3.72
  19  -9  -2   21.21    4.14
 -19   9   2   24.99    4.22
  19  -9  -1    3.36    3.87
 -19   9   1   -3.54    4.17
  19  -9   0   17.15    3.90
 -19   9   0   20.19    4.26
  19  -9   1   -1.81    3.38
 -19   9  -1    3.91    4.25
 -18  10  19    6.70    5.31
  18 -10 -18   -2.55    4.84
 -18  10  18    8.09    4.72
  18 -10 -17    7.63    4.91
 -18  10  17    3.59    4.31
  18 -10 -16    7.61    4.52
 -18  10  16   -1.54    3.98
  18 -10 -15   56.46    5.53
 -18  10  15   43.99    4.76
  18 -10 -14   28.70    4.29
 -18  10  14   38.97    4.68
  18 -10 -13    0.84    3.96
 -18  10  13    2.72    4.00
  18 -10 -12   78.56    5.93
 -18  10  12   60.95    5.41
  18 -10 -11    7.80    4.21
 -18  10  11    1.79    4.07
  18 -10 -10    7.84    4.17
 -18  10  10    5.41    4.02
  18 -10  -9   50.70    5.14
 -18  10   9   59.58    5.12
  18 -10  -8    2.00    4.18
 -18  10   8    2.66    3.99
  18 -10  -7   13.60    3.89
 -18  10   7   15.99    4.64
  18 -10  -6   22.76    4.55
 -18  10   6   23.06    4.27
  18 -10  -5   -0.47    3.45
 -18  10   5    1.61    3.89
  18 -10  -4   26.50    4.11
 -18  10   4   31.99    4.67
  18 -10  -3    0.66    3.33
 -18  10   3    2.35    4.02
  18 -10  -2    5.78    3.81
 -18  10   2   16.32    4.20
  18 -10  -1   19.41    3.74
 -18  10   1   17.52    4.38
  18 -10   0   15.37    3.70
 -18  10   0   19.76    4.61
  18 -10   1    0.88    3.08
 -18  10  -1    1.38    4.14
  18 -10   2   15.15    3.54
 -18  10  -2   10.27    3.94
 -17  11  19   12.19    5.33
 -17  11  18    2.82    4.51
  17 -11 -17   -3.45    4.55
 -17  11  17    9.09    4.50
  17 -11 -16   16.38    4.99
 -17  11  16   17.57    4.43
  17 -11 -15    9.40    4.56
 -17  11  15    6.78    4.04
  17 -11 -14    3.31    4.03
 -17  11  14    4.00    3.84
  17 -11 -13   70.60    5.69
 -17  11  13   62.12    5.32
  17 -11 -12    4.41    4.03
 -17  11  12    8.06    4.09
  17 -11 -11   73.64    5.71
 -17  11  11   79.44    5.97
  17 -11 -10   16.66    4.17
 -17  11  10   26.65    4.30
  17 -11  -9    0.24    3.98
 -17  11   9   -0.85    4.06
  17 -11  -8   -0.51    4.26
 -17  11   8    3.28    3.72
  17 -11  -7   54.26    5.37
 -17  11   7   57.96    4.96
  17 -11  -6    3.81    3.80
 -17  11   6   -3.43    3.34
  17 -11  -5   33.71    4.49
 -17  11   5   31.86    4.62
  17 -11  -4    9.63    4.01
 -17  11   4   -3.86    3.94
  17 -11  -3   54.82    5.19
 -17  11   3   61.18    5.22
  17 -11  -2    5.32    3.76
 -17  11   2    8.14    4.11
  17 -11  -1   -5.99    3.95
 -17  11   1   -0.77    4.32
  17 -11   0    4.35    3.50
 -17  11   0    7.40    4.45
  17 -11   1   57.07    4.71
 -17  11  -1   49.44    4.81
  17 -11   2    5.90    3.84
 -16  12  18    4.73    4.29
 -16  12  17   22.04    4.29
  16 -12 -16   -5.94    4.33
 -16  12  16   -3.06    3.61
  16 -12 -15   57.04    5.70
 -16  12  15   96.66    6.12
  16 -12 -14   -1.66    4.37
 -16  12  14    4.46    3.46
  16 -12 -13   14.09    4.28
 -16  12  13   19.54    3.88
  16 -12 -12    1.35    3.79
 -16  12  12    5.42    3.45
  16 -12 -11    5.18    3.82
 -16  12  11    6.09    3.79
  16 -12 -10    6.12    3.81
 -16  12  10    3.31    3.86
  16 -12  -9   82.24    5.92
 -16  12   9   69.19    5.66
  16 -12  -8    7.08    4.24
 -16  12   8    1.25    3.66
  16 -12  -7   42.88    4.50
 -16  12   7   48.72    4.90
  16 -12  -6   49.92    5.05
 -16  12   6   46.46    4.81
  16 -12  -5    1.70    3.80
 -16  12   5    3.30    3.88
  16 -12  -4   10.94    4.10
 -16  12   4   13.02    4.26
  16 -12  -3   38.05    4.73
 -16  12   3   34.39    4.82
  16 -12  -2    4.76    3.87
 -16  12   2    9.02    3.96
  16 -12  -1   48.65    4.72
 -16  12   1   50.60    5.25
  16 -12   0   -5.19    3.87
  16 -12   1    2.26    3.99
  16 -12   2   10.16    3.93
  16 -12   3    9.39    3.50
 -15  13  16   19.39    3.97
  15 -13 -15   -4.73    3.95
 -15  13  15   -2.63    3.55
  15 -13 -14    4.61    4.32
 -15  13  14   62.07    4.73
  15 -13 -13   -3.72    4.22
 -15  13  13   -0.10    3.62
  15 -13 -12   11.12    4.07
 -15  13  12   13.10    3.57
  15 -13 -11    7.63    4.11
 -15  13  11   13.34    3.90
  15 -13 -10   23.66    4.11
 -15  13  10   18.27    4.08
  15 -13  -9   20.95    4.17
 -15  13   9   22.12    4.09
  15 -13  -8   28.56    4.48
 -15  13   8   42.41    4.72
  15 -13  -7   19.23    4.26
 -15  13   7   32.41    4.53
  15 -13  -6   58.81    4.92
 -15  13   6   50.79    5.06
  15 -13  -5    0.73    3.46
 -15  13   5    0.24    3.77
  15 -13  -4   -4.12    3.93
 -15  13   4    3.73    4.00
  15 -13  -3   -1.84    3.49
 -15  13   3   -0.27    3.67
  15 -13  -2   70.21    5.49
  15 -13  -1    1.84    3.79
  15 -13   0   37.48    4.25
  15 -13   1    2.83    3.54
  15 -13   2    8.67    3.52
  15 -13   3   14.50    4.37
  15 -13   4    4.51    3.74
  14 -14 -14   -2.92    3.52
  14 -14 -13    1.59    3.73
  14 -14 -12   46.55    4.89
  14 -14 -11   -2.37    4.03
  14 -14 -10   39.11    4.56
 -14  14  10   51.34    4.63
  14 -14  -9   12.50    3.96
 -14  14   9    6.63    3.33
  14 -14  -8    4.54    3.76
 -14  14   8    5.76    3.41
  14 -14  -7    2.70    3.75
  14 -14  -6   14.75    4.12
  14 -14  -5   20.80    4.24
  14 -14  -4   71.54    5.56
  14 -14  -3    8.69    4.19
  14 -14  -2   12.09    4.01
  14 -14  -1    0.30    3.50
  14 -14   0    7.31    4.05
  14 -14   1   -2.17    3.83
  14 -14   2    7.67    4.03
  14 -14   3   -2.10    3.63
  14 -14   4   15.39    4.07
  13 -15 -13   -1.54    2.81
  13 -15 -12    2.40    3.24
  13 -15 -11   62.40    5.09
  13 -15 -10    8.00    4.00
  13 -15  -9   22.15    4.29
  13 -15  -8   23.27    4.15
  13 -15  -7   12.66    3.66
  13 -15  -6   49.63    4.91
  13 -15  -5    6.15    3.62
  13 -15  -4   -7.37    3.98
  13 -15  -3   64.01    5.33
  13 -15  -2   22.40    4.22
  13 -15  -1    2.56    4.06
  13 -15   0   24.85    4.40
  13 -15   1   14.64    3.85
  13 -15   2    0.93    3.85
  13 -15   3    2.74    3.91
  13 -15   4    1.04    3.52
  12 -16 -11   -1.90    3.12
  12 -16 -10   -6.70    3.71
  12 -16  -9   42.93    4.77
  12 -16  -8    6.19    4.25
  12 -16  -7   92.04    6.09
  12 -16  -6   -0.70    3.55
  12 -16  -5    6.62    3.92
  12 -16  -4   10.48    3.85
  12 -16  -3   16.98    4.09
  12 -16  -2    3.14    4.01
  12 -16  -1   51.34    5.11
  12 -16   0    6.66    4.23
  12 -16   1   21.38    4.16
  12 -16   2    7.62    3.76
  12 -16   3    3.57    3.63
  12 -16   4    3.26    4.11
  11 -17 -10   -4.27    3.00
  11 -17  -9   32.74    4.14
  11 -17  -8   10.00    4.45
  11 -17  -7   11.12    4.19
  11 -17  -6   -1.21    3.97
  11 -17  -5   41.50    4.76
  11 -17  -4   -2.53    3.89
  11 -17  -3  117.80    6.97
  11 -17  -2   -2.95    3.97
  11 -17  -1   -2.15    3.77
  11 -17   0    9.54    4.05
  11 -17   1   -3.72    3.68
  11 -17   2    6.01    3.79
  11 -17   3   22.34    4.29
  11 -17   4    5.24    4.21
  10 -18  -9    0.23    2.90
  10 -18  -9    5.49    2.97
  10 -18  -8   18.64    4.20
  10 -18  -7    2.94    4.15
  10 -18  -6   -4.62    4.46
  10 -18  -5   20.29    4.61
  10 -18  -4   36.03    4.71
  10 -18  -3   12.15    4.33
  10 -18  -2   36.86    4.54
  10 -18  -1    4.81    4.44
  10 -18   0   -2.12    4.28
  10 -18   1    2.96    4.36
  10 -18   2    6.51    3.96
  10 -18   3   -4.58    4.03
   9 -19  -8    0.45    3.26
   9 -19  -8    3.25    3.13
   9 -19  -7   -1.16    4.10
   9 -19  -7   -1.84    4.26
   9 -19  -6   31.04    5.05
   9 -19  -5    2.67    4.55
   9 -19  -4   19.86    4.59
   9 -19  -3    1.36    4.31
   9 -19  -2   -0.09    4.48
   9 -19  -1   -0.48    4.13
   9 -19   0    4.17    4.30
   9 -19   1   -6.68    4.22
   9 -19   2   20.58    4.91
   9 -19   3    2.27    4.66
   8 -20  -7    2.70    3.65
   8 -20  -7    7.68    3.65
   8 -20  -6    3.42    4.09
   8 -20  -6    0.84    4.10
   8 -20  -5   38.10    5.24
   8 -20  -5   37.09    5.08
   8 -20  -4    2.93    4.70
   8 -20  -4    0.69    4.28
   8 -20  -3   -1.66    4.77
   8 -20  -2    1.62    4.75
   8 -20  -1    7.43    4.56
   8 -20   0   12.01    4.57
   8 -20   1   48.31    5.57
   8 -20   2    8.18    5.16
   7 -21  -6    0.33    4.56
   7 -21  -6   -2.57    4.11
   7 -21  -5    5.32    4.88
   7 -21  -5   -4.17    4.84
   7 -21  -4    1.21    5.22
   7 -21  -4   16.32    5.20
   7 -21  -3    7.79    5.10
   7 -21  -3    8.23    5.49
   7 -21  -2   -0.18    5.09
   7 -21  -2    3.18    5.11
   7 -21  -1   19.63    5.47
   7 -21  -1   24.80    5.88
  24  -6 -12    4.84    3.78
  24  -6 -11   -3.07    4.66
  23  -7 -15   16.08    4.43
 -23   7  15   23.63    5.35
  23  -7 -14    0.43    3.77
 -23   7  14   13.38    4.38
  23  -7 -13   10.60    4.30
 -23   7  13   13.50    4.71
  23  -7 -12   -2.71    3.75
 -23   7  12    4.23    3.88
  23  -7 -11    4.83    3.99
 -23   7  11    5.43    4.20
  23  -7 -10    2.53    4.30
 -23   7  10    7.46    4.34
  23  -7  -9    9.19    3.71
 -23   7   9    5.13    4.18
  23  -7  -8    7.49    3.84
 -23   7   8   -0.81    4.54
  23  -7  -7   41.95    4.60
 -23   7   7   35.94    4.86
  22  -8 -16    7.25    4.47
 -22   8  16    5.74    5.00
  22  -8 -15    3.77    4.44
 -22   8  15   14.07    4.75
  22  -8 -14    2.64    4.04
 -22   8  14    1.56    4.29
  22  -8 -13    6.73    3.86
 -22   8  13    6.43    4.36
  22  -8 -12   14.17    4.15
 -22   8  12    8.58    4.18
  22  -8 -11   22.88    4.56
 -22   8  11   33.11    4.69
  22  -8 -10    1.31    3.81
 -22   8  10    6.55    3.98
  22  -8  -9   14.61    3.82
 -22   8   9   18.04    4.83
  22  -8  -8   -4.98    3.97
 -22   8   8    1.50    4.47
  22  -8  -7    9.81    4.13
 -22   8   7   -9.36    4.13
  22  -8  -6   32.67    4.51
 -22   8   6   30.68    4.46
  22  -8  -5    3.66    3.98
 -22   8   5    4.78    3.90
  21  -9 -17    1.00    4.84
 -21   9  17    3.54    5.09
  21  -9 -16   29.71    5.08
 -21   9  16   33.04    5.20
  21  -9 -15    1.07    4.13
 -21   9  15   -3.40    4.32
  21  -9 -14   -6.50    4.25
 -21   9  14   10.02    4.50
  21  -9 -13   16.98    4.34
 -21   9  13   14.25    4.39
  21  -9 -12   26.12    4.35
 -21   9  12   22.82    4.26
  21  -9 -11   -4.80    4.39
 -21   9  11    1.53    4.23
  21  -9 -10   64.08    5.35
 -21   9  10   75.74    6.18
  21  -9  -9    1.68    3.92
 -21   9   9    0.46    4.32
  21  -9  -8   23.15    3.97
 -21   9   8   26.64    4.91
  21  -9  -7    2.08    4.23
 -21   9   7    7.50    4.09
  21  -9  -6   -0.17    3.63
 -21   9   6   -1.18    3.81
  21  -9  -5   -0.46    4.02
 -21   9   5    0.55    4.17
  21  -9  -4   34.48    4.22
 -21   9   4   28.54    4.67
  21  -9  -3    4.01    3.58
 -21   9   3   17.54    4.69
  20 -10 -17   17.55    4.97
 -20  10  17   21.68    4.99
  20 -10 -16    3.28    4.71
 -20  10  16    2.20    4.54
  20 -10 -15   14.24    4.67
 -20  10  15   22.58    4.63
  20 -10 -14   41.61    4.95
 -20  10  14   53.67    5.41
  20 -10 -13    6.09    4.38
 -20  10  13    3.80    4.41
  20 -10 -12   44.22    5.17
 -20  10  12   38.26    5.21
  20 -10 -11   13.55    4.38
 -20  10  11   17.04    4.59
  20 -10 -10    1.92    3.99
 -20  10  10    0.29    4.32
  20 -10  -9   27.12    4.22
 -20  10   9   24.94    4.26
  20 -10  -8    8.02    3.81
 -20  10   8   -2.49    4.39
  20 -10  -7   -3.88    4.15
 -20  10   7    9.61    4.31
  20 -10  -6   61.72    5.17
 -20  10   6   38.10    4.63
  20 -10  -5   -1.40    3.69
 -20  10   5    3.65    4.26
  20 -10  -4   12.23    3.71
 -20  10   4    2.54    4.13
  20 -10  -3   17.30    3.94
 -20  10   3   13.17    4.41
  20 -10  -2   -2.61    3.61
 -20  10   2    2.11    4.17
  19 -11 -17   -7.66    4.51
 -19  11  17    5.34    5.37
  19 -11 -16    2.38    4.72
 -19  11  16    0.97    4.70
  19 -11 -15   14.57    4.60
 -19  11  15   16.62    4.84
  19 -11 -14    6.21    4.25
 -19  11  14    0.86    4.30
  19 -11 -13   68.19    5.61
 -19  11  13   66.31    5.90
  19 -11 -12   -1.65    3.98
 -19  11  12    7.93    4.55
  19 -11 -11   26.60    4.37
 -19  11  11   23.90    4.83
  19 -11 -10    8.72    4.05
 -19  11  10    2.02    4.59
  19 -11  -9    1.76    4.10
 -19  11   9    1.47    3.42
  19 -11  -8    6.34    4.50
 -19  11   8    0.02    3.93
  19 -11  -7   31.65    4.97
 -19  11   7   33.41    4.21
  19 -11  -6    6.07    3.68
 -19  11   6    1.12    4.29
  19 -11  -5   17.86    4.01
 -19  11   5   24.73    4.82
  19 -11  -4    5.66    3.73
 -19  11   4   -1.12    3.91
  19 -11  -3   23.53    4.01
 -19  11   3   10.45    4.53
  19 -11  -2   -6.38    3.67
 -19  11   2   -3.36    4.22
  19 -11  -1   11.00    4.04
 -19  11   1   11.80    4.41
  18 -12 -17    3.16    4.41
 -18  12  17   45.37    5.82
  18 -12 -16    6.55    4.75
 -18  12  16   -3.07    4.80
  18 -12 -15   37.65    5.34
 -18  12  15   32.22    4.97
  18 -12 -14    0.14    4.52
 -18  12  14    5.23    4.24
  18 -12 -13   -2.18    4.29
 -18  12  13    2.66    4.10
  18 -12 -12   15.28    4.45
 -18  12  12    6.91    4.03
  18 -12 -11    7.25    3.90
 -18  12  11   13.14    4.17
  18 -12 -10    4.62    4.10
 -18  12  10    6.08    4.16
  18 -12  -9   67.11    5.60
 -18  12   9   67.05    5.54
  18 -12  -8   12.74    4.39
 -18  12   8    9.57    4.13
  18 -12  -7   30.37    4.40
 -18  12   7   21.99    4.44
  18 -12  -6   13.73    4.29
 -18  12   6   13.66    4.26
  18 -12  -5   13.40    3.93
 -18  12   5    2.95    3.75
  18 -12  -4   -3.07    4.16
 -18  12   4   -2.81    4.54
  18 -12  -3   16.72    3.74
 -18  12   3   19.93    4.80
  18 -12  -2    5.70    3.80
 -18  12   2   -1.46    3.95
  18 -12  -1    6.92    3.43
 -18  12   1    6.76    4.44
  18 -12   0    1.82    3.70
  17 -13 -17    9.37    5.02
  17 -13 -16    5.18    4.19
 -17  13  16   32.23    5.11
  17 -13 -15   -0.07    4.67
 -17  13  15    1.69    4.45
  17 -13 -14   24.72    5.16
 -17  13  14   24.35    4.64
  17 -13 -13   -1.58    4.88
 -17  13  13    3.24    4.28
  17 -13 -12   -2.49    4.47
 -17  13  12   -2.09    3.86
  17 -13 -11   14.22    4.40
 -17  13  11   20.92    4.34
  17 -13 -10   18.67    4.21
 -17  13  10   19.01    4.29
  17 -13  -9    9.47    4.12
 -17  13   9    5.65    4.01
  17 -13  -8   57.94    5.49
 -17  13   8   62.74    5.40
  17 -13  -7   -3.18    3.98
 -17  13   7   -2.78    4.05
  17 -13  -6   12.84    4.16
 -17  13   6   15.46    4.33
  17 -13  -5    4.17    3.74
 -17  13   5   13.55    4.41
  17 -13  -4    1.26    3.99
 -17  13   4   12.58    4.01
  17 -13  -3    7.61    3.86
 -17  13   3   16.19    4.67
  17 -13  -2   32.59    4.19
 -17  13   2   17.09    4.90
  17 -13  -1   -1.35    3.61
  17 -13   0   19.97    4.25
  16 -14 -16    3.01    4.06
  16 -14 -15   -4.72    4.42
  16 -14 -14    2.18    4.34
 -16  14  14    0.19    4.21
  16 -14 -13   -0.41    4.67
 -16  14  13    0.16    4.28
  16 -14 -12   10.57    4.89
 -16  14  12   15.51    4.46
  16 -14 -11   -9.02    4.34
 -16  14  11    4.39    4.08
  16 -14 -10   48.14    5.10
 -16  14  10   48.93    5.12
  16 -14  -9   -1.35    4.17
 -16  14   9    0.83    4.09
  16 -14  -8    0.21    4.15
 -16  14   8   -0.34    4.47
  16 -14  -7    1.07    4.24
 -16  14   7    2.11    4.28
  16 -14  -6   29.72    4.60
 -16  14   6   29.78    4.81
  16 -14  -5    2.94    4.12
 -16  14   5    0.71    3.72
  16 -14  -4   45.79    4.75
  16 -14  -3   -4.01    3.67
  16 -14  -2   10.07    3.66
  16 -14  -1    5.89    3.87
  16 -14   0   -3.48    3.52
  16 -14   1   -5.59    3.64
  15 -15 -14    4.73    3.99
  15 -15 -13   -1.81    4.02
  15 -15 -12    3.49    4.58
  15 -15 -11   24.89    5.08
  15 -15 -10    1.54    4.68
  15 -15  -9   14.62    4.61
  15 -15  -8   45.22    5.27
  15 -15  -7    4.80    4.08
  15 -15  -6   18.82    3.94
  15 -15  -5   67.61    5.51
  15 -15  -4    9.77    4.16
  15 -15  -3   33.38    4.32
  15 -15  -2   13.48    3.77
  15 -15  -1    0.85    4.02
  15 -15   0    8.35    3.65
  15 -15   1   13.87    4.03
  14 -16 -13   -2.11    3.49
  14 -16 -12    3.75    4.00
  14 -16 -11    4.36    4.28
  14 -16 -10   -1.29    4.66
  14 -16  -9   17.16    5.14
  14 -16  -8    4.41    4.50
  14 -16  -7   37.70    5.05
  14 -16  -6    8.61    4.61
  14 -16  -5   44.87    4.88
  14 -16  -4   -0.84    3.93
  14 -16  -3   -1.39    4.05
  14 -16  -2  -11.23    3.97
  14 -16  -1   30.71    4.52
  14 -16   0    0.58    3.74
  14 -16   1   27.19    4.71
  13 -17 -12    1.05    2.86
  13 -17 -11   -3.05    3.81
  13 -17 -10   -3.88    4.28
  13 -17  -9    3.24    4.76
  13 -17  -8   34.87    5.59
  13 -17  -7    0.34    4.49
  13 -17  -6    3.86    4.25
  13 -17  -5    7.98    4.34
  13 -17  -4   -1.01    4.09
  13 -17  -3    2.98    4.02
  13 -17  -2    3.83    4.22
  13 -17  -1    2.24    4.06
  13 -17   0    3.42    3.81
  13 -17   1    5.31    4.48
  12 -18 -10   -1.42    3.74
  12 -18  -9   18.93    4.58
  12 -18  -8   17.07    5.47
  12 -18  -7    9.31    4.89
  12 -18  -6    8.18    4.82
  12 -18  -5   12.79    4.45
  12 -18  -4    8.82    4.36
  12 -18  -3   -1.83    4.30
  12 -18  -2   13.98    4.20
  12 -18  -1   14.30    4.02
  12 -18   0    6.38    4.62
  12 -18   1    2.06    4.50
  11 -19  -9    1.27    4.10
  11 -19  -9    4.69    4.36
  11 -19  -8   26.34    4.94
  11 -19  -7   14.24    5.10
  11 -19  -6   12.15    4.68
  11 -19  -5    8.11    4.85
  11 -19  -4   -2.00    4.80
  11 -19  -3    1.13    4.40
  11 -19  -2   11.51    4.97
  11 -19  -1   12.91    4.66
  11 -19   0   18.54    5.03
  10 -20  -8    6.23    4.75
  10 -20  -7    9.74    5.03
  10 -20  -7    8.24    5.14
  10 -20  -6   -2.34    4.88
  10 -20  -5   15.22    5.45
  10 -20  -4    0.58    5.26
  10 -20  -3  -10.66    5.43
  10 -20  -2    6.88    5.45
  22 -10 -13   -1.12    4.31
  22 -10 -12   10.71    4.61
 -22  10  12    8.07    4.84
  22 -10 -11   -1.74    4.41
 -22  10  11    7.56    4.72
  22 -10 -10    0.85    4.24
 -22  10  10    2.89    4.69
  22 -10  -9   10.06    4.31
 -22  10   9   18.58    5.48
  22 -10  -8   22.24    4.12
  21 -11 -14    7.76    4.68
 -21  11  14    6.61    5.27
  21 -11 -13   11.02    4.30
 -21  11  13   18.33    4.95
  21 -11 -12    7.56    4.43
 -21  11  12   18.29    4.92
  21 -11 -11    5.50    4.28
 -21  11  11    1.04    4.80
  21 -11 -10   14.94    4.16
 -21  11  10   14.36    4.36
  21 -11  -9    3.63    4.33
 -21  11   9   -3.35    4.23
  21 -11  -8   10.52    4.43
 -21  11   8    4.64    4.28
  21 -11  -7   26.23    4.22
 -21  11   7   19.30    4.16
  21 -11  -6    8.51    3.89
 -21  11   6    1.72    4.39
  20 -12 -14   13.56    5.07
 -20  12  14    8.58    4.89
  20 -12 -13    0.29    4.16
 -20  12  13   -5.28    4.16
  20 -12 -12    6.48    4.32
 -20  12  12    7.18    4.38
  20 -12 -11   31.27    4.98
 -20  12  11   34.88    4.93
  20 -12 -10    4.47    4.38
 -20  12  10    4.29    4.26
  20 -12  -9   25.66    4.23
 -20  12   9   31.34    4.75
  20 -12  -8   -0.84    3.89
 -20  12   8   -2.12    4.28
  20 -12  -7    3.92    4.72
 -20  12   7    1.87    4.33
  20 -12  -6    1.48    3.71
 -20  12   6    3.74    4.39
  20 -12  -5   -0.01    3.62
 -20  12   5   -2.10    4.43
  19 -13 -14    3.67    4.72
 -19  13  14    7.89    5.14
  19 -13 -13    3.22    4.72
 -19  13  13    5.42    4.84
  19 -13 -12   13.46    4.66
 -19  13  12    5.80    4.40
  19 -13 -11   44.57    5.03
 -19  13  11   34.01    5.23
  19 -13 -10   32.16    4.89
 -19  13  10   42.86    5.15
  19 -13  -9    4.16    4.48
 -19  13   9   -7.74    4.40
  19 -13  -8   44.02    5.30
 -19  13   8   34.25    5.01
  19 -13  -7    1.70    4.04
 -19  13   7    2.66    3.85
  19 -13  -6   -1.21    4.38
 -19  13   6    1.89    4.60
  19 -13  -5    8.95    3.68
 -19  13   5    4.42    4.54
  19 -13  -4   -5.43    3.61
 -19  13   4    1.03    4.26
  18 -14 -14    3.08    4.93
 -18  14  14    4.29    5.55
  18 -14 -13   -9.04    4.45
 -18  14  13    9.03    5.22
  18 -14 -12   57.88    5.88
 -18  14  12   67.54    6.41
  18 -14 -11   12.23    4.73
 -18  14  11    6.10    4.87
  18 -14 -10   29.87    5.06
 -18  14  10   37.36    5.05
  18 -14  -9    6.75    4.65
 -18  14   9    2.16    4.94
  18 -14  -8    4.14    4.52
 -18  14   8    3.29    4.49
  18 -14  -7   13.60    4.45
 -18  14   7    6.55    4.51
  18 -14  -6   30.29    4.53
 -18  14   6   27.22    4.97
  18 -14  -5    2.17    4.17
 -18  14   5   -1.86    4.51
  18 -14  -4   25.31    4.64
  18 -14  -3   12.31    4.37
  17 -15 -13   17.64    5.11
  17 -15 -12   -1.84    4.58
  17 -15 -11   34.15    5.45
  17 -15 -10    3.56    4.80
  17 -15  -9   -5.71    5.13
  17 -15  -8   61.78    5.81
  17 -15  -7    1.89    4.30
  17 -15  -6    5.07    4.29
  17 -15  -5   39.15    4.62
  17 -15  -4   15.38    4.35
  17 -15  -3    8.78    4.23
  16 -16 -13   -3.99    5.22
  16 -16 -12   -1.63    4.53
  16 -16 -11   -4.17    4.57
  16 -16 -10    0.41    4.57
  16 -16  -9   21.18    5.64
  16 -16  -8   17.34    5.10
  16 -16  -7   47.24    5.18
  16 -16  -6    7.77    4.46
  16 -16  -5   -0.94    4.32
  16 -16  -4   -6.37    4.32
  16 -16  -3   17.64    4.27
  15 -17 -11    7.21    5.08
  15 -17 -10    6.03    4.90
  15 -17  -9    0.04    4.92
  15 -17  -8   14.88    5.48
  15 -17  -7   -1.41    4.67
  15 -17  -6    2.63    4.46
  15 -17  -5   17.09    4.69
  15 -17  -4    1.24    4.20
  15 -17  -3   20.08    4.95
  14 -18  -9   -3.66    5.31
  14 -18  -8    4.32    4.97
  14 -18  -7    1.22    4.76
  14 -18  -6   23.12    5.19
  14 -18  -5   -0.27    4.62
  14 -18  -4   19.09    4.73
   0   0   0    0.00    0.00
;
_shelx_hkl_checksum              29040
loop_
_space_group_symop_operation_xyz
'x, y, z'
'-x, y, -z+1/2'
'x+1/2, y+1/2, z'
'-x+1/2, y+1/2, -z+1/2'
'-x, -y, -z'
'x, -y, z-1/2'
'-x+1/2, -y+1/2, -z'
'x+1/2, -y+1/2, z-1/2'
loop_
_atom_site_label
_atom_site_type_symbol
_atom_site_fract_x
_atom_site_fract_y
_atom_site_fract_z
_atom_site_U_iso_or_equiv
_atom_site_adp_type
_atom_site_occupancy
_atom_site_site_symmetry_order
_atom_site_calc_flag
_atom_site_refinement_flags_posn
_atom_site_refinement_flags_adp
_atom_site_refinement_flags_occupancy
_atom_site_disorder_assembly
_atom_site_disorder_group
Li1 Li 0.0718(4) 0.0892(4) 0.2515(4) 0.0339(14) Uani 1 1 d . . . . .
Zn1 Zn 0.23000(2) 0.10905(3) 0.42968(3) 0.03054(19) Uani 1 1 d . . . . .
N1 N 0.3296(2) 0.1216(2) 0.5465(2) 0.0375(8) Uani 1 1 d . . . . .
C11 C 0.3745(2) 0.1861(3) 0.5753(3) 0.0357(8) Uani 1 1 d . . . . .
H11 H 0.359748 0.230824 0.539798 0.043 Uiso 1 1 calc R U . . .
C12 C 0.4418(2) 0.1906(3) 0.6548(3) 0.0398(9) Uani 1 1 d . . . . .
H12 H 0.472451 0.237570 0.673054 0.048 Uiso 1 1 calc R U . . .
C13 C 0.4638(2) 0.1258(3) 0.7073(3) 0.0415(10) Uani 1 1 d . . . . .
C14 C 0.4164(3) 0.0587(3) 0.6778(3) 0.0613(15) Uani 1 1 d . . . . .
H14 H 0.429583 0.013444 0.712376 0.074 Uiso 1 1 calc R U . . .
C15 C 0.3505(3) 0.0586(3) 0.5981(3) 0.0565(13) Uani 1 1 d . . . . .
H15 H 0.318366 0.012606 0.578571 0.068 Uiso 1 1 calc R U . . .
O11 O 0.14848(16) 0.09619(18) 0.46356(18) 0.0372(6) Uani 1 1 d . . . . .
O12 O 0.03889(15) 0.08243(18) 0.33759(16) 0.0351(6) Uani 1 1 d . . . . .
C101 C 0.0762(2) 0.0750(2) 0.4158(2) 0.0331(8) Uani 1 1 d . . . . .
C102 C 0.0349(2) 0.0375(3) 0.4581(2) 0.0421(10) Uani 1 1 d . . . . .
C103 C 0.0351(3) 0.0752(4) 0.5267(3) 0.0566(14) Uani 1 1 d . . . . .
C104 C 0.0003(3) 0.0363(4) 0.5693(3) 0.0525(13) Uani 1 1 d . . . . .
C105 C -0.0067(5) 0.0871(5) 0.6361(6) 0.0399(18) Uani 0.5 1 d . . P . .
H105 H -0.033667 0.064944 0.662708 0.048 Uiso 0.5 1 calc R U P . .
C106 C 0.0241(6) 0.1632(6) 0.6596(6) 0.047(2) Uani 0.5 1 d . . P . .
H106 H 0.022813 0.189355 0.704695 0.057 Uiso 0.5 1 calc R U P . .
C107 C 0.0571(7) 0.2002(5) 0.6146(7) 0.053(2) Uani 0.5 1 d . . P . .
H107 H 0.077437 0.252057 0.629236 0.064 Uiso 0.5 1 calc R U P . .
C108 C 0.0602(5) 0.1624(5) 0.5505(5) 0.0395(18) Uani 0.5 1 d . . P . .
H108 H 0.078496 0.190887 0.518728 0.047 Uiso 0.5 1 calc R U P . .
O21 O 0.23676(17) 0.20131(18) 0.37312(18) 0.0397(7) Uani 1 1 d . . . . .
O22 O 0.11891(17) 0.18697(19) 0.2544(2) 0.0450(7) Uani 1 1 d . . . . .
O23 O 0.24278(19) 0.5068(2) 0.09691(19) 0.0473(8) Uani 1 1 d . . . . .
O24 O 0.3504(2) 0.5132(2) 0.2230(2) 0.0597(10) Uani 1 1 d . . . . .
C201 C 0.1857(2) 0.2184(2) 0.2964(3) 0.0363(8) Uani 1 1 d . . . . .
C202 C 0.2113(2) 0.2835(3) 0.2593(3) 0.0391(9) Uani 1 1 d . . . . .
C203 C 0.2514(3) 0.3455(3) 0.3099(3) 0.0477(11) Uani 1 1 d . . . . .
H203 H 0.262991 0.345891 0.366792 0.057 Uiso 1 1 calc R U . . .
C204 C 0.2757(3) 0.4088(3) 0.2791(3) 0.0472(11) Uani 1 1 d . . . . .
H204 H 0.302790 0.451968 0.315027 0.057 Uiso 1 1 calc R U . . .
C205 C 0.2609(3) 0.4093(3) 0.1981(3) 0.0408(9) Uani 1 1 d . . . . .
C206 C 0.2878(3) 0.4810(3) 0.1709(3) 0.0411(9) Uani 1 1 d . . . . .
C207 C 0.2204(3) 0.3448(3) 0.1435(3) 0.0527(11) Uani 1 1 d . U . . .
C208 C 0.1949(3) 0.2808(3) 0.1752(3) 0.0508(11) Uani 1 1 d . U . . .
C209 C 0.1578(4) 0.2148(4) 0.1211(4) 0.0749(16) Uani 1 1 d . U . . .
H209 H 0.139384 0.172330 0.140605 0.090 Uiso 1 1 calc R U . . .
C210 C 0.1485(6) 0.2115(5) 0.0432(5) 0.096(2) Uani 1 1 d . U . . .
H210 H 0.125127 0.166382 0.009122 0.116 Uiso 1 1 calc R U . . .
C211 C 0.1735(6) 0.2751(5) 0.0121(4) 0.096(2) Uani 1 1 d . U . . .
H211 H 0.165879 0.272716 -0.043205 0.115 Uiso 1 1 calc R U . . .
C212 C 0.2083(4) 0.3395(4) 0.0607(4) 0.0733(16) Uani 1 1 d . U . . .
H212 H 0.224805 0.381641 0.038833 0.088 Uiso 1 1 calc R U . . .
C1 C -0.0102(10) 0.3712(9) -0.1955(11) 0.111(5) Uani 0.25 1 d D U P A -1
C2 C -0.0331(11) 0.4007(10) -0.1405(10) 0.112(4) Uani 0.25 1 d D U P A -1
C3 C -0.1141(12) 0.4136(13) -0.1676(14) 0.108(4) Uani 0.25 1 d D U P A -1
H3 H -0.129709 0.434246 -0.129809 0.129 Uiso 0.25 1 calc R U P A -1
C4 C -0.1718(10) 0.3961(15) -0.2502(15) 0.110(5) Uani 0.25 1 d D U P A -1
H4 H -0.227135 0.404134 -0.268770 0.132 Uiso 0.25 1 calc R U P A -1
C5 C -0.1485(12) 0.3669(14) -0.3057(12) 0.109(5) Uani 0.25 1 d D U P A -1
H5 H -0.187905 0.355879 -0.362453 0.131 Uiso 0.25 1 calc R U P A -1
C6 C -0.0680(13) 0.3539(12) -0.2783(11) 0.102(5) Uani 0.25 1 d D U P A -1
H6 H -0.052237 0.333113 -0.315925 0.122 Uiso 0.25 1 calc R U P A -1
C7 C 0.0754(12) 0.3564(17) -0.1703(18) 0.123(8) Uani 0.25 1 d D U P A -1
H7A H 0.078331 0.335511 -0.218477 0.184 Uiso 0.25 1 calc R U P A -1
H7B H 0.105644 0.405579 -0.151608 0.184 Uiso 0.25 1 calc R U P A -1
H7C H 0.098472 0.318255 -0.124034 0.184 Uiso 0.25 1 calc R U P A -1
C8 C 0.0268(15) 0.4192(17) -0.0507(12) 0.111(5) Uani 0.25 1 d D U P A -1
H8A H -0.001345 0.439421 -0.022332 0.167 Uiso 0.25 1 calc R U P A -1
H8B H 0.056228 0.371472 -0.022123 0.167 Uiso 0.25 1 calc R U P A -1
H8C H 0.064608 0.458828 -0.048737 0.167 Uiso 0.25 1 calc R U P A -1
C1' C -0.0826(10) 0.4417(11) -0.1231(11) 0.107(4) Uani 0.25 1 d D U P B -2
C2' C -0.0429(12) 0.3848(10) -0.0611(13) 0.106(4) Uani 0.25 1 d D U P B -2
H2' H -0.054014 0.330823 -0.074699 0.127 Uiso 0.25 1 calc R U P B -2
C3' C 0.0125(13) 0.4071(12) 0.0202(12) 0.098(5) Uani 0.25 1 d D U P B -2
H3' H 0.039463 0.368249 0.062341 0.118 Uiso 0.25 1 calc R U P B -2
C4' C 0.0288(15) 0.4861(14) 0.0406(12) 0.102(5) Uani 0.25 1 d D U P B -2
H4' H 0.067073 0.501246 0.096442 0.122 Uiso 0.25 1 calc R U P B -2
C5' C -0.0109(16) 0.5428(10) -0.0212(14) 0.102(5) Uani 0.25 1 d D U P B -2
H5' H -0.000669 0.596855 -0.007406 0.122 Uiso 0.25 1 calc R U P B -2
C6' C -0.0659(12) 0.5201(10) -0.1033(12) 0.103(5) Uani 0.25 1 d D U P B -2
C7' C -0.1423(16) 0.4151(17) -0.2101(13) 0.111(5) Uani 0.25 1 d D U P B -2
H7'A H -0.145578 0.357704 -0.211295 0.166 Uiso 0.25 1 calc R U P B -2
H7'B H -0.195142 0.437289 -0.226400 0.166 Uiso 0.25 1 calc R U P B -2
H7'C H -0.125235 0.432823 -0.249625 0.166 Uiso 0.25 1 calc R U P B -2
C8' C -0.1082(17) 0.5821(14) -0.1684(17) 0.137(8) Uani 0.25 1 d D U P B -2
H8'A H -0.088768 0.633898 -0.143111 0.206 Uiso 0.25 1 calc R U P B -2
H8'B H -0.097474 0.574570 -0.214890 0.206 Uiso 0.25 1 calc R U P B -2
H8'C H -0.166215 0.578619 -0.189926 0.206 Uiso 0.25 1 calc R U P B -2
loop_
_atom_site_aniso_label
_atom_site_aniso_U_11
_atom_site_aniso_U_22
_atom_site_aniso_U_33
_atom_site_aniso_U_23
_atom_site_aniso_U_13
_atom_site_aniso_U_12
Li1 0.032(3) 0.040(4) 0.027(3) 0.000(3) 0.013(3) 0.002(3)
Zn1 0.0275(2) 0.0353(3) 0.0258(3) 0.00019(18) 0.01098(18) -0.00005(17)
N1 0.0294(15) 0.043(2) 0.0309(16) -0.0007(15) 0.0079(13) -0.0016(13)
C11 0.0312(17) 0.040(2) 0.0314(19) 0.0017(17) 0.0122(15) -0.0005(15)
C12 0.0338(19) 0.042(2) 0.035(2) -0.0012(18) 0.0116(17) -0.0025(16)
C13 0.035(2) 0.044(2) 0.035(2) -0.0004(18) 0.0090(18) 0.0008(16)
C14 0.055(3) 0.047(3) 0.044(3) 0.009(2) -0.004(2) -0.011(2)
C15 0.049(2) 0.048(3) 0.040(2) 0.012(2) -0.002(2) -0.010(2)
O11 0.0306(13) 0.0515(18) 0.0282(13) -0.0020(12) 0.0138(11) -0.0070(11)
O12 0.0295(12) 0.0483(16) 0.0250(12) 0.0060(12) 0.0118(11) -0.0001(11)
C101 0.0294(16) 0.040(2) 0.0281(18) 0.0011(16) 0.0130(15) -0.0012(15)
C102 0.0347(19) 0.064(3) 0.0240(18) 0.0035(19) 0.0116(16) -0.0076(19)
C103 0.042(2) 0.094(4) 0.032(2) -0.004(2) 0.0165(19) -0.024(2)
C104 0.041(2) 0.082(4) 0.029(2) -0.003(2) 0.0133(18) -0.022(2)
C105 0.045(4) 0.038(4) 0.046(5) 0.001(4) 0.030(4) -0.004(3)
C106 0.063(5) 0.043(5) 0.049(5) -0.007(4) 0.038(5) -0.007(4)
C107 0.079(7) 0.031(4) 0.071(7) -0.009(4) 0.053(6) -0.009(4)
C108 0.051(4) 0.037(4) 0.040(4) 0.004(4) 0.030(4) 0.000(4)
O21 0.0397(14) 0.0437(16) 0.0341(14) 0.0064(13) 0.0172(12) -0.0025(12)
O22 0.0379(15) 0.0475(18) 0.0439(17) 0.0045(14) 0.0163(13) -0.0098(13)
O23 0.0506(17) 0.0479(18) 0.0361(16) 0.0084(14) 0.0162(14) -0.0106(14)
O24 0.0516(18) 0.064(2) 0.0469(19) 0.0098(17) 0.0120(16) -0.0269(17)
C201 0.0375(19) 0.036(2) 0.035(2) 0.0056(17) 0.0183(17) 0.0020(16)
C202 0.040(2) 0.040(2) 0.033(2) 0.0029(18) 0.0149(17) -0.0059(17)
C203 0.051(2) 0.054(3) 0.032(2) 0.006(2) 0.0168(19) -0.011(2)
C204 0.051(2) 0.047(3) 0.037(2) 0.002(2) 0.017(2) -0.013(2)
C205 0.041(2) 0.045(2) 0.032(2) -0.0004(18) 0.0154(17) -0.0119(17)
C206 0.047(2) 0.042(2) 0.034(2) 0.0038(18) 0.0204(18) -0.0073(18)
C207 0.065(3) 0.052(3) 0.044(2) -0.006(2) 0.030(2) -0.020(2)
C208 0.063(3) 0.049(2) 0.043(2) -0.005(2) 0.029(2) -0.017(2)
C209 0.119(4) 0.061(3) 0.060(3) -0.016(3) 0.056(3) -0.044(3)
C210 0.152(5) 0.082(4) 0.064(3) -0.028(3) 0.061(4) -0.061(4)
C211 0.157(5) 0.084(4) 0.058(3) -0.024(3) 0.063(3) -0.054(4)
C212 0.115(4) 0.064(3) 0.053(3) -0.014(3) 0.051(3) -0.037(3)
C1 0.117(7) 0.095(7) 0.115(7) 0.021(6) 0.052(6) -0.011(6)
C2 0.111(5) 0.106(6) 0.115(6) 0.013(5) 0.053(4) -0.008(5)
C3 0.109(6) 0.106(6) 0.111(6) 0.008(5) 0.057(5) -0.001(5)
C4 0.113(7) 0.102(7) 0.111(7) 0.007(6) 0.053(5) -0.006(6)
C5 0.116(7) 0.099(7) 0.110(7) 0.008(6) 0.053(5) -0.008(6)
C6 0.116(7) 0.088(7) 0.103(7) 0.013(6) 0.056(6) -0.011(6)
C7 0.128(10) 0.102(10) 0.120(11) 0.020(10) 0.047(9) -0.003(10)
C8 0.109(6) 0.110(7) 0.114(6) 0.008(6) 0.055(6) -0.008(6)
C1' 0.107(5) 0.108(6) 0.110(6) 0.007(5) 0.059(4) -0.001(5)
C2' 0.106(6) 0.107(6) 0.111(6) 0.009(5) 0.060(5) -0.004(5)
C3' 0.098(6) 0.108(7) 0.106(7) 0.010(6) 0.063(5) -0.001(6)
C4' 0.096(7) 0.115(8) 0.108(7) 0.006(6) 0.061(6) -0.002(6)
C5' 0.098(7) 0.111(8) 0.110(7) 0.003(6) 0.062(6) -0.001(6)
C6' 0.101(7) 0.115(7) 0.107(7) 0.006(6) 0.064(5) -0.001(6)
C7' 0.113(6) 0.104(6) 0.112(6) 0.011(5) 0.054(5) -0.003(5)
C8' 0.127(11) 0.135(11) 0.132(11) -0.003(10) 0.052(9) -0.004(10)
loop_
_atom_type_symbol
_atom_type_description
_atom_type_scat_dispersion_real
_atom_type_scat_dispersion_imag
_atom_type_scat_source
C C 0.0046 0.0022 'International Tables Vol C Tables 4.2.6.8 and 6.1.1.4'
H H 0.0000 0.0000 'International Tables Vol C Tables 4.2.6.8 and 6.1.1.4'
Li Li 0.0000 0.0001 'International Tables Vol C Tables 4.2.6.8 and 6.1.1.4'
N N 0.0087 0.0044 'International Tables Vol C Tables 4.2.6.8 and 6.1.1.4'
O O 0.0147 0.0080 'International Tables Vol C Tables 4.2.6.8 and 6.1.1.4'
Zn Zn 0.2079 1.7386 'International Tables Vol C Tables 4.2.6.8 and 6.1.1.4'
loop_
_geom_angle_atom_site_label_1
_geom_angle_atom_site_label_2
_geom_angle_atom_site_label_3
_geom_angle
_geom_angle_site_symmetry_1
_geom_angle_site_symmetry_3
_geom_angle_publ_flag
Li1 Li1 Zn1 117.3(3) 2 . ?
O12 Li1 Li1 45.0(2) . 2 ?
O12 Li1 Li1 46.3(2) 2 2 ?
O12 Li1 Zn1 73.1(2) . . ?
O12 Li1 Zn1 163.5(3) 2 . ?
O12 Li1 O12 90.8(3) 2 . ?
O22 Li1 Li1 117.8(2) . 2 ?
O22 Li1 Zn1 71.2(2) . . ?
O22 Li1 O12 111.7(4) . . ?
O22 Li1 O12 112.8(4) . 2 ?
O24 Li1 Li1 133.2(3) 4_545 2 ?
O24 Li1 Zn1 65.1(2) 4_545 . ?
O24 Li1 O12 107.3(4) 4_545 . ?
O24 Li1 O12 125.4(4) 4_545 2 ?
O24 Li1 O22 107.2(4) 4_545 . ?
N1 Zn1 Li1 178.03(16) . . ?
O11 Zn1 Li1 78.98(15) . . ?
O11 Zn1 N1 99.06(13) . . ?
O21 Zn1 Li1 79.69(15) . . ?
O21 Zn1 N1 101.42(13) . . ?
O21 Zn1 O11 122.74(13) . . ?
O21 Zn1 O23 119.86(14) . 4_545 ?
O23 Zn1 Li1 83.46(15) 4_545 . ?
O23 Zn1 N1 97.32(14) 4_545 . ?
O23 Zn1 O11 109.55(14) 4_545 . ?
C11 N1 Zn1 125.6(3) . . ?
C11 N1 C15 118.1(4) . . ?
C15 N1 Zn1 116.3(3) . . ?
N1 C11 H11 118.6 . . ?
N1 C11 C12 122.9(4) . . ?
C12 C11 H11 118.6 . . ?
C11 C12 H12 120.4 . . ?
C11 C12 C13 119.1(4) . . ?
C13 C12 H12 120.4 . . ?
C12 C13 C13 122.1(3) . 2_656 ?
C12 C13 C14 118.1(4) . . ?
C14 C13 C13 119.7(3) . 2_656 ?
C13 C14 H14 120.3 . . ?
C15 C14 C13 119.4(5) . . ?
C15 C14 H14 120.3 . . ?
N1 C15 C14 122.3(5) . . ?
N1 C15 H15 118.8 . . ?
C14 C15 H15 118.8 . . ?
C101 O11 Zn1 125.8(3) . . ?
Li1 O12 Li1 88.7(3) 2 . ?
C101 O12 Li1 134.0(3) . . ?
C101 O12 Li1 137.3(3) . 2 ?
O11 C101 C102 116.3(3) . . ?
O12 C101 O11 124.5(4) . . ?
O12 C101 C102 119.2(3) . . ?
C103 C102 C101 120.0(4) . . ?
C104 C102 C101 118.9(4) 5_556 . ?
C104 C102 C103 121.1(4) 5_556 . ?
C102 C103 C104 119.0(5) . . ?
C102 C103 C108 123.1(5) . . ?
C104 C103 C108 117.2(5) . . ?
C102 C104 C103 119.9(5) 5_556 . ?
C102 C104 C105 124.5(5) 5_556 . ?
C103 C104 C105 114.9(5) . . ?
C104 C105 H105 117.7 . . ?
C106 C105 C104 124.6(7) . . ?
C106 C105 H105 117.7 . . ?
C105 C106 H106 120.8 . . ?
C105 C106 C107 118.5(8) . . ?
C107 C106 H106 120.8 . . ?
C106 C107 H107 119.5 . . ?
C108 C107 C106 121.0(8) . . ?
C108 C107 H107 119.5 . . ?
C103 C108 H108 118.3 . . ?
C107 C108 C103 123.3(7) . . ?
C107 C108 H108 118.3 . . ?
C201 O21 Zn1 123.7(3) . . ?
C201 O22 Li1 137.1(3) . . ?
C206 O23 Zn1 116.9(3) . 4 ?
C206 O24 Li1 149.4(4) . 4 ?
O21 C201 C202 114.7(4) . . ?
O22 C201 O21 124.8(4) . . ?
O22 C201 C202 120.5(4) . . ?
C203 C202 C201 117.7(4) . . ?
C203 C202 C208 120.7(4) . . ?
C208 C202 C201 121.6(4) . . ?
C202 C203 H203 119.6 . . ?
C202 C203 C204 120.8(4) . . ?
C204 C203 H203 119.6 . . ?
C203 C204 H204 119.6 . . ?
C205 C204 C203 120.8(4) . . ?
C205 C204 H204 119.6 . . ?
C204 C205 C206 116.4(4) . . ?
C204 C205 C207 120.2(4) . . ?
C207 C205 C206 123.4(4) . . ?
O23 C206 C205 118.1(4) . . ?
O24 C206 O23 123.7(4) . . ?
O24 C206 C205 118.1(4) . . ?
C205 C207 C208 118.6(4) . . ?
C212 C207 C205 122.6(4) . . ?
C212 C207 C208 118.7(5) . . ?
C202 C208 C207 118.9(4) . . ?
C202 C208 C209 122.9(4) . . ?
C209 C208 C207 118.1(4) . . ?
C208 C209 H209 119.3 . . ?
C210 C209 C208 121.5(5) . . ?
C210 C209 H209 119.3 . . ?
C209 C210 H210 119.9 . . ?
C209 C210 C211 120.1(6) . . ?
C211 C210 H210 119.9 . . ?
C210 C211 H211 119.7 . . ?
C212 C211 C210 120.7(6) . . ?
C212 C211 H211 119.7 . . ?
C207 C212 H212 119.5 . . ?
C211 C212 C207 120.9(5) . . ?
C211 C212 H212 119.5 . . ?
C2 C1 C6 120.1(4) . . ?
C2 C1 C7 122.6(9) . . ?
C6 C1 C7 117.3(9) . . ?
C1 C2 C3 120.2(4) . . ?
C1 C2 C8 122.0(9) . . ?
C3 C2 C8 117.8(9) . . ?
C2 C3 H3 120.1 . . ?
C4 C3 C2 119.7(4) . . ?
C4 C3 H3 120.1 . . ?
C3 C4 H4 120.0 . . ?
C3 C4 C5 120.0(4) . . ?
C5 C4 H4 120.0 . . ?
C4 C5 H5 120.0 . . ?
C6 C5 C4 120.1(4) . . ?
C6 C5 H5 120.0 . . ?
C1 C6 H6 120.0 . . ?
C5 C6 C1 120.0(4) . . ?
C5 C6 H6 120.0 . . ?
C1 C7 H7A 109.5 . . ?
C1 C7 H7B 109.5 . . ?
C1 C7 H7C 109.5 . . ?
H7A C7 H7B 109.5 . . ?
H7A C7 H7C 109.5 . . ?
H7B C7 H7C 109.5 . . ?
C2 C8 H8A 109.5 . . ?
C2 C8 H8B 109.5 . . ?
C2 C8 H8C 109.5 . . ?
H8A C8 H8B 109.5 . . ?
H8A C8 H8C 109.5 . . ?
H8B C8 H8C 109.5 . . ?
C2' C1' C7' 118.2(9) . . ?
C6' C1' C2' 120.0(6) . . ?
C6' C1' C7' 121.8(9) . . ?
C1' C2' H2' 120.0 . . ?
C3' C2' C1' 120.0(6) . . ?
C3' C2' H2' 120.0 . . ?
C2' C3' H3' 119.9 . . ?
C2' C3' C4' 120.2(6) . . ?
C4' C3' H3' 119.9 . . ?
C3' C4' H4' 120.1 . . ?
C5' C4' C3' 119.8(6) . . ?
C5' C4' H4' 120.1 . . ?
C4' C5' H5' 120.1 . . ?
C4' C5' C6' 119.8(6) . . ?
C6' C5' H5' 120.1 . . ?
C1' C6' C5' 120.2(6) . . ?
C1' C6' C8' 120.9(9) . . ?
C5' C6' C8' 118.8(9) . . ?
C1' C7' H7'A 109.5 . . ?
C1' C7' H7'B 109.5 . . ?
C1' C7' H7'C 109.5 . . ?
H7'A C7' H7'B 109.5 . . ?
H7'A C7' H7'C 109.5 . . ?
H7'B C7' H7'C 109.5 . . ?
C6' C8' H8'A 109.5 . . ?
C6' C8' H8'B 109.5 . . ?
C6' C8' H8'C 109.5 . . ?
H8'A C8' H8'B 109.5 . . ?
H8'A C8' H8'C 109.5 . . ?
H8'B C8' H8'C 109.5 . . ?
loop_
_geom_bond_atom_site_label_1
_geom_bond_atom_site_label_2
_geom_bond_distance
_geom_bond_site_symmetry_2
_geom_bond_publ_flag
Li1 Li1 2.731(13) 2 ?
Li1 Zn1 3.175(7) . ?
Li1 O12 1.931(7) 2 ?
Li1 O12 1.974(7) . ?
Li1 O22 1.885(8) . ?
Li1 O24 1.852(7) 4_545 ?
Zn1 N1 2.047(3) . ?
Zn1 O11 1.964(3) . ?
Zn1 O21 1.924(3) . ?
Zn1 O23 1.951(3) 4_545 ?
N1 C11 1.333(5) . ?
N1 C15 1.354(6) . ?
C11 H11 0.9500 . ?
C11 C12 1.383(5) . ?
C12 H12 0.9500 . ?
C12 C13 1.386(6) . ?
C13 C13 1.484(8) 2_656 ?
C13 C14 1.392(7) . ?
C14 H14 0.9500 . ?
C14 C15 1.373(6) . ?
C15 H15 0.9500 . ?
O11 C101 1.269(5) . ?
O12 C101 1.247(5) . ?
C101 C102 1.501(5) . ?
C102 C103 1.411(7) . ?
C102 C104 1.398(7) 5_556 ?
C103 C104 1.420(6) . ?
C103 C108 1.557(11) . ?
C104 C105 1.558(10) . ?
C105 H105 0.9500 . ?
C105 C106 1.401(12) . ?
C106 H106 0.9500 . ?
C106 C107 1.414(13) . ?
C107 H107 0.9500 . ?
C107 C108 1.367(13) . ?
C108 H108 0.9500 . ?
O21 C201 1.282(5) . ?
O22 C201 1.240(5) . ?
O23 C206 1.268(5) . ?
O24 C206 1.229(5) . ?
C201 C202 1.508(6) . ?
C202 C203 1.364(6) . ?
C202 C208 1.410(6) . ?
C203 H203 0.9500 . ?
C203 C204 1.402(6) . ?
C204 H204 0.9500 . ?
C204 C205 1.364(6) . ?
C205 C206 1.506(6) . ?
C205 C207 1.427(6) . ?
C207 C208 1.433(7) . ?
C207 C212 1.418(7) . ?
C208 C209 1.432(7) . ?
C209 H209 0.9500 . ?
C209 C210 1.348(8) . ?
C210 H210 0.9500 . ?
C210 C211 1.416(9) . ?
C211 H211 0.9500 . ?
C211 C212 1.361(8) . ?
C212 H212 0.9500 . ?
C1 C2 1.381(8) . ?
C1 C6 1.390(8) . ?
C1 C7 1.490(9) . ?
C2 C3 1.393(8) . ?
C2 C8 1.496(9) . ?
C3 H3 0.9500 . ?
C3 C4 1.389(8) . ?
C4 H4 0.9500 . ?
C4 C5 1.392(8) . ?
C5 H5 0.9500 . ?
C5 C6 1.384(8) . ?
C6 H6 0.9500 . ?
C7 H7A 0.9800 . ?
C7 H7B 0.9800 . ?
C7 H7C 0.9800 . ?
C8 H8A 0.9800 . ?
C8 H8B 0.9800 . ?
C8 H8C 0.9800 . ?
C1' C2' 1.395(8) . ?
C1' C6' 1.381(8) . ?
C1' C7' 1.495(9) . ?
C2' H2' 0.9500 . ?
C2' C3' 1.381(8) . ?
C3' H3' 0.9500 . ?
C3' C4' 1.392(9) . ?
C4' H4' 0.9500 . ?
C4' C5' 1.391(8) . ?
C5' H5' 0.9500 . ?
C5' C6' 1.392(8) . ?
C6' C8' 1.494(9) . ?
C7' H7'A 0.9800 . ?
C7' H7'B 0.9800 . ?
C7' H7'C 0.9800 . ?
C8' H8'A 0.9800 . ?
C8' H8'B 0.9800 . ?
C8' H8'C 0.9800 . ?
