#------------------------------------------------------------------------------
#$Date: 2021-04-04 12:56:42 +0300 (Sun, 04 Apr 2021) $
#$Revision: 263575 $
#$URL: file:///home/coder/svn-repositories/cod/cif/4/51/85/4518558.cif $
#------------------------------------------------------------------------------
#
# This file is available in the Crystallography Open Database (COD),
# http://www.crystallography.net/
#
# All data on this site have been placed in the public domain by the
# contributors.
#
data_4518558
loop_
_publ_author_name
'Sapianik, Aleksandr A.'
'Dudko, Evgeny R.'
'Kovalenko, Konstantin A.'
'Barsukova, Marina O.'
'Samsonenko, Denis G.'
'Dybtsev, Danil N.'
'Fedin, Vladimir P.'
_publ_section_title
;
 Metal-Organic Frameworks for Highly Selective Separation of Xylene
 Isomers and Single-Crystal X-ray Study of Aromatic Guest-Host Inclusion
 Compounds.
;
_journal_issue                   12
_journal_name_full               'ACS applied materials &amp; interfaces'
_journal_page_first              14768
_journal_page_last               14777
_journal_paper_doi               10.1021/acsami.1c02812
_journal_volume                  13
_journal_year                    2021
_chemical_formula_sum            'C54 H36 Li2 N2 O12 Zn2'
_chemical_formula_weight         1049.47
_space_group_crystal_system      monoclinic
_space_group_IT_number           15
_space_group_name_Hall           '-C 2yc'
_space_group_name_H-M_alt        'C 1 2/c 1'
_atom_sites_solution_hydrogens   geom
_atom_sites_solution_primary     dual
_atom_sites_solution_secondary   difmap
_audit_creation_method           SHELXL-2018/3
_cell_angle_alpha                90
_cell_angle_beta                 120.276(10)
_cell_angle_gamma                90
_cell_formula_units_Z            4
_cell_length_a                   19.203(4)
_cell_length_b                   16.959(2)
_cell_length_c                   18.490(3)
_cell_measurement_reflns_used    13287
_cell_measurement_temperature    100(2)
_cell_measurement_theta_max      31.0
_cell_measurement_theta_min      1.9
_cell_volume                     5200.2(16)
_computing_cell_refinement       'XDS (Kabsch, 2010)'
_computing_data_collection       'Marccd (Doyle, 2011)'
_computing_data_reduction        'XDS (Kabsch, 2010)'
_computing_molecular_graphics    'ShelXle (H\"ubschle, 2011)'
_computing_publication_material  'CIFTAB (Sheldrick, 2015)'
_computing_structure_refinement  'SHELXL-2018 (Sheldrick, 2015)'
_computing_structure_solution    'SHELXT-2018 (Sheldrick, 2015)'
_diffrn_ambient_temperature      100(2)
_diffrn_detector_area_resol_mean 12.4
_diffrn_measured_fraction_theta_full 0.995
_diffrn_measured_fraction_theta_max 0.993
_diffrn_measurement_device_type  'Rayonix SX-165 CCD'
_diffrn_measurement_method       '\f scan'
_diffrn_radiation_monochromator  'Double Crystal Monochromator'
_diffrn_radiation_source         synchrotron
_diffrn_radiation_type           synchrotron
_diffrn_radiation_wavelength     0.79313
_diffrn_reflns_av_R_equivalents  0.0467
_diffrn_reflns_av_unetI/netI     0.0422
_diffrn_reflns_Laue_measured_fraction_full 0.995
_diffrn_reflns_Laue_measured_fraction_max 0.993
_diffrn_reflns_limit_h_max       24
_diffrn_reflns_limit_h_min       -24
_diffrn_reflns_limit_k_max       21
_diffrn_reflns_limit_k_min       -21
_diffrn_reflns_limit_l_max       23
_diffrn_reflns_limit_l_min       -22
_diffrn_reflns_number            18752
_diffrn_reflns_point_group_measured_fraction_full 0.995
_diffrn_reflns_point_group_measured_fraction_max 0.993
_diffrn_reflns_theta_full        28.500
_diffrn_reflns_theta_max         31.014
_diffrn_reflns_theta_min         1.917
_diffrn_source                   synchrotron
_exptl_absorpt_coefficient_mu    1.319
_exptl_absorpt_correction_T_max  1.000
_exptl_absorpt_correction_T_min  0.901
_exptl_absorpt_correction_type   multi-scan
_exptl_absorpt_process_details   'XDS (Kabsch, 2010)'
_exptl_crystal_colour            yellow
_exptl_crystal_density_diffrn    1.340
_exptl_crystal_description       needle
_exptl_crystal_F_000             2144
_exptl_crystal_size_max          0.10
_exptl_crystal_size_mid          0.03
_exptl_crystal_size_min          0.02
_refine_diff_density_max         0.662
_refine_diff_density_min         -0.583
_refine_diff_density_rms         0.090
_refine_ls_extinction_coef       0.0079(6)
_refine_ls_extinction_expression Fc^*^=kFc[1+0.001xFc^2^\l^3^/sin(2\q)]^-1/4^
_refine_ls_extinction_method     'SHELXL-2018/3 (Sheldrick 2018)'
_refine_ls_goodness_of_fit_ref   1.078
_refine_ls_hydrogen_treatment    constr
_refine_ls_matrix_type           full
_refine_ls_number_parameters     468
_refine_ls_number_reflns         5932
_refine_ls_number_restraints     547
_refine_ls_restrained_S_all      1.084
_refine_ls_R_factor_all          0.0646
_refine_ls_R_factor_gt           0.0541
_refine_ls_shift/su_max          0.000
_refine_ls_shift/su_mean         0.000
_refine_ls_structure_factor_coef Fsqd
_refine_ls_weighting_details
'w=1/[\s^2^(Fo^2^)+(0.0980P)^2^+6.2274P] where P=(Fo^2^+2Fc^2^)/3'
_refine_ls_weighting_scheme      calc
_refine_ls_wR_factor_gt          0.1530
_refine_ls_wR_factor_ref         0.1596
_reflns_Friedel_coverage         0.000
_reflns_number_gt                4913
_reflns_number_total             5932
_reflns_threshold_expression     'I > 2\s(I)'
_cod_data_source_file            pxylene.cif
_cod_data_source_block           czl11
_cod_depositor_comments
'Adding full bibliography for 4518556--4518560.cif.'
_cod_original_sg_symbol_H-M      'C 2/c'
_cod_database_code               4518558
_shelx_shelxl_version_number     2018/3
_shelx_space_group_comment
;
The symmetry employed for this shelxl refinement is uniquely defined
by the following loop, which should always be used as a source of
symmetry information in preference to the above space-group names.
They are only intended as comments.
;
_shelx_estimated_absorpt_t_min   0.879
_shelx_estimated_absorpt_t_max   0.974
_shelx_res_file
;
TITL czl11 in C2/m; 100K; Moscow
    czl11.res
    created by SHELXL-2018/3 at 15:47:30 on 13-Aug-2020
CELL 0.793127  19.203  16.959   18.490   90.00  120.276  90.00
ZERR    4.000   0.004   0.002    0.003    0       0.010   0
LATT 7
SYMM -X,+Y,0.5-Z
SFAC C   H   Li N O  Zn
DISP C  0.00462  0.00217 14.32457
DISP H -0.00002  0.00000  0.66622
DISP Li  0.00004  0.00008  2.37465
DISP N  0.00868  0.00437 25.35285
DISP O  0.01466  0.00796 42.75413
DISP Zn  0.20787  1.73865 7889.26517
UNIT 216 144 8  8 48 8
 
LIST 4 ! automatically inserted. Change 6 to 4 for CHECKCIF!!
TEMP -173
 
L.S. 6
BOND $H
FMAP 2
PLAN 5
 
OMIT 0
 
OMIT 0 2 2
OMIT 3 1 1
OMIT 2 0 6
OMIT 4 0 4
OMIT -3 3 3
OMIT 0 2 0
 
OMIT  1   1   1
OMIT  1   3   0
 
SIMU 0.01 0.01 C207 > C216
SIMU 0.01 0.01 N1 > C15
 
DFIX 1.39 0.01 C1 C2  C2 C3  C3 C4  C4 C5  C5 C6  C6 C1 =
               C1' C2'  C2' C3'  C3' C4'  C4' C5'  C5' C6' C6' C1'
 
DFIX 1.50 0.01 C4 C7  C1 C8  C3' C7'  C6' C8'
 
SADI 0.01 C1 C4  C2 C5  C3 C6  C1' C4'  C2' C5'  C3' C6'
 
SADI 0.01 C1 C5  C2 C4  C3 C5  C4 C6  C1 C3 =
          C1' C5'  C2' C4'  C3' C5'  C4' C6'  C1' C3'
 
SADI 0.01 C7 C3  C7 C5  C8 C6  C8 C2  C8' C1'  C8' C5'  C7' C2'  C7' C4'
 
FLAT 0.03 C1 > C8
FLAT 0.03 C1' > C8'
 
SIMU 0.01 0.01 C1 > C8'
ISOR 0.02 0.02 C1 > C8'
 
ACTA 57
SIZE 0.10 0.03 0.02
 
WGHT    0.098000    6.227400
EXTI    0.007884
FVAR       0.10367
LI1   3    0.071898    0.088275    0.252846    11.00000    0.03302    0.03751 =
         0.03287    0.00085    0.01583    0.00320
ZN1   6    0.230110    0.107603    0.429965    11.00000    0.02703    0.03512 =
         0.02713    0.00018    0.01085    0.00013
N1    4    0.330729    0.117888    0.546250    11.00000    0.03030    0.03916 =
         0.03159    0.00250    0.00702   -0.00181
C11   1    0.376384    0.182680    0.575017    11.00000    0.03280    0.03745 =
         0.03318    0.00016    0.01338   -0.00150
AFIX  43
H11   2    0.362343    0.227450    0.539469    11.00000   -1.20000
AFIX   0
C12   1    0.443671    0.187009    0.655037    11.00000    0.03075    0.04004 =
         0.03716   -0.00292    0.01262   -0.00304
AFIX  43
H12   2    0.474965    0.233871    0.673556    11.00000   -1.20000
AFIX   0
C13   1    0.464329    0.122236    0.707160    11.00000    0.03660    0.04266 =
         0.03732   -0.00006    0.00600    0.00035
C14   1    0.416701    0.054791    0.676369    11.00000    0.06141    0.04505 =
         0.04816    0.01036   -0.00858   -0.01269
AFIX  43
H14   2    0.429394    0.009047    0.710400    11.00000   -1.20000
AFIX   0
C15   1    0.351099    0.054884    0.596269    11.00000    0.05554    0.04596 =
         0.04350    0.01130   -0.00877   -0.01445
AFIX  43
H15   2    0.319232    0.008509    0.575893    11.00000   -1.20000
AFIX   0
O11   5    0.148644    0.095127    0.463285    11.00000    0.03071    0.04863 =
         0.02793   -0.00174    0.01289   -0.00469
O12   5    0.038915    0.079249    0.337585    11.00000    0.02866    0.04583 =
         0.02618    0.00447    0.01081   -0.00068
C101  1    0.076225    0.073451    0.415528    11.00000    0.03009    0.03566 =
         0.02865    0.00163    0.01463    0.00083
C102  1    0.035138    0.036706    0.458126    11.00000    0.03318    0.05219 =
         0.02600    0.00321    0.01186   -0.00687
C103  1    0.035315    0.075548    0.525251    11.00000    0.04502    0.06746 =
         0.03397   -0.00084    0.01974   -0.01797
C104  1    0.000446    0.038135    0.568530    11.00000    0.04327    0.06606 =
         0.03187    0.00063    0.01714   -0.01706
C105  1   -0.007120    0.087956    0.633318    10.50000    0.04398    0.04047 =
         0.03617    0.00319    0.02348   -0.00015
AFIX  43
H105  2   -0.033249    0.065779    0.660586    10.50000   -1.20000
AFIX   0
C106  1    0.022643    0.164079    0.653705    10.50000    0.07867    0.04445 =
         0.06879   -0.00792    0.05495   -0.00409
AFIX  43
H106  2    0.021903    0.191335    0.698200    10.50000   -1.20000
AFIX   0
C107  1    0.053872    0.200514    0.608032    10.50000    0.09609    0.03577 =
         0.08137   -0.00898    0.06709   -0.01077
AFIX  43
H107  2    0.071481    0.253746    0.619816    10.50000   -1.20000
AFIX   0
C108  1    0.059395    0.160867    0.547029    10.50000    0.06004    0.03806 =
         0.05342    0.00668    0.03620   -0.00075
AFIX  43
H108  2    0.079468    0.188355    0.516552    10.50000   -1.20000
AFIX   0
O21   5    0.237529    0.201435    0.375781    11.00000    0.03593    0.04390 =
         0.03629    0.00518    0.01680   -0.00214
O22   5    0.117613    0.188347    0.258599    11.00000    0.03745    0.04144 =
         0.04320    0.00432    0.01705   -0.00757
O23   5    0.244803    0.504800    0.098237    11.00000    0.04681    0.04637 =
         0.03702    0.00706    0.01665   -0.00779
O24   5    0.349529    0.514664    0.225996    11.00000    0.05032    0.06215 =
         0.04645    0.01024    0.01064   -0.02438
C201  1    0.184944    0.219502    0.299749    11.00000    0.03616    0.03529 =
         0.03688    0.00376    0.01892   -0.00007
C202  1    0.210205    0.284462    0.262756    11.00000    0.03454    0.03841 =
         0.03512    0.00309    0.01467   -0.00403
C203  1    0.250416    0.347089    0.312098    11.00000    0.04797    0.04956 =
         0.03096   -0.00046    0.01565   -0.01390
AFIX  43
H203  2    0.262044    0.348307    0.368483    11.00000   -1.20000
AFIX   0
C204  1    0.274941    0.409854    0.280928    11.00000    0.04831    0.04793 =
         0.03463   -0.00333    0.01601   -0.01584
AFIX  43
H204  2    0.302495    0.453270    0.316410    11.00000   -1.20000
AFIX   0
C205  1    0.259857    0.409812    0.199798    11.00000    0.03664    0.04017 =
         0.03569    0.00202    0.01546   -0.00836
C206  1    0.287645    0.480786    0.172987    11.00000    0.03982    0.04029 =
         0.04048    0.00156    0.02021   -0.00630
C207  1    0.220963    0.343482    0.147140    11.00000    0.05438    0.04607 =
         0.03950   -0.00281    0.02395   -0.01194
C208  1    0.194831    0.280233    0.178894    11.00000    0.05257    0.04365 =
         0.04103   -0.00416    0.02550   -0.01181
PART 1  10.5
C209  1    0.168343    0.209328    0.135176    10.50000    0.06641    0.04820 =
         0.04118   -0.00599    0.03072   -0.01681
AFIX  43
H209  2    0.153368    0.166924    0.158104    10.50000   -1.20000
AFIX   0
C210  1    0.163761    0.200442    0.058054    10.50000    0.07689    0.05701 =
         0.04544   -0.01142    0.03057   -0.02095
AFIX  43
H210  2    0.142555    0.153497    0.026358    10.50000   -1.20000
AFIX   0
C211  1    0.191392    0.262899    0.027528    10.50000    0.08188    0.06418 =
         0.04515   -0.00952    0.03150   -0.01531
AFIX  43
H211  2    0.189822    0.256910   -0.024359    10.50000   -1.20000
AFIX   0
C212  1    0.220425    0.332013    0.072174    10.50000    0.07193    0.05698 =
         0.04507   -0.00508    0.03349   -0.01651
AFIX  43
H212  2    0.240290    0.372280    0.051618    10.50000   -1.20000
AFIX   0
PART 2  10.5
C213  1    0.148025    0.217284    0.119638    10.50000    0.07526    0.05425 =
         0.04712   -0.00630    0.02820   -0.02496
AFIX  43
H213  2    0.127397    0.175547    0.137682    10.50000   -1.20000
AFIX   0
C214  1    0.133726    0.217111    0.041397    10.50000    0.08294    0.05732 =
         0.04626   -0.01276    0.02930   -0.02425
AFIX  43
H214  2    0.105552    0.173935    0.005835    10.50000   -1.20000
AFIX   0
C215  1    0.159051    0.278686    0.010323    10.50000    0.08139    0.06442 =
         0.04011   -0.01021    0.03117   -0.02343
AFIX  43
H215  2    0.148955    0.276704   -0.045505    10.50000   -1.20000
AFIX   0
C216  1    0.198496    0.342105    0.060151    10.50000    0.06961    0.05782 =
         0.03941   -0.00342    0.02756   -0.02164
AFIX  43
H216  2    0.211252    0.385927    0.036940    10.50000   -1.20000
AFIX   0
PART -1  10.25
C1    1   -0.014509    0.502333    0.477683    10.25000    0.10626    0.11349 =
         0.11783   -0.00208    0.06306   -0.00108
C2    1   -0.005672    0.420614    0.486473    10.25000    0.10080    0.11198 =
         0.11835   -0.00874    0.06673    0.00438
AFIX  43
H2    2   -0.034391    0.387457    0.439010    10.25000   -1.20000
AFIX   0
C3    1    0.044760    0.388036    0.564078    10.25000    0.10239    0.10826 =
         0.11713   -0.00596    0.06609    0.00907
AFIX  43
H3    2    0.050497    0.332389    0.569959    10.25000   -1.20000
AFIX   0
C4    1    0.087452    0.436388    0.634079    10.25000    0.09423    0.09886 =
         0.10978    0.00089    0.07153    0.01096
C5    1    0.077961    0.517859    0.625033    10.25000    0.09828    0.10420 =
         0.11780    0.00216    0.06632    0.00835
AFIX  43
H5    2    0.106586    0.550970    0.672554    10.25000   -1.20000
AFIX   0
C6    1    0.027518    0.550789    0.547914    10.25000    0.09773    0.10405 =
         0.11328   -0.00219    0.06953   -0.00102
AFIX  43
H6    2    0.021218    0.606412    0.542340    10.25000   -1.20000
AFIX   0
C7    1    0.141928    0.400325    0.717547    10.25000    0.09820
AFIX  33
H7A   2    0.141051    0.342816    0.711958    10.25000   -1.50000
H7B   2    0.197013    0.419655    0.739052    10.25000   -1.50000
H7C   2    0.123532    0.414796    0.756503    10.25000   -1.50000
AFIX   0
C8    1   -0.068220    0.537770    0.393912    10.25000    0.11577
AFIX  33
H8A   2   -0.067410    0.595327    0.398997    10.25000   -1.50000
H8B   2   -0.049243    0.522824    0.355562    10.25000   -1.50000
H8C   2   -0.123388    0.518503    0.371994    10.25000   -1.50000
AFIX   0
PART -2 10.25
C1'   1    0.136408    0.399011    0.702517    10.25000    0.09971    0.09551 =
         0.10388    0.01821    0.07587    0.03717
AFIX  43
H1'   2    0.193554    0.398372    0.735969    10.25000   -1.20000
AFIX   0
C2'   1    0.099637    0.428953    0.622045    10.25000    0.09579    0.10068 =
         0.11467    0.01852    0.07134    0.02340
AFIX  43
H2'   2    0.131697    0.448498    0.600211    10.25000   -1.20000
AFIX   0
C3'   1    0.016061    0.430648    0.572873    10.25000    0.10028    0.10651 =
         0.11746   -0.00146    0.06269    0.00950
C4'   1   -0.030518    0.402568    0.605599    10.25000    0.09405    0.09335 =
         0.11601   -0.00948    0.06474    0.00687
AFIX  43
H4'   2   -0.087667    0.404576    0.572656    10.25000   -1.20000
AFIX   0
C5'   1    0.005748    0.371861    0.685508    10.25000    0.08984    0.06794 =
         0.09911   -0.02029    0.06939    0.01569
AFIX  43
H5'   2   -0.026327    0.352111    0.707237    10.25000   -1.20000
AFIX   0
C6'   1    0.089744    0.369878    0.734395    10.25000    0.09736    0.07844 =
         0.09465    0.01167    0.07133    0.03078
C7'   1   -0.023915    0.461663    0.485158    10.25000    0.11245
AFIX  33
H7'A  2   -0.082588    0.458442    0.460013    10.25000   -1.50000
H7'B  2   -0.008124    0.516744    0.485924    10.25000   -1.50000
H7'C  2   -0.007202    0.430107    0.452115    10.25000   -1.50000
AFIX   0
C8'   1    0.127892    0.337524    0.820968    10.25000    0.09965
AFIX  33
H8'A  2    0.085837    0.319859    0.832472    10.25000   -1.50000
H8'B  2    0.162482    0.292814    0.826234    10.25000   -1.50000
H8'C  2    0.160462    0.378609    0.861170    10.25000   -1.50000
PART 0
AFIX   0
HKLF 4
 
 
 
 
REM  czl11 in C2/m; 100K; Moscow
REM wR2 = 0.1596, GooF = S = 1.078, Restrained GooF = 1.084 for all data
REM R1 = 0.0541 for 4913 Fo > 4sig(Fo) and 0.0646 for all 5932 data
REM 468 parameters refined using 547 restraints
 
END
 
WGHT      0.0980      6.2274
 
REM Highest difference peak  0.662,  deepest hole -0.583,  1-sigma level  0.090
Q1    1   0.0753  0.3476  0.7917  11.00000  0.05    0.66
Q2    1   0.0759  0.3003  0.6757  11.00000  0.05    0.64
Q3    1   0.0640  0.2286  0.7016  11.00000  0.05    0.59
Q4    1   0.1203  0.4226  0.6778  11.00000  0.05    0.54
Q5    1  -0.0002  0.3846  0.5096  11.00000  0.05    0.53
;
_shelx_res_checksum              9527
_shelx_hkl_file
;
   0   0   6  276.60   11.15
   0   0   7   -0.05    0.51
   0   0   7    0.71    0.47
   0   0   8  480.30   19.28
   0   0   8  488.70   19.63
   0   0   9   -0.57    0.51
   0   0   9    0.13    0.53
   0   0  10   95.49    3.98
   0   0  10   97.19    4.07
   0   0  11    0.26    0.56
   0   0  11   -0.30    0.50
   0   0  12   21.68    1.19
   0   0  12   19.62    1.12
   0   0  13   -0.65    0.56
   0   0  13    0.19    0.67
   0   0  14   35.00    1.68
   0   0  14   32.91    1.59
   0   0  15    0.23    0.65
   0   0  15   -0.72    0.62
   0   0  16   13.70    0.93
   0   0  16   14.57    1.00
   0   0  17   -0.30    0.56
   0   0  17    0.45    0.66
   0   0  18    1.60    0.61
   0   0  18    1.83    0.59
   0   0  19   -0.54    0.60
   0   0  19    0.26    0.55
   0   0  20   11.10    0.77
   0   0  20   11.55    0.88
  -1  -1  21    1.41    0.58
  -1  -1  21    2.49    0.56
  -1  -1  20    8.52    0.76
  -1  -1  20    8.54    0.71
  -1  -1  19    9.13    0.81
  -1  -1  19    7.47    0.74
  -1  -1  18   22.57    1.23
  -1  -1  18   23.65    1.21
  -1  -1  17    4.39    0.67
  -1  -1  17    3.87    0.69
  -1  -1  16   16.82    1.06
  -1  -1  16   17.91    1.10
  -1  -1  15   11.68    0.91
  -1  -1  15   14.73    0.91
  -1  -1  14    0.63    0.66
  -1  -1  14    1.28    0.58
  -1  -1  13   27.56    1.41
  -1  -1  13   30.24    1.48
  -1  -1  12   61.96    2.72
  -1  -1  12   61.98    2.70
  -1  -1  11   42.97    1.96
  -1  -1  10    1.59    0.56
  -1  -1   9    1.68    0.52
  -1  -1   8   29.06    1.40
  -1  -1   7  208.80    8.47
  -1  -1   6  105.70    4.36
   1   1  -5    0.22    0.47
  -1  -1   5    0.98    0.54
   1   1  -4   83.78    3.47
  -1  -1   4   83.86    3.48
   1   1  -3    0.55    0.44
  -1  -1   3    0.48    0.41
   1   1   0   64.51    2.62
  -1  -1   0   62.56    2.54
   1   1   1   46.92    1.95
  -1  -1  -1   43.84    1.83
   1   1   3   57.10    2.42
  -1  -1  -3   54.34    2.32
   1   1   4  301.40   12.14
   1   1   5  117.90    4.85
   1   1   6    7.85    0.67
   1   1   7  362.10   14.58
   1   1   8   33.51    1.57
   1   1   9    3.45    0.59
   1   1  10  212.00    8.61
   1   1  10  216.10    8.79
   1   1  11    4.62    0.64
   1   1  11    3.86    0.61
   1   1  12   29.06    1.42
   1   1  12   26.66    1.36
   1   1  13   13.49    0.87
   1   1  13   13.58    0.92
   1   1  14    0.54    0.52
   1   1  14    0.58    0.65
   1   1  15    9.39    0.78
   1   1  15    8.69    0.76
   1   1  16    7.70    0.73
   1   1  16    5.81    0.65
   1   1  17    3.37    0.58
   1   1  17    1.98    0.64
   1   1  18   10.25    0.75
   1   1  18    9.72    0.83
   1   1  19    2.90    0.63
   1   1  19    2.71    0.64
   1   1  20   -1.18    0.58
   1   1  20    0.21    0.63
  -2  -2  21    3.24    0.70
  -2  -2  21    3.20    0.67
  -2  -2  20    0.10    0.62
  -2  -2  20    0.62    0.60
  -2  -2  19   45.00    2.05
  -2  -2  19   43.93    1.97
  -2  -2  18    1.63    0.67
  -2  -2  18    1.33    0.61
  -2  -2  17   49.39    2.22
  -2  -2  17   50.24    2.27
  -2  -2  15   11.47    0.91
  -2  -2  15   13.83    0.89
  -2  -2  14    3.75    0.57
  -2  -2  13   88.17    3.72
  -2  -2  12   23.27    1.24
  -2  -2  11   39.53    1.81
  -2  -2  10   18.09    1.00
  -2  -2   9    9.49    0.70
   2   2  -8    0.94    0.52
  -2  -2   8   -0.11    0.48
   2   2  -7   -0.73    0.48
  -2  -2   7    0.39    0.48
   2   2  -6   10.93    0.76
  -2  -2   6   10.81    0.72
   2   2  -5  110.90    4.57
  -2  -2   5  108.90    4.48
   2   2  -4   -0.19    0.49
  -2  -2   4   -0.24    0.53
   2   2  -3  312.10   12.54
  -2  -2   3  307.20   12.34
   2   2  -2   38.62    1.67
  -2  -2   2   39.05    1.69
   2   2  -1  109.60    4.45
  -2  -2   1  108.80    4.42
   2   2   0  193.00    7.78
  -2  -2   0  194.00    7.82
   2   2   1    7.49    0.56
  -2  -2  -1    7.91    0.57
   2   2   2  326.10   13.11
  -2  -2  -2  335.00   13.47
  -2  -2  -3  718.60   28.78
   2   2   4   22.83    1.13
  -2  -2  -4   22.29    1.13
   2   2   5  162.70    6.64
  -2  -2  -5  158.90    6.50
   2   2   6  100.80    4.19
   2   2   7   20.68    1.08
   2   2   8   21.00    1.11
   2   2   9   58.65    2.54
   2   2  10   18.57    1.07
   2   2  11   60.20    2.64
   2   2  12    3.93    0.59
   2   2  12    3.64    0.67
   2   2  13   16.03    0.97
   2   2  13   14.70    0.98
   2   2  14    0.89    0.62
   2   2  14    2.25    0.66
   2   2  15    7.13    0.80
   2   2  15    7.53    0.79
   2   2  16    1.62    0.63
   2   2  16   -0.47    0.61
   2   2  17   36.28    1.65
   2   2  17   33.62    1.60
   2   2  18    1.75    0.65
   2   2  18    1.13    0.62
   2   2  19    9.61    0.77
   2   2  19    7.75    0.81
  -3  -3  20    3.98    0.70
  -3  -3  20    4.17    0.66
  -3  -3  19    0.90    0.60
  -3  -3  19   -0.55    0.65
  -3  -3  18    8.47    0.81
  -3  -3  18    8.34    0.85
  -3  -3  17   23.00    1.23
  -3  -3  17   23.25    1.27
  -3  -3  16   12.56    0.88
  -3  -3  15   77.70    3.30
  -3  -3  14   20.92    1.12
  -3  -3  13   41.83    1.93
  -3  -3  12   58.10    2.56
  -3  -3  11    7.27    0.65
   3   3 -10   16.63    0.95
  -3  -3  10   15.31    0.92
   3   3  -9   53.76    2.35
  -3  -3   9   53.30    2.32
   3   3  -8   28.69    1.40
  -3  -3   8   25.50    1.27
   3   3  -7  149.40    6.10
  -3  -3   7  163.40    6.67
   3   3  -6   57.54    2.47
  -3  -3   6   52.33    2.25
   3   3  -5    0.38    0.50
  -3  -3   5    0.24    0.49
   3   3  -4  306.40   12.34
  -3  -3   4  311.00   12.54
  -3  -3   3  871.50   34.87
   3   3  -2  194.50    7.88
  -3  -3   2  165.80    6.74
   3   3  -1   93.03    3.85
  -3  -3   1   91.14    3.77
   3   3   0    3.22    0.57
  -3  -3   0    4.01    0.54
   3   3   1  133.30    5.46
  -3  -3  -1  131.10    5.38
   3   3   2  324.30   13.06
  -3  -3  -2  397.50   15.98
   3   3   3   81.16    3.39
  -3  -3  -3   88.45    3.70
   3   3   4   57.35    2.48
  -3  -3  -4   57.53    2.49
   3   3   5  378.00   15.22
  -3  -3  -5  352.20   14.19
   3   3   6    3.47    0.56
  -3  -3  -6    5.00    0.65
   3   3   7  140.00    5.76
  -3  -3  -7  141.90    5.83
   3   3   8    1.26    0.48
   3   3   9   22.70    1.21
   3   3  10    6.46    0.71
   3   3  11   17.10    1.06
   3   3  12   62.96    2.75
   3   3  13   83.57    3.57
   3   3  14    1.19    0.56
   3   3  14    3.17    0.64
   3   3  15   30.35    1.51
   3   3  15   27.40    1.42
   3   3  17    0.99    0.62
   3   3  17    1.62    0.62
   3   3  18   -1.10    0.60
   3   3  18    0.15    0.54
  -4  -4  22    8.60    0.85
  -4  -4  22   11.75    0.90
  -4  -4  21    3.11    0.69
  -4  -4  21    3.33    0.68
  -4  -4  20   10.58    0.92
  -4  -4  20   10.01    0.84
  -4  -4  19    0.94    0.59
  -4  -4  19    1.80    0.67
  -4  -4  18    2.02    0.60
  -4  -4  17    6.67    0.77
  -4  -4  16   30.98    1.53
  -4  -4  15   14.26    0.90
  -4  -4  14   90.12    3.80
  -4  -4  13    1.88    0.62
   4   4 -12    3.64    0.61
  -4  -4  12    2.91    0.64
   4   4 -11   38.10    1.76
  -4  -4  11   38.66    1.78
   4   4 -10   46.21    2.06
  -4  -4  10   46.67    2.06
   4   4  -9   29.28    1.43
  -4  -4   9   29.41    1.41
   4   4  -8   18.67    1.03
  -4  -4   8   18.29    1.01
   4   4  -7   46.48    2.05
  -4  -4   7   47.30    2.09
   4   4  -6    1.69    0.54
  -4  -4   6    1.14    0.52
   4   4  -5   14.96    0.86
  -4  -4   5   20.58    1.13
   4   4  -4  397.80   16.00
  -4  -4   4  435.40   17.49
   4   4  -3   17.59    1.02
  -4  -4   3   19.05    1.03
   4   4  -2    1.41    0.51
  -4  -4   2    1.50    0.51
   4   4  -1  181.90    7.40
  -4  -4   1  185.10    7.52
   4   4   0  289.50   11.69
  -4  -4   0  283.00   11.42
   4   4   1    1.25    0.53
  -4  -4  -1    2.54    0.55
   4   4   2   16.08    0.92
  -4  -4  -2   15.68    0.91
   4   4   3   27.71    1.33
  -4  -4  -3   27.35    1.32
   4   4   4  254.90   10.32
  -4  -4  -4  256.70   10.39
   4   4   5   -0.05    0.50
  -4  -4  -5    0.46    0.50
   4   4   6   85.45    3.61
  -4  -4  -6   85.25    3.59
   4   4   7   22.56    1.15
  -4  -4  -7   23.76    1.22
   4   4   8  165.10    6.78
  -4  -4  -8  159.50    6.55
   4   4   9   -0.62    0.53
   4   4  10    8.79    0.82
   4   4  11   92.62    3.92
   4   4  12   13.52    0.96
   4   4  13    2.21    0.64
   4   4  14  102.70    4.30
   4   4  15    0.39    0.60
   4   4  15    0.30    0.56
   4   4  16    8.75    0.74
   4   4  16    8.07    0.77
   4   4  17    4.15    0.69
   4   4  17    3.77    0.58
   4   4  18    2.22    0.65
   4   4  18    2.74    0.61
  -5  -5  22    6.53    0.67
  -5  -5  22    6.41    0.69
  -5  -5  21    0.39    0.70
  -5  -5  21   -0.56    0.60
  -5  -5  20   33.03    1.58
  -5  -5  19    1.22    0.55
  -5  -5  18   23.60    1.24
  -5  -5  17    2.73    0.67
  -5  -5  16    1.88    0.66
  -5  -5  15   19.43    1.11
   5   5 -14    2.35    0.69
  -5  -5  14    3.46    0.71
   5   5 -13    4.71    0.65
  -5  -5  13    4.75    0.66
   5   5 -12  244.60    9.93
  -5  -5  12  272.60   11.06
   5   5 -11    3.80    0.57
  -5  -5  11    2.65    0.56
   5   5 -10  117.40    4.86
  -5  -5  10  109.80    4.53
   5   5  -9   13.14    0.86
  -5  -5   9   10.11    0.76
   5   5  -8    8.73    0.68
  -5  -5   8    7.22    0.67
   5   5  -7   19.64    1.08
  -5  -5   7   19.25    1.05
   5   5  -6  284.40   11.49
  -5  -5   6  326.40   13.16
   5   5  -5   22.18    1.15
  -5  -5   5   21.18    1.11
   5   5  -4   30.91    1.48
  -5  -5   4   32.99    1.52
   5   5  -3   25.40    1.25
  -5  -5   3   27.29    1.32
   5   5  -2   44.45    1.98
  -5  -5   2   39.14    1.78
   5   5  -1    0.98    0.52
  -5  -5   1    1.02    0.49
   5   5   0   96.36    4.02
  -5  -5   0  101.90    4.23
   5   5   1   17.71    0.98
  -5  -5  -1   19.16    1.02
   5   5   2   29.42    1.41
  -5  -5  -2   34.23    1.59
   5   5   3   95.37    3.99
  -5  -5  -3   97.93    4.10
   5   5   4   27.77    1.38
  -5  -5  -4   29.40    1.41
   5   5   5    3.40    0.53
  -5  -5  -5    2.94    0.59
   5   5   6    0.09    0.52
  -5  -5  -6    0.24    0.54
   5   5   7   30.14    1.46
  -5  -5  -7   31.71    1.52
   5   5   8   33.49    1.60
  -5  -5  -8   36.08    1.70
   5   5   9   14.42    0.96
  -5  -5  -9   14.40    0.93
   5   5  10  144.30    5.96
   5   5  11   15.46    0.98
   5   5  12   15.63    0.96
   5   5  13    2.06    0.59
   5   5  14   18.02    1.04
   5   5  15    2.33    0.57
   5   5  16   14.33    0.94
   5   5  16   16.45    0.96
   5   5  17    1.14    0.55
   5   5  17    0.23    0.61
  -6  -6  22    0.89    0.59
  -6  -6  21    4.25    0.69
  -6  -6  20    0.25    0.52
  -6  -6  19    8.85    0.82
  -6  -6  18    6.10    0.77
  -6  -6  17    2.10    0.66
  -6  -6  16   45.65    2.06
   6   6 -15    2.19    0.67
  -6  -6  15    1.79    0.61
   6   6 -14   69.84    3.03
  -6  -6  14   64.68    2.85
   6   6 -13  283.10   11.48
  -6  -6  13  279.60   11.35
   6   6 -12   20.39    1.14
  -6  -6  12   17.58    1.05
   6   6 -11   55.32    2.42
  -6  -6  11   51.77    2.30
   6   6 -10   94.90    3.98
  -6  -6  10   97.23    4.05
   6   6  -9    0.82    0.49
  -6  -6   9    0.28    0.49
   6   6  -8  167.50    6.84
  -6  -6   8   70.62    3.03
   6   6  -7   74.09    3.15
  -6  -6   7   61.11    2.67
   6   6  -6   85.79    3.60
  -6  -6   6   79.57    3.36
   6   6  -5  203.70    8.30
  -6  -6   5  189.20    7.70
   6   6  -4   34.10    1.61
  -6  -6   4   59.67    2.57
   6   6  -3   18.18    1.04
  -6  -6   3   16.37    0.91
   6   6  -2   68.59    2.94
  -6  -6   2   69.60    2.97
   6   6  -1   18.62    1.03
  -6  -6   1   18.99    1.02
   6   6   0    0.62    0.50
  -6  -6   0    0.21    0.49
   6   6   1   14.62    0.88
  -6  -6  -1   15.61    0.92
   6   6   2  133.10    5.49
  -6  -6  -2  138.70    5.71
   6   6   3   19.51    1.05
  -6  -6  -3   17.77    1.01
   6   6   4    1.85    0.55
  -6  -6  -4    1.78    0.51
   6   6   5   11.97    0.81
  -6  -6  -5   11.54    0.80
   6   6   6   62.19    2.70
  -6  -6  -6   61.35    2.67
   6   6   7    2.60    0.55
  -6  -6  -7    2.47    0.59
   6   6   8    0.94    0.57
  -6  -6  -8    1.21    0.61
   6   6   9   32.81    1.61
  -6  -6  -9   32.19    1.59
   6   6  10   17.89    1.07
   6   6  11   30.89    1.51
   6   6  12   65.44    2.83
   6   6  13   11.64    0.85
   6   6  14   16.65    0.99
   6   6  15    2.18    0.68
   6   6  16   -0.34    0.48
   6   6  16   -0.49    0.60
  -7  -7  22    0.57    0.54
  -7  -7  21    3.46    0.68
  -7  -7  20    3.35    0.66
  -7  -7  19    5.26    0.75
  -7  -7  18    8.81    0.83
   7   7 -17   44.38    2.00
  -7  -7  17   51.20    2.27
   7   7 -16    7.34    0.74
  -7  -7  16    7.27    0.76
   7   7 -15   16.89    1.08
  -7  -7  15   16.89    1.07
   7   7 -14   48.04    2.19
  -7  -7  14   46.37    2.18
   7   7 -13   39.63    1.86
  -7  -7  13   40.51    1.94
   7   7 -12    1.47    0.57
  -7  -7  12    1.72    0.59
   7   7 -11   64.99    2.81
  -7  -7  11   68.81    2.97
   7   7 -10   -0.26    0.52
  -7  -7  10    0.76    0.51
   7   7  -9  191.40    7.80
  -7  -7   9  173.70    7.10
   7   7  -8   13.69    0.90
  -7  -7   8   13.93    0.90
   7   7  -7   93.01    3.90
  -7  -7   7   81.30    3.43
   7   7  -6    4.25    0.65
  -7  -7   6    3.78    0.51
   7   7  -5    7.95    0.74
  -7  -7   5    8.21    0.67
   7   7  -4    8.65    0.76
  -7  -7   4    8.13    0.67
   7   7  -3  115.80    4.80
  -7  -7   3  118.20    4.90
   7   7  -2    1.65    0.56
  -7  -7   2    2.85    0.53
   7   7  -1   96.82    4.06
  -7  -7   1  100.30    4.18
   7   7   0    5.44    0.61
  -7  -7   0    6.85    0.62
   7   7   1    0.63    0.48
  -7  -7  -1    0.47    0.49
   7   7   2    9.68    0.77
  -7  -7  -2    9.44    0.75
   7   7   3    4.60    0.63
  -7  -7  -3    4.43    0.63
   7   7   4    0.14    0.50
  -7  -7  -4   -0.26    0.54
   7   7   5  146.70    6.05
  -7  -7  -5  155.40    6.39
   7   7   6   29.40    1.47
  -7  -7  -6   31.09    1.53
   7   7   7    1.00    0.53
  -7  -7  -7    1.09    0.64
   7   7   8   -0.12    0.60
  -7  -7  -8    0.37    0.66
   7   7   9    2.08    0.68
  -7  -7  -9    3.26    0.60
   7   7  10   25.05    1.30
  -7  -7 -10   23.87    1.27
   7   7  11   30.13    1.50
   7   7  12    0.42    0.64
   7   7  13   17.62    1.07
   7   7  14    1.10    0.65
   7   7  15    0.80    0.60
  -8  -8  22    0.74    0.61
  -8  -8  21    2.78    0.68
  -8  -8  20    5.80    0.74
  -8  -8  19   22.93    1.23
   8   8 -18   12.04    0.89
  -8  -8  18   12.77    0.89
   8   8 -17    0.95    0.61
  -8  -8  17    0.82    0.56
   8   8 -16    1.23    0.65
  -8  -8  16    2.05    0.60
   8   8 -15   27.61    1.41
  -8  -8  15   27.74    1.42
   8   8 -14    5.59    0.73
  -8  -8  14    6.67    0.86
   8   8 -13   24.45    1.30
  -8  -8  13   26.84    1.42
   8   8 -12    0.44    0.62
  -8  -8  12    0.07    0.64
   8   8 -11   11.22    0.86
  -8  -8  11    9.34    0.74
   8   8 -10   69.90    3.01
  -8  -8  10   75.56    3.22
   8   8  -9    1.25    0.51
  -8  -8   9    1.31    0.48
   8   8  -8   20.96    1.12
  -8  -8   8   20.03    1.09
   8   8  -7  148.30    6.10
  -8  -8   7  170.00    7.00
   8   8  -6    5.07    0.64
  -8  -8   6    5.42    0.64
   8   8  -5  103.50    4.36
  -8  -8   5  105.30    4.39
   8   8  -4    0.59    0.57
  -8  -8   4   -0.09    0.55
   8   8  -3   81.53    3.46
  -8  -8   3   73.79    3.17
   8   8  -2   29.67    1.44
  -8  -8   2   31.78    1.54
   8   8  -1   38.96    1.82
  -8  -8   1   33.03    1.58
   8   8   0   13.20    0.88
  -8  -8   0   12.19    0.81
   8   8   1   61.78    2.69
  -8  -8  -1   65.46    2.81
   8   8   2    0.60    0.52
  -8  -8  -2    0.47    0.49
   8   8   3   45.71    2.06
  -8  -8  -3   48.42    2.19
   8   8   4   59.84    2.63
  -8  -8  -4   62.17    2.73
   8   8   5   -0.15    0.62
  -8  -8  -5    0.09    0.57
   8   8   6    0.02    0.58
  -8  -8  -6    0.68    0.57
   8   8   7   39.07    1.83
  -8  -8  -7   39.22    1.86
   8   8   8    4.00    0.62
  -8  -8  -8    4.38    0.66
   8   8   9   17.57    1.05
  -8  -8  -9   18.09    1.11
   8   8  10   30.06    1.48
  -8  -8 -10   29.54    1.45
   8   8  11    7.64    0.71
   8   8  12   20.60    1.12
   8   8  13    1.08    0.63
   8   8  14   -0.30    0.58
  -9  -9  21    4.93    0.67
  -9  -9  20   14.45    0.92
   9   9 -19    3.21    0.67
  -9  -9  19    3.06    0.75
   9   9 -18    3.37    0.69
  -9  -9  18    4.30    0.73
   9   9 -17    8.58    0.85
  -9  -9  17    6.53    0.71
   9   9 -16    2.29    0.63
  -9  -9  16    0.46    0.60
   9   9 -15    8.54    0.78
  -9  -9  15    7.59    0.82
   9   9 -14   41.05    1.91
  -9  -9  14   39.52    1.88
   9   9 -13    2.45    0.64
  -9  -9  13    2.96    0.76
   9   9 -12   46.69    2.11
  -9  -9  12   49.13    2.20
   9   9 -11   10.67    0.79
  -9  -9  11   10.88    0.79
   9   9 -10    1.94    0.62
  -9  -9  10    2.03    0.61
   9   9  -9   11.62    0.85
  -9  -9   9   11.96    0.82
   9   9  -8   42.24    1.93
  -9  -9   8   42.33    1.96
   9   9  -7    0.33    0.52
  -9  -9   7   -0.20    0.55
   9   9  -6   48.62    2.17
  -9  -9   6   50.44    2.23
   9   9  -5   17.72    1.05
  -9  -9   5   19.46    1.04
   9   9  -4  109.50    4.58
  -9  -9   4  128.30    5.31
   9   9  -3   11.46    0.84
  -9  -9   3   13.62    0.89
   9   9  -2   14.79    0.93
  -9  -9   2   15.86    0.97
   9   9  -1    3.84    0.61
  -9  -9   1    4.84    0.60
   9   9   0  116.60    4.86
  -9  -9   0  114.90    4.78
   9   9   1   -0.95    0.54
  -9  -9  -1   -0.03    0.55
   9   9   2  170.80    7.01
  -9  -9  -2  158.40    6.52
   9   9   3    0.25    0.62
  -9  -9  -3    0.63    0.60
   9   9   4   32.05    1.56
  -9  -9  -4   32.92    1.58
   9   9   5   30.67    1.52
  -9  -9  -5   31.37    1.51
   9   9   6   19.16    1.12
  -9  -9  -6   19.87    1.13
   9   9   7   11.62    0.85
  -9  -9  -7   11.45    0.85
   9   9   8  106.50    4.45
  -9  -9  -8  104.00    4.33
   9   9   9   -0.43    0.58
  -9  -9  -9    0.46    0.58
   9   9  10   13.02    0.90
  -9  -9 -10   11.91    0.92
   9   9  11    0.04    0.60
   9   9  12    1.20    0.59
 -10 -10  21    0.60    0.58
  10  10 -20    0.39    0.60
 -10 -10  20    2.24    0.67
  10  10 -19    5.97    0.75
 -10 -10  19    5.62    0.68
  10  10 -18   43.91    2.01
 -10 -10  18   45.15    2.08
  10  10 -17   -0.58    0.62
 -10 -10  17   -0.22    0.66
  10  10 -16   16.22    1.02
 -10 -10  16   17.33    1.06
  10  10 -15   27.38    1.40
 -10 -10  15   26.88    1.41
  10  10 -14    5.93    0.73
 -10 -10  14    5.58    0.74
  10  10 -13    3.52    0.65
 -10 -10  13    1.39    0.61
  10  10 -12   62.15    2.72
 -10 -10  12   64.30    2.79
  10  10 -11    3.16    0.58
 -10 -10  11    2.62    0.61
  10  10 -10   74.25    3.19
 -10 -10  10   74.91    3.23
  10  10  -9   13.87    0.93
 -10 -10   9   15.69    0.98
  10  10  -8   23.24    1.22
 -10 -10   8   21.05    1.15
  10  10  -7   20.99    1.19
 -10 -10   7   21.51    1.17
  10  10  -6    3.10    0.58
 -10 -10   6    2.98    0.57
  10  10  -5   53.38    2.39
 -10 -10   5  107.20    4.46
  10  10  -4    8.51    0.73
 -10 -10   4   10.04    0.76
  10  10  -3   20.25    1.12
 -10 -10   3   20.95    1.14
  10  10  -2  169.20    6.94
 -10 -10   2  174.30    7.15
  10  10  -1    0.39    0.59
 -10 -10   1   -0.52    0.50
  10  10   0   52.14    2.34
 -10 -10   0   50.16    2.24
  10  10   1   42.59    1.97
 -10 -10  -1   43.71    2.02
  10  10   2   24.67    1.29
 -10 -10  -2   30.93    1.54
  10  10   3   30.61    1.51
 -10 -10  -3   33.47    1.60
  10  10   4   38.86    1.82
 -10 -10  -4   38.39    1.80
  10  10   5   15.10    0.99
 -10 -10  -5   14.54    0.97
  10  10   6    6.23    0.70
 -10 -10  -6    6.27    0.63
  10  10   7   20.55    1.13
 -10 -10  -7   20.66    1.15
  10  10   8    0.61    0.54
 -10 -10  -8    1.20    0.63
  10  10   9    6.35    0.69
 -10 -10  -9    7.32    0.74
  10  10  10    9.08    0.83
 -10 -10 -10   11.20    0.79
  10  10  11   -0.11    0.60
  11  11 -20    0.13    0.57
 -11 -11  20   -0.74    0.67
  11  11 -19   16.07    1.00
 -11 -11  19   17.66    1.05
  11  11 -18    1.23    0.66
 -11 -11  18   -1.24    0.65
  11  11 -17   30.45    1.50
 -11 -11  17   31.61    1.55
  11  11 -16   -0.30    0.62
 -11 -11  16   -0.70    0.58
  11  11 -15    1.17    0.64
 -11 -11  15    0.13    0.62
  11  11 -14   21.97    1.17
 -11 -11  14   19.99    1.11
  11  11 -13   11.41    0.81
 -11 -11  13   11.40    0.82
  11  11 -12    5.64    0.67
 -11 -11  12    4.65    0.66
  11  11 -11   31.07    1.52
 -11 -11  11   31.04    1.49
  11  11 -10    2.85    0.57
 -11 -11  10    2.67    0.57
  11  11  -9   38.08    1.77
 -11 -11   9   36.34    1.72
  11  11  -8    4.32    0.65
 -11 -11   8    5.55    0.70
  11  11  -7    2.34    0.64
 -11 -11   7    1.24    0.55
  11  11  -6   36.09    1.73
 -11 -11   6   32.78    1.55
  11  11  -5   38.57    1.83
 -11 -11   5   80.52    3.40
  11  11  -4    2.00    0.62
 -11 -11   4    0.64    0.50
  11  11  -3   48.34    2.19
 -11 -11   3   48.31    2.18
  11  11  -2   21.06    1.15
 -11 -11   2   21.14    1.14
  11  11  -1   14.40    0.93
 -11 -11   1   14.62    0.89
  11  11   0   24.43    1.29
 -11 -11   0   26.79    1.34
  11  11   1    3.45    0.61
 -11 -11  -1    4.52    0.61
  11  11   2    9.33    0.80
 -11 -11  -2    9.19    0.74
  11  11   3   40.71    1.88
 -11 -11  -3   37.26    1.73
  11  11   4   10.11    0.79
 -11 -11  -4   11.10    0.85
  11  11   5   44.08    1.99
 -11 -11  -5   39.91    1.80
  11  11   6   -0.26    0.60
 -11 -11  -6    0.59    0.59
  11  11   7   -0.25    0.63
 -11 -11  -7    1.61    0.66
  11  11   8    5.04    0.73
 -11 -11  -8    6.04    0.70
  11  11   9    1.83    0.66
 -11 -11  -9    3.13    0.59
  11  11  10    0.66    0.59
 -11 -11 -10    0.64    0.68
 -12 -12  20    1.09    0.62
  12  12 -19   16.42    0.95
 -12 -12  19   16.94    1.00
  12  12 -18   16.30    1.01
 -12 -12  18   13.76    0.87
  12  12 -17    7.55    0.75
 -12 -12  17    6.02    0.65
  12  12 -16    1.58    0.57
 -12 -12  16    2.30    0.60
  12  12 -15   14.98    0.92
 -12 -12  15   17.92    0.97
  12  12 -14    3.04    0.62
 -12 -12  14    1.97    0.53
  12  12 -13    7.67    0.68
 -12 -12  13    7.71    0.67
  12  12 -12    3.91    0.59
 -12 -12  12    2.80    0.61
  12  12 -11    0.48    0.52
 -12 -12  11   -0.49    0.53
  12  12 -10   36.82    1.72
 -12 -12  10   32.58    1.59
  12  12  -9    2.11    0.52
 -12 -12   9    1.16    0.58
  12  12  -8    4.48    0.58
 -12 -12   8    4.32    0.62
  12  12  -7   84.00    3.56
 -12 -12   7   81.36    3.43
  12  12  -6   -0.48    0.56
 -12 -12   6    0.08    0.50
  12  12  -5    2.43    0.60
 -12 -12   5    3.61    0.59
  12  12  -4    0.69    0.54
 -12 -12   4    0.35    0.55
  12  12  -3    2.91    0.58
 -12 -12   3    3.19    0.60
  12  12  -2   10.42    0.77
 -12 -12   2   11.09    0.78
  12  12  -1   38.76    1.79
 -12 -12   1   37.82    1.79
  12  12   0    0.44    0.60
 -12 -12   0    0.05    0.50
  12  12   1   58.96    2.56
 -12 -12  -1   48.12    2.13
  12  12   2    0.11    0.56
 -12 -12  -2   -0.14    0.57
  12  12   3    5.46    0.67
 -12 -12  -3    6.25    0.63
  12  12   4    3.93    0.67
 -12 -12  -4    3.24    0.62
  12  12   5   12.85    0.87
 -12 -12  -5   13.59    0.85
  12  12   6    7.96    0.72
 -12 -12  -6    6.65    0.70
  12  12   7   16.08    0.96
 -12 -12  -7   16.92    0.96
  12  12   8    0.30    0.56
 -12 -12  -8   -0.44    0.56
 -13 -13  19    1.74    0.66
  13  13 -18   -0.11    0.60
 -13 -13  18   -0.32    0.60
  13  13 -17    6.10    0.73
 -13 -13  17    7.31    0.73
  13  13 -16    3.75    0.61
 -13 -13  16    3.33    0.57
  13  13 -15    0.63    0.55
 -13 -13  15   -0.26    0.59
  13  13 -14   24.90    1.32
 -13 -13  14   23.73    1.24
  13  13 -13    0.09    0.52
 -13 -13  13    0.30    0.57
  13  13 -12    9.29    0.76
 -13 -13  12    7.43    0.69
  13  13 -11    7.86    0.68
 -13 -13  11    8.23    0.66
  13  13 -10    0.11    0.54
 -13 -13  10   -0.58    0.48
  13  13  -9    4.51    0.60
 -13 -13   9    5.69    0.61
  13  13  -8   37.63    1.76
 -13 -13   8   36.24    1.66
  13  13  -7    7.47    0.69
 -13 -13   7    8.13    0.72
  13  13  -6    2.95    0.55
 -13 -13   6    1.94    0.55
  13  13  -5   11.02    0.79
 -13 -13   5   12.44    0.83
  13  13  -4    1.44    0.56
 -13 -13   4    1.79    0.55
  13  13  -3    3.64    0.60
 -13 -13   3    2.25    0.53
  13  13  -2    9.94    0.77
 -13 -13   2   10.90    0.83
  13  13  -1   -0.93    0.49
 -13 -13   1    0.93    0.49
  13  13   0   20.45    1.11
 -13 -13   0   20.93    1.13
  13  13   1    2.10    0.62
 -13 -13  -1    1.76    0.60
  13  13   2   11.72    0.87
 -13 -13  -2   12.28    0.85
  13  13   3    1.03    0.61
 -13 -13  -3    1.24    0.58
  13  13   4    9.68    0.79
 -13 -13  -4    8.78    0.71
  13  13   5   10.05    0.79
 -13 -13  -5   11.65    0.85
  13  13   6    2.61    0.61
 -13 -13  -6    4.77    0.65
  14  14 -17    0.84    0.61
 -14 -14  17    2.00    0.63
  14  14 -16    2.61    0.58
 -14 -14  16    5.24    0.66
  14  14 -15    3.39    0.62
 -14 -14  15    3.29    0.59
  14  14 -14    5.06    0.67
 -14 -14  14    4.65    0.61
  14  14 -13    3.61    0.59
 -14 -14  13    3.22    0.58
  14  14 -12   19.81    1.08
 -14 -14  12   22.53    1.14
  14  14 -11    0.00    0.54
 -14 -14  11   -0.25    0.49
  14  14 -10   17.93    1.01
 -14 -14  10   19.33    1.08
  14  14  -9    2.25    0.51
 -14 -14   9    1.77    0.60
  14  14  -8   -0.56    0.56
 -14 -14   8   -0.47    0.52
  14  14  -7    3.43    0.62
 -14 -14   7    5.15    0.59
  14  14  -6    6.32    0.71
 -14 -14   6    6.64    0.61
  14  14  -5    6.84    0.73
 -14 -14   5    5.66    0.63
  14  14  -4   49.17    2.19
 -14 -14   4   43.77    2.00
  14  14  -3   -0.01    0.59
 -14 -14   3    0.41    0.49
  14  14  -2    6.16    0.67
 -14 -14   2    6.41    0.63
  14  14  -1   -0.99    0.53
 -14 -14   1    0.59    0.55
  14  14   0    2.42    0.62
 -14 -14   0    3.35    0.63
  14  14   1    0.43    0.50
 -14 -14  -1    0.08    0.51
  14  14   2    6.61    0.68
 -14 -14  -2    7.10    0.69
  14  14   3   -0.39    0.62
 -14 -14  -3    0.14    0.59
  14  14   4    3.86    0.71
 -14 -14  -4    3.90    0.62
  15  15 -15    0.23    0.61
 -15 -15  15    1.02    0.51
  15  15 -14    3.54    0.62
 -15 -15  14    4.33    0.57
  15  15 -13    0.65    0.57
 -15 -15  13    0.34    0.54
  15  15 -12    0.71    0.52
 -15 -15  12    0.92    0.47
  15  15 -11   10.34    0.75
 -15 -15  11    9.87    0.71
  15  15 -10   -0.28    0.51
 -15 -15  10   -0.07    0.52
  15  15  -9    2.24    0.52
 -15 -15   9    0.84    0.51
  15  15  -8   20.51    1.09
 -15 -15   8   17.56    0.98
  15  15  -7    0.01    0.51
 -15 -15   7   -0.32    0.52
  15  15  -6    8.07    0.72
 -15 -15   6    8.41    0.68
  15  15  -5   28.32    1.36
 -15 -15   5   25.36    1.26
  15  15  -4    1.91    0.56
 -15 -15   4    1.42    0.50
  15  15  -3   11.18    0.79
 -15 -15   3   11.19    0.80
  15  15  -2    6.68    0.66
 -15 -15   2    6.26    0.68
  15  15  -1    0.56    0.57
 -15 -15   1    1.84    0.57
  15  15   0    6.68    0.66
 -15 -15   0    6.25    0.63
  15  15   1    4.32    0.65
 -15 -15  -1    3.74    0.58
  16  16 -12    0.22    0.50
 -16 -16  12   -0.20    0.51
  16  16 -11   -0.58    0.48
 -16 -16  11    0.22    0.51
  16  16 -10    0.33    0.51
 -16 -16  10   -0.16    0.50
  16  16  -9    8.00    0.70
 -16 -16   9    6.41    0.62
  16  16  -8    5.71    0.68
 -16 -16   8    6.19    0.59
  16  16  -7   12.55    0.84
 -16 -16   7   12.38    0.77
  16  16  -6    1.50    0.63
 -16 -16   6    2.03    0.58
  16  16  -5    0.29    0.51
 -16 -16   5    1.08    0.44
  16  16  -4    0.10    0.65
 -16 -16   4   -0.33    0.49
  16  16  -3    1.72    0.60
 -16 -16   3    6.81    0.62
 -17 -15   3    0.87    0.53
  17  15  -3    0.57    0.66
 -17 -15   4    4.73    0.56
  17  15  -4    5.31    0.66
 -17 -15   5   11.25    0.74
  17  15  -5   11.47    0.85
 -17 -15   6    1.62    0.47
  17  15  -6    2.11    0.63
 -17 -15   7   -0.39    0.53
  17  15  -7    1.04    0.52
 -17 -15   8   24.18    1.18
  17  15  -8   23.17    1.17
 -17 -15   9    0.82    0.48
  17  15  -9    1.12    0.58
 -17 -15  10    1.62    0.52
  17  15 -10    1.72    0.56
 -17 -15  11   16.39    0.96
  17  15 -11   16.04    0.94
 -17 -15  12    1.62    0.52
  17  15 -12    0.63    0.55
 -17 -15  13    2.64    0.52
  17  15 -13    4.00    0.57
 -16 -14  -1   -0.50    0.52
  16  14   1    0.69    0.70
 -16 -14   0    1.74    0.60
  16  14   0    2.17    0.63
 -16 -14   1    0.43    0.52
  16  14  -1    0.05    0.54
 -16 -14   2    4.39    0.56
  16  14  -2    4.42    0.61
 -16 -14   3   -0.46    0.50
  16  14  -3   -0.05    0.54
 -16 -14   4   22.11    1.11
  16  14  -4   19.67    1.08
 -16 -14   5    1.88    0.50
  16  14  -5    1.62    0.56
 -16 -14   6   17.52    0.97
  16  14  -6   17.34    1.01
 -16 -14   7    1.50    0.51
  16  14  -7    1.70    0.57
 -16 -14   8    0.09    0.47
  16  14  -8    0.54    0.53
 -16 -14   9    1.63    0.49
  16  14  -9    1.28    0.53
 -16 -14  10   19.82    1.07
  16  14 -10   16.85    0.97
 -16 -14  11    0.55    0.53
  16  14 -11    1.67    0.53
 -16 -14  12   10.31    0.77
  16  14 -12   10.74    0.79
 -16 -14  13   -0.26    0.46
  16  14 -13   -0.38    0.57
 -16 -14  14    0.33    0.53
  16  14 -14    0.26    0.52
 -16 -14  15    1.32    0.58
  16  14 -15    1.26    0.52
 -16 -14  16    2.38    0.60
  16  14 -16    2.07    0.60
 -15 -13  -3    7.95    0.61
  15  13   3    6.52    0.69
 -15 -13  -2    1.74    0.57
  15  13   2    1.58    0.62
 -15 -13  -1    1.25    0.62
  15  13   1    1.52    0.57
 -15 -13   0   14.26    0.92
  15  13   0   13.25    0.85
 -15 -13   1    0.47    0.55
  15  13  -1    0.42    0.50
 -15 -13   2   18.84    1.04
  15  13  -2   18.81    1.08
 -15 -13   3    1.02    0.57
  15  13  -3    1.20    0.58
 -15 -13   4    0.84    0.51
  15  13  -4    2.09    0.59
 -15 -13   5    1.28    0.50
  15  13  -5    0.62    0.55
 -15 -13   6   20.21    1.12
  15  13  -6   19.02    1.09
 -15 -13   7    6.51    0.65
  15  13  -7    7.32    0.72
 -15 -13   8    6.63    0.62
  15  13  -8    7.13    0.71
 -15 -13   9    9.26    0.69
  15  13  -9    9.06    0.75
 -15 -13  10    9.99    0.75
  15  13 -10    8.45    0.69
 -15 -13  11    7.12    0.66
  15  13 -11    7.35    0.71
 -15 -13  12    2.79    0.61
  15  13 -12    3.06    0.54
 -15 -13  13    0.36    0.58
  15  13 -13   -0.14    0.52
 -15 -13  14   14.70    0.89
  15  13 -14   15.75    0.94
 -15 -13  15   -0.12    0.49
  15  13 -15    1.09    0.56
 -15 -13  16   10.21    0.78
  15  13 -16   10.13    0.77
 -15 -13  17    5.26    0.64
  15  13 -17    5.70    0.64
 -15 -13  18    0.96    0.56
  15  13 -18    2.47    0.64
 -14 -12  -6    0.13    0.48
  14  12   6    0.08    0.60
 -14 -12  -5    9.30    0.69
  14  12   5   10.35    0.78
 -14 -12  -4   -0.31    0.54
  14  12   4    0.64    0.57
 -14 -12  -3    0.12    0.63
  14  12   3   -0.13    0.57
 -14 -12  -2    5.74    0.64
  14  12   2    4.56    0.65
 -14 -12  -1   31.48    1.48
  14  12   1   33.77    1.63
 -14 -12   0    0.94    0.59
  14  12   0   -0.28    0.59
 -14 -12   1   47.31    2.12
  14  12  -1   48.12    2.16
 -14 -12   2    5.94    0.65
  14  12  -2    5.04    0.62
 -14 -12   3    1.03    0.48
  14  12  -3   -0.57    0.59
 -14 -12   4    7.80    0.70
  14  12  -4   10.81    0.81
 -14 -12   5    3.65    0.58
  14  12  -5    2.14    0.59
 -14 -12   6    0.96    0.46
  14  12  -6    0.65    0.54
 -14 -12   7   33.76    1.57
  14  12  -7   36.31    1.69
 -14 -12   8   -0.79    0.54
  14  12  -8    0.44    0.55
 -14 -12   9   35.17    1.66
  14  12  -9   36.07    1.71
 -14 -12  10    8.61    0.71
  14  12 -10    8.11    0.72
 -14 -12  11    0.77    0.48
  14  12 -11   -0.40    0.52
 -14 -12  12   19.67    1.04
  14  12 -12   21.29    1.18
 -14 -12  13   12.06    0.77
  14  12 -13   11.48    0.83
 -14 -12  14    1.66    0.51
  14  12 -14    0.29    0.51
 -14 -12  15   30.21    1.45
  14  12 -15   30.39    1.48
 -14 -12  16    0.38    0.55
  14  12 -16   -0.47    0.58
 -14 -12  17    3.52    0.63
  14  12 -17    3.36    0.61
 -14 -12  18    0.83    0.60
  14  12 -18    0.77    0.62
 -14 -12  19    7.02    0.69
  14  12 -19    7.19    0.71
 -13 -11  -7    1.38    0.60
  13  11   7   -0.06    0.61
 -13 -11  -6    7.96    0.77
  13  11   6    7.23    0.75
 -13 -11  -5    6.55    0.70
  13  11   5    8.13    0.73
 -13 -11  -4    0.54    0.59
  13  11   4    0.91    0.55
 -13 -11  -3   16.85    0.97
  13  11   3   17.27    1.00
 -13 -11  -2    9.09    0.75
  13  11   2   10.62    0.82
 -13 -11  -1    2.88    0.56
  13  11   1    3.36    0.64
 -13 -11   0   19.56    1.10
  13  11   0   23.32    1.24
 -13 -11   1    3.13    0.56
  13  11  -1    4.12    0.65
 -13 -11   2    0.72    0.51
  13  11  -2    1.68    0.59
 -13 -11   3   65.44    2.84
  13  11  -3   62.29    2.72
 -13 -11   4    1.10    0.51
  13  11  -4    1.81    0.61
 -13 -11   5   23.60    1.20
  13  11  -5   23.04    1.23
 -13 -11   6    1.15    0.52
  13  11  -6    0.24    0.53
 -13 -11   7    0.97    0.53
  13  11  -7   -0.49    0.57
 -13 -11   8   13.54    0.88
  13  11  -8   12.13    0.86
 -13 -11   9    7.86    0.71
  13  11  -9    9.61    0.74
 -13 -11  10    1.90    0.54
  13  11 -10    2.86    0.54
 -13 -11  11   38.63    1.77
  13  11 -11   34.70    1.62
 -13 -11  12    2.97    0.57
  13  11 -12    1.80    0.53
 -13 -11  13   47.23    2.13
  13  11 -13   50.22    2.23
 -13 -11  14    8.91    0.79
  13  11 -14    8.07    0.76
 -13 -11  15    0.89    0.59
  13  11 -15    0.30    0.58
 -13 -11  16    0.54    0.58
  13  11 -16   -0.39    0.61
 -13 -11  17   10.33    0.83
  13  11 -17   12.42    0.89
 -13 -11  18   -1.11    0.52
  13  11 -18    0.77    0.61
 -13 -11  19   33.63    1.58
  13  11 -19   32.55    1.56
 -13 -11  20    1.11    0.63
  13  11 -20    0.85    0.58
 -12 -10  -9    1.80    0.60
  12  10   9    2.54    0.65
 -12 -10  -8    0.16    0.62
  12  10   8    0.87    0.59
 -12 -10  -7    5.64    0.69
  12  10   7    6.18    0.65
 -12 -10  -6   12.65    0.89
  12  10   6   12.76    0.85
 -12 -10  -5   15.90    0.95
  12  10   5   16.46    1.01
 -12 -10  -4   39.03    1.79
  12  10   4   41.44    1.93
 -12 -10  -3   14.95    0.93
  12  10   3   12.35    0.86
 -12 -10  -2    9.81    0.82
  12  10   2   10.50    0.81
 -12 -10  -1   29.18    1.44
  12  10   1   29.84    1.49
 -12 -10   0    0.42    0.52
  12  10   0    0.35    0.53
 -12 -10   1    6.54    0.66
  12  10  -1    5.87    0.70
 -12 -10   2  100.50    4.22
  12  10  -2   98.09    4.13
 -12 -10   3   51.30    2.27
  12  10  -3   54.88    2.45
 -12 -10   4   30.47    1.47
  12  10  -4   29.32    1.47
 -12 -10   5    8.19    0.68
  12  10  -5    3.37    0.64
 -12 -10   6   15.41    0.93
  12  10  -6    5.27    0.69
 -12 -10   7    3.59    0.60
  12  10  -7    4.05    0.68
 -12 -10   8    3.27    0.57
  12  10  -8    2.62    0.55
 -12 -10   9    1.57    0.54
  12  10  -9    2.08    0.53
 -12 -10  10   37.25    1.72
  12  10 -10   29.40    1.45
 -12 -10  11    0.89    0.56
  12  10 -11    1.25    0.58
 -12 -10  12   80.19    3.42
  12  10 -12   81.55    3.46
 -12 -10  13    7.63    0.79
  12  10 -13    6.86    0.67
 -12 -10  14    1.03    0.54
  12  10 -14    1.04    0.52
 -12 -10  15   11.86    0.78
  12  10 -15   11.16    0.82
 -12 -10  16   11.68    0.85
  12  10 -16    7.91    0.72
 -12 -10  17    1.53    0.60
  12  10 -17    2.25    0.63
 -12 -10  18   13.34    0.94
  12  10 -18   13.83    0.94
 -12 -10  19    1.45    0.63
  12  10 -19    1.30    0.61
 -12 -10  20    4.27    0.66
  12  10 -20    3.19    0.64
 -12 -10  21    3.35    0.68
  12  10 -21    4.10    0.60
  11   9  11    1.51    0.63
  11   9  10    4.69    0.66
 -11  -9  -9    0.56    0.67
  11   9   9    2.18    0.62
 -11  -9  -8   43.29    1.96
  11   9   8   41.13    1.88
 -11  -9  -7    0.42    0.57
  11   9   7    1.00    0.60
 -11  -9  -6   31.51    1.52
  11   9   6   27.29    1.38
 -11  -9  -5    1.65    0.59
  11   9   5    0.52    0.64
 -11  -9  -4    1.76    0.56
  11   9   4    0.95    0.58
 -11  -9  -3    5.10    0.64
  11   9   3    3.47    0.65
 -11  -9  -2  103.50    4.33
  11   9   2  105.40    4.42
 -11  -9  -1    1.36    0.50
  11   9   1    0.64    0.56
 -11  -9   0  132.90    5.51
  11   9   0  135.30    5.63
 -11  -9   1    0.11    0.53
  11   9  -1    0.65    0.63
 -11  -9   2   22.47    1.19
  11   9  -2   22.83    1.26
 -11  -9   3   41.68    1.89
  11   9  -3   38.79    1.84
 -11  -9   4   23.77    1.22
  11   9  -4   24.82    1.32
 -11  -9   5   30.66    1.49
  11   9  -5   24.09    1.29
 -11  -9   6  137.40    5.67
  11   9  -6   58.76    2.59
 -11  -9   7    6.45    0.67
  11   9  -7    5.63    0.69
 -11  -9   8   37.98    1.75
  11   9  -8   40.77    1.89
 -11  -9   9    3.99    0.53
  11   9  -9    4.09    0.62
 -11  -9  10   26.25    1.34
  11   9 -10   25.85    1.31
 -11  -9  11   19.21    1.12
  11   9 -11   16.45    1.00
 -11  -9  12   40.45    1.90
  11   9 -12   45.97    2.07
 -11  -9  13    0.82    0.66
  11   9 -13    1.04    0.64
 -11  -9  14   46.17    2.08
  11   9 -14   44.95    2.04
 -11  -9  15    0.55    0.61
  11   9 -15   -1.15    0.59
 -11  -9  16   18.33    1.06
  11   9 -16   19.06    1.09
 -11  -9  17    2.50    0.70
  11   9 -17    1.62    0.59
 -11  -9  18    0.06    0.62
  11   9 -18    0.80    0.65
 -11  -9  19    1.67    0.63
  11   9 -19    3.06    0.59
 -11  -9  20   23.10    1.18
  11   9 -20   19.73    1.09
 -11  -9  21    1.34    0.62
  11   9 -21    0.41    0.53
  10   8  12    1.92    0.60
  10   8  11    0.63    0.58
  10   8  10   17.12    1.01
 -10  -8  -9    4.12    0.71
  10   8   9    4.66    0.67
 -10  -8  -8   -0.75    0.52
  10   8   8    0.39    0.61
 -10  -8  -7   17.81    1.07
  10   8   7   18.22    1.06
 -10  -8  -6   47.71    2.13
  10   8   6   47.60    2.16
 -10  -8  -5   19.61    1.15
  10   8   5   18.22    1.08
 -10  -8  -4    2.76    0.67
  10   8   4    2.95    0.68
 -10  -8  -3   25.49    1.33
  10   8   3   25.16    1.35
 -10  -8  -2   13.88    0.92
  10   8   2   14.49    0.94
 -10  -8  -1   62.47    2.73
  10   8   1   63.67    2.78
 -10  -8   0    1.48    0.60
  10   8   0    3.13    0.59
 -10  -8   1   21.96    1.17
  10   8  -1   21.01    1.16
 -10  -8   2   17.44    0.99
  10   8  -2   15.05    1.01
 -10  -8   3    0.99    0.53
  10   8  -3    0.35    0.56
 -10  -8   4   44.01    1.99
  10   8  -4   45.26    2.05
 -10  -8   5   45.61    2.06
  10   8  -5   32.84    1.58
 -10  -8   6    7.58    0.71
  10   8  -6    8.09    0.74
 -10  -8   7   67.04    2.89
  10   8  -7   71.09    3.06
 -10  -8   8   27.93    1.35
  10   8  -8   31.05    1.52
 -10  -8   9   34.93    1.63
  10   8  -9   42.15    1.92
 -10  -8  10   33.45    1.61
  10   8 -10   31.57    1.52
 -10  -8  11    3.42    0.68
  10   8 -11    4.18    0.65
 -10  -8  12    6.22    0.76
  10   8 -12    4.56    0.67
 -10  -8  13   22.99    1.29
  10   8 -13   23.74    1.25
 -10  -8  14   12.57    0.88
  10   8 -14   10.10    0.83
 -10  -8  15   33.80    1.62
  10   8 -15   32.97    1.61
 -10  -8  16   41.85    1.92
  10   8 -16   40.94    1.89
 -10  -8  17    5.66    0.75
  10   8 -17    4.53    0.69
 -10  -8  18    2.82    0.69
  10   8 -18    6.76    0.67
 -10  -8  19    2.46    0.55
  10   8 -19    1.92    0.62
 -10  -8  20    2.73    0.69
  10   8 -20    2.57    0.59
 -10  -8  21    6.86    0.83
 -10  -8  22    0.84    0.66
   9   7  13    6.14    0.66
   9   7  12    2.44    0.63
   9   7  11   39.98    1.83
   9   7  10   -0.16    0.55
  -9  -7  -9    9.92    0.80
   9   7   9   10.19    0.83
  -9  -7  -8   23.35    1.27
   9   7   8   22.66    1.22
  -9  -7  -7   10.00    0.77
   9   7   7    8.28    0.76
  -9  -7  -6   -0.13    0.64
   9   7   6    0.90    0.63
  -9  -7  -5   15.68    1.02
   9   7   5   14.87    0.94
  -9  -7  -4   23.50    1.28
   9   7   4   25.46    1.31
  -9  -7  -3   55.39    2.43
   9   7   3   56.49    2.49
  -9  -7  -2    1.04    0.58
   9   7   2    1.06    0.53
  -9  -7  -1    1.39    0.52
   9   7   1    2.70    0.55
  -9  -7   0    0.93    0.51
   9   7   0    1.24    0.56
  -9  -7   1   24.73    1.26
   9   7  -1   21.91    1.18
  -9  -7   2    1.43    0.50
   9   7  -2    1.30    0.52
  -9  -7   3  216.10    8.79
   9   7  -3  207.60    8.46
  -9  -7   4   27.85    1.39
   9   7  -4   30.12    1.46
  -9  -7   5   36.42    1.71
   9   7  -5   32.34    1.56
  -9  -7   6    0.31    0.47
   9   7  -6    0.14    0.60
  -9  -7   7    0.98    0.48
   9   7  -7    0.06    0.55
  -9  -7   8    6.48    0.64
   9   7  -8    5.98    0.65
  -9  -7   9  225.90    9.17
   9   7  -9  252.00   10.23
  -9  -7  10    3.50    0.58
   9   7 -10    3.19    0.57
  -9  -7  11   97.26    4.11
   9   7 -11   89.88    3.79
  -9  -7  12    1.51    0.61
   9   7 -12    1.16    0.57
  -9  -7  13   -0.08    0.56
   9   7 -13    0.43    0.54
  -9  -7  14    6.16    0.79
   9   7 -14   19.03    1.12
  -9  -7  15   27.05    1.40
   9   7 -15   25.39    1.32
  -9  -7  16    0.33    0.56
   9   7 -16    0.59    0.61
  -9  -7  17   19.96    1.20
   9   7 -17   21.41    1.16
  -9  -7  18    1.13    0.56
   9   7 -18    0.11    0.55
  -9  -7  19   26.16    1.31
   9   7 -19   28.54    1.46
  -9  -7  20    0.78    0.64
  -9  -7  21    2.89    0.58
  -9  -7  22    0.37    0.55
   8   6  14    4.45    0.66
   8   6  13   -0.58    0.65
   8   6  12    2.57    0.61
   8   6  11   11.54    0.90
   8   6  10    3.90    0.71
  -8  -6  -9   89.72    3.80
   8   6   9   87.30    3.70
  -8  -6  -8    1.22    0.68
   8   6   8    0.72    0.65
  -8  -6  -7   42.36    1.94
   8   6   7   42.50    1.99
  -8  -6  -6    6.63    0.70
   8   6   6    5.97    0.70
  -8  -6  -5   79.74    3.40
   8   6   5   77.10    3.31
  -8  -6  -4   57.73    2.52
   8   6   4   59.65    2.62
  -8  -6  -3  102.80    4.29
   8   6   3   98.03    4.12
  -8  -6  -2    1.43    0.57
   8   6   2    1.60    0.52
  -8  -6  -1   72.98    3.15
   8   6   1   63.47    2.76
  -8  -6   0    5.03    0.61
   8   6   0    4.91    0.64
  -8  -6   1  143.80    5.90
   8   6  -1  142.00    5.85
  -8  -6   2   87.54    3.67
   8   6  -2   85.98    3.63
  -8  -6   3   76.68    3.25
   8   6  -3   75.16    3.20
  -8  -6   4   72.47    3.10
   8   6  -4   70.73    3.02
  -8  -6   5   67.87    2.92
   8   6  -5   69.38    2.98
  -8  -6   6   24.52    1.26
   8   6  -6   25.32    1.28
  -8  -6   7  260.30   10.53
   8   6  -7  277.00   11.21
  -8  -6   8  151.00    6.17
   8   6  -8  138.10    5.69
  -8  -6   9    4.10    0.57
   8   6  -9    4.77    0.64
  -8  -6  10   49.56    2.21
   8   6 -10   64.89    2.79
  -8  -6  11   30.55    1.52
   8   6 -11   24.69    1.25
  -8  -6  12   91.62    3.92
   8   6 -12   79.93    3.40
  -8  -6  13  157.90    6.48
   8   6 -13  176.60    7.23
  -8  -6  14   22.04    1.13
   8   6 -14   21.81    1.21
  -8  -6  15   -0.17    0.63
   8   6 -15    0.47    0.63
  -8  -6  16   51.63    2.33
   8   6 -16   49.11    2.21
  -8  -6  17    0.67    0.69
   8   6 -17    1.55    0.55
  -8  -6  18   39.53    1.82
  -8  -6  19    3.61    0.65
  -8  -6  20    0.31    0.66
  -8  -6  21   11.79    0.88
  -8  -6  22    0.90    0.66
   7   5  15    1.17    0.60
   7   5  14    6.82    0.71
   7   5  13    1.58    0.59
   7   5  12    6.48    0.71
   7   5  11   -0.13    0.60
   7   5  10   66.37    2.88
   7   5   9    3.25    0.65
  -7  -5  -8   74.94    3.21
   7   5   8   76.03    3.27
  -7  -5  -7   10.11    0.79
   7   5   7   10.81    0.85
  -7  -5  -6    0.80    0.56
   7   5   6    1.21    0.52
  -7  -5  -5    2.71    0.56
   7   5   5    2.16    0.54
  -7  -5  -4   83.55    3.53
   7   5   4   82.46    3.51
  -7  -5  -3    7.78    0.67
   7   5   3    7.81    0.69
  -7  -5  -2    1.52    0.54
   7   5   2    1.40    0.52
  -7  -5  -1    4.02    0.59
   7   5   1    3.50    0.54
  -7  -5   0  392.20   15.81
   7   5   0  420.30   16.92
  -7  -5   1   27.89    1.36
   7   5  -1   25.80    1.28
  -7  -5   2   28.82    1.37
   7   5  -2   30.06    1.45
  -7  -5   3   18.66    0.99
   7   5  -3   16.65    0.97
  -7  -5   4   49.84    2.17
   7   5  -4   52.00    2.29
  -7  -5   5    4.44    0.57
   7   5  -5    2.41    0.56
  -7  -5   7   24.51    1.23
   7   5  -7   23.67    1.20
  -7  -5   8   40.53    1.83
   7   5  -8   36.84    1.72
  -7  -5   9    4.43    0.62
   7   5  -9    1.46    0.50
  -7  -5  10   16.39    0.93
   7   5 -10   15.91    0.94
  -7  -5  11    1.02    0.50
   7   5 -11    0.22    0.53
  -7  -5  12  103.40    4.33
   7   5 -12   98.11    4.09
  -7  -5  13    2.05    0.56
   7   5 -13    1.85    0.60
  -7  -5  14  180.20    7.37
   7   5 -14  168.40    6.90
  -7  -5  15    8.73    0.77
   7   5 -15    7.11    0.72
  -7  -5  16    7.45    0.80
   7   5 -16    7.21    0.72
  -7  -5  17    0.35    0.64
  -7  -5  18    9.98    0.77
  -7  -5  19    0.86    0.62
  -7  -5  20   11.38    0.83
  -7  -5  21    1.26    0.61
  -7  -5  22    2.97    0.69
   6   4  16    1.00    0.53
   6   4  16    0.51    0.61
   6   4  15   -0.41    0.57
   6   4  15   -0.54    0.56
   6   4  14   35.84    1.70
   6   4  13    6.83    0.70
   6   4  12   47.55    2.15
   6   4  11   25.77    1.35
   6   4  10   28.98    1.46
   6   4   9   27.11    1.40
  -6  -4  -8    4.73    0.66
   6   4   8    4.35    0.70
  -6  -4  -7   19.66    1.14
   6   4   7   15.81    0.98
  -6  -4  -6   89.28    3.76
   6   4   6   90.95    3.83
  -6  -4  -5   26.79    1.34
   6   4   5   25.32    1.30
  -6  -4  -4    3.44    0.58
   6   4   4    4.96    0.59
  -6  -4  -3  176.70    7.21
   6   4   3  162.10    6.64
  -6  -4  -2   44.06    1.99
   6   4   2   46.54    2.08
  -6  -4  -1   21.85    1.16
   6   4   1   20.03    1.07
  -6  -4   0  168.60    6.89
   6   4   0  160.80    6.57
  -6  -4   1   -0.54    0.52
   6   4  -1    0.11    0.50
  -6  -4   2   26.86    1.30
   6   4  -2   26.70    1.30
  -6  -4   3  198.90    8.06
   6   4  -3  209.20    8.48
  -6  -4   4   76.53    3.22
   6   4  -4   51.44    2.24
  -6  -4   5    5.12    0.60
   6   4  -5    5.31    0.61
  -6  -4   6   34.61    1.60
   6   4  -6   33.94    1.56
  -6  -4   7    1.80    0.50
   6   4  -7    1.60    0.48
  -6  -4   8  461.10   18.52
   6   4  -8  444.80   17.88
  -6  -4   9   34.60    1.61
   6   4  -9   38.38    1.76
  -6  -4  10  121.50    5.04
   6   4 -10   95.74    4.00
  -6  -4  11   39.58    1.81
   6   4 -11   39.56    1.81
  -6  -4  12    2.26    0.55
   6   4 -12    2.50    0.58
  -6  -4  13   68.15    2.90
   6   4 -13   70.47    3.02
  -6  -4  14  100.20    4.18
   6   4 -14  107.60    4.49
  -6  -4  15   23.69    1.25
  -6  -4  16  128.10    5.35
  -6  -4  17    9.86    0.88
  -6  -4  18    7.76    0.76
  -6  -4  19   -0.68    0.53
  -6  -4  20    0.54    0.64
  -6  -4  21    3.70    0.75
  -6  -4  21    3.01    0.60
  -6  -4  22   10.63    0.85
  -6  -4  22   10.99    0.88
   5   3  17   -0.94    0.60
   5   3  17    0.28    0.56
   5   3  16    3.14    0.68
   5   3  16    5.17    0.63
   5   3  15    9.51    0.83
   5   3  15    8.25    0.73
   5   3  14    2.92    0.56
   5   3  14    3.36    0.68
   5   3  13  108.20    4.53
   5   3  12   27.49    1.43
   5   3  11   60.04    2.64
   5   3  10    1.54    0.60
   5   3   9   21.12    1.22
   5   3   8    4.07    0.64
  -5  -3  -7  107.60    4.49
   5   3   7  109.80    4.58
  -5  -3  -6    5.94    0.69
   5   3   6    5.51    0.66
  -5  -3  -5   99.80    4.16
   5   3   5  102.50    4.27
  -5  -3  -4    5.30    0.61
   5   3   4    4.63    0.63
  -5  -3  -3   81.78    3.43
   5   3   3   81.48    3.44
  -5  -3  -2   33.57    1.57
   5   3   2   33.20    1.55
  -5  -3  -1  128.90    5.31
   5   3   1  127.10    5.23
  -5  -3   0   58.52    2.52
   5   3   0   59.67    2.56
  -5  -3   1   12.07    0.78
   5   3  -1    9.68    0.73
  -5  -3   2   46.68    2.05
   5   3  -2   45.40    2.01
  -5  -3   3  136.20    5.56
   5   3  -3  138.60    5.67
  -5  -3   4  231.50    9.35
   5   3  -4  246.70    9.97
  -5  -3   5   31.11    1.44
   5   3  -5   29.91    1.39
  -5  -3   6   21.29    1.14
   5   3  -6   19.35    0.99
  -5  -3   7  201.40    8.18
   5   3  -7  209.30    8.49
  -5  -3   8    0.05    0.45
   5   3  -8   -0.22    0.50
  -5  -3   9  135.80    5.56
   5   3  -9  142.70    5.85
  -5  -3  10   43.78    1.96
   5   3 -10   44.13    1.98
  -5  -3  11    6.65    0.65
   5   3 -11    7.15    0.67
  -5  -3  12   80.23    3.39
   5   3 -12   82.80    3.49
  -5  -3  13   51.73    2.26
  -5  -3  14   62.58    2.70
  -5  -3  15   49.71    2.23
  -5  -3  16   12.51    0.93
  -5  -3  17    2.48    0.75
  -5  -3  18   41.37    1.91
  -5  -3  19    0.95    0.69
  -5  -3  19   -0.15    0.60
  -5  -3  20    6.54    0.68
  -5  -3  20    8.17    0.87
  -5  -3  21   11.79    0.82
  -5  -3  21    9.07    0.81
  -5  -3  22   -0.83    0.55
  -5  -3  22    0.47    0.68
   4   2  18    0.12    0.65
   4   2  18    0.30    0.52
   4   2  17   13.91    0.95
   4   2  17   12.08    0.84
   4   2  16   -1.16    0.60
   4   2  16   -0.37    0.58
   4   2  15   36.16    1.71
   4   2  15   37.73    1.71
   4   2  14    0.66    0.64
   4   2  14    0.80    0.57
   4   2  13    0.99    0.65
   4   2  13    1.06    0.61
   4   2  12    8.83    0.80
   4   2  11   93.66    3.96
   4   2  10   -0.22    0.58
   4   2   9  126.80    5.26
   4   2   8   56.17    2.46
   4   2   7   63.78    2.75
  -4  -2  -6   25.53    1.31
   4   2   6   22.77    1.20
  -4  -2  -5   22.77    1.20
   4   2   5   22.53    1.17
  -4  -2  -4    4.41    0.61
   4   2   4    5.87    0.61
  -4  -2  -3  333.80   13.46
   4   2   3  342.90   13.83
  -4  -2  -2   52.75    2.28
   4   2   2   52.28    2.29
  -4  -2  -1   47.79    2.11
   4   2   1   51.39    2.25
  -4  -2   0  203.00    8.23
   4   2   0  206.00    8.35
  -4  -2   1  272.10   10.97
   4   2  -1  283.60   11.43
  -4  -2   2  287.10   11.56
   4   2  -2  369.80   14.86
  -4  -2   4   45.35    1.98
   4   2  -4   64.64    2.73
  -4  -2   5   34.25    1.57
   4   2  -5   33.39    1.51
  -4  -2   6   20.58    1.04
   4   2  -6   22.81    1.12
  -4  -2   7   16.93    0.91
   4   2  -7   17.16    0.93
  -4  -2   8    3.55    0.54
   4   2  -8    2.49    0.49
  -4  -2   9  103.60    4.29
   4   2  -9   94.20    3.92
  -4  -2  10    4.18    0.56
   4   2 -10    3.39    0.54
  -4  -2  11  179.60    7.33
  -4  -2  12    6.69    0.64
  -4  -2  13   65.54    2.81
  -4  -2  14    5.78    0.65
  -4  -2  15   27.90    1.40
  -4  -2  16    3.19    0.76
  -4  -2  17   13.42    0.95
  -4  -2  17   13.44    0.92
  -4  -2  18    3.92    0.60
  -4  -2  18    4.22    0.73
  -4  -2  19   52.91    2.36
  -4  -2  19   50.58    2.24
  -4  -2  20    0.18    0.67
  -4  -2  20   -0.75    0.66
  -4  -2  21   10.23    0.82
  -4  -2  21   10.04    0.76
  -4  -2  22    2.44    0.71
  -4  -2  22    1.38    0.68
   3   1  19    3.08    0.73
   3   1  19    2.09    0.59
   3   1  18   10.76    0.84
   3   1  18   10.40    0.78
   3   1  17    1.05    0.61
   3   1  17    0.67    0.52
   3   1  16   24.76    1.33
   3   1  16   25.64    1.27
   3   1  15   42.37    1.95
   3   1  15   38.86    1.79
   3   1  14    0.83    0.59
   3   1  14    1.50    0.62
   3   1  13    7.30    0.73
   3   1  13    9.65    0.84
   3   1  12   12.33    0.87
   3   1  12   11.15    0.89
   3   1  11    4.82    0.68
   3   1  10   71.96    3.10
   3   1   9    2.56    0.56
   3   1   8   25.52    1.29
   3   1   7   73.95    3.16
   3   1   6    0.08    0.48
   3   1   5  401.10   16.15
  -3  -1  -4  342.90   13.81
   3   1   4  360.00   14.50
  -3  -1  -3  105.80    4.38
   3   1   3  102.70    4.26
  -3  -1  -2   84.44    3.53
   3   1   2   84.96    3.55
  -3  -1  -1  479.40   19.22
   3   1   1  515.20   20.66
  -3  -1   0    2.72    0.43
   3   1   0    2.71    0.47
   3   1  -1  416.60   16.68
  -3  -1   4    4.30    0.49
   3   1  -4    4.55    0.49
  -3  -1   5   71.90    3.00
   3   1  -5   75.89    3.16
  -3  -1   6   29.31    1.37
   3   1  -6   27.15    1.28
  -3  -1   7   21.27    1.05
   3   1  -7   20.92    1.05
  -3  -1   8   12.92    0.78
   3   1  -8   14.75    0.85
  -3  -1   9   34.67    1.59
  -3  -1  10  225.80    9.16
  -3  -1  11    6.56    0.65
  -3  -1  12    3.57    0.55
  -3  -1  13    0.32    0.49
  -3  -1  14   26.73    1.37
  -3  -1  15   27.91    1.42
  -3  -1  15   32.16    1.56
  -3  -1  16   16.91    1.07
  -3  -1  16   16.28    1.03
  -3  -1  17   52.91    2.34
  -3  -1  17   53.76    2.40
  -3  -1  18   19.94    1.11
  -3  -1  18   20.88    1.16
  -3  -1  19    2.57    0.68
  -3  -1  19    1.76    0.64
  -3  -1  20   21.63    1.22
  -3  -1  20   23.43    1.24
  -3  -1  21    6.40    0.73
  -3  -1  21    6.75    0.78
  -3  -1  22   -0.01    0.79
   2   0  19    0.02    0.62
   2   0  19    0.15    0.51
   2   0  18    0.17    0.64
   2   0  18    0.24    0.51
   2   0  17   -0.65    0.60
   2   0  17   -0.11    0.50
   2   0  16   53.72    2.39
   2   0  16   55.24    2.40
   2   0  15   -0.49    0.59
   2   0  15    0.23    0.56
   2   0  14   20.30    1.18
   2   0  14   21.65    1.20
   2   0  13   -0.32    0.57
   2   0  13    0.79    0.66
   2   0  12   36.23    1.74
   2   0  12   33.81    1.67
   2   0  11    1.06    0.62
   2   0  11    0.77    0.58
   2   0  10   43.53    2.00
   2   0  10   42.96    1.94
   2   0   9    0.51    0.45
   2   0   9   -0.14    0.55
   2   0   8   52.48    2.35
   2   0   7   -0.40    0.54
   2   0   6 1012.00   40.50
   2   0   5    0.00    0.52
   2   0   4   56.91    2.47
   2   0   3    1.32    0.64
  -2   0  -2  160.00    6.48
   2   0   2  165.50    6.71
  -2   0  -1   -0.01    0.40
   2   0   1   -0.15    0.37
  -2   0   1    0.20    0.22
   2   0  -1    0.18    0.21
  -2   0   2   80.37    3.25
   2   0  -2  189.80    7.61
  -2   0   3    0.24    0.32
   2   0  -3    0.73    0.32
  -2   0   4   18.07    0.89
   2   0  -4   15.48    0.81
  -2   0   5    1.02    0.45
   2   0  -5    0.79    0.47
  -2   0   6   42.45    1.87
  -2   0   7    0.00    0.44
  -2   0   8  379.90   15.27
  -2   0   9   -0.58    0.47
  -2   0  10    5.47    0.63
  -2   0  11   -0.11    0.49
  -2   0  12   13.24    0.83
  -2   0  12   12.29    0.88
  -2   0  13   -0.30    0.50
  -2   0  13   -1.39    0.56
  -2   0  14  136.30    5.64
  -2   0  14  129.90    5.39
  -2   0  15   -0.16    0.60
  -2   0  15   -0.80    0.64
  -2   0  16   52.77    2.35
  -2   0  16   52.92    2.38
  -2   0  17    0.49    0.56
  -2   0  17    0.03    0.64
  -2   0  18    0.14    0.58
  -2   0  18    0.93    0.64
  -2   0  19   -0.68    0.60
  -2   0  19    0.69    0.66
  -2   0  20   23.37    1.23
  -2   0  20   23.74    1.28
  -2   0  21   -0.68    0.57
  -2   0  21    0.02    0.67
   1  -1  20    0.35    0.55
   1  -1  20    0.96    0.54
   1  -1  19    2.62    0.66
   1  -1  19    3.14    0.62
   1  -1  18    7.94    0.81
   1  -1  18    9.14    0.75
   1  -1  17    2.12    0.62
   1  -1  17    2.64    0.59
   1  -1  16    6.72    0.77
   1  -1  16    7.28    0.66
   1  -1  15    8.09    0.78
   1  -1  15    9.05    0.74
   1  -1  14    0.80    0.69
   1  -1  14   -0.42    0.64
   1  -1  13   14.03    0.98
   1  -1  13   13.20    0.94
   1  -1  12   29.89    1.51
   1  -1  12   30.91    1.55
   1  -1  11    5.07    0.64
   1  -1  11    3.43    0.63
   1  -1  10  204.70    8.31
   1  -1  10  209.50    8.53
   1  -1   9    4.09    0.55
   1  -1   9    5.00    0.63
   1  -1   8   32.67    1.57
   1  -1   8   37.06    1.75
   1  -1   7  365.60   14.72
   1  -1   6   10.69    0.74
   1  -1   5  109.70    4.52
   1  -1   4  328.50   13.24
   1  -1   0   62.02    2.51
  -1   1   3    0.60    0.35
  -1   1   4   80.49    3.31
  -1   1   5   -0.04    0.46
  -1   1   6  107.10    4.41
  -1   1   7  215.90    8.72
  -1   1   7  206.90    8.38
  -1   1   8   28.98    1.37
  -1   1   8   31.56    1.46
  -1   1   9    1.92    0.51
  -1   1   9    1.72    0.49
  -1   1  10    3.01    0.58
  -1   1  10    1.97    0.54
  -1   1  11   40.13    1.79
  -1   1  11   43.76    1.99
  -1   1  12   59.54    2.57
  -1   1  12   63.15    2.75
  -1   1  13   28.09    1.39
  -1   1  13   29.09    1.45
  -1   1  14    1.21    0.64
  -1   1  14    1.42    0.59
  -1   1  15   12.79    0.95
  -1   1  15   14.57    0.97
  -1   1  16   17.91    1.10
  -1   1  16   18.09    1.08
  -1   1  18   22.35    1.18
  -1   1  18   24.73    1.27
  -1   1  19    9.49    0.76
  -1   1  19    8.77    0.75
  -1   1  20    8.33    0.80
  -1   1  20    7.49    0.73
  -1   1  21    1.11    0.64
  -1   1  21    1.96    0.64
   0  -2  20    0.71    0.66
   0  -2  20    0.44    0.58
   0  -2  19   11.48    0.81
   0  -2  19   12.59    0.94
   0  -2  18    1.47    0.70
   0  -2  18    0.43    0.59
   0  -2  16   10.80    0.79
   0  -2  16   13.55    0.94
   0  -2  15   -0.31    0.66
   0  -2  15    0.10    0.62
   0  -2  14   -0.14    0.66
   0  -2  14    0.40    0.56
   0  -2  13    5.80    0.79
   0  -2  13    3.21    0.63
   0  -2  12   10.28    0.84
   0  -2  12    9.46    0.77
   0  -2  11  166.80    6.82
   0  -2  10    8.30    0.67
   0  -2   9   10.10    0.78
   0  -2   8   94.45    3.96
   0  -2   7   75.68    3.19
   0  -2   6   57.64    2.48
   0  -2   5  230.50    9.32
   0   2  -4    2.18    0.56
   0  -2   4    2.04    0.59
   0   2  -3  214.90    8.68
   0  -2   3  200.30    8.09
   0   2  -2  170.10    6.86
   0  -2   2  172.70    6.97
   0   2  -1    7.26    0.47
   0  -2   1    7.83    0.50
   0   2   0   42.08    1.74
   0  -2   0   42.03    1.74
   0   2   1    7.57    0.44
   0  -2  -1    7.18    0.42
   0   2   2  164.80    6.64
   0  -2  -2  165.80    6.67
   0   2   3  198.30    7.99
   0  -2  -3  194.20    7.83
   0   2   4    1.41    0.44
   0  -2  -4    2.93    0.49
   0   2   5  212.70    8.60
   0   2   6   56.61    2.42
   0   2   7   80.38    3.35
   0   2   8   97.01    4.04
   0   2   9   10.23    0.72
   0   2  10    7.43    0.69
   0   2  11  160.40    6.55
   0   2  11  164.70    6.76
   0   2  12   10.34    0.73
   0   2  12   11.26    0.79
   0   2  13    4.86    0.65
   0   2  13    4.29    0.62
   0   2  14    0.06    0.67
   0   2  14   -1.30    0.54
   0   2  15    0.65    0.65
   0   2  15   -0.36    0.53
   0   2  16   12.94    0.86
   0   2  16   10.47    0.84
   0   2  17   24.09    1.28
   0   2  17   24.35    1.26
   0   2  18    0.85    0.64
   0   2  18    1.93    0.64
   0   2  19   12.82    0.90
   0   2  19   13.73    0.93
   0   2  20    0.85    0.67
   0   2  20    1.53    0.57
  -1  -3  20    3.04    0.69
  -1  -3  20    2.58    0.57
  -1  -3  19   10.06    0.82
  -1  -3  19    8.54    0.75
  -1  -3  18   11.57    0.90
  -1  -3  18   13.15    0.88
  -1  -3  17    1.07    0.61
  -1  -3  17    0.42    0.57
  -1  -3  16    9.21    0.78
  -1  -3  16   11.60    0.91
  -1  -3  15   11.32    0.93
  -1  -3  15    9.74    0.82
  -1  -3  14    0.91    0.68
  -1  -3  13   64.97    2.84
  -1  -3  12   31.32    1.52
  -1  -3  11    7.40    0.67
  -1  -3  10   19.25    1.04
  -1  -3   9  217.50    8.85
  -1  -3   8   28.85    1.41
   1   3  -7  159.30    6.52
  -1  -3   7  164.00    6.68
   1   3  -6   -0.05    0.52
  -1  -3   6   -0.07    0.51
   1   3  -5   17.78    0.98
  -1  -3   5   16.47    0.93
   1   3  -4   91.48    3.82
  -1  -3   4   86.12    3.60
   1   3  -3  186.00    7.54
  -1  -3   3  181.90    7.38
   1   3  -2    8.68    0.61
  -1  -3   2    8.84    0.65
   1   3   0   82.97    3.41
  -1  -3   0   82.51    3.40
   1   3   2    6.76    0.56
  -1  -3  -2    6.60    0.55
   1   3   3   64.08    2.70
  -1  -3  -3   63.33    2.67
   1   3   4   24.63    1.19
  -1  -3  -4   24.57    1.17
   1   3   5   79.66    3.33
  -1  -3  -5   80.00    3.35
   1   3   6    6.89    0.60
  -1  -3  -6    6.86    0.63
   1   3   7  319.30   12.88
   1   3   8   37.32    1.70
   1   3   9   66.96    2.89
   1   3  10   14.24    0.90
   1   3  11   12.33    0.84
   1   3  12   21.85    1.18
   1   3  13   21.73    1.21
   1   3  13   21.52    1.21
   1   3  14   15.14    0.98
   1   3  14   15.02    0.98
   1   3  15   13.69    0.96
   1   3  15   13.05    0.92
   1   3  16   26.08    1.33
   1   3  16   26.76    1.40
   1   3  17   12.18    0.89
   1   3  17   12.58    0.91
   1   3  18    6.35    0.73
   1   3  18    4.33    0.71
   1   3  19    0.76    0.64
   1   3  19    1.37    0.56
   1   3  20    1.82    0.75
   1   3  20    1.45    0.61
  -2  -4  21    1.36    0.63
  -2  -4  21    1.10    0.59
  -2  -4  20    5.69    0.74
  -2  -4  20    4.99    0.70
  -2  -4  19   11.38    0.88
  -2  -4  19   12.22    0.89
  -2  -4  18   -0.24    0.68
  -2  -4  18   -0.21    0.59
  -2  -4  17   54.23    2.41
  -2  -4  17   47.20    2.11
  -2  -4  16   48.06    2.18
  -2  -4  15    1.11    0.71
  -2  -4  14   67.21    2.96
  -2  -4  13   12.69    0.94
  -2  -4  12    8.68    0.74
  -2  -4  11    4.79    0.58
   2   4 -10  106.70    4.43
  -2  -4  10  104.10    4.32
   2   4  -9    0.17    0.50
  -2  -4   9    1.04    0.58
   2   4  -8  139.30    5.72
  -2  -4   8  142.40    5.86
   2   4  -7   16.14    0.95
  -2  -4   7   16.52    0.93
   2   4  -6  146.90    6.02
  -2  -4   6  139.60    5.73
   2   4  -5  375.20   15.10
  -2  -4   5  355.90   14.33
   2   4  -4  186.30    7.58
  -2  -4   4  189.20    7.68
   2   4  -3   34.10    1.58
  -2  -4   3   32.96    1.55
   2   4  -1  161.30    6.56
  -2  -4   1  135.20    5.53
   2   4   0   56.93    2.44
  -2  -4   0   53.98    2.32
   2   4   1    7.73    0.62
  -2  -4  -1    8.24    0.65
   2   4   2  117.50    4.82
  -2  -4  -2  113.60    4.67
   2   4   3  134.20    5.49
  -2  -4  -3  148.10    6.04
   2   4   4  106.20    4.38
  -2  -4  -4  101.20    4.18
   2   4   5   77.93    3.29
  -2  -4  -5   79.95    3.36
   2   4   6  170.50    6.96
  -2  -4  -6  158.70    6.49
   2   4   7    1.15    0.48
  -2  -4  -7    0.81    0.51
   2   4   8  300.90   12.17
  -2  -4  -8  326.90   13.19
   2   4   9   67.78    2.90
   2   4  10   12.18    0.83
   2   4  11   64.93    2.83
   2   4  12    3.46    0.69
   2   4  13    3.31    0.68
   2   4  14  103.10    4.33
   2   4  14  114.40    4.77
   2   4  15    0.24    0.54
   2   4  15    0.23    0.64
   2   4  16   18.35    1.08
   2   4  16   16.82    1.01
   2   4  17    9.81    0.81
   2   4  17   10.90    0.87
   2   4  18    0.41    0.57
   2   4  18   -0.26    0.65
   2   4  19    1.65    0.66
   2   4  19    2.83    0.66
  -3  -5  21    0.43    0.60
  -3  -5  21    0.02    0.63
  -3  -5  20   11.64    0.86
  -3  -5  20   10.35    0.87
  -3  -5  19    4.00    0.72
  -3  -5  19    4.97    0.71
  -3  -5  18   44.99    2.01
  -3  -5  17    0.27    0.54
  -3  -5  16   13.59    0.93
  -3  -5  15    1.18    0.71
  -3  -5  14   38.21    1.85
  -3  -5  13    6.64    0.76
   3   5 -12  132.60    5.47
  -3  -5  12  131.70    5.43
   3   5 -11    1.01    0.56
  -3  -5  11   -0.35    0.49
   3   5 -10   97.93    4.10
  -3  -5  10  103.50    4.30
   3   5  -9   12.51    0.82
  -3  -5   9   13.37    0.84
   3   5  -8    9.65    0.75
  -3  -5   8   11.08    0.80
   3   5  -7    6.08    0.67
  -3  -5   7    6.32    0.64
   3   5  -6  474.30   19.05
  -3  -5   6  477.30   19.17
   3   5  -5    4.14    0.58
  -3  -5   5    5.73    0.61
   3   5  -4   98.88    4.11
  -3  -5   4  100.30    4.19
   3   5  -3   -0.46    0.51
  -3  -5   3    0.78    0.53
   3   5  -2  312.80   12.62
  -3  -5   2  399.90   16.07
   3   5  -1   38.74    1.74
  -3  -5   1   37.70    1.70
   3   5   0    1.37    0.48
  -3  -5   0    0.62    0.51
   3   5   1   63.04    2.68
  -3  -5  -1   65.58    2.79
   3   5   2   36.70    1.66
  -3  -5  -2   35.68    1.63
   3   5   3   45.12    1.99
  -3  -5  -3   46.92    2.06
   3   5   4  145.30    5.96
  -3  -5  -4  144.20    5.90
   3   5   5    9.86    0.71
  -3  -5  -5   11.27    0.75
   3   5   6   39.89    1.80
  -3  -5  -6   40.20    1.83
   3   5   7   32.60    1.54
  -3  -5  -7   37.44    1.71
   3   5   8  150.40    6.17
  -3  -5  -8  156.40    6.41
   3   5   9   24.09    1.25
  -3  -5  -9   24.83    1.25
   3   5  10   33.37    1.63
   3   5  11   74.31    3.20
   3   5  12   21.30    1.16
   3   5  13    1.14    0.54
   3   5  14    1.51    0.63
   3   5  15    1.46    0.54
   3   5  15    0.97    0.56
   3   5  16   28.57    1.41
   3   5  16   26.85    1.37
   3   5  17    2.38    0.58
   3   5  17    2.81    0.67
   3   5  18   11.86    0.84
   3   5  18   12.40    0.88
  -4  -6  21    4.72    0.65
  -4  -6  21    4.38    0.68
  -4  -6  20    7.29    0.74
  -4  -6  19   30.06    1.50
  -4  -6  18    0.62    0.62
  -4  -6  17   16.36    1.00
  -4  -6  16   34.63    1.69
  -4  -6  15   -0.12    0.67
  -4  -6  14   25.54    1.38
   4   6 -13   52.06    2.33
  -4  -6  13   49.62    2.24
   4   6 -12    1.53    0.58
  -4  -6  12    1.22    0.50
   4   6 -11  133.30    5.51
  -4  -6  11  140.90    5.79
   4   6 -10   15.80    0.97
  -4  -6  10   14.44    0.92
   4   6  -9   13.34    0.84
  -4  -6   9   13.83    0.89
   4   6  -8   19.81    1.10
  -4  -6   8   16.65    0.98
   4   6  -7   63.77    2.75
  -4  -6   7   57.51    2.50
   4   6  -6   31.80    1.52
  -4  -6   6   32.05    1.52
   4   6  -5  589.30   23.65
  -4  -6   5  564.60   22.66
   4   6  -4  402.20   16.18
  -4  -6   4  389.30   15.67
   4   6  -3    2.94    0.59
  -4  -6   3    1.76    0.55
   4   6  -2    5.54    0.65
  -4  -6   2    6.46    0.62
   4   6  -1   10.69    0.77
  -4  -6   1    9.95    0.70
   4   6   0   56.16    2.44
  -4  -6   0   56.17    2.44
   4   6   1  127.30    5.24
  -4  -6  -1  131.60    5.42
   4   6   2   31.60    1.47
  -4  -6  -2   31.52    1.48
   4   6   3  104.20    4.32
  -4  -6  -3  112.80    4.69
   4   6   4    6.85    0.62
  -4  -6  -4    7.30    0.62
   4   6   5   28.33    1.37
  -4  -6  -5   25.58    1.27
   4   6   6  101.50    4.23
  -4  -6  -6  100.80    4.20
   4   6   7   44.02    1.97
  -4  -6  -7   42.38    1.91
   4   6   8   18.91    1.08
  -4  -6  -8   18.71    1.05
   4   6   9   20.32    1.12
  -4  -6  -9   21.63    1.19
   4   6  10    3.35    0.63
   4   6  11  109.70    4.58
   4   6  12   22.58    1.22
   4   6  13   -0.16    0.58
   4   6  14   59.06    2.59
   4   6  15    5.79    0.65
   4   6  16    0.15    0.54
   4   6  16    0.02    0.60
   4   6  17    8.60    0.67
   4   6  17    8.55    0.78
  -5  -7  21   13.90    0.88
  -5  -7  20    0.20    0.62
  -5  -7  19   -0.92    0.60
  -5  -7  18    1.10    0.56
  -5  -7  17   44.99    2.05
  -5  -7  16    0.55    0.66
   5   7 -15   47.36    2.14
  -5  -7  15   35.50    1.76
   5   7 -14   32.98    1.62
  -5  -7  14   35.50    1.69
   5   7 -13  163.20    6.71
  -5  -7  13  164.80    6.76
   5   7 -12   11.07    0.84
  -5  -7  12   10.03    0.77
   5   7 -11   33.15    1.59
  -5  -7  11   25.32    1.31
   5   7 -10    2.40    0.57
  -5  -7  10    3.68    0.63
   5   7  -9   89.60    3.77
  -5  -7   9   88.93    3.76
   5   7  -8    0.30    0.50
  -5  -7   8    0.10    0.54
   5   7  -7  159.40    6.54
  -5  -7   7  119.10    4.93
   5   7  -6   37.13    1.72
  -5  -7   6   42.61    1.96
   5   7  -5    2.80    0.56
  -5  -7   5    2.13    0.51
   5   7  -4    1.39    0.58
  -5  -7   4    0.34    0.45
   5   7  -3   40.69    1.86
  -5  -7   3   81.93    3.45
   5   7  -2   10.75    0.79
  -5  -7   2    9.85    0.72
   5   7  -1  166.00    6.79
  -5  -7   1  161.00    6.59
   5   7   0   19.08    1.05
  -5  -7   0   20.01    1.08
   5   7   1   15.31    0.90
  -5  -7  -1   13.98    0.89
   5   7   2   39.16    1.80
  -5  -7  -2   42.12    1.89
   5   7   3   33.17    1.58
  -5  -7  -3   33.46    1.58
   5   7   4   52.15    2.29
  -5  -7  -4   54.67    2.39
   5   7   5  162.60    6.67
  -5  -7  -5  165.60    6.78
   5   7   6    2.77    0.55
  -5  -7  -6    3.31    0.58
   5   7   7  164.30    6.75
  -5  -7  -7  168.20    6.90
   5   7   8   11.12    0.85
  -5  -7  -8   10.70    0.82
   5   7   9   18.83    1.08
  -5  -7  -9   18.95    1.08
   5   7  10   -0.03    0.62
  -5  -7 -10    0.38    0.63
   5   7  11   91.48    3.87
   5   7  12   17.85    1.07
   5   7  13   85.92    3.63
   5   7  14   -0.06    0.61
   5   7  15   13.30    0.94
   5   7  16    0.40    0.59
  -6  -8  21    7.97    0.73
  -6  -8  20    0.03    0.63
  -6  -8  19   16.05    1.01
  -6  -8  18   12.48    0.92
  -6  -8  17    4.79    0.71
   6   8 -16   21.33    1.16
  -6  -8  16   22.57    1.30
   6   8 -15    5.59    0.76
  -6  -8  15    6.85    0.76
   6   8 -14    6.64    0.77
  -6  -8  14    6.83    0.76
   6   8 -13    9.89    0.82
  -6  -8  13    8.90    0.81
   6   8 -12    2.07    0.66
  -6  -8  12    2.56    0.62
   6   8 -11  119.40    4.97
  -6  -8  11  156.90    6.46
   6   8 -10   15.27    0.93
  -6  -8  10   15.57    1.00
   6   8  -9    0.37    0.53
  -6  -8   9    0.13    0.51
   6   8  -8  126.80    5.25
  -6  -8   8  125.40    5.20
   6   8  -7   25.74    1.28
  -6  -8   7   24.89    1.26
   6   8  -6    1.24    0.54
  -6  -8   6    0.80    0.45
   6   8  -5   20.24    1.13
  -6  -8   5   21.68    1.14
   6   8  -4   26.34    1.35
  -6  -8   4   23.62    1.21
   6   8  -3  135.40    5.59
  -6  -8   3  126.40    5.22
   6   8  -2  127.70    5.28
  -6  -8   2  133.30    5.48
   6   8  -1    0.55    0.52
  -6  -8   1    1.08    0.50
   6   8   0    0.94    0.54
  -6  -8   0    0.95    0.51
   6   8   1   89.60    3.76
  -6  -8  -1   91.99    3.87
   6   8   2    2.35    0.54
  -6  -8  -2    2.68    0.56
   6   8   3    2.36    0.54
  -6  -8  -3    2.51    0.51
   6   8   4   90.96    3.83
  -6  -8  -4   94.65    3.98
   6   8   5    3.78    0.56
  -6  -8  -5    4.59    0.60
   6   8   6  106.60    4.45
  -6  -8  -6  102.50    4.29
   6   8   7   21.39    1.17
  -6  -8  -7   19.79    1.14
   6   8   8   -0.05    0.57
  -6  -8  -8   -0.40    0.59
   6   8   9   16.56    0.98
  -6  -8  -9   14.73    0.97
   6   8  10   15.18    0.95
  -6  -8 -10   15.34    0.99
   6   8  11    4.71    0.64
   6   8  12   14.66    0.93
   6   8  13    4.73    0.64
   6   8  14    7.35    0.67
   6   8  15    2.89    0.65
  -7  -9  21   -0.11    0.59
  -7  -9  20    7.22    0.72
  -7  -9  19    0.29    0.58
   7   9 -18    7.21    0.70
  -7  -9  18    5.92    0.74
   7   9 -17    9.85    0.82
  -7  -9  17    7.03    0.81
   7   9 -16   16.11    1.02
  -7  -9  16   15.50    1.02
   7   9 -15    7.44    0.75
  -7  -9  15    6.81    0.79
   7   9 -14  104.40    4.38
  -7  -9  14  110.50    4.61
   7   9 -13    9.69    0.86
  -7  -9  13    8.63    0.76
   7   9 -12   68.97    2.99
  -7  -9  12   91.53    3.86
   7   9 -11   54.20    2.41
  -7  -9  11   58.46    2.59
   7   9 -10   12.74    0.89
  -7  -9  10   10.52    0.84
   7   9  -9    0.04    0.52
  -7  -9   9   -0.45    0.57
   7   9  -8   16.90    1.00
  -7  -9   8   14.37    0.89
   7   9  -7   49.55    2.22
  -7  -9   7   48.98    2.15
   7   9  -6   53.51    2.38
  -7  -9   6   59.13    2.60
   7   9  -5   44.21    2.02
  -7  -9   5   39.33    1.83
   7   9  -4  220.40    9.01
  -7  -9   4  188.80    7.72
   7   9  -3    2.33    0.62
  -7  -9   3    2.15    0.56
   7   9  -2   30.99    1.51
  -7  -9   2   31.61    1.51
   7   9  -1   27.29    1.36
  -7  -9   1   26.28    1.31
   7   9   0   64.63    2.80
  -7  -9   0   71.34    3.06
   7   9   1    0.70    0.54
  -7  -9  -1    1.23    0.55
   7   9   2  157.70    6.48
  -7  -9  -2  152.10    6.25
   7   9   3    1.13    0.52
  -7  -9  -3    0.47    0.56
   7   9   4   34.87    1.67
  -7  -9  -4   32.12    1.56
   7   9   5    2.78    0.64
  -7  -9  -5    2.49    0.54
   7   9   6    0.82    0.61
  -7  -9  -6    0.28    0.57
   7   9   7    1.96    0.65
  -7  -9  -7    1.78    0.61
   7   9   8   87.23    3.69
  -7  -9  -8   92.03    3.88
   7   9   9    2.10    0.57
  -7  -9  -9    1.97    0.56
   7   9  10   43.91    1.98
  -7  -9 -10   45.97    2.08
   7   9  11    1.57    0.60
   7   9  12    1.06    0.55
   7   9  13    0.53    0.59
   7   9  14    6.17    0.73
  -8 -10  21    1.69    0.63
  -8 -10  20    0.53    0.61
   8  10 -19    0.81    0.57
  -8 -10  19    1.30    0.66
   8  10 -18   22.81    1.23
  -8 -10  18   23.58    1.22
   8  10 -17    2.16    0.71
  -8 -10  17    1.96    0.71
   8  10 -16   26.86    1.38
  -8 -10  16   24.79    1.36
   8  10 -15    5.38    0.73
  -8 -10  15    4.30    0.68
   8  10 -14    1.13    0.64
  -8 -10  14    2.00    0.59
   8  10 -13    1.30    0.60
  -8 -10  13    1.87    0.66
   8  10 -12   34.51    1.66
  -8 -10  12   23.31    1.29
   8  10 -11    5.83    0.73
  -8 -10  11    6.01    0.72
   8  10 -10   48.68    2.21
  -8 -10  10   46.02    2.12
   8  10  -9    3.27    0.62
  -8 -10   9    4.46    0.69
   8  10  -8   30.55    1.51
  -8 -10   8   36.24    1.68
   8  10  -7    2.83    0.57
  -8 -10   7    2.72    0.56
   8  10  -6   44.75    2.04
  -8 -10   6   40.46    1.87
   8  10  -5   10.06    0.82
  -8 -10   5    9.91    0.75
   8  10  -4   77.02    3.30
  -8 -10   4   72.44    3.12
   8  10  -3   15.16    0.99
  -8 -10   3   14.58    0.90
   8  10  -2  149.80    6.18
  -8 -10   2  149.50    6.14
   8  10  -1    0.08    0.50
  -8 -10   1    0.99    0.51
   8  10   0   59.31    2.59
  -8 -10   0   61.81    2.70
   8  10   1   60.39    2.64
  -8 -10  -1   63.72    2.77
   8  10   2   10.57    0.83
  -8 -10  -2    9.83    0.81
   8  10   3   23.31    1.23
  -8 -10  -3   18.08    1.06
   8  10   4   60.52    2.64
  -8 -10  -4   59.91    2.64
   8  10   5    0.36    0.56
  -8 -10  -5    1.55    0.59
   8  10   6   31.01    1.51
  -8 -10  -6   31.05    1.52
   8  10   7    0.82    0.62
  -8 -10  -7    0.50    0.58
   8  10   8   -0.20    0.56
  -8 -10  -8    0.75    0.58
   8  10   9   29.50    1.45
  -8 -10  -9   23.94    1.25
   8  10  10   15.00    0.94
  -8 -10 -10   14.53    0.92
   8  10  11    1.30    0.62
  -8 -10 -11    1.29    0.55
   8  10  12   11.24    0.86
   8  10  13   -0.24    0.57
   9  11 -20    0.67    0.53
  -9 -11  20    1.22    0.67
   9  11 -19    4.26    0.67
  -9 -11  19    3.64    0.73
   9  11 -18   -0.35    0.67
  -9 -11  18   -0.55    0.63
   9  11 -17   32.89    1.59
  -9 -11  17   30.47    1.49
   9  11 -16    0.87    0.63
  -9 -11  16    1.68    0.62
   9  11 -15   11.41    0.88
  -9 -11  15    9.69    0.81
   9  11 -14   10.93    0.86
  -9 -11  14   14.04    0.89
   9  11 -13    0.24    0.60
  -9 -11  13   -0.05    0.70
   9  11 -12    0.67    0.58
  -9 -11  12   -0.04    0.58
   9  11 -11   33.81    1.64
  -9 -11  11   37.62    1.80
   9  11 -10    2.38    0.62
  -9 -11  10    2.80    0.59
   9  11  -9   42.67    1.97
  -9 -11   9   43.53    2.00
   9  11  -8    2.43    0.59
  -9 -11   8    2.44    0.55
   9  11  -7   85.62    3.64
  -9 -11   7   85.27    3.60
   9  11  -6   11.80    0.87
  -9 -11   6   11.69    0.84
   9  11  -5    0.94    0.60
  -9 -11   5    0.70    0.56
   9  11  -4    2.10    0.61
  -9 -11   4    3.07    0.58
   9  11  -3   35.15    1.68
  -9 -11   3   32.46    1.53
   9  11  -2   88.31    3.74
  -9 -11   2   87.31    3.69
   9  11  -1   34.46    1.64
  -9 -11   1   36.18    1.71
   9  11   0   17.15    1.04
  -9 -11   0   15.75    0.96
   9  11   1    3.86    0.66
  -9 -11  -1    3.34    0.61
   9  11   2    2.44    0.58
  -9 -11  -2    2.30    0.57
   9  11   3   33.78    1.65
  -9 -11  -3   32.46    1.59
   9  11   4    1.15    0.59
  -9 -11  -4    0.66    0.59
   9  11   5   39.16    1.83
  -9 -11  -5   40.43    1.87
   9  11   6   -0.40    0.60
  -9 -11  -6   -0.23    0.62
   9  11   7    1.57    0.59
  -9 -11  -7    0.59    0.53
   9  11   8    3.29    0.65
  -9 -11  -8    3.48    0.64
   9  11   9    8.23    0.81
  -9 -11  -9    6.66    0.76
   9  11  10    2.01    0.62
  -9 -11 -10    1.52    0.56
   9  11  11   14.45    0.96
  -9 -11 -11   13.24    0.84
  10  12 -20    1.18    0.65
 -10 -12  20    0.26    0.73
  10  12 -19    5.32    0.68
 -10 -12  19    8.75    0.73
  10  12 -18    3.89    0.69
 -10 -12  18    2.52    0.72
  10  12 -17   -0.06    0.59
 -10 -12  17    0.24    0.72
  10  12 -16   11.21    0.83
 -10 -12  16   10.38    0.83
  10  12 -15   19.18    1.11
 -10 -12  15   18.63    1.09
  10  12 -14    7.72    0.76
 -10 -12  14    8.46    0.75
  10  12 -13   35.90    1.68
 -10 -12  13   37.71    1.77
  10  12 -12   16.31    0.99
 -10 -12  12   17.65    1.03
  10  12 -11    3.14    0.63
 -10 -12  11    1.99    0.66
  10  12 -10    1.36    0.61
 -10 -12  10    0.24    0.55
  10  12  -9    4.09    0.64
 -10 -12   9    4.43    0.59
  10  12  -8    0.86    0.54
 -10 -12   8    0.73    0.49
  10  12  -7   83.42    3.54
 -10 -12   7   88.16    3.73
  10  12  -6    1.04    0.50
 -10 -12   6    1.32    0.55
  10  12  -5   66.01    2.87
 -10 -12   5   61.66    2.69
  10  12  -4    0.35    0.61
 -10 -12   4    1.09    0.54
  10  12  -3    0.32    0.58
 -10 -12   3    0.37    0.51
  10  12  -2   46.92    2.12
 -10 -12   2   47.51    2.15
  10  12  -1   34.40    1.64
 -10 -12   1   36.08    1.73
  10  12   0    2.95    0.63
 -10 -12   0    3.86    0.59
  10  12   1   78.91    3.37
 -10 -12  -1   75.90    3.23
  10  12   2    0.52    0.56
 -10 -12  -2    0.05    0.56
  10  12   3   34.59    1.65
 -10 -12  -3   33.00    1.60
  10  12   4   12.61    0.85
 -10 -12  -4   14.30    0.93
  10  12   5    0.33    0.54
 -10 -12  -5    0.06    0.60
  10  12   6    0.35    0.55
 -10 -12  -6    0.85    0.51
  10  12   7   30.04    1.47
 -10 -12  -7   29.99    1.47
  10  12   8    4.55    0.66
 -10 -12  -8    5.44    0.72
  10  12   9   11.39    0.88
 -10 -12  -9   10.17    0.80
  10  12  10   -0.32    0.62
 -10 -12 -10   -0.80    0.62
  11  13 -19   -0.11    0.65
 -11 -13  19    1.24    0.70
  11  13 -18   10.04    0.77
 -11 -13  18   10.57    0.84
  11  13 -17   15.23    0.96
 -11 -13  17   13.30    0.90
  11  13 -16    5.85    0.70
 -11 -13  16    5.16    0.68
  11  13 -15    1.12    0.57
 -11 -13  15    0.31    0.50
  11  13 -14   30.75    1.49
 -11 -13  14   30.46    1.50
  11  13 -13    1.53    0.52
 -11 -13  13    0.44    0.63
  11  13 -12    3.05    0.59
 -11 -13  12    4.64    0.58
  11  13 -11   50.30    2.24
 -11 -13  11   48.38    2.14
  11  13 -10    0.64    0.53
 -11 -13  10   -0.32    0.50
  11  13  -9    4.51    0.64
 -11 -13   9    5.73    0.66
  11  13  -8   12.62    0.84
 -11 -13   8   13.31    0.90
  11  13  -7    1.97    0.54
 -11 -13   7    0.82    0.56
  11  13  -6   32.68    1.57
 -11 -13   6   35.95    1.71
  11  13  -5   21.68    1.13
 -11 -13   5   20.94    1.14
  11  13  -4    0.07    0.51
 -11 -13   4    0.18    0.50
  11  13  -3   31.35    1.53
 -11 -13   3   31.91    1.55
  11  13  -2   14.69    0.95
 -11 -13   2   12.76    0.88
  11  13  -1    7.08    0.72
 -11 -13   1    7.26    0.65
  11  13   0   15.20    0.93
 -11 -13   0   16.48    0.95
  11  13   1    0.40    0.59
 -11 -13  -1    0.25    0.54
  11  13   2   18.48    1.06
 -11 -13  -2   18.75    1.08
  11  13   3   12.14    0.87
 -11 -13  -3   12.83    0.87
  11  13   4    4.43    0.64
 -11 -13  -4    4.79    0.62
  11  13   5    2.38    0.59
 -11 -13  -5    4.06    0.67
  11  13   6   15.55    0.95
 -11 -13  -6   16.44    0.95
  11  13   7    2.94    0.63
 -11 -13  -7    2.05    0.62
  11  13   8    5.47    0.67
 -11 -13  -8    6.88    0.65
  12  14 -18    9.21    0.77
 -12 -14  18    9.06    0.76
  12  14 -17   -0.84    0.59
 -12 -14  17    1.19    0.60
  12  14 -16   10.43    0.83
 -12 -14  16   11.90    0.87
  12  14 -15    0.53    0.58
 -12 -14  15    0.88    0.62
  12  14 -14    0.54    0.57
 -12 -14  14    0.93    0.57
  12  14 -13    0.58    0.54
 -12 -14  13    0.49    0.55
  12  14 -12   16.05    0.94
 -12 -14  12   16.70    0.99
  12  14 -11   -0.36    0.55
 -12 -14  11    1.01    0.56
  12  14 -10   52.58    2.31
 -12 -14  10   51.46    2.28
  12  14  -9    0.82    0.58
 -12 -14   9    0.00    0.51
  12  14  -8    1.21    0.53
 -12 -14   8    2.45    0.59
  12  14  -7    0.69    0.48
 -12 -14   7    0.57    0.53
  12  14  -6   19.09    1.09
 -12 -14   6   17.08    0.97
  12  14  -5    3.92    0.64
 -12 -14   5    3.08    0.56
  12  14  -4   43.09    1.99
 -12 -14   4   43.35    1.99
  12  14  -3    0.81    0.57
 -12 -14   3    0.21    0.51
  12  14  -2   17.46    1.00
 -12 -14   2   19.13    1.04
  12  14  -1    0.01    0.56
 -12 -14   1    1.07    0.56
  12  14   0    1.20    0.53
 -12 -14   0    2.65    0.61
  12  14   1    0.35    0.56
 -12 -14  -1    0.28    0.53
  12  14   2   17.58    1.03
 -12 -14  -2   16.41    0.99
  12  14   3    0.15    0.55
 -12 -14  -3    0.02    0.53
  12  14   4   10.14    0.82
 -12 -14  -4    9.55    0.77
  12  14   5    0.81    0.59
 -12 -14  -5    0.64    0.52
  12  14   6    0.30    0.55
 -12 -14  -6   -0.04    0.55
  13  15 -16    2.77    0.58
 -13 -15  16    3.63    0.64
  13  15 -15   -0.32    0.59
 -13 -15  15    0.16    0.50
  13  15 -14    7.07    0.68
 -13 -15  14    5.74    0.62
  13  15 -13    4.93    0.62
 -13 -15  13    5.44    0.60
  13  15 -12    7.12    0.69
 -13 -15  12    7.29    0.66
  13  15 -11   25.46    1.31
 -13 -15  11   23.50    1.17
  13  15 -10    2.67    0.59
 -13 -15  10    3.09    0.59
  13  15  -9    8.92    0.71
 -13 -15   9    8.57    0.67
  13  15  -8   15.35    0.90
 -13 -15   8   13.93    0.90
  13  15  -7    3.03    0.54
 -13 -15   7    2.84    0.62
  13  15  -6   20.05    1.08
 -13 -15   6   19.82    1.10
  13  15  -5    0.55    0.50
 -13 -15   5    0.29    0.52
  13  15  -4    3.14    0.64
 -13 -15   4    2.99    0.56
  13  15  -3    7.41    0.72
 -13 -15   3   18.74    1.04
  13  15  -2    9.94    0.77
 -13 -15   2   10.43    0.72
  13  15  -1   -0.14    0.54
 -13 -15   1    0.27    0.57
  13  15   0   18.24    1.02
 -13 -15   0   15.92    0.93
  13  15   1    5.14    0.61
 -13 -15  -1    4.25    0.67
  13  15   2    0.81    0.55
 -13 -15  -2    1.36    0.58
  13  15   3    1.82    0.59
 -13 -15  -3    1.05    0.53
  13  15   4    0.47    0.61
 -13 -15  -4    0.06    0.45
  14  16 -14    0.36    0.53
 -14 -16  14   -0.24    0.50
  14  16 -13    7.48    0.66
 -14 -16  13    8.38    0.68
  14  16 -12    1.46    0.53
 -14 -16  12    0.13    0.54
  14  16 -11    0.34    0.52
 -14 -16  11    1.32    0.50
  14  16 -10    1.32    0.52
 -14 -16  10    0.61    0.49
  14  16  -9    6.46    0.64
 -14 -16   9    7.44    0.65
  14  16  -8    2.70    0.52
 -14 -16   8    3.05    0.57
  14  16  -7    9.49    0.72
 -14 -16   7   11.60    0.77
  14  16  -6    6.95    0.69
 -14 -16   6    6.88    0.65
  14  16  -5   17.66    0.97
 -14 -16   5   18.85    1.00
  14  16  -4    0.18    0.55
 -14 -16   4   -0.68    0.50
  14  16  -3    1.95    0.51
 -14 -16   3    1.21    0.51
  14  16  -2    0.79    0.56
 -14 -16   2    0.23    0.51
  14  16  -1   13.77    0.87
 -14 -16   1   14.87    0.88
  14  16   0    2.07    0.61
 -14 -16   0    3.46    0.56
  14  16   1    6.80    0.72
 -14 -16  -1    4.91    0.61
  15  17 -11    5.24    0.62
 -15 -17  11    5.06    0.55
  15  17 -10    1.74    0.53
 -15 -17  10    0.64    0.50
  15  17  -9   -1.10    0.53
 -15 -17   9   -0.20    0.52
  15  17  -8    3.87    0.60
 -15 -17   8    4.87    0.55
  15  17  -7   -0.11    0.49
 -15 -17   7    0.65    0.50
  15  17  -6    0.77    0.56
 -15 -17   6   -0.52    0.51
  15  17  -5   11.64    0.79
 -15 -17   5   11.15    0.79
  15  17  -4    0.64    0.62
 -15 -17   4   -0.40    0.46
 -18 -14   4    7.81    0.63
  18  14  -4    7.86    0.73
 -18 -14   5   -0.14    0.48
  18  14  -5    0.43    0.58
 -18 -14   6   16.46    0.88
  18  14  -6   15.76    0.90
 -18 -14   7    1.50    0.48
  18  14  -7    1.37    0.60
 -18 -14   8    2.68    0.60
  18  14  -8    2.78    0.57
 -18 -14   9    1.39    0.54
  18  14  -9    1.69    0.56
 -18 -14  10   10.37    0.72
  18  14 -10    8.76    0.74
 -18 -14  11    2.33    0.52
  18  14 -11    2.98    0.53
 -18 -14  12   33.19    1.54
  18  14 -12   31.60    1.48
 -18 -14  13    0.64    0.55
  18  14 -13    1.18    0.50
 -18 -14  14    1.54    0.59
  18  14 -14    1.70    0.60
 -17 -13   0    6.59    0.54
  17  13   0    5.24    0.66
 -17 -13   1   -0.13    0.46
  17  13  -1   -1.24    0.57
 -17 -13   2    8.58    0.67
  17  13  -2    8.69    0.75
 -17 -13   3    2.31    0.55
  17  13  -3    3.73    0.66
 -17 -13   4    5.14    0.58
  17  13  -4    6.14    0.67
 -17 -13   5    4.28    0.52
  17  13  -5    3.79    0.63
 -17 -13   6    3.66    0.49
  17  13  -6    1.01    0.53
 -17 -13   7   -0.20    0.52
  17  13  -7    1.31    0.59
 -17 -13   8   18.63    1.03
  17  13  -8   18.25    1.03
 -17 -13   9    3.97    0.56
  17  13  -9    4.72    0.61
 -17 -13  10    4.25    0.54
  17  13 -10    3.99    0.61
 -17 -13  11   11.42    0.78
  17  13 -11   10.64    0.77
 -17 -13  12    0.95    0.52
  17  13 -12    2.75    0.56
 -17 -13  13    0.06    0.49
  17  13 -13    0.09    0.50
 -17 -13  14   12.21    0.80
  17  13 -14   11.36    0.82
 -17 -13  15    0.27    0.53
  17  13 -15    1.09    0.53
 -17 -13  16   12.72    0.79
  17  13 -16   11.72    0.80
 -17 -13  17    3.01    0.60
  17  13 -17    3.56    0.65
 -16 -12  -3    3.06    0.57
  16  12   3    1.80    0.62
 -16 -12  -2    2.72    0.56
  16  12   2    2.71    0.61
 -16 -12  -1    1.50    0.59
  16  12   1    2.10    0.64
 -16 -12   0   -0.57    0.60
  16  12   0    0.17    0.61
 -16 -12   1   19.65    1.03
  16  12  -1   16.00    0.98
 -16 -12   2    2.84    0.58
  16  12  -2    2.43    0.61
 -16 -12   3   16.82    0.94
  16  12  -3   15.51    0.97
 -16 -12   4    2.97    0.59
  16  12  -4    2.58    0.59
 -16 -12   5    0.61    0.54
  16  12  -5    0.53    0.55
 -16 -12   6   16.58    0.95
  16  12  -6   16.73    1.00
 -16 -12   7   20.16    1.09
  16  12  -7   19.72    1.14
 -16 -12   8    0.46    0.56
  16  12  -8    0.76    0.59
 -16 -12   9   21.69    1.16
  16  12  -9   21.25    1.15
 -16 -12  10   -0.46    0.49
  16  12 -10    0.30    0.50
 -16 -12  11    0.01    0.48
  16  12 -11    0.75    0.54
 -16 -12  12    0.47    0.49
  16  12 -12    0.74    0.52
 -16 -12  13    4.83    0.56
  16  12 -13    5.66    0.70
 -16 -12  14    0.30    0.48
  16  12 -14    0.63    0.52
 -16 -12  15   36.42    1.67
  16  12 -15   39.96    1.84
 -16 -12  16    1.10    0.54
  16  12 -16    0.37    0.56
 -16 -12  17   10.99    0.77
  16  12 -17   10.73    0.81
 -16 -12  18    1.53    0.54
  16  12 -18    0.32    0.60
 -15 -11  -5   14.59    0.87
  15  11   5   16.75    1.02
 -15 -11  -4    1.66    0.57
  15  11   4    0.59    0.59
 -15 -11  -3   27.31    1.34
  15  11   3   27.39    1.35
 -15 -11  -2    0.37    0.52
  15  11   2    0.69    0.59
 -15 -11  -1   14.52    0.90
  15  11   1   15.57    0.97
 -15 -11   0    8.72    0.75
  15  11   0    9.60    0.79
 -15 -11   1    8.18    0.73
  15  11  -1    6.76    0.69
 -15 -11   2   11.09    0.81
  15  11  -2   12.08    0.86
 -15 -11   3   36.16    1.69
  15  11  -3   35.94    1.69
 -15 -11   4    1.80    0.45
  15  11  -4    1.93    0.60
 -15 -11   5   32.26    1.52
  15  11  -5   37.91    1.77
 -15 -11   6    0.54    0.57
  15  11  -6    2.15    0.61
 -15 -11   7    6.48    0.66
  15  11  -7    6.35    0.67
 -15 -11   8   11.34    0.76
  15  11  -8   11.66    0.81
 -15 -11   9    2.62    0.50
  15  11  -9    2.19    0.62
 -15 -11  10    1.32    0.50
  15  11 -10    2.09    0.57
 -15 -11  11    8.22    0.74
  15  11 -11    9.02    0.72
 -15 -11  12    0.52    0.58
  15  11 -12    0.13    0.58
 -15 -11  13   39.92    1.84
  15  11 -13   45.66    2.06
 -15 -11  14   17.67    0.98
  15  11 -14   17.51    1.03
 -15 -11  15    0.81    0.49
  15  11 -15    0.11    0.51
 -15 -11  16    2.34    0.57
  15  11 -16    2.36    0.54
 -15 -11  17   13.10    0.87
  15  11 -17   14.78    0.90
 -15 -11  18    1.14    0.59
  15  11 -18    1.45    0.60
 -15 -11  19   21.11    1.10
  15  11 -19   19.18    1.05
 -15 -11  20    1.82    0.62
  15  11 -20    1.95    0.65
 -14 -10  -7    1.54    0.49
  14  10   7    1.91    0.67
 -14 -10  -6    2.18    0.54
  14  10   6    1.37    0.61
 -14 -10  -5   -0.37    0.59
  14  10   5    0.58    0.56
 -14 -10  -4   41.25    1.90
  14  10   4   44.37    2.03
 -14 -10  -3    0.64    0.60
  14  10   3    0.60    0.55
 -14 -10  -2   16.77    0.98
  14  10   2   15.58    0.97
 -14 -10  -1    2.67    0.60
  14  10   1    2.31    0.61
 -14 -10   0    0.97    0.57
  14  10   0    0.46    0.54
 -14 -10   1    0.54    0.60
  14  10  -1    1.49    0.63
 -14 -10   2   21.50    1.12
  14  10  -2   21.68    1.18
 -14 -10   3    3.11    0.60
  14  10  -3    3.77    0.59
 -14 -10   4    7.45    0.70
  14  10  -4    8.32    0.73
 -14 -10   5   11.33    0.82
  14  10  -5   11.07    0.83
 -14 -10   6    2.48    0.58
  14  10  -6    2.22    0.61
 -14 -10   7   11.47    0.76
  14  10  -7   11.28    0.85
 -14 -10   8   -0.10    0.46
  14  10  -8    0.42    0.51
 -14 -10   9    0.20    0.51
  14  10  -9   -0.72    0.51
 -14 -10  10    8.70    0.76
  14  10 -10    8.99    0.69
 -14 -10  11    3.67    0.64
  14  10 -11    3.82    0.58
 -14 -10  12   10.54    0.81
  14  10 -12    9.64    0.74
 -14 -10  13    0.44    0.50
  14  10 -13    0.27    0.53
 -14 -10  14    6.00    0.62
  14  10 -14    5.24    0.61
 -14 -10  15    5.81    0.67
  14  10 -15    6.25    0.64
 -14 -10  16    9.43    0.78
  14  10 -16   10.59    0.75
 -14 -10  17    0.65    0.61
  14  10 -17    2.19    0.55
 -14 -10  18   13.41    0.91
  14  10 -18   14.55    0.92
 -14 -10  19    0.59    0.52
  14  10 -19   -0.17    0.64
 -14 -10  20    8.90    0.68
  14  10 -20    7.60    0.69
 -14 -10  21    0.92    0.64
  14  10 -21    0.78    0.67
  13   9   9    1.06    0.63
 -13  -9  -8   21.80    1.13
  13   9   8   20.62    1.11
 -13  -9  -7    0.54    0.60
  13   9   7    0.36    0.66
 -13  -9  -6   19.99    1.13
  13   9   6   17.51    1.08
 -13  -9  -5   13.82    0.86
  13   9   5   14.18    0.97
 -13  -9  -4    8.69    0.75
  13   9   4    6.71    0.71
 -13  -9  -3    7.39    0.76
  13   9   3    7.29    0.77
 -13  -9  -2    9.10    0.77
  13   9   2    9.07    0.77
 -13  -9  -1    1.74    0.62
  13   9   1    1.67    0.59
 -13  -9   0  117.40    4.89
  13   9   0  119.80    4.98
 -13  -9   1   11.78    0.79
  13   9  -1   11.55    0.84
 -13  -9   2    8.24    0.68
  13   9  -2    8.89    0.80
 -13  -9   3  101.00    4.24
  13   9  -3  106.20    4.45
 -13  -9   4    2.37    0.56
  13   9  -4    1.96    0.61
 -13  -9   5    4.88    0.63
  13   9  -5    5.07    0.68
 -13  -9   6   17.25    0.97
  13   9  -6   16.83    1.02
 -13  -9   7    4.50    0.55
  13   9  -7    4.24    0.63
 -13  -9   8   15.91    0.93
  13   9  -8   13.32    0.90
 -13  -9   9    1.93    0.56
  13   9  -9    1.62    0.61
 -13  -9  10   22.50    1.22
  13   9 -10   23.80    1.22
 -13  -9  11    2.73    0.54
  13   9 -11    3.29    0.63
 -13  -9  12    2.04    0.57
  13   9 -12    1.60    0.63
 -13  -9  13    1.09    0.53
  13   9 -13    2.75    0.59
 -13  -9  14   13.56    0.85
  13   9 -14   14.66    0.92
 -13  -9  15    1.17    0.62
  13   9 -15    0.51    0.56
 -13  -9  16   10.29    0.75
  13   9 -16    9.74    0.79
 -13  -9  17    3.04    0.63
  13   9 -17    3.07    0.63
 -13  -9  18    0.47    0.59
  13   9 -18   -0.02    0.63
 -13  -9  19    0.91    0.63
  13   9 -19    0.04    0.62
 -13  -9  20   14.72    0.94
  13   9 -20   14.26    0.91
 -13  -9  21    2.67    0.64
  13   9 -21    0.81    0.61
  12   8  10   -0.13    0.60
  12   8   9    6.22    0.72
 -12  -8  -8    2.26    0.64
  12   8   8    1.02    0.58
 -12  -8  -7   23.83    1.28
  12   8   7   25.20    1.29
 -12  -8  -6   23.05    1.16
  12   8   6   21.89    1.19
 -12  -8  -5    5.59    0.73
  12   8   5    7.04    0.73
 -12  -8  -4    9.02    0.82
  12   8   4    9.02    0.82
 -12  -8  -3   11.47    0.86
  12   8   3   12.67    0.87
 -12  -8  -2    0.49    0.56
  12   8   2    0.90    0.59
 -12  -8  -1   66.28    2.89
  12   8   1   66.24    2.88
 -12  -8   0    9.70    0.72
  12   8   0    5.82    0.69
 -12  -8   1   44.78    1.99
  12   8  -1   47.61    2.16
 -12  -8   2   18.14    1.04
  12   8  -2   18.00    1.08
 -12  -8   3   17.14    1.01
  12   8  -3   16.48    1.04
 -12  -8   4   54.80    2.43
  12   8  -4   53.69    2.40
 -12  -8   5  119.00    4.94
  12   8  -5  130.80    5.42
 -12  -8   6   18.91    1.01
  12   8  -6   16.66    1.01
 -12  -8   7   25.04    1.24
  12   8  -7   25.23    1.31
 -12  -8   8    7.94    0.69
  12   8  -8    7.14    0.67
 -12  -8   9   23.41    1.24
  12   8  -9   22.78    1.23
 -12  -8  10   62.37    2.72
  12   8 -10   65.40    2.83
 -12  -8  11    1.05    0.58
  12   8 -11    0.26    0.55
 -12  -8  12   10.30    0.79
  12   8 -12    8.15    0.71
 -12  -8  13   23.10    1.19
  12   8 -13   22.61    1.21
 -12  -8  14    3.39    0.62
  12   8 -14    3.31    0.59
 -12  -8  15   31.62    1.55
  12   8 -15   31.20    1.52
 -12  -8  16    0.16    0.54
  12   8 -16    1.73    0.57
 -12  -8  17    0.10    0.55
  12   8 -17   -0.12    0.56
 -12  -8  18   27.91    1.39
  12   8 -18   28.56    1.40
 -12  -8  19    0.58    0.64
  12   8 -19    2.15    0.65
 -12  -8  20    4.87    0.71
  12   8 -20    4.65    0.73
 -12  -8  21    2.43    0.65
  12   8 -21    2.85    0.61
 -12  -8  22    0.54    0.69
  11   7  12   -1.06    0.65
  11   7  11    6.69    0.70
  11   7  10    0.21    0.58
  11   7   9    4.70    0.68
 -11  -7  -8    1.53    0.61
  11   7   8    1.98    0.62
 -11  -7  -7    8.48    0.73
  11   7   7    8.17    0.74
 -11  -7  -6   17.99    1.03
  11   7   6   19.71    1.12
 -11  -7  -5   40.93    1.91
  11   7   5   46.07    2.09
 -11  -7  -4   -0.40    0.49
  11   7   4    0.69    0.61
 -11  -7  -3    5.96    0.74
  11   7   3    4.49    0.72
 -11  -7  -2    0.97    0.61
  11   7   2    0.65    0.67
 -11  -7  -1    1.55    0.58
  11   7   1   -0.26    0.57
 -11  -7   0    7.01    0.67
  11   7   0    6.61    0.71
 -11  -7   1   19.63    1.07
  11   7  -1   17.61    1.04
 -11  -7   2    1.00    0.54
  11   7  -2    1.49    0.55
 -11  -7   3  215.00    8.78
  11   7  -3  203.40    8.32
 -11  -7   4   16.27    0.98
  11   7  -4   18.57    1.07
 -11  -7   5    7.27    0.63
  11   7  -5    7.32    0.70
 -11  -7   6    1.92    0.52
  11   7  -6    1.42    0.53
 -11  -7   7    2.84    0.54
  11   7  -7    3.02    0.56
 -11  -7   8    0.21    0.47
  11   7  -8    0.20    0.56
 -11  -7   9  101.50    4.26
  11   7  -9   96.95    4.07
 -11  -7  10    1.43    0.54
  11   7 -10    1.36    0.54
 -11  -7  11  102.50    4.28
  11   7 -11  113.00    4.72
 -11  -7  12    2.24    0.55
  11   7 -12    2.44    0.55
 -11  -7  13    3.04    0.59
  11   7 -13    2.93    0.57
 -11  -7  14    0.58    0.61
  11   7 -14   -0.21    0.53
 -11  -7  15    1.83    0.64
  11   7 -15    2.13    0.55
 -11  -7  16    7.05    0.80
  11   7 -16   11.27    0.83
 -11  -7  17   23.54    1.25
  11   7 -17   22.45    1.20
 -11  -7  18   -0.20    0.58
  11   7 -18    0.79    0.64
 -11  -7  19   10.74    0.86
  11   7 -19   10.11    0.84
 -11  -7  20    1.29    0.65
  11   7 -20   -0.40    0.54
 -11  -7  21    0.71    0.62
 -11  -7  22   -0.74    0.64
  10   6  13    9.68    0.81
  10   6  12    8.15    0.79
  10   6  11    1.07    0.58
  10   6  10    4.57    0.67
  10   6   9   21.48    1.20
 -10  -6  -8    6.05    0.71
  10   6   8    6.55    0.70
 -10  -6  -7   74.80    3.23
  10   6   7   75.69    3.25
 -10  -6  -6    0.84    0.64
  10   6   6    0.26    0.56
 -10  -6  -5   10.37    0.77
  10   6   5   10.92    0.82
 -10  -6  -4    3.07    0.68
  10   6   4    4.04    0.71
 -10  -6  -3   40.30    1.90
  10   6   3   39.44    1.85
 -10  -6  -2    1.17    0.54
  10   6   2    1.15    0.58
 -10  -6  -1   26.71    1.33
  10   6   1   26.17    1.32
 -10  -6   0    4.72    0.56
  10   6   0    4.36    0.57
 -10  -6   1  152.50    6.26
  10   6  -1  154.00    6.33
 -10  -6   2   95.57    4.02
  10   6  -2   88.60    3.74
 -10  -6   3    1.43    0.52
  10   6  -3    0.64    0.53
 -10  -6   4   34.23    1.61
  10   6  -4   32.15    1.55
 -10  -6   5   57.11    2.46
  10   6  -5   62.97    2.73
 -10  -6   6    3.74    0.54
  10   6  -6    3.98    0.59
 -10  -6   7  102.60    4.27
  10   6  -7  105.60    4.41
 -10  -6   8    7.83    0.67
  10   6  -8    8.01    0.72
 -10  -6   9   38.03    1.78
  10   6  -9   37.70    1.75
 -10  -6  10  119.70    4.99
  10   6 -10  117.10    4.85
 -10  -6  11   23.04    1.17
  10   6 -11   24.82    1.26
 -10  -6  12   20.69    1.10
  10   6 -12   22.44    1.18
 -10  -6  13   71.16    3.04
  10   6 -13   61.20    2.66
 -10  -6  14   -0.44    0.60
  10   6 -14    0.48    0.54
 -10  -6  15    0.85    0.59
  10   6 -15    1.16    0.60
 -10  -6  16   18.37    1.11
  10   6 -16   16.47    1.00
 -10  -6  17   -0.41    0.59
  10   6 -17   -0.65    0.54
 -10  -6  18    2.73    0.59
  10   6 -18    2.95    0.60
 -10  -6  19    2.12    0.67
  10   6 -19    1.07    0.61
 -10  -6  20    4.02    0.72
 -10  -6  21   20.97    1.16
 -10  -6  22    2.83    0.68
   9   5  14   14.48    0.96
   9   5  13   -0.02    0.61
   9   5  12    1.12    0.61
   9   5  11   17.43    1.07
   9   5  10   35.30    1.70
   9   5   9    2.90    0.64
  -9  -5  -8   34.63    1.69
   9   5   8   32.75    1.63
  -9  -5  -7    6.50    0.83
   9   5   7    6.38    0.72
  -9  -5  -6   37.84    1.78
   9   5   6   40.08    1.89
  -9  -5  -5    6.44    0.67
   9   5   5    5.25    0.75
  -9  -5  -4    1.58    0.55
   9   5   4    3.89    0.66
  -9  -5  -3   66.40    2.89
   9   5   3   62.24    2.72
  -9  -5  -2  133.80    5.53
   9   5   2  135.80    5.61
  -9  -5  -1   32.47    1.55
   9   5   1   31.25    1.50
  -9  -5   0  127.10    5.25
   9   5   0  132.20    5.46
  -9  -5   1   57.41    2.50
   9   5  -1   60.20    2.62
  -9  -5   2    7.26    0.66
   9   5  -2    5.96    0.59
  -9  -5   3    6.08    0.63
   9   5  -3    5.20    0.63
  -9  -5   4    8.21    0.67
   9   5  -4    8.41    0.70
  -9  -5   5   14.76    0.88
   9   5  -5   13.31    0.85
  -9  -5   6  595.60   23.89
   9   5  -6  712.10   28.56
  -9  -5   7   31.37    1.49
   9   5  -7   36.08    1.69
  -9  -5   8  498.10   20.05
   9   5  -8  405.90   16.35
  -9  -5   9    8.22    0.68
   9   5  -9   10.58    0.77
  -9  -5  10  151.60    6.21
   9   5 -10  154.00    6.32
  -9  -5  11   22.34    1.15
   9   5 -11   17.78    1.01
  -9  -5  12    4.75    0.56
   9   5 -12    4.25    0.57
  -9  -5  13   -0.87    0.48
   9   5 -13   -0.86    0.54
  -9  -5  14  242.10    9.84
   9   5 -14  232.90    9.46
  -9  -5  15   58.03    2.58
   9   5 -15   59.04    2.58
  -9  -5  16    4.94    0.78
   9   5 -16    6.82    0.68
  -9  -5  17    6.70    0.74
   9   5 -17    3.76    0.62
  -9  -5  18    2.59    0.58
   9   5 -18    3.73    0.57
  -9  -5  19    0.91    0.65
  -9  -5  20   24.47    1.30
  -9  -5  21    1.64    0.65
  -9  -5  22    0.94    0.68
  -9  -5  23    2.77    0.75
   8   4  15    4.48    0.62
   8   4  15    4.88    0.71
   8   4  14    4.35    0.64
   8   4  13    4.33    0.68
   8   4  12   18.95    1.10
   8   4  11    5.83    0.67
   8   4  10   43.02    1.97
   8   4   9    3.27    0.65
   8   4   8   -0.11    0.63
  -8  -4  -7   15.20    0.97
   8   4   7   13.73    0.93
  -8  -4  -6    9.21    0.73
   8   4   6    8.59    0.78
  -8  -4  -5   20.55    1.14
   8   4   5   20.13    1.13
  -8  -4  -4   84.64    3.60
   8   4   4   86.27    3.67
  -8  -4  -3   44.49    2.02
   8   4   3   42.27    1.92
  -8  -4  -2   16.92    0.97
   8   4   2   15.06    0.94
  -8  -4  -1   95.62    3.98
   8   4   1   97.35    4.08
  -8  -4   0   57.34    2.51
   8   4   0   57.65    2.51
  -8  -4   1    8.09    0.70
   8   4  -1    7.13    0.65
  -8  -4   2    4.75    0.56
   8   4  -2    4.46    0.58
  -8  -4   3    3.55    0.54
   8   4  -3    3.87    0.58
  -8  -4   4  158.30    6.47
   8   4  -4  147.50    6.05
  -8  -4   5   60.13    2.57
   8   4  -5   63.72    2.74
  -8  -4   6   59.16    2.53
   8   4  -6   64.94    2.80
  -8  -4   7  310.90   12.53
   8   4  -7  310.50   12.54
  -8  -4   8  329.30   13.28
   8   4  -8  287.00   11.60
  -8  -4   9  150.60    6.18
   8   4  -9  124.80    5.15
  -8  -4  10  105.80    4.42
   8   4 -10   99.14    4.12
  -8  -4  11   22.97    1.20
   8   4 -11   22.02    1.14
  -8  -4  12   14.73    0.86
   8   4 -12   14.56    0.88
  -8  -4  13   71.39    3.04
   8   4 -13   72.09    3.08
  -8  -4  14   18.06    1.10
   8   4 -14   18.73    1.08
  -8  -4  15    9.71    0.87
   8   4 -15    7.85    0.76
  -8  -4  16   95.33    4.03
   8   4 -16   98.83    4.14
  -8  -4  17    2.82    0.61
  -8  -4  18    9.02    0.81
  -8  -4  19    1.33    0.65
  -8  -4  20    0.91    0.62
  -8  -4  21    0.54    0.63
  -8  -4  22    4.73    0.64
  -8  -4  23    0.10    0.68
  -8  -4  23    1.64    0.74
   7   3  16    3.01    0.61
   7   3  16    1.64    0.58
   7   3  15    5.83    0.68
   7   3  15    5.40    0.62
   7   3  14    4.86    0.59
   7   3  14    4.84    0.69
   7   3  13   40.93    1.87
   7   3  12   25.03    1.30
   7   3  11  116.80    4.86
   7   3  10    7.91    0.76
   7   3   9   20.15    1.15
   7   3   8    4.57    0.66
  -7  -3  -7   32.72    1.57
   7   3   7   31.09    1.54
  -7  -3  -6   18.01    1.07
   7   3   6   17.21    1.01
  -7  -3  -5  132.80    5.49
   7   3   5  148.00    6.10
  -7  -3  -4   13.11    0.91
   7   3   4    9.01    0.71
  -7  -3  -3  120.10    4.97
   7   3   3  120.60    5.01
  -7  -3  -2  100.00    4.18
   7   3   2  101.10    4.22
  -7  -3  -1   16.69    0.97
   7   3   1   17.90    1.00
  -7  -3   0   17.31    0.94
   7   3   0   16.63    0.95
  -7  -3   1    1.32    0.46
   7   3  -1    1.61    0.49
  -7  -3   2    1.44    0.52
   7   3  -2    1.15    0.47
  -7  -3   3  271.30   10.96
   7   3  -3  275.50   11.12
  -7  -3   4    3.54    0.54
   7   3  -4    2.95    0.50
  -7  -3   5   35.23    1.59
   7   3  -5   35.57    1.64
  -7  -3   6  200.10    8.11
   7   3  -6  199.90    8.11
  -7  -3   7  169.60    6.90
   7   3  -7  180.40    7.33
  -7  -3   8  102.40    4.25
   7   3  -8  105.20    4.36
  -7  -3   9  182.90    7.49
   7   3  -9  138.30    5.66
  -7  -3  10    1.05    0.52
   7   3 -10    1.19    0.50
  -7  -3  11   79.75    3.36
   7   3 -11   90.63    3.79
  -7  -3  12   61.73    2.63
   7   3 -12   61.56    2.65
  -7  -3  13   10.19    0.75
   7   3 -13   12.11    0.82
  -7  -3  14   34.10    1.62
   7   3 -14   38.99    1.79
  -7  -3  15  106.20    4.48
  -7  -3  16   16.63    1.05
  -7  -3  17  121.10    5.00
  -7  -3  18    1.02    0.64
  -7  -3  19    6.47    0.74
  -7  -3  20   13.98    0.94
  -7  -3  21    0.86    0.58
  -7  -3  21    0.34    0.70
  -7  -3  22    0.25    0.65
  -7  -3  22    0.18    0.62
  -7  -3  23    6.06    0.80
  -7  -3  23    8.55    0.87
   6   2  17   11.78    0.78
   6   2  17   10.40    0.84
   6   2  16    0.34    0.56
   6   2  16    0.54    0.62
   6   2  15   19.81    1.15
   6   2  15   20.80    1.10
   6   2  14    0.13    0.65
   6   2  14    1.02    0.53
   6   2  13   10.83    0.83
   6   2  13   10.18    0.78
   6   2  12   10.41    0.84
   6   2  11   41.75    1.95
   6   2  10   76.80    3.30
   6   2   9  120.50    5.03
   6   2   8   37.26    1.81
   6   2   7  136.50    5.64
  -6  -2  -6    2.21    0.64
   6   2   6    3.30    0.59
  -6  -2  -5    5.15    0.66
   6   2   5    4.01    0.59
  -6  -2  -4   12.54    0.88
   6   2   4   11.51    0.82
  -6  -2  -3  273.10   11.06
   6   2   3  248.70   10.08
  -6  -2  -2   18.95    1.02
   6   2   2   19.06    1.05
  -6  -2  -1  461.60   18.56
   6   2   1  482.60   19.39
  -6  -2   0    3.38    0.55
   6   2   0    6.90    0.65
  -6  -2   1  444.90   17.86
   6   2  -1  409.10   16.44
  -6  -2   2   37.15    1.67
   6   2  -2   34.24    1.56
  -6  -2   3  393.90   15.83
   6   2  -3  396.50   15.93
  -6  -2   4   13.09    0.77
   6   2  -4   11.95    0.74
  -6  -2   5  564.40   22.62
   6   2  -5  623.30   24.98
  -6  -2   6    6.04    0.54
   6   2  -6    5.13    0.51
  -6  -2   7    1.87    0.44
   6   2  -7    2.15    0.47
  -6  -2   8    0.52    0.45
   6   2  -8    0.29    0.43
  -6  -2   9   35.67    1.64
   6   2  -9   30.66    1.42
  -6  -2  10   38.51    1.72
   6   2 -10   33.05    1.53
  -6  -2  11  193.70    7.87
   6   2 -11  188.90    7.68
  -6  -2  12    1.54    0.48
   6   2 -12    2.33    0.52
  -6  -2  13  118.30    4.90
   6   2 -13  128.20    5.27
  -6  -2  14   -0.33    0.56
  -6  -2  15   17.54    1.06
  -6  -2  16    0.66    0.64
  -6  -2  17   24.78    1.28
  -6  -2  18   -0.18    0.57
  -6  -2  19   41.08    1.88
  -6  -2  19   37.52    1.73
  -6  -2  20    1.87    0.58
  -6  -2  20    0.90    0.67
  -6  -2  21   27.88    1.43
  -6  -2  21   29.47    1.46
  -6  -2  22    0.24    0.67
  -6  -2  22    1.36    0.67
   5   1  17    0.84    0.62
   5   1  17   -0.85    0.53
   5   1  16   14.95    0.99
   5   1  16   13.60    0.87
   5   1  15   10.85    0.78
   5   1  15    8.50    0.78
   5   1  14    8.69    0.76
   5   1  14    8.54    0.79
   5   1  13   38.19    1.74
   5   1  13   35.59    1.72
   5   1  12    3.42    0.56
   5   1  12    3.47    0.67
   5   1  11    4.65    0.70
   5   1  10  148.40    6.14
   5   1   9    1.09    0.61
   5   1   8  125.20    5.20
   5   1   7   30.88    1.49
   5   1   6   19.84    1.09
  -5  -1  -5   40.59    1.86
   5   1   5   38.99    1.79
  -5  -1  -4  172.20    7.04
   5   1   4  173.70    7.10
  -5  -1  -3  207.80    8.44
   5   1   3  200.70    8.16
  -5  -1  -2  361.40   14.56
   5   1   2  240.90    9.75
  -5  -1  -1   91.64    3.80
   5   1   1   83.27    3.48
  -5  -1   0  226.90    9.18
   5   1   0  232.50    9.40
  -5  -1   2  574.20   23.00
  -5  -1   3    4.66    0.49
   5   1  -3    5.76    0.55
  -5  -1   5   12.18    0.75
   5   1  -5    9.51    0.61
  -5  -1   6   63.22    2.66
   5   1  -6   59.47    2.50
  -5  -1   7   63.59    2.66
   5   1  -7   60.98    2.57
  -5  -1   8   52.72    2.25
   5   1  -8   54.97    2.35
  -5  -1   9   70.44    2.98
   5   1  -9   63.09    2.68
  -5  -1  10  225.40    9.12
   5   1 -10  227.10    9.19
  -5  -1  11    2.29    0.47
   5   1 -11    2.70    0.47
  -5  -1  12   49.50    2.15
  -5  -1  13    0.19    0.52
  -5  -1  14   33.88    1.63
  -5  -1  15   17.98    1.12
  -5  -1  16    1.16    0.61
  -5  -1  17   29.71    1.46
  -5  -1  17   32.20    1.60
  -5  -1  18    3.89    0.66
  -5  -1  18    4.04    0.71
  -5  -1  19    0.36    0.63
  -5  -1  19    0.80    0.60
  -5  -1  20   35.68    1.68
  -5  -1  20   38.31    1.80
  -5  -1  21    5.82    0.74
  -5  -1  21    4.48    0.73
  -5  -1  22    4.06    0.71
  -5  -1  22    2.93    0.68
   4   0  18    4.45    0.65
   4   0  18    3.19    0.65
   4   0  17   -0.50    0.59
   4   0  17   -0.21    0.57
   4   0  16    9.89    0.85
   4   0  16   11.38    0.82
   4   0  15    1.02    0.65
   4   0  15    0.10    0.59
   4   0  14   96.91    4.05
   4   0  14   94.45    3.99
   4   0  13   -0.92    0.57
   4   0  13    0.85    0.58
   4   0  12   24.08    1.29
   4   0  12   25.11    1.27
   4   0  11   -0.89    0.57
   4   0  11    0.75    0.62
   4   0  10    0.27    0.60
   4   0   9   -0.33    0.57
   4   0   8   62.42    2.72
   4   0   7   -0.21    0.52
   4   0   6  103.40    4.31
   4   0   5    0.34    0.49
   4   0   4  969.30   38.80
  -4   0  -3   -1.31    0.56
   4   0   3    0.10    0.52
  -4   0  -2   46.92    2.05
   4   0   2   45.21    2.00
  -4   0  -1    0.10    0.54
   4   0   1    0.59    0.56
  -4   0   1    0.45    0.42
   4   0  -1   -0.04    0.41
  -4   0   2   78.13    3.20
   4   0  -2   80.63    3.30
  -4   0   3    0.64    0.33
   4   0  -3    0.47    0.33
  -4   0   4    4.14    0.44
   4   0  -4    3.96    0.40
  -4   0   5   -0.54    0.36
   4   0  -5    0.18    0.36
  -4   0   6   61.37    2.57
   4   0  -6   58.15    2.44
  -4   0   7   -0.19    0.39
   4   0  -7   -0.34    0.41
  -4   0   8  615.00   24.63
   4   0  -8  629.60   25.21
  -4   0   9    0.57    0.46
  -4   0  10   13.23    0.78
  -4   0  11    0.01    0.43
  -4   0  12    5.52    0.57
  -4   0  13    0.05    0.51
  -4   0  14   58.85    2.59
  -4   0  15    0.09    0.62
  -4   0  15    0.29    0.59
  -4   0  16   46.98    2.11
  -4   0  16   47.55    2.15
  -4   0  17   -0.65    0.57
  -4   0  17   -0.46    0.64
  -4   0  18   13.47    0.90
  -4   0  18   11.01    0.85
  -4   0  19    0.15    0.53
  -4   0  19    0.11    0.59
  -4   0  20   11.36    0.89
  -4   0  20   13.04    0.92
  -4   0  21    0.40    0.65
  -4   0  21    0.70    0.66
  -4   0  22   16.60    1.03
  -4   0  22   17.33    1.05
   3  -1  19    2.64    0.62
   3  -1  19    2.34    0.59
   3  -1  18   10.06    0.78
   3  -1  18   11.70    0.77
   3  -1  17   -0.73    0.64
   3  -1  17    0.86    0.58
   3  -1  16   27.05    1.37
   3  -1  16   25.98    1.31
   3  -1  15   40.83    1.90
   3  -1  15   41.81    1.96
   3  -1  14    1.14    0.61
   3  -1  14    0.67    0.63
   3  -1  13    8.12    0.83
   3  -1  13    8.89    0.78
   3  -1  12   12.45    0.92
   3  -1  12   12.37    0.86
   3  -1  11    4.72    0.74
   3  -1  11    5.58    0.68
   3  -1  10   72.13    3.11
   3  -1  10   70.86    3.07
   3  -1   9    2.25    0.65
   3  -1   9    1.69    0.59
   3  -1   8   28.26    1.42
   3  -1   8   27.91    1.36
   3  -1   7   73.84    3.16
   3  -1   6    0.62    0.56
   3  -1   5  436.30   17.54
   3  -1   4  399.50   16.07
   3  -1   3  107.20    4.43
   3  -1   2   79.08    3.31
  -3   1   0    3.02    0.45
   3  -1   0    2.98    0.43
  -3   1   4    3.80    0.35
   3  -1  -4    3.70    0.35
  -3   1   5   74.19    3.05
   3  -1  -5   70.94    2.92
  -3   1   6   31.27    1.39
  -3   1   7   20.94    1.01
  -3   1   8   14.29    0.79
  -3   1   9   36.46    1.66
  -3   1  10  236.80    9.56
  -3   1  11    6.35    0.62
  -3   1  11    5.76    0.56
  -3   1  12    3.91    0.53
  -3   1  12    3.09    0.54
  -3   1  13    0.86    0.56
  -3   1  13    0.45    0.49
  -3   1  14   23.21    1.24
  -3   1  14   26.18    1.33
  -3   1  15   28.59    1.46
  -3   1  15   29.01    1.42
  -3   1  16   17.11    1.04
  -3   1  16   17.17    1.04
  -3   1  17   52.30    2.34
  -3   1  17   48.61    2.19
  -3   1  18   19.41    1.09
  -3   1  18   20.46    1.13
  -3   1  19    2.38    0.65
  -3   1  19    1.33    0.63
  -3   1  20   22.39    1.20
  -3   1  20   24.15    1.30
  -3   1  21    5.73    0.71
  -3   1  21    6.00    0.74
  -3   1  22   -0.11    0.69
   2  -2  19    8.10    0.72
   2  -2  19    7.69    0.68
   2  -2  18    0.85    0.54
   2  -2  18    1.52    0.63
   2  -2  17   31.49    1.51
   2  -2  17   34.89    1.66
   2  -2  16    0.70    0.64
   2  -2  16   -0.03    0.57
   2  -2  15    6.85    0.66
   2  -2  15    7.28    0.76
   2  -2  14    0.90    0.61
   2  -2  14    0.44    0.66
   2  -2  13   16.99    1.01
   2  -2  13   15.21    1.01
   2  -2  12    1.68    0.64
   2  -2  12    2.93    0.64
   2  -2  11   63.44    2.75
   2  -2  11   65.21    2.85
   2  -2  10   17.59    1.07
   2  -2  10   17.92    1.05
   2  -2   9   55.46    2.45
   2  -2   9   56.99    2.51
   2  -2   8   22.39    1.18
   2  -2   8   22.32    1.15
   2  -2   7   21.19    1.11
   2  -2   6   97.30    4.05
   2  -2   5  164.50    6.72
   2  -2   4   22.18    1.14
   2  -2   2  356.70   14.33
   2  -2   1    7.25    0.57
   2  -2   0  189.60    7.62
  -2   2   1  112.60    4.53
   2  -2  -1  110.20    4.43
  -2   2   2   35.06    1.44
   2  -2  -2   39.96    1.63
  -2   2   4    0.20    0.31
  -2   2   5  103.80    4.23
  -2   2   6    9.63    0.62
  -2   2   7   -0.08    0.39
  -2   2   7   -0.74    0.41
  -2   2   8    1.72    0.45
  -2   2   8    0.56    0.45
  -2   2   9    9.28    0.67
  -2   2   9   10.73    0.71
  -2   2  10   16.73    0.87
  -2   2  10   16.79    0.96
  -2   2  11   37.26    1.68
  -2   2  11   36.20    1.66
  -2   2  12   17.52    0.99
  -2   2  12   18.24    1.01
  -2   2  13   91.88    3.86
  -2   2  13   89.54    3.80
  -2   2  14    4.81    0.66
  -2   2  14    5.24    0.70
  -2   2  15   12.84    0.89
  -2   2  15   13.55    0.91
  -2   2  16   17.49    1.06
  -2   2  16   13.99    0.92
  -2   2  17   46.96    2.12
  -2   2  17   50.44    2.24
  -2   2  18    1.19    0.55
  -2   2  18    1.23    0.60
  -2   2  19   46.17    2.08
  -2   2  19   40.85    1.86
  -2   2  20   -0.78    0.60
  -2   2  20    0.53    0.61
  -2   2  21    3.58    0.68
  -2   2  21    3.76    0.70
   1  -3  20    1.25    0.67
   1  -3  20    0.64    0.67
   1  -3  19    0.18    0.65
   1  -3  19   -0.04    0.55
   1  -3  18    4.64    0.75
   1  -3  18    5.42    0.66
   1  -3  17   11.46    0.90
   1  -3  17   10.23    0.80
   1  -3  16   21.50    1.20
   1  -3  16   26.01    1.36
   1  -3  14   13.29    1.00
   1  -3  14   12.40    0.87
   1  -3  13   21.38    1.25
   1  -3  13   21.42    1.15
   1  -3  12   20.02    1.22
   1  -3  12   20.16    1.11
   1  -3  11   11.16    0.83
   1  -3  10   14.50    0.95
   1  -3   9   65.55    2.83
   1  -3   8   38.74    1.78
   1  -3   7  301.10   12.16
   1  -3   6    5.30    0.63
   1  -3   5   82.58    3.48
  -1   3  -4   25.21    1.26
   1  -3   4   25.83    1.27
  -1   3  -3   70.79    2.99
   1  -3   3   71.04    3.01
  -1   3  -2    6.33    0.63
   1  -3   2    6.51    0.63
  -1   3   0   76.30    3.12
   1  -3   0   73.47    3.01
  -1   3   2    9.79    0.53
   1  -3  -2    9.75    0.53
  -1   3   3  180.30    7.26
   1  -3  -3  176.20    7.10
  -1   3   4   84.08    3.45
   1  -3  -4   82.03    3.37
  -1   3   5   16.37    0.84
   1  -3  -5   16.26    0.83
  -1   3   6    0.26    0.38
  -1   3   7  157.70    6.42
  -1   3   8   26.66    1.27
  -1   3   9  214.40    8.70
  -1   3  10   21.89    1.11
  -1   3  11    8.45    0.65
  -1   3  11    8.41    0.62
  -1   3  12   23.42    1.21
  -1   3  12   24.75    1.29
  -1   3  13   66.66    2.87
  -1   3  13   65.54    2.86
  -1   3  14    0.75    0.61
  -1   3  14   -0.15    0.59
  -1   3  15   11.68    0.83
  -1   3  15   11.40    0.86
  -1   3  16   11.02    0.86
  -1   3  16    8.44    0.77
  -1   3  17    0.77    0.62
  -1   3  17    1.37    0.57
  -1   3  18   12.07    0.89
  -1   3  18   13.62    0.93
  -1   3  19    8.82    0.77
  -1   3  19    8.94    0.80
  -1   3  20    0.76    0.60
  -1   3  20    2.80    0.63
   0  -4  20    1.98    0.62
   0  -4  20    2.47    0.64
   0  -4  19    0.91    0.63
   0  -4  19    1.26    0.59
   0  -4  18    2.29    0.56
   0  -4  18    3.44    0.69
   0  -4  17    0.64    0.62
   0  -4  17    0.28    0.64
   0  -4  16   14.75    0.98
   0  -4  16   15.68    1.05
   0  -4  15    9.07    0.80
   0  -4  15   11.54    0.88
   0  -4  14   98.71    4.14
   0  -4  13   -0.15    0.55
   0  -4  12    3.95    0.67
   0  -4  11  176.80    7.25
   0  -4  10   69.76    3.00
   0  -4   9   12.33    0.83
   0  -4   8  331.00   13.35
   0   4  -7   34.57    1.62
   0  -4   7   35.14    1.64
   0   4  -6   58.57    2.54
   0  -4   6   57.17    2.48
   0   4  -5   31.81    1.49
   0  -4   5   35.37    1.64
   0   4  -4    2.20    0.57
   0  -4   4    1.74    0.55
   0   4  -3  203.20    8.23
   0  -4   3  230.70    9.33
   0   4  -2  108.80    4.47
   0  -4   2   98.31    4.06
   0   4  -1    6.29    0.54
   0  -4   1    5.81    0.58
   0   4   0  386.10   15.49
   0  -4   0  375.20   15.05
   0   4   1    6.83    0.52
   0  -4  -1    6.42    0.52
   0   4   2  107.00    4.37
   0  -4  -2  104.30    4.26
   0   4   3  227.70    9.18
   0  -4  -3  229.20    9.24
   0   4   4    1.20    0.41
   0  -4  -4    2.24    0.45
   0   4   5   34.14    1.53
   0  -4  -5   31.23    1.41
   0   4   6   58.16    2.48
   0  -4  -6   59.23    2.51
   0   4   7   29.25    1.37
   0  -4  -7   32.07    1.47
   0   4   8  277.60   11.21
   0   4   9   12.65    0.79
   0   4  10   59.04    2.55
   0   4  11  140.80    5.80
   0   4  12    3.75    0.62
   0   4  13   -0.20    0.56
   0   4  13    0.35    0.61
   0   4  14  107.10    4.46
   0   4  14  100.10    4.20
   0   4  15   10.83    0.84
   0   4  15   10.63    0.81
   0   4  16   15.13    0.97
   0   4  16   14.67    0.98
   0   4  17    1.18    0.61
   0   4  17    1.17    0.61
   0   4  18    1.68    0.57
   0   4  18    2.10    0.63
   0   4  19   -0.59    0.63
   0   4  19    0.59    0.67
   0   4  20    1.76    0.62
   0   4  20    2.76    0.65
  -1  -5  20    6.55    0.72
  -1  -5  20    5.48    0.66
  -1  -5  19    0.50    0.64
  -1  -5  19    0.16    0.55
  -1  -5  18   35.48    1.65
  -1  -5  18   34.91    1.67
  -1  -5  17   14.93    1.00
  -1  -5  17   13.84    0.89
  -1  -5  16   59.79    2.60
  -1  -5  15   13.78    0.94
  -1  -5  14    6.37    0.67
  -1  -5  13   17.86    1.06
  -1  -5  12  232.00    9.44
  -1  -5  11    1.37    0.60
  -1  -5  10  118.00    4.91
   1   5  -9   29.01    1.41
  -1  -5   9   25.92    1.29
   1   5  -8    4.17    0.62
  -1  -5   8    2.85    0.49
   1   5  -7   36.85    1.72
  -1  -5   7   34.63    1.64
   1   5  -6   21.45    1.15
  -1  -5   6   18.55    1.02
   1   5  -5   22.53    1.17
  -1  -5   5   22.64    1.17
   1   5  -4  728.80   29.20
  -1  -5   4  746.60   29.90
   1   5  -3   28.55    1.35
  -1  -5   3   27.36    1.32
   1   5  -2    1.70    0.52
  -1  -5   2    1.36    0.54
   1   5  -1   33.49    1.52
  -1  -5   1   34.27    1.58
   1   5   0    1.49    0.51
  -1  -5   0    0.50    0.48
   1   5   1   56.47    2.40
  -1  -5  -1   55.09    2.35
   1   5   2  225.10    9.09
  -1  -5  -2  220.40    8.91
   1   5   3   11.60    0.71
  -1  -5  -3   11.68    0.71
   1   5   4  236.20    9.54
  -1  -5  -4  236.00    9.53
   1   5   5    0.47    0.41
  -1  -5  -5    0.32    0.44
   1   5   6  159.90    6.52
  -1  -5  -6  157.50    6.43
   1   5   7    3.03    0.49
  -1  -5  -7    3.32    0.53
   1   5   8    3.52    0.47
  -1  -5  -8    5.23    0.60
   1   5   9   11.58    0.77
   1   5  10  221.20    9.00
   1   5  11    3.00    0.65
   1   5  12   22.44    1.26
   1   5  13    3.00    0.66
   1   5  14    0.89    0.62
   1   5  15    1.99    0.58
   1   5  15    2.28    0.68
   1   5  16   18.25    1.03
   1   5  16   19.81    1.11
   1   5  17    0.75    0.63
   1   5  17    0.65    0.60
   1   5  18   10.07    0.82
   1   5  18   11.96    0.86
   1   5  19    3.85    0.66
   1   5  19    3.73    0.69
  -2  -6  20    2.12    0.70
  -2  -6  20    0.57    0.66
  -2  -6  19   11.80    0.88
  -2  -6  19   11.31    0.92
  -2  -6  18    0.96    0.53
  -2  -6  17    6.57    0.69
  -2  -6  16   11.61    0.83
  -2  -6  15    1.05    0.62
  -2  -6  14   22.57    1.20
  -2  -6  13   10.71    0.85
  -2  -6  12    2.24    0.68
   2   6 -11  132.70    5.48
  -2  -6  11  119.70    4.99
   2   6 -10   35.43    1.66
  -2  -6  10   35.15    1.66
   2   6  -9    6.86    0.67
  -2  -6   9    6.01    0.65
   2   6  -8   25.23    1.29
  -2  -6   8   24.51    1.23
   2   6  -7    1.19    0.51
  -2  -6   7    1.69    0.53
   2   6  -6   79.85    3.39
  -2  -6   6   61.27    2.66
   2   6  -5  548.40   22.01
  -2  -6   5  536.60   21.54
   2   6  -4  367.90   14.82
  -2  -6   4  367.00   14.78
   2   6  -3   38.06    1.74
  -2  -6   3   18.51    1.03
   2   6  -2   70.67    2.99
  -2  -6   2   68.59    2.90
   2   6  -1   34.14    1.56
  -2  -6   1   34.86    1.59
   2   6   0    0.60    0.47
  -2  -6   0    1.09    0.46
   2   6   1   26.22    1.27
  -2  -6  -1   28.67    1.35
   2   6   2    0.59    0.42
  -2  -6  -2    1.00    0.47
   2   6   3   17.15    0.91
  -2  -6  -3   16.80    0.91
   2   6   4    0.77    0.42
  -2  -6  -4   -0.32    0.47
   2   6   5   15.91    0.89
  -2  -6  -5   15.04    0.90
   2   6   6   63.97    2.73
  -2  -6  -6   64.49    2.76
   2   6   7    4.50    0.53
  -2  -6  -7    4.88    0.57
   2   6   8  103.50    4.33
  -2  -6  -8   97.86    4.08
   2   6   9  121.10    5.03
  -2  -6  -9  119.00    4.93
   2   6  10    5.11    0.67
   2   6  11   50.28    2.26
   2   6  12    2.28    0.60
   2   6  13    2.40    0.58
   2   6  14   42.85    1.96
   2   6  15    7.86    0.75
   2   6  16    3.16    0.60
   2   6  16    4.16    0.62
   2   6  17    8.01    0.70
   2   6  17    7.01    0.77
   2   6  18   -0.07    0.57
   2   6  18    0.68    0.64
  -3  -7  20    3.02    0.67
  -3  -7  20    3.00    0.69
  -3  -7  19    3.61    0.70
  -3  -7  18    3.96    0.63
  -3  -7  17    9.11    0.74
  -3  -7  16    0.69    0.62
  -3  -7  15   10.98    0.85
  -3  -7  14   33.94    1.61
   3   7 -13  122.80    5.11
  -3  -7  13  124.70    5.18
   3   7 -12   90.65    3.85
  -3  -7  12   87.27    3.72
   3   7 -11   -0.05    0.61
  -3  -7  11   -0.46    0.54
   3   7 -10   28.14    1.41
  -3  -7  10   28.43    1.41
   3   7  -9   87.64    3.71
  -3  -7   9   66.08    2.86
   3   7  -8   15.89    0.97
  -3  -7   8   14.10    0.87
   3   7  -7   13.08    0.86
  -3  -7   7   15.34    0.92
   3   7  -6   10.09    0.74
  -3  -7   6   11.44    0.81
   3   7  -5   55.12    2.41
  -3  -7   5   56.51    2.48
   3   7  -4    2.55    0.58
  -3  -7   4    2.89    0.53
   3   7  -3  177.40    7.23
  -3  -7   3  189.60    7.72
   3   7  -2   75.22    3.18
  -3  -7   2   71.42    3.04
   3   7  -1  152.50    6.25
  -3  -7   1  143.40    5.87
   3   7   0   15.13    0.86
  -3  -7   0   15.73    0.88
   3   7   1  389.90   15.70
  -3  -7  -1  396.80   15.96
   3   7   2    7.97    0.64
  -3  -7  -2    8.39    0.66
   3   7   3   46.15    2.04
  -3  -7  -3   47.48    2.10
   3   7   4   32.97    1.53
  -3  -7  -4   32.42    1.51
   3   7   5  145.60    5.98
  -3  -7  -5  142.60    5.85
   3   7   6    0.99    0.55
  -3  -7  -6    2.02    0.51
   3   7   7  375.90   15.17
  -3  -7  -7  361.10   14.56
   3   7   8    1.05    0.50
  -3  -7  -8    0.30    0.54
   3   7   9  109.30    4.57
  -3  -7  -9  106.70    4.44
   3   7  10    0.83    0.53
  -3  -7 -10    0.13    0.54
   3   7  11    1.31    0.61
   3   7  12   -0.94    0.58
   3   7  13   80.55    3.43
   3   7  14    6.40    0.73
   3   7  15   25.40    1.30
   3   7  16    1.08    0.57
   3   7  17    4.36    0.64
   3   7  17    5.05    0.75
   3   7  18    0.56    0.66
   3   7  18    1.41    0.64
  -4  -8  20    0.18    0.61
  -4  -8  19   27.22    1.40
  -4  -8  18    0.45    0.62
  -4  -8  17   23.08    1.21
  -4  -8  16   11.32    0.85
  -4  -8  15    0.34    0.64
   4   8 -14   17.36    1.04
  -4  -8  14   14.66    0.98
   4   8 -13    1.64    0.72
  -4  -8  13    2.02    0.65
   4   8 -12    3.77    0.74
  -4  -8  12    3.42    0.72
   4   8 -11  192.20    7.86
  -4  -8  11  186.10    7.62
   4   8 -10   37.66    1.75
  -4  -8  10   37.84    1.77
   4   8  -9    7.86    0.73
  -4  -8   9    7.18    0.62
   4   8  -8   32.56    1.55
  -4  -8   8   32.48    1.57
   4   8  -7   34.82    1.65
  -4  -8   7   37.39    1.75
   4   8  -6   49.83    2.21
  -4  -8   6   60.35    2.62
   4   8  -5    3.65    0.58
  -4  -8   5    6.15    0.68
   4   8  -4    0.86    0.54
  -4  -8   4   -0.06    0.45
   4   8  -3   53.78    2.38
  -4  -8   3   47.90    2.13
   4   8  -2  151.80    6.23
  -4  -8   2  139.20    5.73
   4   8  -1    4.59    0.61
  -4  -8   1    4.12    0.58
   4   8   0  130.20    5.35
  -4  -8   0  131.10    5.40
   4   8   1   81.91    3.45
  -4  -8  -1   85.69    3.60
   4   8   2   23.00    1.18
  -4  -8  -2   19.32    1.05
   4   8   3  140.20    5.76
  -4  -8  -3  143.20    5.88
   4   8   4   24.15    1.22
  -4  -8  -4   25.11    1.26
   4   8   5    3.00    0.56
  -4  -8  -5    2.24    0.53
   4   8   6  147.10    6.04
  -4  -8  -6  155.00    6.35
   4   8   7   14.40    0.89
  -4  -8  -7   16.90    0.99
   4   8   8   57.37    2.51
  -4  -8  -8   57.76    2.54
   4   8   9   68.36    2.94
  -4  -8  -9   63.44    2.74
   4   8  10   49.39    2.22
  -4  -8 -10   51.18    2.28
   4   8  11   51.38    2.28
   4   8  12   89.37    3.77
   4   8  13   10.89    0.79
   4   8  14    3.09    0.61
   4   8  15   10.46    0.83
   4   8  16    4.93    0.71
   4   8  17    8.12    0.78
   4   8  17    7.42    0.75
  -5  -9  20    6.40    0.71
  -5  -9  19    6.47    0.70
  -5  -9  18   25.79    1.33
  -5  -9  17    2.77    0.60
   5   9 -16    2.02    0.60
  -5  -9  16    1.15    0.65
   5   9 -15    1.67    0.65
  -5  -9  15    1.67    0.60
   5   9 -14  100.10    4.21
  -5  -9  14  107.70    4.50
   5   9 -13   26.42    1.40
  -5  -9  13   29.23    1.50
   5   9 -12   41.67    1.95
  -5  -9  12   38.90    1.88
   5   9 -11    7.57    0.75
  -5  -9  11    5.46    0.73
   5   9 -10   64.89    2.82
  -5  -9  10   54.82    2.42
   5   9  -9   13.84    0.90
  -5  -9   9   17.18    1.07
   5   9  -8   21.93    1.17
  -5  -9   8   27.47    1.38
   5   9  -7   31.28    1.51
  -5  -9   7   25.21    1.31
   5   9  -6   87.52    3.70
  -5  -9   6   91.23    3.85
   5   9  -5   85.77    3.63
  -5  -9   5   84.57    3.57
   5   9  -4  203.30    8.29
  -5  -9   4  197.90    8.07
   5   9  -3    2.31    0.58
  -5  -9   3    1.96    0.52
   5   9  -2   27.02    1.34
  -5  -9   2   25.76    1.27
   5   9  -1    4.56    0.61
  -5  -9   1    4.88    0.56
   5   9   0   12.53    0.79
  -5  -9   0   12.90    0.82
   5   9   1   39.83    1.82
  -5  -9  -1   38.21    1.76
   5   9   2  148.30    6.09
  -5  -9  -2  149.10    6.12
   5   9   3   46.05    2.05
  -5  -9  -3   44.27    1.99
   5   9   4   54.20    2.39
  -5  -9  -4   52.99    2.33
   5   9   5    0.18    0.50
  -5  -9  -5    0.89    0.55
   5   9   6   22.52    1.21
  -5  -9  -6   22.08    1.19
   5   9   7    0.47    0.57
  -5  -9  -7    0.56    0.49
   5   9   8   14.51    0.93
  -5  -9  -8   14.59    0.93
   5   9   9    1.60    0.60
  -5  -9  -9    0.99    0.56
   5   9  10   45.19    2.05
  -5  -9 -10   43.21    1.97
   5   9  11    1.24    0.60
  -5  -9 -11    0.57    0.60
   5   9  12    4.94    0.67
   5   9  13   14.22    0.92
   5   9  14    6.87    0.74
   5   9  15    0.96    0.63
  -6 -10  20    0.12    0.67
  -6 -10  19    5.42    0.74
  -6 -10  18    9.05    0.85
   6  10 -17    1.47    0.61
  -6 -10  17   -0.14    0.61
   6  10 -16   37.86    1.77
  -6 -10  16   40.42    1.88
   6  10 -15    7.85    0.80
  -6 -10  15    8.21    0.83
   6  10 -14   14.69    0.95
  -6 -10  14   14.10    1.03
   6  10 -13    0.00    0.64
  -6 -10  13   -0.53    0.70
   6  10 -12    0.06    0.65
  -6 -10  12    0.10    0.65
   6  10 -11    8.76    0.78
  -6 -10  11    7.68    0.76
   6  10 -10   44.11    2.04
  -6 -10  10   47.56    2.17
   6  10  -9    1.53    0.60
  -6 -10   9    1.66    0.60
   6  10  -8   12.80    0.87
  -6 -10   8   11.85    0.82
   6  10  -7   51.11    2.30
  -6 -10   7   48.86    2.20
   6  10  -6  128.80    5.34
  -6 -10   6  125.00    5.19
   6  10  -5   44.69    2.03
  -6 -10   5   43.69    1.97
   6  10  -4    1.01    0.57
  -6 -10   4    0.23    0.51
   6  10  -3    7.30    0.72
  -6 -10   3    6.45    0.65
   6  10  -2  173.90    7.13
  -6 -10   2  172.10    7.05
   6  10  -1    0.43    0.53
  -6 -10   1   -0.21    0.48
   6  10   0   58.93    2.58
  -6 -10   0   55.34    2.42
   6  10   1    3.05    0.59
  -6 -10  -1    4.07    0.56
   6  10   2   14.18    0.90
  -6 -10  -2   15.78    0.95
   6  10   3   65.57    2.85
  -6 -10  -3   62.51    2.71
   6  10   4   54.08    2.38
  -6 -10  -4   48.14    2.17
   6  10   5    0.54    0.55
  -6 -10  -5    0.11    0.55
   6  10   6   81.91    3.48
  -6 -10  -6   82.27    3.50
   6  10   7    2.71    0.62
  -6 -10  -7    3.00    0.60
   6  10   8    3.43    0.61
  -6 -10  -8    4.67    0.61
   6  10   9   12.90    0.88
  -6 -10  -9   11.80    0.81
   6  10  10   23.76    1.24
  -6 -10 -10   24.40    1.24
   6  10  11    5.69    0.64
  -6 -10 -11    6.20    0.68
   6  10  12   33.24    1.58
   6  10  13    3.78    0.66
   6  10  14   15.24    0.98
  -7 -11  20    1.59    0.72
  -7 -11  19    0.61    0.68
   7  11 -18    1.44    0.58
  -7 -11  18    0.60    0.57
   7  11 -17   34.25    1.64
  -7 -11  17   33.27    1.64
   7  11 -16    4.44    0.76
  -7 -11  16    5.87    0.74
   7  11 -15   10.19    0.79
  -7 -11  15   10.51    0.93
   7  11 -14   10.31    0.85
  -7 -11  14   10.21    0.89
   7  11 -13    3.06    0.66
  -7 -11  13    3.33    0.66
   7  11 -12    4.60    0.66
  -7 -11  12    1.42    0.68
   7  11 -11   10.60    0.82
  -7 -11  11    9.56    0.85
   7  11 -10    1.21    0.56
  -7 -11  10    1.39    0.61
   7  11  -9   56.89    2.53
  -7 -11   9   61.37    2.68
   7  11  -8    5.28    0.65
  -7 -11   8    6.61    0.69
   7  11  -7    5.17    0.66
  -7 -11   7    4.11    0.67
   7  11  -6   49.04    2.19
  -7 -11   6   49.59    2.22
   7  11  -5    2.08    0.61
  -7 -11   5    1.08    0.51
   7  11  -4    7.68    0.72
  -7 -11   4    7.59    0.66
   7  11  -3   31.52    1.59
  -7 -11   3   29.82    1.47
   7  11  -2   31.57    1.55
  -7 -11   2   32.02    1.55
   7  11  -1   40.61    1.90
  -7 -11   1   42.61    1.94
   7  11   0   21.68    1.18
  -7 -11   0   23.96    1.24
   7  11   1   25.22    1.32
  -7 -11  -1   26.70    1.35
   7  11   2   18.22    1.08
  -7 -11  -2   18.69    1.07
   7  11   3   24.98    1.30
  -7 -11  -3   25.19    1.30
   7  11   4    0.93    0.57
  -7 -11  -4    1.57    0.55
   7  11   5   87.94    3.73
  -7 -11  -5   84.62    3.59
   7  11   6    1.72    0.60
  -7 -11  -6    0.15    0.53
   7  11   7    0.46    0.59
  -7 -11  -7    0.56    0.50
   7  11   8   13.47    0.88
  -7 -11  -8   13.69    0.88
   7  11   9   -0.25    0.59
  -7 -11  -9    1.51    0.57
   7  11  10    1.57    0.63
  -7 -11 -10    2.15    0.59
   7  11  11   11.40    0.83
  -7 -11 -11   10.90    0.84
   7  11  12    5.81    0.71
   7  11  13   20.39    1.14
   8  12 -19    3.36    0.56
  -8 -12  19    2.60    0.71
   8  12 -18    4.51    0.67
  -8 -12  18    3.59    0.69
   8  12 -17   -0.23    0.68
  -8 -12  17   -0.49    0.54
   8  12 -16    1.18    0.59
  -8 -12  16    0.20    0.59
   8  12 -15   22.46    1.22
  -8 -12  15   24.91    1.31
   8  12 -14    3.87    0.66
  -8 -12  14    1.85    0.66
   8  12 -13   31.68    1.52
  -8 -12  13   40.83    1.87
   8  12 -12    2.92    0.62
  -8 -12  12    2.05    0.61
   8  12 -11   12.79    0.87
  -8 -12  11   11.87    0.83
   8  12 -10   10.88    0.85
  -8 -12  10   11.54    0.86
   8  12  -9    6.10    0.70
  -8 -12   9    5.40    0.72
   8  12  -8    0.67    0.57
  -8 -12   8    1.44    0.62
   8  12  -7   28.66    1.45
  -8 -12   7   27.40    1.39
   8  12  -6   15.95    0.96
  -8 -12   6   16.63    0.98
   8  12  -5   30.01    1.47
  -8 -12   5   28.93    1.40
   8  12  -4    0.51    0.51
  -8 -12   4   -0.49    0.47
   8  12  -3    2.01    0.57
  -8 -12   3    0.95    0.56
   8  12  -2   53.13    2.37
  -8 -12   2   54.13    2.40
   8  12  -1    1.41    0.57
  -8 -12   1    1.70    0.51
   8  12   0    4.77    0.64
  -8 -12   0    3.82    0.60
   8  12   1   87.21    3.68
  -8 -12  -1   90.96    3.84
   8  12   2    0.82    0.57
  -8 -12  -2   -0.26    0.57
   8  12   3   28.82    1.45
  -8 -12  -3   28.28    1.39
   8  12   4    1.47    0.54
  -8 -12  -4    0.39    0.58
   8  12   5   -0.34    0.58
  -8 -12  -5   -0.38    0.59
   8  12   6    1.59    0.55
  -8 -12  -6    0.09    0.56
   8  12   7   24.46    1.24
  -8 -12  -7   25.29    1.31
   8  12   8    0.01    0.55
  -8 -12  -8   -0.94    0.60
   8  12   9   21.25    1.17
  -8 -12  -9   17.43    1.00
   8  12  10    0.01    0.64
  -8 -12 -10    0.44    0.56
   8  12  11    2.99    0.67
  -8 -12 -11    3.26    0.67
   8  12  12    4.90    0.63
   9  13 -19    0.06    0.52
  -9 -13  19    1.14    0.61
   9  13 -18   10.04    0.79
  -9 -13  18    6.84    0.77
   9  13 -17   12.73    0.90
  -9 -13  17   17.02    1.08
   9  13 -16    0.63    0.66
  -9 -13  16    2.98    0.70
   9  13 -15    0.65    0.63
  -9 -13  15    0.20    0.65
   9  13 -14   28.45    1.42
  -9 -13  14   29.38    1.44
   9  13 -13   -0.77    0.56
  -9 -13  13    0.84    0.53
   9  13 -12   20.16    1.10
  -9 -13  12   20.90    1.11
   9  13 -11   32.32    1.55
  -9 -13  11   31.41    1.55
   9  13 -10   11.45    0.82
  -9 -13  10    9.10    0.85
   9  13  -9   51.41    2.29
  -9 -13   9   48.96    2.22
   9  13  -8   43.36    1.98
  -9 -13   8   45.46    2.07
   9  13  -7    9.82    0.77
  -9 -13   7    8.37    0.73
   9  13  -6   58.41    2.56
  -9 -13   6   52.60    2.32
   9  13  -5   17.62    1.04
  -9 -13   5   18.51    1.06
   9  13  -4   25.68    1.34
  -9 -13   4   24.80    1.29
   9  13  -3   59.94    2.64
  -9 -13   3   57.26    2.53
   9  13  -2    1.30    0.56
  -9 -13   2    2.20    0.52
   9  13  -1   14.74    0.95
  -9 -13   1   11.19    0.81
   9  13   0  104.80    4.38
  -9 -13   0  110.10    4.60
   9  13   1   16.07    0.95
  -9 -13  -1   16.17    0.99
   9  13   2   25.13    1.29
  -9 -13  -2   26.27    1.31
   9  13   3   17.72    1.07
  -9 -13  -3   14.01    0.92
   9  13   4    3.04    0.59
  -9 -13  -4    3.04    0.57
   9  13   5    7.75    0.71
  -9 -13  -5    7.73    0.71
   9  13   6    3.00    0.60
  -9 -13  -6    4.44    0.64
   9  13   7    2.67    0.58
  -9 -13  -7    3.86    0.66
   9  13   8    5.12    0.68
  -9 -13  -8    6.58    0.65
   9  13   9   -0.15    0.58
  -9 -13  -9    1.01    0.58
   9  13  10    8.79    0.75
  -9 -13 -10   10.11    0.81
  10  14 -18    3.62    0.68
 -10 -14  18    4.12    0.65
  10  14 -17   -0.61    0.56
 -10 -14  17    0.00    0.55
  10  14 -16   26.68    1.33
 -10 -14  16   26.78    1.31
  10  14 -15    0.27    0.59
 -10 -14  15    0.49    0.64
  10  14 -14    0.69    0.60
 -10 -14  14    1.41    0.56
  10  14 -13   -1.02    0.55
 -10 -14  13   -0.16    0.55
  10  14 -12    8.63    0.78
 -10 -14  12    8.21    0.76
  10  14 -11    3.02    0.58
 -10 -14  11    2.48    0.63
  10  14 -10   67.82    2.91
 -10 -14  10   71.06    3.07
  10  14  -9    3.57    0.61
 -10 -14   9    3.83    0.59
  10  14  -8   44.76    2.02
 -10 -14   8   45.30    2.04
  10  14  -7    0.27    0.47
 -10 -14   7   -0.68    0.49
  10  14  -6   11.81    0.84
 -10 -14   6   13.93    0.87
  10  14  -5    0.76    0.53
 -10 -14   5    0.92    0.57
  10  14  -4   85.15    3.60
 -10 -14   4   84.21    3.57
  10  14  -3    0.96    0.58
 -10 -14   3    0.09    0.48
  10  14  -2   36.64    1.72
 -10 -14   2   37.23    1.74
  10  14  -1   13.44    0.89
 -10 -14   1   17.36    1.01
  10  14   0    0.97    0.55
 -10 -14   0    0.85    0.49
  10  14   1    0.32    0.55
 -10 -14  -1    1.42    0.51
  10  14   2   21.65    1.14
 -10 -14  -2   20.66    1.12
  10  14   3   -0.04    0.57
 -10 -14  -3    0.99    0.58
  10  14   4   34.22    1.63
 -10 -14  -4   32.99    1.58
  10  14   5    0.12    0.61
 -10 -14  -5    0.11    0.52
  10  14   6   12.83    0.88
 -10 -14  -6   12.17    0.85
  10  14   7   -0.37    0.58
 -10 -14  -7    1.33    0.61
  10  14   8    0.34    0.60
 -10 -14  -8    1.28    0.57
  11  15 -17    5.20    0.63
 -11 -15  17    6.42    0.72
  11  15 -16    0.13    0.52
 -11 -15  16    0.58    0.66
  11  15 -15    3.33    0.61
 -11 -15  15    5.23    0.62
  11  15 -14    6.00    0.69
 -11 -15  14    5.72    0.65
  11  15 -13    0.63    0.56
 -11 -15  13    1.95    0.56
  11  15 -12    7.88    0.69
 -11 -15  12    6.91    0.65
  11  15 -11   11.58    0.83
 -11 -15  11    9.72    0.73
  11  15 -10    1.22    0.57
 -11 -15  10    0.55    0.51
  11  15  -9   35.98    1.67
 -11 -15   9   35.16    1.64
  11  15  -8   23.88    1.25
 -11 -15   8   24.11    1.23
  11  15  -7    0.56    0.56
 -11 -15   7    0.76    0.49
  11  15  -6   22.20    1.18
 -11 -15   6   22.23    1.18
  11  15  -5   11.55    0.82
 -11 -15   5   12.08    0.81
  11  15  -4    1.08    0.57
 -11 -15   4    0.54    0.47
  11  15  -3   18.77    1.09
 -11 -15   3   17.80    1.01
  11  15  -2    8.13    0.71
 -11 -15   2   11.07    0.81
  11  15  -1   13.60    0.87
 -11 -15   1   14.80    0.86
  11  15   0   14.82    0.93
 -11 -15   0   13.74    0.89
  11  15   1    4.96    0.63
 -11 -15  -1    6.01    0.67
  11  15   2    9.97    0.78
 -11 -15  -2   10.14    0.79
  11  15   3    2.66    0.61
 -11 -15  -3    3.22    0.62
  11  15   4    0.17    0.61
 -11 -15  -4    1.04    0.52
  11  15   5    9.26    0.76
 -11 -15  -5    8.50    0.74
  11  15   6    4.38    0.75
 -11 -15  -6    3.27    0.55
  12  16 -15    5.40    0.62
 -12 -16  15    6.66    0.67
  12  16 -14    1.41    0.55
 -12 -16  14    1.53    0.54
  12  16 -13   14.17    0.86
 -12 -16  13   14.05    0.86
  12  16 -12    0.17    0.51
 -12 -16  12   -0.15    0.51
  12  16 -11    2.59    0.56
 -12 -16  11    3.14    0.56
  12  16 -10    0.91    0.59
 -12 -16  10    0.18    0.47
  12  16  -9   14.53    0.91
 -12 -16   9   13.51    0.84
  12  16  -8   -0.14    0.55
 -12 -16   8   -0.71    0.54
  12  16  -7   31.12    1.49
 -12 -16   7   29.90    1.44
  12  16  -6    2.19    0.61
 -12 -16   6    2.89    0.59
  12  16  -5    1.48    0.58
 -12 -16   5    1.54    0.49
  12  16  -4    6.63    0.66
 -12 -16   4    6.65    0.63
  12  16  -3   10.67    0.80
 -12 -16   3    9.67    0.73
  12  16  -2    4.05    0.57
 -12 -16   2    2.07    0.55
  12  16  -1   18.71    1.05
 -12 -16   1   18.56    1.01
  12  16   0    0.06    0.55
 -12 -16   0    0.13    0.60
  12  16   1   10.12    0.76
 -12 -16  -1    9.32    0.75
  12  16   2    0.88    0.57
 -12 -16  -2    0.71    0.58
  12  16   3    1.05    0.62
 -12 -16  -3    0.32    0.56
  12  16   4    0.00    0.57
 -12 -16  -4    0.77    0.53
  13  17 -13    1.59    0.54
 -13 -17  13    0.48    0.49
  13  17 -12    1.31    0.55
 -13 -17  12    0.61    0.48
  13  17 -11   16.17    0.94
 -13 -17  11   17.93    0.98
  13  17 -10    0.03    0.51
 -13 -17  10    0.25    0.47
  13  17  -9    3.77    0.59
 -13 -17   9    2.76    0.58
  13  17  -8   13.03    0.85
 -13 -17   8    9.45    0.73
  13  17  -7   -0.05    0.49
 -13 -17   7    0.25    0.54
  13  17  -6   -0.01    0.46
 -13 -17   6   -0.22    0.53
  13  17  -5    6.82    0.67
 -13 -17   5    5.31    0.61
  13  17  -4    0.80    0.49
 -13 -17   4    0.69    0.53
  13  17  -3    6.93    0.69
 -13 -17   3    6.11    0.66
  13  17  -2    1.57    0.59
 -13 -17   2    1.28    0.53
  13  17  -1    1.45    0.56
 -13 -17   1    0.79    0.51
  13  17   0    0.16    0.57
 -13 -17   0   -0.44    0.50
  13  17   1    0.43    0.62
 -13 -17  -1    2.57    0.59
 -14 -18   9    0.33    0.58
  14  18  -8   -0.24    0.53
 -14 -18   8    0.59    0.52
  14  18  -7   -0.30    0.52
 -14 -18   7    0.65    0.49
  14  18  -6    9.37    0.78
 -14 -18   6    9.07    0.66
  14  18  -5    1.80    0.60
 -14 -18   5    2.06    0.55
 -19 -13   4    0.28    0.54
  19  13  -4    0.15    0.64
 -19 -13   5    4.26    0.57
  19  13  -5    4.60    0.68
 -19 -13   6   -0.06    0.49
  19  13  -6    0.37    0.56
 -19 -13   7    1.07    0.52
  19  13  -7    1.09    0.57
 -19 -13   8   10.46    0.71
  19  13  -8   11.51    0.82
 -19 -13   9   -0.26    0.48
  19  13  -9    0.25    0.57
 -19 -13  10   12.75    0.84
  19  13 -10   13.31    0.87
 -19 -13  11   16.06    0.91
  19  13 -11   14.94    0.91
 -19 -13  12    3.07    0.53
  19  13 -12    4.01    0.60
 -19 -13  13    4.64    0.58
  19  13 -13    5.61    0.65
 -19 -13  14    2.39    0.54
  19  13 -14    2.42    0.66
 -18 -12   0    0.73    0.45
 -18 -12   1    4.36    0.51
  18  12  -1    3.57    0.72
 -18 -12   2    0.35    0.54
  18  12  -2    0.33    0.54
 -18 -12   3    4.54    0.66
  18  12  -3    4.23    0.63
 -18 -12   4    0.36    0.53
  18  12  -4    1.28    0.62
 -18 -12   5    1.67    0.53
  18  12  -5    1.03    0.59
 -18 -12   6    3.29    0.61
  18  12  -6    1.50    0.60
 -18 -12   7   10.43    0.70
  18  12  -7    5.51    0.65
 -18 -12   8    2.49    0.50
  18  12  -8    1.85    0.54
 -18 -12   9   23.95    1.22
  18  12  -9   24.48    1.27
 -18 -12  10    0.90    0.53
  18  12 -10    0.72    0.57
 -18 -12  11    5.13    0.56
  18  12 -11    5.77    0.61
 -18 -12  12    2.76    0.56
  18  12 -12    3.60    0.57
 -18 -12  13    3.01    0.54
  18  12 -13    2.70    0.62
 -18 -12  14    0.11    0.50
  18  12 -14    0.40    0.55
 -18 -12  15   16.48    0.95
  18  12 -15   17.34    1.00
 -18 -12  16   -0.04    0.50
  18  12 -16    0.39    0.52
 -18 -12  17   22.02    1.10
  18  12 -17   21.96    1.16
 -17 -11  -2   -0.11    0.54
  17  11   2   -1.16    0.56
 -17 -11  -1   18.81    1.02
  17  11   1   19.40    1.10
 -17 -11   0   -0.61    0.54
  17  11   0    0.63    0.62
 -17 -11   1   -1.07    0.58
  17  11  -1    0.53    0.64
 -17 -11   2    2.25    0.54
  17  11  -2    2.99    0.69
 -17 -11   3   21.27    1.11
  17  11  -3   18.10    1.06
 -17 -11   4    0.67    0.51
  17  11  -4    1.28    0.59
 -17 -11   5   11.88    0.74
  17  11  -5   12.22    0.85
 -17 -11   6    0.62    0.48
  17  11  -6    0.49    0.56
 -17 -11   7   24.52    1.24
  17  11  -7   27.73    1.38
 -17 -11   8   -0.03    0.49
  17  11  -8   -0.24    0.63
 -17 -11   9    3.22    0.52
  17  11  -9    2.66    0.55
 -17 -11  10    7.01    0.64
  17  11 -10    6.92    0.70
 -17 -11  11   22.32    1.16
  17  11 -11   21.10    1.10
 -17 -11  12    2.25    0.51
  17  11 -12    2.93    0.59
 -17 -11  13   26.92    1.32
  17  11 -13   23.78    1.21
 -17 -11  14    0.27    0.49
  17  11 -14    0.13    0.58
 -17 -11  15    2.55    0.51
  17  11 -15    1.59    0.60
 -17 -11  16   11.53    0.76
  17  11 -16    9.96    0.74
 -17 -11  17    7.38    0.68
  17  11 -17    6.36    0.65
 -17 -11  18    2.55    0.58
  17  11 -18    1.47    0.59
 -17 -11  19   11.41    0.82
  17  11 -19   13.07    0.84
 -16 -10  -5    5.46    0.70
 -16 -10  -4   12.81    0.81
  16  10   4   11.47    0.84
 -16 -10  -3   -0.60    0.58
  16  10   3   -0.08    0.56
 -16 -10  -2   28.43    1.39
  16  10   2   27.50    1.36
 -16 -10  -1    7.12    0.67
  16  10   1    5.82    0.73
 -16 -10   0    1.72    0.53
  16  10   0    2.14    0.64
 -16 -10   1    3.70    0.61
  16  10  -1    3.26    0.64
 -16 -10   2    8.28    0.72
  16  10  -2    7.36    0.73
 -16 -10   3    4.31    0.53
  16  10  -3    4.26    0.64
 -16 -10   4    7.34    0.66
  16  10  -4    8.32    0.73
 -16 -10   5    0.95    0.54
  16  10  -5   -0.68    0.56
 -16 -10   6   13.65    0.85
  16  10  -6   18.45    1.07
 -16 -10   7   22.72    1.15
  16  10  -7   23.70    1.24
 -16 -10   8    4.06    0.57
  16  10  -8    5.58    0.64
 -16 -10   9    0.62    0.49
  16  10  -9    0.37    0.58
 -16 -10  10   22.80    1.18
  16  10 -10   20.52    1.14
 -16 -10  11    0.16    0.49
  16  10 -11   -1.29    0.50
 -16 -10  12   14.48    0.88
  16  10 -12   14.17    0.89
 -16 -10  13    5.04    0.61
  16  10 -13    5.90    0.63
 -16 -10  14   10.03    0.76
  16  10 -14    8.05    0.69
 -16 -10  15    6.69    0.66
  16  10 -15    4.50    0.62
 -16 -10  16    2.82    0.55
  16  10 -16    4.01    0.69
 -16 -10  17    2.62    0.58
  16  10 -17    2.00    0.59
 -16 -10  18    8.81    0.75
  16  10 -18    9.52    0.79
 -16 -10  19   -0.77    0.53
  16  10 -19    0.51    0.54
 -16 -10  20   19.73    1.08
  16  10 -20   20.29    1.09
 -15  -9  -6   15.13    0.87
  15   9   6   14.02    0.93
 -15  -9  -5    1.99    0.61
  15   9   5    2.24    0.61
 -15  -9  -4    7.93    0.76
  15   9   4   10.30    0.80
 -15  -9  -3    4.68    0.67
  15   9   3    3.98    0.70
 -15  -9  -2    5.21    0.66
  15   9   2    5.11    0.66
 -15  -9  -1   -0.08    0.52
  15   9   1    0.18    0.57
 -15  -9   0   25.17    1.29
  15   9   0   27.81    1.40
 -15  -9   1    4.08    0.59
  15   9  -1    3.51    0.62
 -15  -9   2    5.45    0.63
  15   9  -2    8.83    0.76
 -15  -9   3    2.63    0.62
  15   9  -3    3.55    0.62
 -15  -9   4    0.09    0.53
  15   9  -4   -1.04    0.61
 -15  -9   5   18.86    1.03
  15   9  -5   16.62    1.00
 -15  -9   6   25.67    1.26
  15   9  -6   28.82    1.44
 -15  -9   7    0.11    0.52
  15   9  -7    0.27    0.54
 -15  -9   8   23.83    1.24
  15   9  -8   22.81    1.21
 -15  -9   9    2.27    0.58
  15   9  -9    1.09    0.59
 -15  -9  10    9.05    0.71
  15   9 -10    8.97    0.76
 -15  -9  11    6.51    0.62
  15   9 -11    5.65    0.59
 -15  -9  12    6.97    0.65
  15   9 -12    5.98    0.63
 -15  -9  13    1.95    0.60
  15   9 -13    1.61    0.58
 -15  -9  14   46.33    2.10
  15   9 -14   45.44    2.04
 -15  -9  15   -0.09    0.49
  15   9 -15    0.91    0.58
 -15  -9  16   27.38    1.34
  15   9 -16   23.51    1.20
 -15  -9  17    4.80    0.65
  15   9 -17    4.39    0.62
 -15  -9  18    0.53    0.55
  15   9 -18   -0.15    0.56
 -15  -9  19    3.94    0.73
  15   9 -19    3.97    0.64
 -15  -9  20    6.92    0.70
  15   9 -20    6.89    0.73
 -15  -9  21   -0.54    0.64
  15   9 -21    0.64    0.64
 -14  -8  -8   -0.43    0.50
  14   8   8   -0.19    0.62
 -14  -8  -7   21.34    1.15
  14   8   7   22.21    1.16
 -14  -8  -6   14.31    0.95
  14   8   6   14.31    0.94
 -14  -8  -5   30.99    1.50
  14   8   5   36.48    1.72
 -14  -8  -4   21.99    1.15
  14   8   4   21.26    1.20
 -14  -8  -3    1.78    0.55
  14   8   3    0.67    0.57
 -14  -8  -2    7.99    0.78
  14   8   2    8.27    0.78
 -14  -8  -1   22.11    1.15
  14   8   1   20.39    1.18
 -14  -8   0   -0.21    0.54
  14   8   0    0.56    0.55
 -14  -8   1   28.81    1.43
  14   8  -1   28.88    1.43
 -14  -8   2   38.54    1.78
  14   8  -2   38.32    1.79
 -14  -8   3   98.85    4.15
  14   8  -3  100.90    4.26
 -14  -8   4   14.37    0.87
  14   8  -4   13.42    0.90
 -14  -8   5    1.55    0.49
  14   8  -5    1.03    0.60
 -14  -8   6    8.68    0.71
  14   8  -6    7.83    0.74
 -14  -8   7   14.22    0.92
  14   8  -7   12.76    0.90
 -14  -8   8    2.24    0.58
  14   8  -8    1.65    0.57
 -14  -8   9   11.44    0.80
  14   8  -9   10.24    0.78
 -14  -8  10    8.69    0.71
  14   8 -10    8.72    0.76
 -14  -8  11    2.21    0.52
  14   8 -11    2.67    0.57
 -14  -8  12   60.31    2.61
  14   8 -12   59.64    2.61
 -14  -8  13   18.79    1.09
  14   8 -13   19.47    1.09
 -14  -8  14    0.55    0.59
  14   8 -14    0.11    0.53
 -14  -8  15   13.12    0.86
  14   8 -15   12.41    0.83
 -14  -8  16    2.69    0.56
  14   8 -16    2.64    0.60
 -14  -8  17    4.25    0.66
  14   8 -17    3.60    0.65
 -14  -8  18    8.91    0.76
  14   8 -18    8.25    0.73
 -14  -8  19    5.31    0.70
  14   8 -19    5.62    0.69
 -14  -8  20   12.67    0.89
  14   8 -20   14.26    0.94
 -14  -8  21   11.30    0.83
  14   8 -21   11.07    0.85
 -14  -8  22   -0.16    0.67
  14   8 -22    1.60    0.60
  13   7  10    0.25    0.61
  13   7   9    2.23    0.63
 -13  -7  -8    0.26    0.54
  13   7   8    0.59    0.63
 -13  -7  -7    0.05    0.65
  13   7   7   -0.25    0.58
 -13  -7  -6    2.25    0.66
  13   7   6   -0.24    0.56
 -13  -7  -5   83.67    3.53
  13   7   5   87.57    3.70
 -13  -7  -4    8.33    0.77
  13   7   4   13.07    0.89
 -13  -7  -3   72.30    3.13
  13   7   3   74.62    3.21
 -13  -7  -2   15.71    0.94
  13   7   2   13.27    0.93
 -13  -7  -1    4.09    0.64
  13   7   1    3.60    0.69
 -13  -7   0    0.72    0.58
  13   7   0    0.69    0.62
 -13  -7   1    5.30    0.67
  13   7  -1    4.30    0.67
 -13  -7   2    3.11    0.59
  13   7  -2    1.86    0.61
 -13  -7   3  189.20    7.72
  13   7  -3  190.70    7.80
 -13  -7   4   -0.01    0.48
  13   7  -4   -0.86    0.60
 -13  -7   5  171.90    7.03
  13   7  -5  165.80    6.81
 -13  -7   6   15.71    0.95
  13   7  -6   12.78    0.85
 -13  -7   7   -0.15    0.50
  13   7  -7    0.62    0.58
 -13  -7   8    0.29    0.53
  13   7  -8    0.99    0.59
 -13  -7   9   27.61    1.34
  13   7  -9   27.47    1.39
 -13  -7  10    1.14    0.49
  13   7 -10    0.55    0.52
 -13  -7  11  151.20    6.18
  13   7 -11  175.00    7.16
 -13  -7  12    0.74    0.53
  13   7 -12    0.32    0.47
 -13  -7  13    6.34    0.71
  13   7 -13    5.44    0.62
 -13  -7  14   -0.39    0.59
  13   7 -14    0.57    0.56
 -13  -7  15    1.83    0.61
  13   7 -15    0.69    0.50
 -13  -7  16    1.33    0.56
  13   7 -16    1.34    0.56
 -13  -7  17   38.21    1.79
  13   7 -17   38.84    1.78
 -13  -7  18    5.87    0.63
  13   7 -18    5.52    0.69
 -13  -7  19   19.31    1.10
  13   7 -19   17.02    1.04
 -13  -7  20    0.68    0.63
  13   7 -20   -0.03    0.56
 -13  -7  21    1.77    0.65
  13   7 -21    1.21    0.59
 -13  -7  22    0.67    0.65
  12   6  11    0.81    0.55
  12   6  10    4.69    0.63
  12   6   9   22.23    1.17
  12   6   8   -0.40    0.59
 -12  -6  -7   26.88    1.37
  12   6   7   30.01    1.48
 -12  -6  -6   22.49    1.21
  12   6   6   22.18    1.19
 -12  -6  -5    1.64    0.67
  12   6   5    1.04    0.57
 -12  -6  -4   55.28    2.48
  12   6   4   60.00    2.63
 -12  -6  -3    0.79    0.61
  12   6   3    0.60    0.58
 -12  -6  -2   20.72    1.13
  12   6   2   20.81    1.16
 -12  -6  -1   62.60    2.72
  12   6   1   61.78    2.71
 -12  -6   0    5.83    0.66
  12   6   0    4.60    0.75
 -12  -6   1   79.48    3.41
  12   6  -1  132.50    5.50
 -12  -6   2   42.84    1.97
  12   6  -2   41.89    1.93
 -12  -6   3    9.95    0.72
  12   6  -3   11.25    0.81
 -12  -6   4  174.30    7.12
  12   6  -4  165.80    6.82
 -12  -6   5   14.50    0.90
  12   6  -5   13.78    0.91
 -12  -6   6    2.56    0.56
  12   6  -6    1.21    0.56
 -12  -6   7  112.10    4.68
  12   6  -7  134.40    5.55
 -12  -6   8    2.23    0.55
  12   6  -8    3.70    0.66
 -12  -6   9   62.20    2.66
  12   6  -9   62.32    2.71
 -12  -6  10   70.62    3.00
  12   6 -10   70.82    3.03
 -12  -6  11    2.60    0.54
  12   6 -11    2.93    0.58
 -12  -6  12    1.07    0.55
  12   6 -12    0.81    0.51
 -12  -6  13   25.54    1.33
  12   6 -13   24.23    1.24
 -12  -6  14    2.09    0.65
  12   6 -14    3.65    0.55
 -12  -6  15    5.72    0.70
  12   6 -15    6.16    0.63
 -12  -6  16   26.52    1.31
  12   6 -16   30.01    1.47
 -12  -6  17    1.28    0.61
  12   6 -17    0.92    0.55
 -12  -6  18    2.29    0.70
  12   6 -18    2.68    0.67
 -12  -6  19    2.11    0.61
  12   6 -19    2.95    0.67
 -12  -6  20    1.39    0.64
  12   6 -20    0.77    0.54
 -12  -6  21   12.23    0.88
 -12  -6  22    0.55    0.66
 -12  -6  23    1.77    0.72
  11   5  12    8.82    0.75
  11   5  11   -0.64    0.62
  11   5  10   14.18    0.97
  11   5   9    0.26    0.60
  11   5   8   51.58    2.30
 -11  -5  -7    0.06    0.63
  11   5   7    1.15    0.62
 -11  -5  -6    5.06    0.75
  11   5   6    5.36    0.72
 -11  -5  -5    1.11    0.66
  11   5   5    0.12    0.62
 -11  -5  -4   -0.35    0.62
  11   5   4    0.60    0.57
 -11  -5  -3    2.39    0.57
  11   5   3    1.93    0.61
 -11  -5  -2   85.36    3.61
  11   5   2   81.54    3.49
 -11  -5  -1    4.63    0.61
  11   5   1    3.56    0.67
 -11  -5   0  198.90    8.13
  11   5   0  209.40    8.53
 -11  -5   1   16.73    0.99
  11   5  -1   20.81    1.12
 -11  -5   2   50.03    2.22
  11   5  -2   52.05    2.30
 -11  -5   3    0.55    0.50
  11   5  -3    0.30    0.50
 -11  -5   4   -0.05    0.50
  11   5  -4    0.93    0.50
 -11  -5   5    1.73    0.49
  11   5  -5    1.27    0.55
 -11  -5   6  226.80    9.21
  11   5  -6  199.40    8.13
 -11  -5   7    4.83    0.57
  11   5  -7    4.60    0.58
 -11  -5   8  279.10   11.28
  11   5  -8  295.50   11.95
 -11  -5   9   49.03    2.15
  11   5  -9   49.48    2.19
 -11  -5  10    8.37    0.67
  11   5 -10    6.10    0.63
 -11  -5  11   11.18    0.80
  11   5 -11   12.31    0.83
 -11  -5  12   42.91    1.94
  11   5 -12   35.97    1.67
 -11  -5  13    1.72    0.54
  11   5 -13    2.40    0.59
 -11  -5  14  138.70    5.74
  11   5 -14  138.30    5.69
 -11  -5  15   28.61    1.44
  11   5 -15   29.56    1.46
 -11  -5  16    2.34    0.61
  11   5 -16    2.45    0.61
 -11  -5  17   20.92    1.18
  11   5 -17   19.08    1.09
 -11  -5  18    0.09    0.60
  11   5 -18    1.84    0.58
 -11  -5  19    1.58    0.60
  11   5 -19    0.68    0.58
 -11  -5  20    7.21    0.86
 -11  -5  21    1.66    0.74
 -11  -5  22   22.62    1.24
 -11  -5  23    0.53    0.75
  10   4  13    0.71    0.62
  10   4  12   11.72    0.86
  10   4  11    3.57    0.61
  10   4  10   28.50    1.42
  10   4   9   13.63    0.92
  10   4   8    2.11    0.66
 -10  -4  -7    0.76    0.64
  10   4   7    0.77    0.59
 -10  -4  -6    7.48    0.84
  10   4   6    7.49    0.73
 -10  -4  -5    4.86    0.65
  10   4   5    4.67    0.70
 -10  -4  -4   28.68    1.45
  10   4   4   28.88    1.50
 -10  -4  -3   20.25    1.11
  10   4   3   21.70    1.21
 -10  -4  -2   29.17    1.44
  10   4   2   29.24    1.43
 -10  -4  -1   75.05    3.21
  10   4   1   75.22    3.21
 -10  -4   0   43.24    1.98
  10   4   0   41.08    1.89
 -10  -4   1    4.62    0.61
  10   4  -1    4.50    0.63
 -10  -4   2   49.20    2.15
  10   4  -2   49.41    2.18
 -10  -4   3   34.04    1.58
  10   4  -3   36.48    1.68
 -10  -4   4  172.00    7.03
  10   4  -4  175.80    7.19
 -10  -4   5    0.17    0.49
  10   4  -5    0.22    0.51
 -10  -4   6   68.11    2.92
  10   4  -6   68.67    2.94
 -10  -4   7  175.50    7.17
  10   4  -7   94.44    3.96
 -10  -4   8  402.40   16.21
  10   4  -8  430.40   17.32
 -10  -4   9   31.44    1.47
  10   4  -9   27.76    1.35
 -10  -4  10  206.90    8.39
  10   4 -10  209.00    8.50
 -10  -4  11   34.91    1.59
  10   4 -11   39.72    1.81
 -10  -4  12   23.03    1.21
  10   4 -12   24.48    1.23
 -10  -4  13    0.03    0.57
  10   4 -13    0.78    0.47
 -10  -4  14    3.22    0.58
  10   4 -14    2.97    0.58
 -10  -4  15    1.47    0.63
  10   4 -15    1.04    0.56
 -10  -4  16   81.65    3.44
  10   4 -16   72.90    3.12
 -10  -4  17    4.43    0.67
  10   4 -17    3.86    0.61
 -10  -4  18   12.40    0.90
  10   4 -18   12.41    0.83
 -10  -4  19   -0.08    0.59
 -10  -4  20    1.79    0.65
 -10  -4  21   14.72    0.97
 -10  -4  22    6.27    0.73
 -10  -4  23    0.22    0.69
   9   3  14    1.67    0.53
   9   3  14    1.14    0.57
   9   3  13    8.98    0.78
   9   3  12    2.28    0.60
   9   3  11   10.14    0.86
   9   3  10    1.79    0.63
   9   3   9    7.11    0.76
   9   3   8    0.68    0.56
   9   3   7   26.53    1.39
  -9  -3  -6   36.49    1.74
   9   3   6   35.93    1.73
  -9  -3  -5   10.12    0.80
   9   3   5   10.69    0.87
  -9  -3  -4   29.15    1.42
   9   3   4   30.41    1.49
  -9  -3  -3   36.46    1.68
   9   3   3   35.43    1.68
  -9  -3  -2    8.49    0.73
   9   3   2    6.54    0.65
  -9  -3  -1  170.10    6.96
   9   3   1  166.40    6.81
  -9  -3   0   38.56    1.79
   9   3   0   37.30    1.72
  -9  -3   1    7.72    0.68
   9   3  -1    6.10    0.62
  -9  -3   2   22.26    1.14
   9   3  -2   20.93    1.12
  -9  -3   3  195.30    7.93
   9   3  -3  202.00    8.21
  -9  -3   4    2.82    0.46
   9   3  -4    2.87    0.54
  -9  -3   5   33.58    1.54
   9   3  -5   36.03    1.64
  -9  -3   6    1.54    0.48
   9   3  -6    1.65    0.50
  -9  -3   7   19.74    1.02
   9   3  -7   19.57    1.03
  -9  -3   8    1.04    0.43
   9   3  -8    0.07    0.46
  -9  -3   9  176.50    7.17
   9   3  -9  162.60    6.63
  -9  -3  10    8.38    0.66
   9   3 -10    9.06    0.68
  -9  -3  11  119.80    4.94
   9   3 -11  127.30    5.23
  -9  -3  12    6.53    0.61
   9   3 -12   21.14    1.11
  -9  -3  13    5.86    0.66
   9   3 -13    4.89    0.60
  -9  -3  14    5.58    0.70
   9   3 -14    6.96    0.69
  -9  -3  15   19.02    1.07
   9   3 -15   16.60    1.00
  -9  -3  16   -0.34    0.56
   9   3 -16    0.93    0.57
  -9  -3  17   48.44    2.21
  -9  -3  18    8.37    0.80
  -9  -3  19   27.32    1.37
  -9  -3  20    3.37    0.67
  -9  -3  21    0.26    0.63
  -9  -3  22   -0.02    0.65
   8   2  15   24.48    1.21
   8   2  15   24.98    1.28
   8   2  14    1.82    0.59
   8   2  14    3.26    0.65
   8   2  13   11.86    0.84
   8   2  13   11.88    0.77
   8   2  12    1.71    0.61
   8   2  11   14.25    0.96
   8   2  10   53.28    2.40
   8   2   9    6.03    0.75
   8   2   8   18.89    1.17
   8   2   7  112.00    4.71
  -8  -2  -6    3.98    0.60
   8   2   6    4.30    0.71
  -8  -2  -5   10.30    0.77
   8   2   5    9.73    0.79
  -8  -2  -4    1.42    0.53
   8   2   4    0.59    0.50
  -8  -2  -3   53.91    2.37
   8   2   3   54.44    2.39
  -8  -2  -2   12.29    0.82
   8   2   2   12.01    0.82
  -8  -2  -1  202.90    8.27
   8   2   1  200.60    8.17
  -8  -2   0   37.57    1.72
   8   2   0   35.44    1.64
  -8  -2   1   49.06    2.16
   8   2  -1   70.82    3.01
  -8  -2   2    1.33    0.47
   8   2  -2    0.83    0.49
  -8  -2   3   79.08    3.32
   8   2  -3   74.84    3.15
  -8  -2   4    0.33    0.42
   8   2  -4    0.03    0.45
  -8  -2   5  590.30   23.65
   8   2  -5  582.60   23.35
  -8  -2   6    2.98    0.47
   8   2  -6    3.92    0.52
  -8  -2   7  427.40   17.17
   8   2  -7  449.10   18.03
  -8  -2   8    5.17    0.53
   8   2  -8    5.74    0.53
  -8  -2   9   70.26    2.96
   8   2  -9   58.83    2.51
  -8  -2  10   22.80    1.10
   8   2 -10   54.65    2.34
  -8  -2  11   28.33    1.33
   8   2 -11   29.25    1.39
  -8  -2  12    2.02    0.50
   8   2 -12    2.03    0.52
  -8  -2  13  153.10    6.28
   8   2 -13  135.80    5.58
  -8  -2  14    3.30    0.57
   8   2 -14    4.43    0.58
  -8  -2  15  195.20    7.94
   8   2 -15  197.00    8.03
  -8  -2  16    8.64    0.73
  -8  -2  17    3.03    0.73
  -8  -2  18    4.12    0.67
  -8  -2  19   21.33    1.16
  -8  -2  20    3.25    0.65
  -8  -2  22    0.23    0.64
  -8  -2  22    1.20    0.69
  -8  -2  23    0.98    0.72
  -8  -2  23   -0.20    0.63
   7   1  16   15.47    0.92
   7   1  16   17.75    1.04
   7   1  15    1.37    0.61
   7   1  15    1.48    0.56
   7   1  13   15.20    1.01
   7   1  13   16.59    1.01
   7   1  12    3.46    0.67
   7   1  11   57.82    2.56
   7   1  10    1.88    0.64
   7   1   9    6.24    0.77
   7   1   8  147.20    6.09
   7   1   7   10.13    0.80
   7   1   6   36.71    1.74
  -7  -1  -5   45.47    2.04
   7   1   5   42.31    1.94
  -7  -1  -4   55.28    2.41
   7   1   4   65.32    2.83
  -7  -1  -3   16.80    0.98
   7   1   3   17.46    1.01
  -7  -1  -2  216.60    8.80
   7   1   2  220.70    8.96
  -7  -1  -1    1.78    0.54
   7   1   1    1.64    0.52
  -7  -1   0   47.64    2.10
   7   1   0   47.42    2.08
  -7  -1   1  198.90    8.07
   7   1  -1  198.20    8.04
  -7  -1   2    9.65    0.67
   7   1  -2   10.09    0.67
  -7  -1   3   37.11    1.65
   7   1  -3   39.37    1.73
  -7  -1   4  218.20    8.81
   7   1  -4  216.40    8.74
  -7  -1   5  178.80    7.23
   7   1  -5  175.50    7.11
  -7  -1   6   60.07    2.51
   7   1  -6   61.27    2.58
  -7  -1   7   32.38    1.44
   7   1  -7   38.15    1.68
  -7  -1   8    1.36    0.45
   7   1  -8    2.46    0.47
  -7  -1   9   34.12    1.54
   7   1  -9   34.81    1.56
  -7  -1  10   43.76    1.90
   7   1 -10   40.08    1.78
  -7  -1  11  107.00    4.39
   7   1 -11   94.61    3.92
  -7  -1  12   62.69    2.69
   7   1 -12   84.18    3.51
  -7  -1  13    4.79    0.57
   7   1 -13    6.10    0.59
  -7  -1  14   40.50    1.84
  -7  -1  15   68.58    2.92
  -7  -1  16   -0.05    0.56
  -7  -1  17  118.40    4.94
  -7  -1  18   10.19    0.81
  -7  -1  19    5.40    0.71
  -7  -1  19    5.19    0.72
  -7  -1  20   14.97    1.01
  -7  -1  20   14.01    0.92
  -7  -1  21    2.32    0.69
  -7  -1  21    1.58    0.63
  -7  -1  22    7.76    0.80
  -7  -1  22    7.16    0.77
  -7  -1  23    1.38    0.70
  -7  -1  23    1.68    0.72
   6   0  17    0.45    0.66
   6   0  17   -0.49    0.54
   6   0  16    3.67    0.69
   6   0  16    2.70    0.63
   6   0  15    0.20    0.57
   6   0  15   -0.32    0.59
   6   0  14   40.84    1.89
   6   0  14   39.02    1.81
   6   0  13    0.43    0.58
   6   0  13    0.10    0.60
   6   0  12  119.30    4.97
   6   0  12  127.60    5.30
   6   0  11   -0.51    0.54
   6   0  11   -0.38    0.62
   6   0  10   88.63    3.77
   6   0   9    0.07    0.58
   6   0   8   23.07    1.24
   6   0   7   -0.21    0.52
   6   0   6  123.20    5.11
   6   0   5    0.14    0.53
   6   0   4   98.70    4.13
  -6   0  -3   -0.36    0.52
   6   0   3    0.06    0.50
  -6   0  -2  167.80    6.84
   6   0   2  193.50    7.87
  -6   0  -1    1.03    0.52
   6   0   1   -0.20    0.49
  -6   0   0  113.90    4.68
   6   0   0  124.90    5.12
  -6   0   1    1.14    0.48
   6   0  -1    0.19    0.45
  -6   0   2    6.94    0.60
   6   0  -2    5.94    0.53
  -6   0   3    0.06    0.38
   6   0  -3    0.59    0.39
   6   0  -4  548.50   21.96
  -6   0   5    0.27    0.35
   6   0  -5    0.60    0.41
  -6   0   6  201.40    8.12
   6   0  -6  205.60    8.28
  -6   0   7    0.34    0.47
   6   0  -7   -0.34    0.36
  -6   0   8   36.75    1.61
   6   0  -8   37.97    1.67
  -6   0   9   -0.18    0.37
   6   0  -9    1.11    0.42
  -6   0  10   50.41    2.16
   6   0 -10   49.87    2.14
  -6   0  11   -0.76    0.39
   6   0 -11    0.99    0.39
  -6   0  12   16.16    0.91
  -6   0  13    0.13    0.50
  -6   0  14    7.05    0.64
  -6   0  15    0.17    0.52
  -6   0  16   77.77    3.30
  -6   0  17    0.17    0.69
  -6   0  17   -0.44    0.64
  -6   0  18    1.82    0.62
  -6   0  18    2.00    0.61
  -6   0  19   -1.00    0.65
  -6   0  19    1.01    0.62
  -6   0  20    1.24    0.63
  -6   0  20    1.23    0.66
  -6   0  21    0.14    0.64
  -6   0  21   -0.69    0.64
  -6   0  22   13.59    0.97
  -6   0  22   13.10    0.91
  -6   0  23   -0.03    0.72
  -6   0  23    0.51    0.72
   5  -1  17    1.15    0.58
   5  -1  17    0.32    0.58
   5  -1  16   15.44    0.89
   5  -1  16   16.33    0.98
   5  -1  15   10.51    0.81
   5  -1  15    9.43    0.78
   5  -1  14    7.75    0.74
   5  -1  14    7.91    0.73
   5  -1  13   36.91    1.75
   5  -1  13   37.25    1.75
   5  -1  12    5.81    0.76
   5  -1  12    3.90    0.69
   5  -1  11    6.10    0.78
   5  -1  11    6.66    0.72
   5  -1  10  133.10    5.52
   5  -1  10  147.40    6.09
   5  -1   9    0.42    0.62
   5  -1   8  120.70    5.03
   5  -1   7   29.99    1.48
   5  -1   6   17.65    1.05
   5  -1   5   36.76    1.71
   5  -1   4  161.20    6.59
   5  -1   3  200.40    8.15
   5  -1   2  353.90   14.24
  -5   1  -1   85.75    3.56
   5  -1   1   91.60    3.80
  -5   1   0  244.60    9.87
   5  -1   0  224.10    9.05
   5  -1  -1  716.40   28.67
  -5   1   2  553.60   22.16
  -5   1   3    4.27    0.39
   5  -1  -3    4.64    0.42
  -5   1   5    8.61    0.48
   5  -1  -5    9.27    0.52
  -5   1   6   63.94    2.63
   5  -1  -6   52.61    2.19
  -5   1   7   53.97    2.26
   5  -1  -7   67.04    2.77
  -5   1   8   54.79    2.32
   5  -1  -8   58.71    2.45
  -5   1   9   59.25    2.49
  -5   1  10  230.80    9.32
  -5   1  11    2.37    0.42
  -5   1  12   49.80    2.18
  -5   1  13    0.41    0.45
  -5   1  14   36.77    1.70
  -5   1  14   37.19    1.72
  -5   1  15   17.26    1.08
  -5   1  15   15.59    0.91
  -5   1  16    0.33    0.60
  -5   1  16   -0.15    0.54
  -5   1  17   30.33    1.51
  -5   1  17   32.02    1.58
  -5   1  18    2.38    0.56
  -5   1  18    2.89    0.64
  -5   1  19    0.72    0.68
  -5   1  19    0.18    0.62
  -5   1  20   36.64    1.72
  -5   1  20   35.28    1.68
  -5   1  21    5.36    0.74
  -5   1  21    6.24    0.68
  -5   1  22    3.01    0.73
  -5   1  22    3.83    0.73
   4  -2  18    0.87    0.60
   4  -2  18    0.50    0.56
   4  -2  17   13.39    0.91
   4  -2  17   11.71    0.78
   4  -2  16    1.17    0.62
   4  -2  16   -0.28    0.57
   4  -2  15   38.98    1.79
   4  -2  15   34.48    1.65
   4  -2  14   -0.09    0.62
   4  -2  14    0.47    0.61
   4  -2  13   -0.24    0.65
   4  -2  13   -0.02    0.65
   4  -2  12   10.15    0.89
   4  -2  12    8.10    0.79
   4  -2  11  100.20    4.23
   4  -2  11   94.32    3.99
   4  -2  10   -1.05    0.63
   4  -2  10   -0.05    0.64
   4  -2   9  124.30    5.18
   4  -2   9  121.60    5.04
   4  -2   8   54.69    2.39
   4  -2   8   56.87    2.50
   4  -2   7   62.01    2.69
   4  -2   7   65.02    2.80
   4  -2   6   31.36    1.51
   4  -2   5   21.70    1.14
   4  -2   4    5.22    0.62
   4  -2   3  333.80   13.45
   4  -2   2   52.78    2.28
   4  -2   1   58.39    2.48
   4  -2   0  193.60    7.82
   4  -2  -1  265.90   10.68
  -4   2   4   60.71    2.47
   4  -2  -4   65.42    2.66
  -4   2   5   32.19    1.35
  -4   2   6   21.36    0.94
  -4   2   7   16.46    0.81
  -4   2   8    3.90    0.45
  -4   2   9   86.44    3.56
  -4   2   9   96.82    3.99
  -4   2  10    3.72    0.48
  -4   2  10    3.56    0.49
  -4   2  11  177.30    7.19
  -4   2  11  177.80    7.21
  -4   2  12    6.66    0.59
  -4   2  12    6.62    0.64
  -4   2  13   73.61    3.10
  -4   2  13   64.79    2.78
  -4   2  14    7.65    0.75
  -4   2  14    6.73    0.62
  -4   2  15   29.75    1.50
  -4   2  15   26.20    1.29
  -4   2  16    4.76    0.67
  -4   2  16    2.51    0.62
  -4   2  17   14.16    0.96
  -4   2  17   14.37    0.90
  -4   2  18    3.54    0.61
  -4   2  18    3.00    0.67
  -4   2  19   52.88    2.33
  -4   2  19   55.90    2.43
  -4   2  20   -0.30    0.60
  -4   2  20    1.03    0.60
  -4   2  21    9.25    0.80
  -4   2  21    9.28    0.81
  -4   2  22    2.20    0.72
  -4   2  22    2.73    0.72
   3  -3  18    1.24    0.66
   3  -3  18    0.46    0.58
   3  -3  17    2.32    0.63
   3  -3  17    1.08    0.53
   3  -3  16   19.09    1.11
   3  -3  16   19.43    1.10
   3  -3  15   29.52    1.45
   3  -3  15   28.58    1.45
   3  -3  14    3.29    0.71
   3  -3  14    2.38    0.57
   3  -3  13   78.63    3.39
   3  -3  13   84.23    3.59
   3  -3  12   59.96    2.65
   3  -3  12   64.78    2.84
   3  -3  11   14.53    1.00
   3  -3  11   16.35    1.03
   3  -3  10    7.65    0.82
   3  -3  10    6.41    0.72
   3  -3   9   23.39    1.24
   3  -3   9   23.91    1.22
   3  -3   8    0.67    0.61
   3  -3   8    0.36    0.51
   3  -3   7  137.80    5.67
   3  -3   6    5.77    0.65
   3  -3   5  359.00   14.46
   3  -3   4   57.77    2.50
   3  -3   3   86.93    3.63
   3  -3   2  321.70   12.95
   3  -3   1  133.40    5.44
   3  -3   0    4.70    0.50
   3  -3  -1   87.34    3.56
  -3   3   2  161.10    6.48
   3  -3  -2  151.70    6.10
  -3   3   4  294.60   11.85
  -3   3   5    0.65    0.25
  -3   3   6   47.29    1.97
  -3   3   7  175.20    7.09
  -3   3   7  153.60    6.21
  -3   3   8   28.41    1.29
  -3   3   8   24.94    1.15
  -3   3   9   49.94    2.13
  -3   3   9   50.86    2.18
  -3   3  10   13.74    0.78
  -3   3  10   15.62    0.85
  -3   3  11    7.48    0.62
  -3   3  11    6.07    0.57
  -3   3  12   55.88    2.43
  -3   3  12   55.48    2.41
  -3   3  13   42.57    1.91
  -3   3  13   46.15    2.05
  -3   3  14   21.19    1.11
  -3   3  14   19.69    1.12
  -3   3  15   93.69    3.92
  -3   3  15   80.45    3.42
  -3   3  16   13.97    0.94
  -3   3  16   12.01    0.88
  -3   3  17   23.01    1.19
  -3   3  17   24.67    1.29
  -3   3  18    8.86    0.78
  -3   3  18    8.47    0.74
  -3   3  19    1.11    0.59
  -3   3  19    2.08    0.63
  -3   3  20    3.09    0.66
  -3   3  20    3.10    0.69
  -3   3  21   10.34    0.79
  -3   3  21   12.35    0.90
   2  -4  19    1.88    0.56
   2  -4  19    1.30    0.61
   2  -4  18    0.56    0.58
   2  -4  18   -0.39    0.60
   2  -4  16   15.44    1.02
   2  -4  16   15.84    0.99
   2  -4  15    1.04    0.59
   2  -4  15    0.65    0.62
   2  -4  14   93.81    3.97
   2  -4  14   97.28    4.11
   2  -4  13    1.78    0.62
   2  -4  13    2.28    0.70
   2  -4  12    3.63    0.64
   2  -4  12    3.54    0.71
   2  -4  11   54.53    2.43
   2  -4  10   13.94    0.89
   2  -4   9   53.67    2.35
   2  -4   8  333.00   13.45
   2  -4   7   -0.66    0.54
   2  -4   6  172.60    7.06
   2  -4   5   80.40    3.38
   2  -4   4  101.20    4.22
  -2   4  -3  120.60    4.95
   2  -4   3  134.90    5.53
  -2   4  -2  120.50    4.95
   2  -4   2  125.40    5.14
  -2   4  -1    8.14    0.63
   2  -4   1    7.48    0.59
  -2   4   0   50.65    2.15
   2  -4   0   50.86    2.15
  -2   4   1  127.50    5.16
   2  -4  -1  133.00    5.38
  -2   4   3   29.53    1.26
   2  -4  -3   29.88    1.28
  -2   4   4  192.60    7.75
   2  -4  -4  174.40    7.03
  -2   4   5  351.50   14.10
   2  -4  -5  338.90   13.59
  -2   4   6  138.70    5.62
   2  -4  -6  137.20    5.57
  -2   4   7   15.80    0.81
  -2   4   8  134.40    5.48
  -2   4   9    0.03    0.39
  -2   4  10  104.60    4.33
  -2   4  11    5.05    0.56
  -2   4  12   10.52    0.73
  -2   4  12   10.97    0.76
  -2   4  13   11.55    0.80
  -2   4  13   10.52    0.77
  -2   4  14   70.62    3.00
  -2   4  14   67.98    2.94
  -2   4  15    0.82    0.59
  -2   4  15    1.43    0.59
  -2   4  16   52.48    2.30
  -2   4  16   51.43    2.29
  -2   4  17   51.77    2.30
  -2   4  17   50.71    2.26
  -2   4  18   -0.28    0.58
  -2   4  18   -0.28    0.60
  -2   4  19   12.81    0.87
  -2   4  19   13.28    0.92
  -2   4  20    5.01    0.72
  -2   4  20    5.04    0.75
  -2   4  21    2.02    0.66
  -2   4  21    0.81    0.72
   1  -5  19    2.59    0.66
   1  -5  19    4.34    0.65
   1  -5  18   10.29    0.78
   1  -5  18   11.85    0.90
   1  -5  17    0.76    0.62
   1  -5  17    0.41    0.62
   1  -5  16   20.53    1.15
   1  -5  16   21.20    1.19
   1  -5  15    2.70    0.71
   1  -5  15    2.37    0.67
   1  -5  14    0.54    0.66
   1  -5  14    0.73    0.63
   1  -5  13    3.69    0.70
   1  -5  12   22.56    1.23
   1  -5  11    3.84    0.66
   1  -5  10  212.40    8.64
   1  -5   9   15.58    0.95
   1  -5   8    3.63    0.63
   1  -5   7    1.76    0.55
  -1   5  -6  160.90    6.59
   1  -5   6  157.60    6.45
  -1   5  -5    0.37    0.50
   1  -5   5    0.57    0.51
  -1   5  -4  252.10   10.20
   1  -5   4  242.60    9.83
  -1   5  -3   11.89    0.79
   1  -5   3   11.73    0.78
  -1   5  -2  191.70    7.77
   1  -5   2  218.80    8.85
  -1   5  -1   54.48    2.32
   1  -5   1   56.35    2.40
  -1   5   0    1.07    0.42
   1  -5   0    0.44    0.47
  -1   5   1   32.24    1.43
   1  -5  -1   31.50    1.39
  -1   5   2    1.25    0.41
   1  -5  -2    1.57    0.35
  -1   5   3   28.99    1.29
   1  -5  -3   28.29    1.26
  -1   5   4  722.30   28.89
   1  -5  -4  724.30   28.98
  -1   5   5   21.14    0.99
   1  -5  -5   21.18    1.01
  -1   5   6   17.87    0.88
   1  -5  -6   18.87    0.96
  -1   5   7   31.72    1.43
   1  -5  -7   33.43    1.51
  -1   5   8    2.42    0.42
   1  -5  -8    2.14    0.45
  -1   5   9   23.35    1.14
  -1   5  10  120.60    4.98
  -1   5  11    2.29    0.52
  -1   5  12  257.80   10.45
  -1   5  13   20.71    1.13
  -1   5  14    6.41    0.68
  -1   5  14    5.96    0.71
  -1   5  15   12.94    0.90
  -1   5  15   12.05    0.88
  -1   5  16   61.29    2.69
  -1   5  16   56.20    2.43
  -1   5  17   15.17    0.98
  -1   5  17   16.91    0.98
  -1   5  18   34.25    1.62
  -1   5  18   33.96    1.61
  -1   5  19   -0.47    0.65
  -1   5  19    0.26    0.56
  -1   5  20    6.64    0.74
  -1   5  20    5.74    0.77
   0  -6  19   23.71    1.25
   0  -6  19   25.33    1.31
   0  -6  18    2.85    0.68
   0  -6  18    3.29    0.65
   0  -6  17   23.07    1.25
   0  -6  17   27.33    1.43
   0  -6  16    0.82    0.72
   0  -6  16    1.63    0.64
   0  -6  15   13.57    0.92
   0  -6  14    5.02    0.79
   0  -6  13    8.78    0.80
   0  -6  12   -0.63    0.64
   0  -6  11  167.40    6.87
   0  -6  10   -0.22    0.50
   0  -6   9  110.50    4.60
   0   6  -8   66.35    2.86
   0  -6   8   64.75    2.80
   0   6  -7   12.32    0.84
   0  -6   7   11.45    0.79
   0   6  -6    3.27    0.61
   0  -6   6    2.79    0.54
   0   6  -5   51.16    2.25
   0  -6   5   52.57    2.29
   0   6  -4   29.92    1.45
   0  -6   4   30.33    1.44
   0   6  -3  149.50    6.11
   0  -6   3  167.30    6.83
   0   6  -2  113.50    4.67
   0  -6   2  119.30    4.90
   0   6  -1    3.63    0.52
   0  -6   1    2.93    0.52
   0   6   0  150.50    6.13
   0  -6   0  148.40    6.04
   0   6   1    3.80    0.49
   0  -6  -1    4.41    0.49
   0   6   2  119.60    4.89
   0  -6  -2  119.20    4.87
   0   6   3  161.00    6.54
   0  -6  -3  154.20    6.26
   0   6   4   27.52    1.28
   0  -6  -4   28.83    1.31
   0   6   5   51.74    2.21
   0  -6  -5   50.06    2.15
   0   6   6    3.04    0.44
   0  -6  -6    2.58    0.44
   0   6   7   11.51    0.71
   0  -6  -7   10.54    0.69
   0   6   8   70.16    2.97
   0  -6  -8   74.77    3.14
   0   6   9  111.90    4.63
   0  -6  -9  118.30    4.88
   0   6  10   -0.58    0.44
   0   6  11  170.00    6.95
   0   6  12    0.94    0.54
   0   6  13   10.78    0.81
   0   6  14    6.06    0.70
   0   6  15   13.20    0.86
   0   6  15   15.57    0.97
   0   6  16    0.01    0.61
   0   6  16   -0.21    0.57
   0   6  17   26.25    1.29
   0   6  17   26.94    1.34
   0   6  18    1.89    0.62
   0   6  18    2.50    0.60
   0   6  19   24.56    1.27
   0   6  19   23.85    1.24
  -1  -7  20    1.00    0.68
  -1  -7  20    1.18    0.59
  -1  -7  19    1.04    0.66
  -1  -7  19    0.12    0.58
  -1  -7  18    1.98    0.63
  -1  -7  18    2.49    0.61
  -1  -7  17    4.63    0.72
  -1  -7  16    5.54    0.71
  -1  -7  15   43.33    2.00
  -1  -7  14   13.87    1.00
  -1  -7  13   34.46    1.70
  -1  -7  12   26.62    1.41
  -1  -7  11    1.58    0.61
   1   7 -10   -0.88    0.55
  -1  -7  10   -0.13    0.50
   1   7  -9  224.10    9.12
  -1  -7   9  216.50    8.82
   1   7  -8   15.93    0.97
  -1  -7   8   16.32    1.01
   1   7  -7  108.80    4.53
  -1  -7   7  103.20    4.30
   1   7  -6   20.53    1.12
  -1  -7   6   20.09    1.09
   1   7  -5   19.71    1.09
  -1  -7   5   18.23    1.02
   1   7  -4   38.70    1.77
  -1  -7   4   37.81    1.74
   1   7  -3  146.70    6.00
  -1  -7   3  148.50    6.08
   1   7  -2    3.81    0.52
  -1  -7   2    3.26    0.56
   1   7  -1  163.40    6.65
  -1  -7   1  150.10    6.13
   1   7   0  122.10    5.02
  -1  -7   0  115.00    4.73
   1   7   1  311.20   12.53
  -1  -7  -1  291.70   11.75
   1   7   2    1.52    0.44
  -1  -7  -2    1.15    0.43
   1   7   3   19.54    1.00
  -1  -7  -3   20.10    1.02
   1   7   4   17.36    0.91
  -1  -7  -4   18.56    0.95
   1   7   5   60.47    2.58
  -1  -7  -5   57.47    2.46
   1   7   6    4.88    0.54
  -1  -7  -6    5.46    0.57
   1   7   7  252.70   10.23
  -1  -7  -7  254.00   10.27
   1   7   8   13.67    0.83
  -1  -7  -8   14.02    0.83
   1   7   9   80.59    3.38
  -1  -7  -9   79.14    3.34
   1   7  10    3.28    0.59
  -1  -7 -10    3.36    0.59
   1   7  11    1.81    0.55
   1   7  12    5.74    0.65
   1   7  13   65.15    2.81
   1   7  14   14.26    0.89
   1   7  15   38.51    1.78
   1   7  16    0.63    0.58
   1   7  16    0.38    0.53
   1   7  17    0.14    0.61
   1   7  17    0.15    0.61
   1   7  18    1.30    0.63
   1   7  18   -0.08    0.57
   1   7  19    0.60    0.61
   1   7  19    1.66    0.68
  -2  -8  20    0.61    0.62
  -2  -8  20    1.59    0.67
  -2  -8  19    5.12    0.70
  -2  -8  18   -0.38    0.62
  -2  -8  17   30.84    1.52
  -2  -8  16    0.98    0.69
  -2  -8  15    0.66    0.68
  -2  -8  14    2.57    0.75
  -2  -8  13   40.44    1.92
   2   8 -12   29.94    1.52
  -2  -8  12   25.94    1.36
   2   8 -11   78.72    3.39
  -2  -8  11   76.44    3.27
   2   8 -10    5.83    0.68
  -2  -8  10    6.85    0.68
   2   8  -9    5.22    0.65
  -2  -8   9    7.13    0.69
   2   8  -8   60.38    2.63
  -2  -8   8   71.79    3.10
   2   8  -7   19.70    1.09
  -2  -8   7   19.16    1.08
   2   8  -6    1.73    0.57
  -2  -8   6    2.93    0.55
   2   8  -5   15.12    0.91
  -2  -8   5   17.33    1.02
   2   8  -4    1.70    0.56
  -2  -8   4    0.91    0.52
   2   8  -3  229.30    9.30
  -2  -8   3  237.30    9.62
   2   8  -2   85.45    3.58
  -2  -8   2   83.16    3.49
   2   8  -1    4.47    0.58
  -2  -8   1    5.05    0.57
   2   8   0  399.30   16.07
  -2  -8   0  362.80   14.60
   2   8   1   62.66    2.68
  -2  -8  -1   62.07    2.65
   2   8   2  142.50    5.83
  -2  -8  -2  138.10    5.67
   2   8   3  257.80   10.42
  -2  -8  -3  260.10   10.52
   2   8   4   32.03    1.47
  -2  -8  -4   32.40    1.50
   2   8   5   22.14    1.12
  -2  -8  -5   25.39    1.24
   2   8   6   83.81    3.50
  -2  -8  -6   88.06    3.70
   2   8   7    1.84    0.47
  -2  -8  -7    1.75    0.50
   2   8   8   79.70    3.35
  -2  -8  -8   80.08    3.39
   2   8   9   40.43    1.84
  -2  -8  -9   40.75    1.85
   2   8  10   27.96    1.37
  -2  -8 -10   28.88    1.42
   2   8  11    0.83    0.56
   2   8  12   54.25    2.39
   2   8  13   12.16    0.83
   2   8  14   24.75    1.28
   2   8  15    0.93    0.59
   2   8  16    0.36    0.60
   2   8  17    9.49    0.74
   2   8  17   11.18    0.82
   2   8  18    0.22    0.59
   2   8  18   -0.04    0.71
  -3  -9  20    4.60    0.66
  -3  -9  19    0.64    0.58
  -3  -9  18   18.12    1.05
  -3  -9  17    8.98    0.77
  -3  -9  16   10.51    0.86
  -3  -9  15    1.09    0.69
   3   9 -14   50.33    2.24
  -3  -9  14   50.54    2.28
   3   9 -13    0.37    0.58
  -3  -9  13    0.14    0.68
   3   9 -12    2.36    0.73
  -3  -9  12    2.87    0.66
   3   9 -11    3.07    0.71
  -3  -9  11    3.20    0.67
   3   9 -10   91.54    3.89
  -3  -9  10   91.11    3.85
   3   9  -9    4.54    0.65
  -3  -9   9    5.18    0.65
   3   9  -8   -0.60    0.53
  -3  -9   8    1.65    0.60
   3   9  -7    1.05    0.55
  -3  -9   7    0.09    0.57
   3   9  -6   82.37    3.49
  -3  -9   6   93.02    3.95
   3   9  -5    2.07    0.57
  -3  -9   5    2.37    0.58
   3   9  -4  253.20   10.26
  -3  -9   4  251.30   10.18
   3   9  -3   41.03    1.88
  -3  -9   3   37.66    1.73
   3   9  -2   82.99    3.51
  -3  -9   2   86.59    3.64
   3   9  -1    0.10    0.56
  -3  -9   1    0.07    0.46
   3   9   0  176.10    7.18
  -3  -9   0  184.40    7.51
   3   9   1    3.26    0.52
  -3  -9  -1    3.28    0.51
   3   9   2  219.10    8.90
  -3  -9  -2  217.60    8.83
   3   9   3    2.54    0.52
  -3  -9  -3    3.74    0.53
   3   9   4   51.22    2.26
  -3  -9  -4   49.11    2.16
   3   9   5   15.91    0.95
  -3  -9  -5   21.24    1.13
   3   9   6    0.63    0.51
  -3  -9  -6    0.57    0.47
   3   9   7    0.96    0.51
  -3  -9  -7    0.06    0.53
   3   9   8  124.60    5.18
  -3  -9  -8  121.00    5.01
   3   9   9    0.91    0.56
  -3  -9  -9    1.14    0.57
   3   9  10   57.03    2.50
  -3  -9 -10   55.52    2.43
   3   9  11   21.46    1.17
  -3  -9 -11   20.85    1.13
   3   9  12    7.00    0.70
   3   9  13   -0.61    0.51
   3   9  14    2.99    0.60
   3   9  15    6.55    0.69
   3   9  16    9.30    0.79
   3   9  17   -0.29    0.54
   3   9  17   -0.31    0.64
  -4 -10  20    2.71    0.65
  -4 -10  19    0.31    0.62
  -4 -10  18    6.65    0.69
  -4 -10  17    9.34    0.74
  -4 -10  16   13.46    0.89
   4  10 -15    1.08    0.58
  -4 -10  15    2.45    0.68
   4  10 -14   14.80    0.97
  -4 -10  14   14.69    0.96
   4  10 -13   15.78    1.04
  -4 -10  13   16.93    1.03
   4  10 -12    1.34    0.61
  -4 -10  12    3.50    0.68
   4  10 -11   27.69    1.46
  -4 -10  11   25.23    1.30
   4  10 -10    0.52    0.66
  -4 -10  10    0.47    0.69
   4  10  -9    0.75    0.67
  -4 -10   9    1.52    0.54
   4  10  -8   25.73    1.33
  -4 -10   8   22.41    1.23
   4  10  -7   24.48    1.27
  -4 -10   7   24.54    1.28
   4  10  -6    5.75    0.64
  -4 -10   6    7.35    0.69
   4  10  -5    9.46    0.74
  -4 -10   5   10.15    0.78
   4  10  -4    9.38    0.73
  -4 -10   4    8.56    0.69
   4  10  -3   57.80    2.53
  -4 -10   3   55.50    2.43
   4  10  -2  102.20    4.26
  -4 -10   2  100.40    4.18
   4  10  -1    1.71    0.55
  -4 -10   1    1.67    0.52
   4  10   0   69.37    2.97
  -4 -10   0   69.01    2.96
   4  10   1   21.17    1.10
  -4 -10  -1   21.47    1.12
   4  10   2    1.76    0.52
  -4 -10  -2    1.12    0.48
   4  10   3   15.61    0.93
  -4 -10  -3   15.42    0.90
   4  10   4  163.60    6.71
  -4 -10  -4  156.20    6.41
   4  10   5   32.37    1.52
  -4 -10  -5   39.37    1.82
   4  10   6  123.20    5.11
  -4 -10  -6  123.90    5.12
   4  10   7    9.61    0.78
  -4 -10  -7   10.26    0.74
   4  10   8   13.30    0.85
  -4 -10  -8   15.07    0.93
   4  10   9   -0.06    0.58
  -4 -10  -9    1.58    0.62
   4  10  10   27.21    1.37
  -4 -10 -10   22.62    1.21
   4  10  11    1.91    0.60
  -4 -10 -11    2.57    0.61
   4  10  12   20.36    1.12
   4  10  13    0.15    0.56
   4  10  14   22.02    1.17
   4  10  15    1.56    0.64
   4  10  16    0.23    0.65
  -5 -11  19    0.47    0.58
  -5 -11  18    5.30    0.68
  -5 -11  17   18.48    1.10
   5  11 -16   10.99    0.82
  -5 -11  16    9.03    0.75
   5  11 -15   54.87    2.42
  -5 -11  15   56.66    2.48
   5  11 -14    6.51    0.75
  -5 -11  14    7.48    0.79
   5  11 -13    1.95    0.68
  -5 -11  13    1.68    0.67
   5  11 -12   -0.84    0.63
  -5 -11  12   -0.15    0.58
   5  11 -11    8.16    0.81
  -5 -11  11    8.10    0.92
   5  11 -10   58.66    2.61
  -5 -11  10   49.43    2.27
   5  11  -9   29.83    1.48
  -5 -11   9   30.89    1.56
   5  11  -8    1.69    0.59
  -5 -11   8    0.90    0.71
   5  11  -7   35.82    1.71
  -5 -11   7   30.24    1.46
   5  11  -6    4.69    0.68
  -5 -11   6    4.49    0.61
   5  11  -5   18.58    1.06
  -5 -11   5   16.64    1.00
   5  11  -4    3.39    0.59
  -5 -11   4    3.63    0.58
   5  11  -3   46.54    2.10
  -5 -11   3   46.77    2.09
   5  11  -2    5.03    0.67
  -5 -11   2    6.40    0.62
   5  11  -1  133.10    5.51
  -5 -11   1  122.80    5.09
   5  11   0   17.76    1.06
  -5 -11   0   14.13    0.88
   5  11   1   14.76    0.93
  -5 -11  -1   13.11    0.83
   5  11   2   31.27    1.54
  -5 -11  -2   30.53    1.48
   5  11   3   18.49    1.04
  -5 -11  -3   17.73    0.99
   5  11   4    2.88    0.58
  -5 -11  -4    1.73    0.59
   5  11   5  169.30    6.93
  -5 -11  -5  178.60    7.31
   5  11   6    0.40    0.49
  -5 -11  -6    0.24    0.57
   5  11   7   20.49    1.13
  -5 -11  -7   22.55    1.18
   5  11   8   26.03    1.32
  -5 -11  -8   24.14    1.28
   5  11   9    2.97    0.57
  -5 -11  -9    4.71    0.62
   5  11  10   29.45    1.44
  -5 -11 -10   30.56    1.46
   5  11  11    3.03    0.64
  -5 -11 -11    3.01    0.60
   5  11  12   -0.09    0.63
  -5 -11 -12    0.36    0.58
   5  11  13   17.53    1.06
   5  11  14    2.01    0.67
   5  11  15    8.26    0.91
  -6 -12  19    9.35    0.85
  -6 -12  18    1.02    0.60
   6  12 -17    7.42    0.70
  -6 -12  17    5.81    0.68
   6  12 -16    1.63    0.66
  -6 -12  16    1.75    0.72
   6  12 -15   46.56    2.10
  -6 -12  15   48.05    2.17
   6  12 -14    0.44    0.65
  -6 -12  14    0.87    0.69
   6  12 -13   53.30    2.38
  -6 -12  13   46.35    2.11
   6  12 -12    7.52    0.80
  -6 -12  12    5.83    0.75
   6  12 -11   37.90    1.78
  -6 -12  11   37.23    1.79
   6  12 -10   -0.72    0.55
  -6 -12  10    0.19    0.68
   6  12  -9    6.50    0.69
  -6 -12   9    5.94    0.79
   6  12  -8    2.50    0.60
  -6 -12   8    2.90    0.65
   6  12  -7   63.29    2.76
  -6 -12   7   64.12    2.78
   6  12  -6   46.25    2.08
  -6 -12   6   46.25    2.12
   6  12  -5  120.40    5.00
  -6 -12   5  118.70    4.94
   6  12  -4   10.88    0.78
  -6 -12   4    9.08    0.74
   6  12  -3    1.90    0.56
  -6 -12   3    1.72    0.50
   6  12  -2   20.78    1.14
  -6 -12   2   19.72    1.09
   6  12  -1    0.98    0.54
  -6 -12   1    0.61    0.50
   6  12   0   17.69    1.02
  -6 -12   0   14.06    0.88
   6  12   1   26.88    1.35
  -6 -12  -1   27.00    1.36
   6  12   2    3.25    0.59
  -6 -12  -2    4.72    0.61
   6  12   3   81.79    3.48
  -6 -12  -3   85.62    3.63
   6  12   4   14.40    0.94
  -6 -12  -4   14.81    0.89
   6  12   5    5.79    0.66
  -6 -12  -5    7.31    0.73
   6  12   6   10.32    0.76
  -6 -12  -6    8.86    0.73
   6  12   7   27.09    1.36
  -6 -12  -7   27.70    1.40
   6  12   8    3.97    0.59
  -6 -12  -8    5.11    0.64
   6  12   9   24.21    1.26
  -6 -12  -9   23.90    1.23
   6  12  10    8.70    0.80
  -6 -12 -10   10.43    0.79
   6  12  11    9.47    0.81
  -6 -12 -11    9.12    0.78
   6  12  12    3.26    0.68
  -6 -12 -12    3.11    0.57
   6  12  13    1.05    0.67
  -7 -13  19    1.31    0.62
   7  13 -18    9.05    0.71
  -7 -13  18    6.81    0.81
   7  13 -17    4.78    0.72
  -7 -13  17    2.88    0.62
   7  13 -16    1.56    0.66
  -7 -13  16    1.45    0.61
   7  13 -15    8.04    0.78
  -7 -13  15    8.25    0.81
   7  13 -14   25.90    1.32
  -7 -13  14   25.00    1.36
   7  13 -13    0.43    0.62
  -7 -13  13    1.06    0.68
   7  13 -12   15.61    0.99
  -7 -13  12   18.03    1.14
   7  13 -11    2.30    0.63
  -7 -13  11    4.27    0.75
   7  13 -10    3.24    0.57
  -7 -13  10    4.09    0.69
   7  13  -9    4.56    0.68
  -7 -13   9    4.80    0.71
   7  13  -8    9.31    0.78
  -7 -13   8    9.52    0.74
   7  13  -7   49.95    2.27
  -7 -13   7   43.81    2.00
   7  13  -6   52.73    2.33
  -7 -13   6   53.71    2.41
   7  13  -5    1.18    0.50
  -7 -13   5    0.61    0.56
   7  13  -4    8.28    0.73
  -7 -13   4    6.87    0.70
   7  13  -3   82.18    3.49
  -7 -13   3   78.76    3.35
   7  13  -2    2.83    0.63
  -7 -13   2    3.26    0.60
   7  13  -1    0.26    0.54
  -7 -13   1    0.20    0.52
   7  13   0   23.94    1.26
  -7 -13   0   32.78    1.59
   7  13   1    9.91    0.79
  -7 -13  -1   10.52    0.77
   7  13   2   75.60    3.24
  -7 -13  -2   72.95    3.13
   7  13   3   14.93    0.94
  -7 -13  -3   14.40    0.88
   7  13   4    1.93    0.59
  -7 -13  -4    2.69    0.60
   7  13   5   12.39    0.85
  -7 -13  -5   12.42    0.84
   7  13   6    0.47    0.54
  -7 -13  -6    0.29    0.52
   7  13   7    5.71    0.68
  -7 -13  -7    6.51    0.72
   7  13   8    5.79    0.65
  -7 -13  -8    6.02    0.69
   7  13   9    0.77    0.53
  -7 -13  -9    0.01    0.50
   7  13  10    7.49    0.72
  -7 -13 -10    6.98    0.69
   7  13  11    7.19    0.74
  -7 -13 -11    8.29    0.76
   7  13  12    3.04    0.63
  -7 -13 -12    3.18    0.56
   8  14 -18    1.11    0.58
  -8 -14  18    1.47    0.63
   8  14 -17    1.13    0.57
  -8 -14  17    0.44    0.68
   8  14 -16   33.17    1.57
  -8 -14  16   40.05    1.83
   8  14 -15    0.24    0.62
  -8 -14  15    0.20    0.63
   8  14 -14   12.79    0.89
  -8 -14  14   12.80    0.87
   8  14 -13    1.25    0.61
  -8 -14  13    0.86    0.62
   8  14 -12    0.86    0.54
  -8 -14  12    1.32    0.63
   8  14 -11    1.03    0.55
  -8 -14  11    1.21    0.63
   8  14 -10   75.22    3.19
  -8 -14  10   78.25    3.32
   8  14  -9    2.45    0.62
  -8 -14   9    1.99    0.60
   8  14  -8   54.76    2.41
  -8 -14   8   57.33    2.53
   8  14  -7    0.09    0.52
  -8 -14   7    0.16    0.56
   8  14  -6   12.47    0.86
  -8 -14   6   16.87    1.03
   8  14  -5    5.62    0.60
  -8 -14   5    4.35    0.59
   8  14  -4   11.07    0.83
  -8 -14   4   11.81    0.83
   8  14  -3    3.92    0.59
  -8 -14   3    3.49    0.60
   8  14  -2   29.35    1.46
  -8 -14   2   28.32    1.42
   8  14  -1    0.27    0.57
  -8 -14   1    0.50    0.53
   8  14   0   28.74    1.44
  -8 -14   0   28.53    1.41
   8  14   1   33.07    1.58
  -8 -14  -1   34.07    1.61
   8  14   2    3.05    0.60
  -8 -14  -2    2.41    0.59
   8  14   3    4.58    0.57
  -8 -14  -3    4.60    0.63
   8  14   4    8.22    0.75
  -8 -14  -4    9.60    0.80
   8  14   5   -0.34    0.58
  -8 -14  -5   -0.20    0.59
   8  14   6   18.61    1.05
  -8 -14  -6   19.05    1.10
   8  14   7   -0.15    0.58
  -8 -14  -7    0.18    0.50
   8  14   8    1.60    0.60
  -8 -14  -8    1.36    0.58
   8  14   9    0.10    0.62
  -8 -14  -9    0.73    0.57
   8  14  10   10.83    0.85
  -8 -14 -10   10.02    0.79
   9  15 -17    1.17    0.60
  -9 -15  17    2.88    0.64
   9  15 -16    0.23    0.59
  -9 -15  16   -0.58    0.55
   9  15 -15   13.22    0.90
  -9 -15  15   14.23    0.96
   9  15 -14   19.59    1.11
  -9 -15  14   19.54    1.11
   9  15 -13    0.17    0.58
  -9 -15  13    0.45    0.62
   9  15 -12   13.84    0.91
  -9 -15  12   14.40    0.95
   9  15 -11   11.84    0.87
  -9 -15  11   10.19    0.81
   9  15 -10    2.08    0.56
  -9 -15  10    2.02    0.61
   9  15  -9    5.49    0.64
  -9 -15   9    5.23    0.66
   9  15  -8   19.02    1.08
  -9 -15   8   17.05    1.03
   9  15  -7   20.72    1.12
  -9 -15   7   20.34    1.12
   9  15  -6   44.02    1.98
  -9 -15   6   40.35    1.84
   9  15  -5    1.62    0.55
  -9 -15   5    1.00    0.47
   9  15  -4   24.09    1.24
  -9 -15   4   23.66    1.24
   9  15  -3   16.13    0.97
  -9 -15   3   16.74    0.99
   9  15  -2    6.01    0.66
  -9 -15   2    7.54    0.66
   9  15  -1   14.70    0.92
  -9 -15   1   22.39    1.16
   9  15   0   17.74    1.01
  -9 -15   0   17.56    1.02
   9  15   1    5.23    0.65
  -9 -15  -1    4.64    0.63
   9  15   2   10.14    0.77
  -9 -15  -2   10.26    0.79
   9  15   3    0.31    0.52
  -9 -15  -3   -0.11    0.49
   9  15   4    4.59    0.59
  -9 -15  -4    4.33    0.62
   9  15   5   23.84    1.24
  -9 -15  -5   20.94    1.13
   9  15   6    0.07    0.61
  -9 -15  -6   -0.68    0.56
   9  15   7    5.67    0.70
  -9 -15  -7    6.39    0.71
   9  15   8    7.48    0.75
  -9 -15  -8    9.82    0.73
  10  16 -16    0.53    0.58
 -10 -16  16    0.12    0.63
  10  16 -15    2.35    0.62
 -10 -16  15    3.73    0.67
  10  16 -14    1.64    0.65
 -10 -16  14    1.89    0.59
  10  16 -13   16.39    0.97
 -10 -16  13   15.56    0.91
  10  16 -12   -0.98    0.54
 -10 -16  12    0.27    0.52
  10  16 -11    5.62    0.62
 -10 -16  11    5.99    0.64
  10  16 -10    4.44    0.62
 -10 -16  10    4.24    0.56
  10  16  -9    5.67    0.65
 -10 -16   9    5.04    0.65
  10  16  -8    0.64    0.57
 -10 -16   8    0.14    0.45
  10  16  -7   44.05    1.99
 -10 -16   7   46.83    2.09
  10  16  -6    0.41    0.50
 -10 -16   6    0.43    0.51
  10  16  -5   27.55    1.34
 -10 -16   5   25.36    1.30
  10  16  -4   15.27    0.93
 -10 -16   4   14.70    0.92
  10  16  -3   -0.19    0.56
 -10 -16   3   -0.03    0.47
  10  16  -2    1.63    0.58
 -10 -16   2    0.99    0.52
  10  16  -1   29.06    1.41
 -10 -16   1   26.62    1.33
  10  16   0    0.90    0.57
 -10 -16   0    1.18    0.53
  10  16   1   15.77    0.96
 -10 -16  -1   15.92    0.94
  10  16   2    1.11    0.57
 -10 -16  -2   -0.42    0.58
  10  16   3    2.70    0.61
 -10 -16  -3    1.85    0.61
  10  16   4    0.62    0.56
 -10 -16  -4   -0.49    0.53
  10  16   5   -0.01    0.55
 -10 -16  -5    0.77    0.58
  10  16   6   -0.01    0.58
 -10 -16  -6   -0.44    0.51
  11  17 -14    2.33    0.59
 -11 -17  14    2.35    0.62
  11  17 -13    2.85    0.59
 -11 -17  13    1.99    0.56
  11  17 -12    2.08    0.53
 -11 -17  12    2.08    0.53
  11  17 -11   10.16    0.74
 -11 -17  11   10.55    0.73
  11  17 -10   -0.13    0.54
 -11 -17  10    0.34    0.58
  11  17  -9   11.80    0.83
 -11 -17   9   14.74    0.90
  11  17  -8    0.83    0.49
 -11 -17   8    1.01    0.55
  11  17  -7    3.85    0.57
 -11 -17   7    4.03    0.58
  11  17  -6    0.59    0.48
 -11 -17   6   -0.41    0.50
  11  17  -5   20.95    1.11
 -11 -17   5   23.24    1.20
  11  17  -4   -1.05    0.54
 -11 -17   4    0.07    0.50
  11  17  -3   47.50    2.11
 -11 -17   3   44.91    2.00
  11  17  -2    0.63    0.55
 -11 -17   2   -0.33    0.56
  11  17  -1    0.94    0.60
 -11 -17   1    2.66    0.54
  11  17   0    1.66    0.55
 -11 -17   0    0.44    0.50
  11  17   1    0.64    0.54
 -11 -17  -1   -0.25    0.59
  11  17   2    3.27    0.60
 -11 -17  -2    5.07    0.62
  11  17   3   17.70    1.04
 -11 -17  -3   13.98    0.90
  11  17   4    0.81    0.71
 -11 -17  -4    1.40    0.60
  12  18 -12    3.58    0.62
 -12 -18  12    2.20    0.57
  12  18 -11    0.25    0.57
 -12 -18  11   -0.62    0.53
  12  18 -10    8.77    0.77
 -12 -18  10   11.54    0.79
  12  18  -9    9.78    0.75
 -12 -18   9    9.28    0.70
  12  18  -8    4.70    0.55
 -12 -18   8    5.18    0.60
  12  18  -7    2.23    0.56
 -12 -18   7    2.45    0.58
  12  18  -6    3.15    0.58
 -12 -18   6    4.03    0.61
  12  18  -5    1.33    0.50
 -12 -18   5    2.16    0.55
  12  18  -4    5.44    0.64
 -12 -18   4    5.12    0.62
  12  18  -3    1.17    0.54
 -12 -18   3    1.49    0.58
  12  18  -2    4.47    0.65
 -12 -18   2    5.44    0.62
  12  18  -1    3.09    0.60
 -12 -18   1    3.23    0.58
  12  18   0    0.77    0.59
 -12 -18   0    0.73    0.50
 -20 -12   5    0.58    0.49
  20  12  -5    0.50    0.62
 -20 -12   6   -1.43    0.52
  20  12  -6   -1.28    0.59
 -20 -12   7    1.15    0.54
  20  12  -7    0.96    0.57
 -20 -12   8    0.43    0.47
  20  12  -8   -0.92    0.61
 -20 -12   9   13.24    0.83
  20  12  -9   14.53    0.91
 -20 -12  10   -0.16    0.50
  20  12 -10    1.15    0.53
 -20 -12  11   15.21    0.91
  20  12 -11   14.85    0.89
 -20 -12  12    5.45    0.57
  20  12 -12    5.97    0.62
 -20 -12  13    0.09    0.48
  20  12 -13    0.20    0.57
 -20 -12  14    1.40    0.50
  20  12 -14    0.60    0.59
 -19 -11   1    2.57    0.57
  19  11  -1    1.99    0.69
 -19 -11   2   -0.20    0.55
  19  11  -2    0.01    0.60
 -19 -11   3    5.72    0.63
  19  11  -3    6.47    0.68
 -19 -11   4    0.25    0.50
  19  11  -4    1.69    0.57
 -19 -11   5    3.78    0.59
  19  11  -5    4.79    0.68
 -19 -11   6    0.08    0.50
  19  11  -6   -0.62    0.55
 -19 -11   7    9.72    0.77
  19  11  -7   10.48    0.80
 -19 -11   8    1.23    0.54
  19  11  -8    0.23    0.56
 -19 -11   9    0.03    0.47
  19  11  -9    0.97    0.58
 -19 -11  10    2.84    0.51
  19  11 -10    3.37    0.63
 -19 -11  11    8.71    0.70
  19  11 -11    6.86    0.71
 -19 -11  12   -0.18    0.49
  19  11 -12   -0.26    0.50
 -19 -11  13   21.62    1.11
  19  11 -13   15.07    0.93
 -19 -11  14    2.97    0.55
  19  11 -14    1.91    0.53
 -19 -11  15    3.28    0.53
  19  11 -15    5.64    0.66
 -19 -11  16    1.72    0.50
  19  11 -16    1.43    0.55
 -19 -11  17    1.07    0.52
  19  11 -17    0.61    0.60
 -18 -10  -2    5.83    0.61
 -18 -10  -1    1.29    0.54
  18  10   1    1.22    0.61
 -18 -10   0    6.72    0.67
  18  10   0    7.84    0.73
 -18 -10   1    9.41    0.72
  18  10  -1   10.08    0.83
 -18 -10   2    4.26    0.59
  18  10  -2    5.60    0.77
 -18 -10   3    0.79    0.51
  18  10  -3    0.71    0.68
 -18 -10   4   13.70    0.83
  18  10  -4   14.23    0.91
 -18 -10   5    1.01    0.51
  18  10  -5   -0.97    0.59
 -18 -10   6    9.81    0.68
  18  10  -6   11.25    0.84
 -18 -10   7    4.51    0.56
  18  10  -7    5.29    0.67
 -18 -10   8    0.34    0.51
  18  10  -8    0.94    0.58
 -18 -10   9   19.45    1.05
  18  10  -9   19.24    1.08
 -18 -10  10    1.79    0.49
  18  10 -10    0.97    0.54
 -18 -10  11    2.18    0.54
  18  10 -11    2.18    0.59
 -18 -10  12   22.08    1.14
  18  10 -12   25.10    1.26
 -18 -10  13    0.23    0.46
  18  10 -13    1.13    0.51
 -18 -10  14   17.05    0.96
  18  10 -14   20.99    1.13
 -18 -10  15   16.96    0.96
  18  10 -15   18.45    1.06
 -18 -10  16    0.14    0.52
  18  10 -16   -0.17    0.53
 -18 -10  17    2.52    0.58
  18  10 -17    2.56    0.58
 -18 -10  18    7.03    0.69
  18  10 -18    6.76    0.66
 -18 -10  19   -0.02    0.55
  18  10 -19   -1.18    0.59
 -17  -9  -4   12.27    0.77
  17   9   4   13.79    0.92
 -17  -9  -3    0.33    0.54
  17   9   3    0.05    0.56
 -17  -9  -2    0.51    0.53
  17   9   2    1.01    0.61
 -17  -9  -1    3.90    0.58
  17   9   1    1.65    0.62
 -17  -9   0   15.23    0.96
  17   9   0   15.28    0.98
 -17  -9   1    0.92    0.59
  17   9  -1    0.39    0.55
 -17  -9   2    2.18    0.56
  17   9  -2    1.97    0.59
 -17  -9   3   13.04    0.83
  17   9  -3   13.00    0.91
 -17  -9   4   11.40    0.77
  17   9  -4   10.82    0.80
 -17  -9   5   -0.48    0.45
  17   9  -5    0.46    0.49
 -17  -9   6    9.54    0.78
  17   9  -6    8.16    0.71
 -17  -9   7    9.64    0.77
  17   9  -7    6.71    0.72
 -17  -9   8   28.76    1.38
  17   9  -8   29.77    1.48
 -17  -9   9    3.44    0.51
  17   9  -9    4.99    0.72
 -17  -9  10   13.13    0.81
  17   9 -10   12.62    0.87
 -17  -9  11    5.79    0.57
  17   9 -11    7.26    0.71
 -17  -9  12    0.56    0.52
  17   9 -12   -0.08    0.56
 -17  -9  13    2.85    0.55
  17   9 -13    1.89    0.59
 -17  -9  14   36.80    1.65
  17   9 -14   40.63    1.86
 -17  -9  15    0.48    0.57
  17   9 -15    0.89    0.57
 -17  -9  16   24.90    1.26
  17   9 -16   25.30    1.28
 -17  -9  17    3.98    0.63
  17   9 -17    5.64    0.64
 -17  -9  18    1.79    0.57
  17   9 -18    2.11    0.60
 -17  -9  19   -0.16    0.54
  17   9 -19   -0.01    0.63
 -17  -9  20   -0.04    0.58
  17   9 -20    0.14    0.60
 -16  -8  -6   -0.39    0.49
  16   8   6    0.97    0.69
 -16  -8  -5    1.23    0.49
  16   8   5    1.93    0.69
 -16  -8  -4   20.22    1.07
  16   8   4   13.21    0.93
 -16  -8  -3    6.41    0.73
  16   8   3    6.76    0.77
 -16  -8  -2    4.92    0.64
  16   8   2    5.14    0.67
 -16  -8  -1    8.35    0.75
  16   8   1    9.17    0.79
 -16  -8   0    8.03    0.70
  16   8   0    8.16    0.73
 -16  -8   1   12.11    0.81
  16   8  -1   10.18    0.81
 -16  -8   2   14.16    0.90
  16   8  -2   13.60    0.91
 -16  -8   3   18.99    1.03
  16   8  -3   16.40    1.02
 -16  -8   4   29.44    1.45
  16   8  -4   26.61    1.35
 -16  -8   5   38.85    1.79
  16   8  -5   39.68    1.84
 -16  -8   6   46.28    2.09
  16   8  -6   44.35    2.03
 -16  -8   7   11.49    0.79
  16   8  -7   13.66    0.92
 -16  -8   8   -0.46    0.49
  16   8  -8   -0.65    0.55
 -16  -8   9    5.44    0.56
  16   8  -9    6.56    0.80
 -16  -8  10    9.13    0.70
  16   8 -10   10.26    0.83
 -16  -8  11   14.26    0.89
  16   8 -11   14.94    0.91
 -16  -8  12   17.42    1.00
  16   8 -12   16.91    0.97
 -16  -8  13   30.06    1.42
  16   8 -13   29.65    1.45
 -16  -8  14   19.66    1.06
  16   8 -14   22.70    1.16
 -16  -8  15   27.36    1.34
  16   8 -15   28.90    1.42
 -16  -8  16    1.36    0.56
  16   8 -16    0.34    0.63
 -16  -8  17    9.10    0.72
  16   8 -17   10.60    0.77
 -16  -8  18    7.32    0.72
  16   8 -18    8.36    0.75
 -16  -8  19    0.36    0.55
  16   8 -19   -0.06    0.58
 -16  -8  20    3.18    0.62
  16   8 -20    2.85    0.65
 -16  -8  21    9.05    0.80
  16   8 -21    8.92    0.74
 -15  -7  -7    1.16    0.49
  15   7   7    0.77    0.66
 -15  -7  -6    6.22    0.71
  15   7   6    6.01    0.70
 -15  -7  -5   11.23    0.81
  15   7   5   10.32    0.76
 -15  -7  -4   14.62    0.91
  15   7   4   13.98    0.92
 -15  -7  -3   41.57    1.93
  15   7   3   42.39    1.94
 -15  -7  -2    0.39    0.57
  15   7   2   -0.36    0.64
 -15  -7  -1   43.59    1.95
  15   7   1   44.54    2.04
 -15  -7   0   15.44    0.97
  15   7   0   14.42    0.96
 -15  -7   1    4.23    0.58
  15   7  -1    3.60    0.65
 -15  -7   2   12.69    0.81
  15   7  -2   11.77    0.84
 -15  -7   3   42.09    1.91
  15   7  -3   46.54    2.12
 -15  -7   4   32.55    1.58
  15   7  -4   28.68    1.46
 -15  -7   5   30.94    1.52
  15   7  -5   29.36    1.49
 -15  -7   6   -0.12    0.51
  15   7  -6    0.40    0.58
 -15  -7   7   18.24    1.05
  15   7  -7   18.78    1.09
 -15  -7   8    0.07    0.47
  15   7  -8   -0.26    0.61
 -15  -7   9   14.07    0.84
  15   7  -9   20.27    1.22
 -15  -7  10    2.35    0.54
  15   7 -10    1.15    0.60
 -15  -7  11   60.61    2.63
  15   7 -11   56.67    2.48
 -15  -7  12    0.11    0.48
  15   7 -12    0.89    0.50
 -15  -7  13   26.21    1.29
  15   7 -13   28.28    1.39
 -15  -7  14    0.41    0.49
  15   7 -14   -0.48    0.54
 -15  -7  15    6.46    0.66
  15   7 -15    7.39    0.64
 -15  -7  16    0.10    0.52
  15   7 -16    0.75    0.56
 -15  -7  17   16.09    0.91
  15   7 -17   19.75    1.07
 -15  -7  18    0.48    0.57
  15   7 -18    1.62    0.58
 -15  -7  19   30.10    1.47
  15   7 -19   31.61    1.53
 -15  -7  20    0.36    0.60
  15   7 -20    0.70    0.66
 -15  -7  21    6.99    0.73
  15   7 -21    6.96    0.76
 -15  -7  22   -0.01    0.66
  15   7 -22    1.53    0.56
  14   6   9    1.49    0.54
  14   6   8    0.34    0.57
 -14  -6  -7   31.12    1.51
  14   6   7   30.52    1.50
 -14  -6  -6    3.09    0.67
  14   6   6    2.31    0.64
 -14  -6  -5   22.21    1.16
  14   6   5   22.55    1.21
 -14  -6  -4   21.97    1.21
  14   6   4   21.00    1.15
 -14  -6  -3    0.04    0.58
  14   6   3   -1.05    0.62
 -14  -6  -2   56.43    2.46
  14   6   2   55.98    2.47
 -14  -6  -1    0.06    0.61
  14   6   1    0.14    0.60
 -14  -6   0    3.37    0.58
  14   6   0    1.47    0.59
 -14  -6   1  111.00    4.62
  14   6  -1  118.40    4.94
 -14  -6   2   32.87    1.55
  14   6  -2   34.09    1.64
 -14  -6   3    5.95    0.62
  14   6  -3    5.20    0.65
 -14  -6   4   34.28    1.64
  14   6  -4   36.30    1.72
 -14  -6   5    0.03    0.51
  14   6  -5   -0.23    0.57
 -14  -6   6   86.48    3.65
  14   6  -6   85.75    3.64
 -14  -6   7   27.87    1.36
  14   6  -7   28.35    1.43
 -14  -6   8    3.60    0.51
  14   6  -8    4.54    0.71
 -14  -6   9   37.93    1.71
  14   6  -9   36.88    1.74
 -14  -6  10   77.32    3.27
  14   6 -10   74.68    3.19
 -14  -6  11    5.06    0.62
  14   6 -11    3.49    0.60
 -14  -6  12   13.13    0.85
  14   6 -12   13.69    0.84
 -14  -6  13   10.30    0.80
  14   6 -13   10.11    0.76
 -14  -6  14    4.42    0.61
  14   6 -14    2.21    0.58
 -14  -6  15    7.02    0.69
  14   6 -15    7.22    0.65
 -14  -6  16    5.43    0.70
  14   6 -16    5.25    0.61
 -14  -6  17    6.82    0.66
  14   6 -17    6.33    0.68
 -14  -6  18   23.89    1.23
  14   6 -18   24.47    1.26
 -14  -6  19    3.81    0.62
  14   6 -19    5.27    0.63
 -14  -6  20    0.79    0.62
  14   6 -20   -0.46    0.66
 -14  -6  21    5.91    0.73
  14   6 -21    6.69    0.72
 -14  -6  22    3.62    0.75
 -14  -6  23    6.59    0.87
  13   5  10    1.05    0.64
  13   5   9   -0.51    0.54
  13   5   8   30.68    1.48
  13   5   7    4.03    0.69
 -13  -5  -6   63.89    2.75
  13   5   6   62.15    2.71
 -13  -5  -5    0.43    0.55
  13   5   5   -0.41    0.53
 -13  -5  -4    2.97    0.62
  13   5   4    0.37    0.59
 -13  -5  -3    6.59    0.73
  13   5   3    4.65    0.72
 -13  -5  -2    2.62    0.58
  13   5   2    1.93    0.62
 -13  -5  -1   -0.44    0.60
  13   5   1   -1.32    0.62
 -13  -5   0  104.10    4.36
  13   5   0  104.10    4.36
 -13  -5   1    1.56    0.51
  13   5  -1    0.98    0.65
 -13  -5   2   74.32    3.17
  13   5  -2   70.98    3.07
 -13  -5   3    8.82    0.78
  13   5  -3    9.70    0.75
 -13  -5   4   51.01    2.31
  13   5  -4   55.22    2.43
 -13  -5   5   -0.30    0.53
  13   5  -5   -0.02    0.49
 -13  -5   6  145.80    6.00
  13   5  -6  144.20    5.94
 -13  -5   7   15.84    0.91
  13   5  -7   16.33    0.99
 -13  -5   8   80.35    3.37
  13   5  -8   89.40    3.77
 -13  -5   9    1.43    0.46
  13   5  -9    0.78    0.48
 -13  -5  10    0.10    0.44
  13   5 -10    0.58    0.54
 -13  -5  11   16.54    0.96
  13   5 -11   17.88    1.02
 -13  -5  12   17.66    1.02
  13   5 -12   20.35    1.07
 -13  -5  13    6.19    0.66
  13   5 -13    5.65    0.63
 -13  -5  14   54.11    2.37
  13   5 -14   63.67    2.74
 -13  -5  15   -0.58    0.61
  13   5 -15    0.87    0.51
 -13  -5  16   10.10    0.81
  13   5 -16    7.61    0.72
 -13  -5  17   -0.01    0.56
  13   5 -17    0.20    0.58
 -13  -5  18   22.08    1.16
  13   5 -18   22.61    1.17
 -13  -5  19    0.75    0.60
  13   5 -19    0.99    0.63
 -13  -5  20    1.40    0.68
  13   5 -20    2.06    0.66
 -13  -5  21    2.36    0.64
 -13  -5  22    4.55    0.70
 -13  -5  23    0.92    0.67
  12   4  11    0.20    0.66
  12   4  10   11.69    0.87
  12   4   9    4.39    0.72
  12   4   8    0.28    0.61
  12   4   7   33.90    1.63
 -12  -4  -6   12.60    0.90
  12   4   6   12.83    0.91
 -12  -4  -5    6.88    0.73
  12   4   5    7.09    0.74
 -12  -4  -4   59.72    2.62
  12   4   4   63.75    2.79
 -12  -4  -3    9.05    0.74
  12   4   3   10.37    0.85
 -12  -4  -2   35.34    1.71
  12   4   2   37.24    1.77
 -12  -4  -1    0.50    0.57
  12   4   1    1.27    0.64
 -12  -4   0    0.38    0.53
  12   4   0    0.59    0.49
 -12  -4   1   48.20    2.14
  12   4  -1   49.94    2.23
 -12  -4   2   81.16    3.44
  12   4  -2   69.64    2.99
 -12  -4   3   30.69    1.47
  12   4  -3   29.80    1.45
 -12  -4   4  271.10   11.00
  12   4  -4  287.90   11.65
 -12  -4   5   14.93    0.91
  12   4  -5   13.98    0.91
 -12  -4   6   40.18    1.80
  12   4  -6   40.46    1.85
 -12  -4   7   20.16    1.04
  12   4  -7   21.52    1.15
 -12  -4   8   38.10    1.71
  12   4  -8   13.83    0.84
 -12  -4   9   30.98    1.44
  12   4  -9   27.74    1.35
 -12  -4  10  172.60    7.05
  12   4 -10  182.40    7.44
 -12  -4  11   16.33    0.97
  12   4 -11   13.36    0.83
 -12  -4  12   25.25    1.27
  12   4 -12   22.83    1.17
 -12  -4  13    1.27    0.52
  12   4 -13    1.69    0.49
 -12  -4  14   38.49    1.75
  12   4 -14   40.47    1.84
 -12  -4  15    1.82    0.54
  12   4 -15    1.05    0.55
 -12  -4  16   55.48    2.47
  12   4 -16   55.71    2.44
 -12  -4  17   -0.13    0.62
  12   4 -17   -0.77    0.60
 -12  -4  18   12.54    0.84
  12   4 -18   12.50    0.82
 -12  -4  19    0.88    0.60
  12   4 -19    0.24    0.51
 -12  -4  20    3.45    0.65
 -12  -4  21    0.75    0.59
 -12  -4  22    0.11    0.72
 -12  -4  23   -0.24    0.66
  11   3  12   -0.14    0.63
  11   3  11   23.19    1.21
  11   3  10    1.09    0.60
  11   3   9   15.28    0.95
  11   3   8    3.38    0.65
  11   3   7   27.31    1.40
 -11  -3  -6   31.80    1.55
  11   3   6   29.37    1.47
 -11  -3  -5   64.00    2.76
  11   3   5   68.18    2.97
 -11  -3  -4    0.50    0.59
  11   3   4    1.13    0.67
 -11  -3  -3   61.53    2.69
  11   3   3   60.69    2.69
 -11  -3  -2   24.41    1.31
  11   3   2   21.32    1.16
 -11  -3  -1    0.07    0.54
  11   3   1    0.46    0.51
 -11  -3   0   14.92    0.90
  11   3   0   13.22    0.85
 -11  -3   1  107.10    4.44
  11   3  -1  105.30    4.40
 -11  -3   2  100.20    4.16
  11   3  -2   76.03    3.24
 -11  -3   3  238.80    9.68
  11   3  -3  260.10   10.54
 -11  -3   4   10.70    0.77
  11   3  -4   10.31    0.73
 -11  -3   5    6.81    0.66
  11   3  -5    8.49    0.70
 -11  -3   6   76.66    3.24
  11   3  -6   77.23    3.26
 -11  -3   7    2.66    0.51
  11   3  -7    2.30    0.51
 -11  -3   8   44.26    1.96
  11   3  -8   40.15    1.84
 -11  -3   9   68.12    2.88
  11   3  -9   69.71    2.96
 -11  -3  10    2.58    0.50
  11   3 -10    1.48    0.47
 -11  -3  11  166.00    6.80
  11   3 -11  154.80    6.34
 -11  -3  12    1.40    0.49
  11   3 -12    2.03    0.50
 -11  -3  13    1.20    0.48
  11   3 -13    0.98    0.50
 -11  -3  14    0.47    0.55
  11   3 -14    1.53    0.55
 -11  -3  15    4.96    0.62
  11   3 -15    3.98    0.62
 -11  -3  16   11.73    0.86
  11   3 -16    9.08    0.74
 -11  -3  17   48.44    2.17
  11   3 -17   50.94    2.26
 -11  -3  18    0.42    0.54
  11   3 -18    0.50    0.58
 -11  -3  19    5.27    0.71
 -11  -3  20   11.02    0.82
 -11  -3  21    4.72    0.68
 -11  -3  22   -0.01    0.64
 -11  -3  23    5.30    0.74
  10   2  14   -0.25    0.51
  10   2  13    7.55    0.69
  10   2  13    7.93    0.67
  10   2  12    0.49    0.56
  10   2  11   29.06    1.43
  10   2  10    7.79    0.79
  10   2   9   33.12    1.61
  10   2   8    2.70    0.66
  10   2   7   19.73    1.12
  10   2   6   21.61    1.21
 -10  -2  -5    4.54    0.67
  10   2   5    5.24    0.74
 -10  -2  -4   22.55    1.25
  10   2   4   21.31    1.21
 -10  -2  -3   79.47    3.40
  10   2   3   72.04    3.09
 -10  -2  -2    5.61    0.63
  10   2   2    6.13    0.65
 -10  -2  -1  245.40    9.94
  10   2   1  259.40   10.52
 -10  -2   0   42.08    1.87
  10   2   0   42.66    1.93
 -10  -2   1  181.30    7.39
  10   2  -1  177.20    7.24
 -10  -2   2   11.91    0.77
  10   2  -2   10.22    0.75
 -10  -2   3   41.05    1.84
  10   2  -3   48.43    2.16
 -10  -2   4   37.15    1.68
  10   2  -4   35.75    1.63
 -10  -2   5  109.80    4.54
  10   2  -5  110.00    4.54
 -10  -2   6   26.57    1.26
  10   2  -6   23.90    1.17
 -10  -2   7   56.31    2.40
  10   2  -7   62.32    2.67
 -10  -2   8    5.99    0.50
  10   2  -8    6.07    0.58
 -10  -2   9  181.60    7.35
  10   2  -9  185.20    7.53
 -10  -2  10   16.65    0.88
  10   2 -10   17.55    0.93
 -10  -2  11    5.06    0.57
  10   2 -11    5.85    0.55
 -10  -2  12   -0.24    0.46
  10   2 -12    0.14    0.45
 -10  -2  13  139.00    5.69
  10   2 -13  132.20    5.43
 -10  -2  14   23.15    1.17
  10   2 -14   21.84    1.13
 -10  -2  15   23.55    1.21
  10   2 -15   22.86    1.19
 -10  -2  16   10.25    0.87
  10   2 -16    8.85    0.75
 -10  -2  17    6.89    0.70
 -10  -2  18   10.02    0.74
 -10  -2  19   25.39    1.31
 -10  -2  20    5.74    0.68
 -10  -2  21   10.54    0.89
 -10  -2  22    0.86    0.74
 -10  -2  23    3.02    0.75
 -10  -2  23    2.02    0.68
   9   1  14   12.31    0.87
   9   1  14   11.79    0.77
   9   1  13    1.77    0.57
   9   1  13    2.76    0.55
   9   1  12    0.64    0.65
   9   1  12   -0.37    0.59
   9   1  11   28.79    1.46
   9   1  10    3.09    0.69
   9   1   9   -0.09    0.63
   9   1   8   41.29    1.93
   9   1   7    4.02    0.74
   9   1   6   11.10    0.94
   9   1   5   65.25    2.86
  -9  -1  -4    0.73    0.58
   9   1   4   -0.50    0.50
  -9  -1  -3   42.10    1.94
   9   1   3   41.81    1.92
  -9  -1  -2   90.74    3.81
   9   1   2   98.71    4.13
  -9  -1  -1   34.18    1.60
   9   1   1   33.03    1.55
  -9  -1   0   99.09    4.13
   9   1   0   97.62    4.09
  -9  -1   1  145.00    5.93
   9   1  -1  147.50    6.05
  -9  -1   2   13.78    0.83
   9   1  -2   13.63    0.82
  -9  -1   3   41.14    1.83
   9   1  -3   38.07    1.72
  -9  -1   4   79.08    3.32
   9   1  -4   75.22    3.15
  -9  -1   5   84.29    3.52
   9   1  -5   92.39    3.84
  -9  -1   6  264.40   10.67
   9   1  -6  284.20   11.45
  -9  -1   7  114.90    4.71
   9   1  -7  118.70    4.87
  -9  -1   8  152.30    6.19
   9   1  -8  162.00    6.59
  -9  -1   9  102.60    4.22
   9   1  -9  107.20    4.41
  -9  -1  10    0.41    0.39
   9   1 -10   -0.02    0.41
  -9  -1  11   92.11    3.82
   9   1 -11   87.46    3.63
  -9  -1  12   58.41    2.54
   9   1 -12   52.12    2.24
  -9  -1  13    0.11    0.47
   9   1 -13   -0.23    0.48
  -9  -1  14   76.57    3.19
   9   1 -14   80.50    3.38
  -9  -1  15    1.21    0.62
   9   1 -15    1.61    0.48
  -9  -1  16   57.75    2.52
  -9  -1  17   54.88    2.41
  -9  -1  18    1.02    0.55
  -9  -1  19    2.19    0.58
  -9  -1  20   18.37    1.08
  -9  -1  21    7.45    0.70
  -9  -1  21    7.29    0.80
  -9  -1  22    6.02    0.78
  -9  -1  22    8.37    0.76
  -9  -1  23    4.18    0.76
  -9  -1  23    2.00    0.79
   8   0  15    0.83    0.65
   8   0  15   -0.33    0.54
   8   0  14   21.68    1.18
   8   0  14   19.08    0.99
   8   0  13    0.46    0.66
   8   0  13    0.11    0.59
   8   0  12   16.74    0.99
   8   0  12   15.35    1.00
   8   0  11   -1.10    0.62
   8   0  10   77.50    3.31
   8   0   9   -0.62    0.57
   8   0   8    1.29    0.67
   8   0   7    0.40    0.66
   8   0   6  128.20    5.32
   8   0   5    0.16    0.55
   8   0   4  157.70    6.48
  -8   0  -3   -0.03    0.49
   8   0   3   -0.14    0.48
  -8   0  -2    2.61    0.59
   8   0   2    2.58    0.54
  -8   0  -1   -0.40    0.55
   8   0   1   -0.66    0.49
  -8   0   0  160.50    6.55
   8   0   0  163.10    6.67
  -8   0   1   -0.16    0.45
   8   0  -1   -0.27    0.40
  -8   0   2   92.35    3.81
   8   0  -2   93.27    3.87
  -8   0   3   -0.66    0.37
   8   0  -3   -0.39    0.38
  -8   0   4  128.80    5.24
   8   0  -4  124.80    5.09
  -8   0   5    0.19    0.37
   8   0  -5   -0.56    0.38
  -8   0   6  318.30   12.80
   8   0  -6  335.90   13.49
  -8   0   7    0.04    0.35
   8   0  -7    0.02    0.36
  -8   0   8   78.38    3.23
   8   0  -8   84.56    3.49
  -8   0   9    0.33    0.36
   8   0  -9   -0.27    0.36
  -8   0  10  125.20    5.13
   8   0 -10  111.80    4.58
  -8   0  11    0.01    0.42
   8   0 -11   -0.05    0.40
  -8   0  12    7.79    0.61
   8   0 -12    6.91    0.56
  -8   0  13   -0.13    0.44
   8   0 -13   -0.25    0.39
  -8   0  14   39.10    1.73
  -8   0  15    0.26    0.53
  -8   0  16  181.90    7.43
  -8   0  17   -0.28    0.55
  -8   0  18   96.78    4.03
  -8   0  19   -0.25    0.60
  -8   0  19   -0.75    0.58
  -8   0  20    1.06    0.59
  -8   0  20    1.17    0.61
  -8   0  21    0.22    0.59
  -8   0  21    0.78    0.65
  -8   0  22    5.75    0.79
  -8   0  22    5.40    0.75
  -8   0  23   -0.27    0.71
  -8   0  23   -1.08    0.70
   7  -1  16   17.12    0.99
   7  -1  16   18.25    1.04
   7  -1  15    2.37    0.65
   7  -1  15    3.20    0.57
   7  -1  14    5.57    0.68
   7  -1  14    5.18    0.69
   7  -1  13   17.14    1.03
   7  -1  13   16.09    0.97
   7  -1  12    3.05    0.68
   7  -1  12    4.71    0.62
   7  -1  11   57.85    2.56
   7  -1  11   60.00    2.60
   7  -1  10    1.87    0.56
   7  -1  10    0.96    0.60
   7  -1   9    6.39    0.79
   7  -1   8  142.00    5.88
   7  -1   7   10.47    0.80
   7  -1   6   36.50    1.71
   7  -1   5   44.74    2.02
   7  -1   4   56.46    2.46
   7  -1   3   15.90    0.95
  -7   1  -2  201.40    8.19
   7  -1   2  206.10    8.39
  -7   1  -1    2.38    0.60
   7  -1   1    1.40    0.52
  -7   1   0   48.71    2.12
   7  -1   0   54.56    2.36
  -7   1   1  190.30    7.70
   7  -1  -1  185.70    7.53
  -7   1   2   10.64    0.66
   7  -1  -2   11.12    0.68
  -7   1   3   36.46    1.58
   7  -1  -3   35.34    1.55
  -7   1   4  229.10    9.22
   7  -1  -4  212.30    8.55
  -7   1   5  170.50    6.88
   7  -1  -5  170.90    6.89
  -7   1   6   60.98    2.52
   7  -1  -6   60.96    2.52
  -7   1   7   33.66    1.46
   7  -1  -7   33.72    1.45
  -7   1   8    2.44    0.38
   7  -1  -8    3.24    0.39
  -7   1   9   33.36    1.45
   7  -1  -9   34.47    1.51
  -7   1  10   44.94    1.92
   7  -1 -10   42.66    1.84
  -7   1  11  104.50    4.32
  -7   1  12   87.86    3.65
  -7   1  13    5.53    0.55
  -7   1  14   39.52    1.74
  -7   1  15   66.33    2.85
  -7   1  16    1.27    0.56
  -7   1  16    1.09    0.59
  -7   1  17  119.80    4.94
  -7   1  17  114.70    4.76
  -7   1  18    9.45    0.79
  -7   1  18    9.32    0.76
  -7   1  19    4.60    0.65
  -7   1  19    6.37    0.70
  -7   1  20   15.82    0.98
  -7   1  20   13.86    0.91
  -7   1  21    0.32    0.63
  -7   1  21    1.91    0.72
  -7   1  22    8.71    0.80
  -7   1  22    6.28    0.77
  -7   1  23    1.84    0.71
  -7   1  23    2.16    0.64
   6  -2  17   10.91    0.80
   6  -2  17    9.44    0.69
   6  -2  16    0.08    0.52
   6  -2  16    0.13    0.59
   6  -2  15   22.10    1.18
   6  -2  15   21.66    1.15
   6  -2  14   -0.35    0.56
   6  -2  14    0.55    0.53
   6  -2  13    7.55    0.76
   6  -2  13    8.51    0.71
   6  -2  12   10.18    0.87
   6  -2  12    9.57    0.77
   6  -2  11   44.14    2.01
   6  -2  11   41.56    1.94
   6  -2  10   79.22    3.41
   6  -2  10   74.75    3.20
   6  -2   9  126.10    5.27
   6  -2   9  128.10    5.32
   6  -2   8   37.50    1.80
   6  -2   8   38.80    1.80
   6  -2   7  143.00    5.89
   6  -2   6    2.89    0.59
   6  -2   5    5.38    0.67
   6  -2   4   11.64    0.83
   6  -2   3  267.00   10.81
   6  -2   2   19.66    1.04
   6  -2   1  451.30   18.13
   6  -2   0    6.30    0.55
  -6   2   1  389.00   15.62
   6  -2  -1  402.90   16.17
  -6   2   2   38.85    1.67
   6  -2  -2   36.39    1.59
  -6   2   3  373.50   14.97
   6  -2  -3  391.40   15.69
  -6   2   4   12.32    0.60
   6  -2  -4   12.23    0.60
  -6   2   6    5.20    0.34
   6  -2  -6    4.79    0.33
  -6   2   7    2.27    0.32
   6  -2  -7    2.70    0.31
  -6   2   8    0.57    0.29
  -6   2   9   36.87    1.58
  -6   2  10   33.95    1.48
  -6   2  11  179.00    7.27
  -6   2  12    1.93    0.44
  -6   2  13  121.00    4.96
  -6   2  13  119.40    4.92
  -6   2  14    0.69    0.42
  -6   2  14    0.35    0.53
  -6   2  15   17.50    1.04
  -6   2  15   19.17    1.06
  -6   2  16    0.49    0.56
  -6   2  16    1.18    0.60
  -6   2  17   26.29    1.31
  -6   2  17   24.77    1.28
  -6   2  19   38.50    1.76
  -6   2  19   38.05    1.77
  -6   2  20    0.91    0.59
  -6   2  20    1.16    0.65
  -6   2  21   21.34    1.18
  -6   2  21   24.83    1.27
  -6   2  22    0.98    0.67
  -6   2  22    0.44    0.71
   5  -3  17   -0.31    0.58
   5  -3  17   -0.44    0.50
   5  -3  16    3.95    0.63
   5  -3  16    5.44    0.65
   5  -3  15    7.90    0.80
   5  -3  15    7.58    0.71
   5  -3  14    3.08    0.67
   5  -3  14    4.40    0.59
   5  -3  13  107.70    4.46
   5  -3  13  109.10    4.56
   5  -3  12   41.98    1.94
   5  -3  12   36.51    1.72
   5  -3  11   82.27    3.51
   5  -3  11   70.81    3.03
   5  -3  10    3.28    0.77
   5  -3  10    1.67    0.61
   5  -3   9   25.17    1.36
   5  -3   9   28.94    1.46
   5  -3   8    7.46    0.70
   5  -3   8    5.29    0.69
   5  -3   7  101.20    4.23
   5  -3   7  103.20    4.31
   5  -3   6    5.87    0.61
   5  -3   6    5.55    0.64
   5  -3   5  104.90    4.36
   5  -3   5  103.70    4.33
   5  -3   4    5.45    0.66
   5  -3   3   83.65    3.52
   5  -3   2   35.04    1.60
   5  -3   1  129.70    5.31
   5  -3   0   61.10    2.57
   5  -3  -1   11.47    0.68
   5  -3  -2   43.68    1.83
   5  -3  -3  132.20    5.33
  -5   3   6   17.66    0.76
  -5   3   6   18.11    0.77
  -5   3   7  195.50    7.86
  -5   3   7  194.30    7.81
  -5   3   8    0.39    0.29
  -5   3   8    0.13    0.27
  -5   3  10   41.74    1.80
  -5   3  10   40.16    1.73
  -5   3  11    5.91    0.52
  -5   3  11    6.19    0.54
  -5   3  12   78.32    3.25
  -5   3  12   79.55    3.34
  -5   3  13   50.35    2.17
  -5   3  13   51.02    2.21
  -5   3  14   60.69    2.58
  -5   3  14   62.70    2.69
  -5   3  15   48.96    2.19
  -5   3  15   49.39    2.19
  -5   3  16   10.21    0.79
  -5   3  16    9.97    0.77
  -5   3  17    3.61    0.62
  -5   3  17    2.55    0.57
  -5   3  18   41.24    1.88
  -5   3  18   41.62    1.91
  -5   3  19    0.64    0.52
  -5   3  19    0.26    0.58
  -5   3  21   10.35    0.84
  -5   3  21   11.33    0.83
  -5   3  22   -1.22    0.68
  -5   3  22   -0.05    0.67
   4  -4  18    1.67    0.55
   4  -4  18    1.66    0.57
   4  -4  17    3.93    0.64
   4  -4  17    5.55    0.60
   4  -4  16    8.40    0.80
   4  -4  16    7.15    0.73
   4  -4  15    0.26    0.63
   4  -4  15    0.60    0.56
   4  -4  14   94.48    3.99
   4  -4  14   98.31    4.09
   4  -4  13    3.99    0.71
   4  -4  13    2.50    0.56
   4  -4  12   14.13    0.98
   4  -4  12   15.18    0.95
   4  -4  10    9.43    0.86
   4  -4  10    8.57    0.80
   4  -4   9   -0.30    0.65
   4  -4   9    0.43    0.54
   4  -4   8  170.70    7.00
   4  -4   8  162.50    6.67
   4  -4   7   21.63    1.17
   4  -4   7   22.93    1.22
   4  -4   6   84.88    3.57
   4  -4   5   -1.16    0.49
   4  -4   4  254.60   10.30
   4  -4   3   28.17    1.37
   4  -4   2   14.19    0.82
   4  -4   1    1.98    0.50
   4  -4   0  279.00   11.22
   4  -4  -1  176.70    7.13
   4  -4  -2    1.34    0.29
   4  -4  -3   17.59    0.77
  -4   4   5   16.42    0.69
  -4   4   6    1.09    0.22
  -4   4   6    1.16    0.21
  -4   4   7   43.67    1.82
  -4   4   7   45.66    1.90
  -4   4   8   17.55    0.83
  -4   4   8   17.12    0.81
  -4   4   9   26.16    1.16
  -4   4   9   26.94    1.21
  -4   4  10   42.52    1.84
  -4   4  10   41.74    1.83
  -4   4  11   34.91    1.56
  -4   4  11   38.24    1.71
  -4   4  12    2.99    0.49
  -4   4  12    2.96    0.48
  -4   4  13    3.67    0.49
  -4   4  13    2.21    0.49
  -4   4  14   90.48    3.80
  -4   4  14   89.71    3.76
  -4   4  15   12.12    0.86
  -4   4  15   13.60    0.88
  -4   4  16   31.48    1.53
  -4   4  16   27.45    1.32
  -4   4  17    7.24    0.71
  -4   4  17    6.40    0.68
  -4   4  18    1.58    0.57
  -4   4  18    2.19    0.59
  -4   4  19    2.37    0.61
  -4   4  19    0.84    0.67
  -4   4  20   10.00    0.76
  -4   4  20   10.20    0.85
  -4   4  21    2.44    0.67
  -4   4  21    1.91    0.72
  -4   4  22   10.42    0.90
  -4   4  22    7.69    0.90
   3  -5  18   12.23    0.88
   3  -5  18   13.28    0.87
   3  -5  17    1.81    0.66
   3  -5  17    2.32    0.57
   3  -5  16   26.41    1.34
   3  -5  16   27.87    1.42
   3  -5  15    0.55    0.59
   3  -5  15    0.99    0.59
   3  -5  14    0.29    0.57
   3  -5  14    0.36    0.58
   3  -5  13   -0.59    0.63
   3  -5  13   -0.62    0.66
   3  -5  12   23.36    1.24
   3  -5  12   24.36    1.31
   3  -5  11   80.70    3.48
   3  -5  11   72.81    3.12
   3  -5  10   33.05    1.61
   3  -5   9   23.91    1.26
   3  -5   8  140.40    5.79
   3  -5   7   35.52    1.67
   3  -5   6   40.18    1.84
   3  -5   5    9.74    0.76
   3  -5   4  156.10    6.38
   3  -5   3   45.13    2.01
  -3   5  -2   32.54    1.50
   3  -5   2   40.52    1.80
  -3   5  -1   69.39    2.91
   3  -5   1   66.78    2.80
  -3   5   0    0.32    0.42
   3  -5   0    1.23    0.42
  -3   5   1   39.53    1.69
   3  -5  -1   39.12    1.67
  -3   5   2  389.20   15.59
   3  -5  -2  401.70   16.10
  -3   5   3    0.45    0.25
   3  -5  -3    0.32    0.24
  -3   5   4  111.80    4.52
   3  -5  -4   96.66    3.92
  -3   5   5    4.80    0.34
   3  -5  -5    4.92    0.36
  -3   5   6  467.30   18.73
   3  -5  -6  432.50   17.33
  -3   5   7    7.20    0.47
  -3   5   8    8.69    0.54
  -3   5   9   10.19    0.63
  -3   5  10   96.28    3.99
  -3   5  11    0.14    0.43
  -3   5  12  136.90    5.59
  -3   5  12  127.80    5.25
  -3   5  13    6.30    0.63
  -3   5  13    6.16    0.61
  -3   5  14   35.95    1.68
  -3   5  14   33.96    1.58
  -3   5  15    1.42    0.60
  -3   5  15    1.63    0.56
  -3   5  16   11.12    0.80
  -3   5  16   13.11    0.87
  -3   5  17    1.37    0.59
  -3   5  17    0.24    0.60
  -3   5  18   44.75    2.00
  -3   5  18   42.12    1.91
  -3   5  19    3.78    0.65
  -3   5  19    3.64    0.66
  -3   5  20    9.71    0.81
  -3   5  20    9.41    0.83
  -3   5  21    0.21    0.62
  -3   5  21    0.44    0.71
   2  -6  18    1.66    0.54
   2  -6  18    0.85    0.64
   2  -6  17    8.60    0.78
   2  -6  17    6.24    0.74
   2  -6  16    4.23    0.65
   2  -6  16    3.56    0.65
   2  -6  15    6.16    0.67
   2  -6  15    5.66    0.77
   2  -6  14   40.36    1.84
   2  -6  14   42.05    1.96
   2  -6  13    1.56    0.61
   2  -6  12    1.99    0.62
   2  -6  11   51.15    2.29
   2  -6  10    5.12    0.73
   2  -6   9  123.50    5.13
   2  -6   8  105.00    4.39
   2  -6   7    6.41    0.61
   2  -6   6   57.73    2.50
  -2   6  -5   16.22    0.97
   2  -6   5   15.43    0.93
  -2   6  -4    1.26    0.53
   2  -6   4    0.79    0.50
  -2   6  -3   16.98    0.96
   2  -6   3   17.70    0.98
  -2   6  -2    0.60    0.46
   2  -6   2    0.13    0.45
  -2   6  -1   26.95    1.28
   2  -6   1   25.66    1.20
  -2   6   0    0.40    0.41
   2  -6   0    0.56    0.41
  -2   6   1   33.42    1.47
   2  -6  -1   30.77    1.37
  -2   6   2   70.17    2.89
   2  -6  -2   71.20    2.93
  -2   6   3   38.13    1.63
   2  -6  -3   38.30    1.64
  -2   6   4  358.60   14.39
   2  -6  -4  359.40   14.42
  -2   6   5  529.70   21.22
   2  -6  -5  554.20   22.19
  -2   6   6   81.06    3.35
   2  -6  -6   76.90    3.17
  -2   6   7    0.95    0.34
   2  -6  -7    1.72    0.40
  -2   6   8   27.27    1.26
   2  -6  -8   25.57    1.20
  -2   6   9    7.21    0.56
  -2   6  10   32.47    1.48
  -2   6  11  121.30    4.99
  -2   6  12    1.20    0.49
  -2   6  13    9.41    0.75
  -2   6  14   25.35    1.30
  -2   6  14   24.14    1.22
  -2   6  15    1.72    0.55
  -2   6  15    1.50    0.53
  -2   6  16    9.15    0.74
  -2   6  16   10.46    0.78
  -2   6  17    7.86    0.74
  -2   6  17    6.75    0.69
  -2   6  18    1.34    0.61
  -2   6  18    0.98    0.60
  -2   6  19   10.26    0.80
  -2   6  19   12.42    0.88
  -2   6  20    2.12    0.65
  -2   6  20    1.99    0.57
   1  -7  19    1.59    0.61
   1  -7  19    0.83    0.60
   1  -7  18    1.03    0.58
   1  -7  18    0.04    0.62
   1  -7  17    0.61    0.65
   1  -7  17    0.82    0.66
   1  -7  16    0.48    0.63
   1  -7  16    0.89    0.70
   1  -7  15   38.37    1.77
   1  -7  14   15.00    0.94
   1  -7  13   64.10    2.78
   1  -7  12    5.60    0.74
   1  -7  11    2.50    0.71
   1  -7  10    3.64    0.69
   1  -7   9   91.13    3.86
  -1   7  -8   14.26    0.89
   1  -7   8   13.60    0.87
  -1   7  -7  249.80   10.13
   1  -7   7  255.10   10.34
  -1   7  -6    6.60    0.67
   1  -7   6    4.92    0.60
  -1   7  -5   56.11    2.46
   1  -7   5   58.30    2.53
  -1   7  -4   17.60    0.97
   1  -7   4   17.74    0.99
  -1   7  -3   21.80    1.14
   1  -7   3   22.97    1.16
  -1   7  -2    0.67    0.50
   1  -7   2    0.70    0.46
  -1   7  -1  301.30   12.13
   1  -7   1  304.50   12.27
  -1   7   0  121.60    4.99
   1  -7   0  117.50    4.82
  -1   7   1  155.10    6.30
   1  -7  -1  154.40    6.27
  -1   7   2    4.31    0.48
   1  -7  -2    3.05    0.42
  -1   7   3  143.70    5.83
   1  -7  -3  139.80    5.69
  -1   7   4   36.50    1.59
   1  -7  -4   35.33    1.56
  -1   7   5   20.13    0.96
   1  -7  -5   21.73    1.04
  -1   7   6   20.64    1.00
   1  -7  -6   21.20    1.05
  -1   7   7  103.30    4.25
   1  -7  -7  101.10    4.17
  -1   7   8   15.30    0.83
   1  -7  -8   13.88    0.81
  -1   7   9  213.90    8.66
   1  -7  -9  214.50    8.69
  -1   7  10    0.55    0.45
  -1   7  11    0.26    0.48
  -1   7  12   24.93    1.25
  -1   7  13   37.11    1.71
  -1   7  14   14.25    0.88
  -1   7  15   41.46    1.86
  -1   7  15   41.96    1.91
  -1   7  16    5.84    0.66
  -1   7  16    5.35    0.64
  -1   7  17    4.12    0.60
  -1   7  17    4.36    0.62
  -1   7  18    2.54    0.62
  -1   7  18    2.94    0.62
  -1   7  19   -0.51    0.62
  -1   7  19    0.77    0.66
  -1   7  20    0.45    0.75
  -1   7  20    0.37    0.68
   0  -8  19    4.15    0.63
   0  -8  19    4.83    0.67
   0  -8  18    0.88    0.67
   0  -8  18    1.15    0.50
   0  -8  17   21.46    1.17
   0  -8  16    3.48    0.70
   0  -8  15    0.75    0.55
   0  -8  14   15.87    0.97
   0  -8  13   16.17    0.98
   0  -8  12    2.96    0.64
   0  -8  11  135.40    5.60
   0   8 -10    1.71    0.61
   0  -8  10    1.89    0.63
   0   8  -9   44.81    2.05
   0  -8   9   43.38    1.98
   0   8  -8   92.23    3.89
   0  -8   8   86.55    3.65
   0   8  -7   16.96    1.01
   0  -8   7   16.69    1.00
   0   8  -6   48.09    2.14
   0  -8   6   45.17    2.03
   0   8  -5   11.23    0.81
   0  -8   5    8.24    0.69
   0   8  -4   36.78    1.69
   0  -8   4   34.63    1.62
   0   8  -3  562.90   22.58
   0  -8   3  558.80   22.43
   0   8  -2   35.72    1.65
   0  -8   2   40.52    1.85
   0   8  -1  113.80    4.68
   0  -8   1  123.90    5.10
   0   8   0    5.61    0.54
   0  -8   0    5.92    0.56
   0   8   1  121.40    4.99
   0  -8  -1  125.20    5.13
   0   8   2   31.68    1.46
   0  -8  -2   31.26    1.42
   0   8   3  565.00   22.66
   0  -8  -3  598.60   24.00
   0   8   4   34.29    1.55
   0  -8  -4   32.82    1.49
   0   8   5   10.35    0.63
   0  -8  -5    9.11    0.62
   0   8   6   44.62    1.94
   0  -8  -6   46.49    2.03
   0   8   7   16.57    0.88
   0  -8  -7   16.12    0.89
   0   8   8   90.51    3.77
   0  -8  -8   89.31    3.73
   0   8   9   44.41    1.97
   0  -8  -9   45.02    1.99
   0   8  10    3.12    0.48
   0  -8 -10    3.84    0.56
   0   8  11  138.60    5.71
   0   8  12    2.95    0.59
   0   8  13   14.47    0.92
   0   8  14   16.42    0.98
   0   8  15    0.36    0.57
   0   8  16    4.43    0.60
   0   8  16    4.12    0.66
   0   8  17   22.03    1.16
   0   8  17   22.98    1.18
   0   8  18    1.11    0.62
   0   8  18   -0.13    0.59
   0   8  19    4.68    0.64
   0   8  19    4.80    0.72
  -1  -9  19    0.95    0.67
  -1  -9  19    0.15    0.66
  -1  -9  18   18.63    0.99
  -1  -9  17    0.14    0.66
  -1  -9  16   10.98    0.89
  -1  -9  15    0.11    0.55
  -1  -9  14    0.46    0.56
  -1  -9  13   21.99    1.23
  -1  -9  12    2.73    0.72
   1   9 -11   73.11    3.16
  -1  -9  11   67.91    2.96
   1   9 -10  143.20    5.93
  -1  -9  10  139.90    5.80
   1   9  -9    2.42    0.71
  -1  -9   9    4.48    0.64
   1   9  -8   35.58    1.69
  -1  -9   8   27.04    1.35
   1   9  -7    0.10    0.54
  -1  -9   7   -0.28    0.51
   1   9  -6   82.00    3.48
  -1  -9   6   84.67    3.59
   1   9  -5    6.26    0.62
  -1  -9   5    6.63    0.63
   1   9  -4  139.50    5.76
  -1  -9   4  139.70    5.75
   1   9  -3    0.31    0.50
  -1  -9   3    0.72    0.52
   1   9  -2  284.20   11.48
  -1  -9   2  284.90   11.51
   1   9  -1  161.10    6.58
  -1  -9   1  163.10    6.66
   1   9   0    0.53    0.50
  -1  -9   0   -0.12    0.47
   1   9   1    3.52    0.55
  -1  -9  -1    3.94    0.51
   1   9   2  266.40   10.77
  -1  -9  -2  246.60    9.98
   1   9   3    2.44    0.46
  -1  -9  -3    1.67    0.45
   1   9   4   20.04    1.06
  -1  -9  -4   19.47    1.00
   1   9   5    7.83    0.65
  -1  -9  -5    7.51    0.61
   1   9   6   27.40    1.32
  -1  -9  -6   23.77    1.17
   1   9   7    0.20    0.46
  -1  -9  -7    0.60    0.47
   1   9   8   46.54    2.05
  -1  -9  -8   47.95    2.11
   1   9   9   -0.02    0.49
  -1  -9  -9    0.37    0.51
   1   9  10  100.20    4.19
  -1  -9 -10  103.30    4.31
   1   9  11   20.67    1.11
  -1  -9 -11   21.41    1.16
   1   9  12    0.45    0.55
   1   9  13    0.60    0.53
   1   9  14    0.07    0.49
   1   9  15    0.68    0.55
   1   9  16   19.84    1.09
   1   9  17   -0.01    0.58
   1   9  17   -0.28    0.58
   1   9  18   13.44    0.87
   1   9  18   13.92    0.93
  -2 -10  19    1.44    0.63
  -2 -10  18    2.77    0.68
  -2 -10  17    3.65    0.67
  -2 -10  16   15.67    1.05
  -2 -10  15    1.17    0.68
  -2 -10  14   30.28    1.50
   2  10 -13   23.89    1.31
  -2 -10  13   20.84    1.20
   2  10 -12    5.66    0.73
  -2 -10  12    7.97    0.83
   2  10 -11   40.57    1.91
  -2 -10  11   38.44    1.83
   2  10 -10    0.13    0.68
  -2 -10  10    0.50    0.68
   2  10  -9   86.65    3.68
  -2 -10   9   74.93    3.22
   2  10  -8   76.38    3.28
  -2 -10   8   66.59    2.87
   2  10  -7    7.01    0.69
  -2 -10   7    7.19    0.66
   2  10  -6   56.77    2.49
  -2 -10   6   53.93    2.37
   2  10  -5   16.04    0.94
  -2 -10   5   12.60    0.86
   2  10  -4    6.54    0.65
  -2 -10   4    6.02    0.61
   2  10  -3   34.27    1.60
  -2 -10   3   33.30    1.55
   2  10  -2  137.40    5.65
  -2 -10   2  126.50    5.22
   2  10  -1   51.32    2.26
  -2 -10   1   50.09    2.20
   2  10   0  347.50   14.02
  -2 -10   0  331.10   13.35
   2  10   1   23.62    1.19
  -2 -10  -1   25.79    1.27
   2  10   2   23.49    1.18
  -2 -10  -2   21.82    1.11
   2  10   3    8.14    0.64
  -2 -10  -3    9.10    0.69
   2  10   4   23.07    1.16
  -2 -10  -4   22.80    1.16
   2  10   5   12.77    0.78
  -2 -10  -5   12.38    0.80
   2  10   6  231.00    9.36
  -2 -10  -6  232.90    9.45
   2  10   7   20.15    1.07
  -2 -10  -7   18.86    1.05
   2  10   8   82.09    3.46
  -2 -10  -8   84.52    3.55
   2  10   9   51.14    2.25
  -2 -10  -9   46.44    2.07
   2  10  10    1.67    0.59
  -2 -10 -10    2.33    0.56
   2  10  11    1.12    0.61
  -2 -10 -11    0.94    0.58
   2  10  12   20.42    1.11
   2  10  13    7.26    0.68
   2  10  14   14.81    0.93
   2  10  15   18.03    1.03
   2  10  16    3.46    0.63
   2  10  17    2.94    0.69
  -3 -11  19    0.16    0.55
  -3 -11  18    1.66    0.64
  -3 -11  17    4.88    0.62
  -3 -11  16    6.26    0.72
  -3 -11  15   14.31    1.02
   3  11 -14   -0.28    0.64
  -3 -11  14   -0.30    0.62
   3  11 -13   14.92    0.97
  -3 -11  13   13.83    1.02
   3  11 -12    6.28    0.72
  -3 -11  12    4.38    0.80
   3  11 -11   13.07    0.93
  -3 -11  11   11.67    0.92
   3  11 -10    3.27    0.68
  -3 -11  10    2.29    0.72
   3  11  -9   44.13    2.04
  -3 -11   9   44.03    2.05
   3  11  -8    1.59    0.67
  -3 -11   8    1.50    0.59
   3  11  -7   47.17    2.14
  -3 -11   7   34.66    1.66
   3  11  -6    8.99    0.76
  -3 -11   6    8.38    0.73
   3  11  -5   26.75    1.34
  -3 -11   5   25.39    1.31
   3  11  -4    9.60    0.76
  -3 -11   4   12.07    0.80
   3  11  -3   29.87    1.46
  -3 -11   3   28.97    1.42
   3  11  -2    5.07    0.60
  -3 -11   2    6.67    0.64
   3  11  -1  345.10   13.92
  -3 -11   1  328.90   13.27
   3  11   0   46.32    2.10
  -3 -11   0   39.46    1.80
   3  11   1   69.60    2.99
  -3 -11  -1   68.62    2.93
   3  11   2   55.16    2.44
  -3 -11  -2   52.30    2.29
   3  11   3    0.62    0.52
  -3 -11  -3    1.01    0.47
   3  11   4  100.10    4.19
  -3 -11  -4  100.00    4.18
   3  11   5  184.90    7.54
  -3 -11  -5  203.40    8.30
   3  11   6   10.34    0.78
  -3 -11  -6    9.80    0.75
   3  11   7   34.95    1.62
  -3 -11  -7   37.30    1.71
   3  11   8    8.19    0.70
  -3 -11  -8    8.20    0.73
   3  11   9   11.85    0.81
  -3 -11  -9   12.81    0.86
   3  11  10   31.38    1.50
  -3 -11 -10   31.49    1.51
   3  11  11   13.11    0.89
  -3 -11 -11   12.56    0.82
   3  11  12    0.90    0.54
  -3 -11 -12    1.56    0.54
   3  11  13   38.52    1.77
   3  11  14    2.66    0.61
   3  11  15   19.27    1.09
   3  11  16    1.82    0.71
  -4 -12  18    1.59    0.65
  -4 -12  17   24.23    1.28
   4  12 -16    7.74    0.74
  -4 -12  16    6.97    0.76
   4  12 -15    0.65    0.62
  -4 -12  15   -0.68    0.59
   4  12 -14    7.43    0.79
  -4 -12  14    7.00    0.76
   4  12 -13   67.09    2.91
  -4 -12  13   69.78    3.04
   4  12 -12    6.14    0.72
  -4 -12  12    5.87    0.73
   4  12 -11   23.70    1.27
  -4 -12  11   26.29    1.40
   4  12 -10   10.25    0.86
  -4 -12  10    9.11    0.88
   4  12  -9   26.42    1.40
  -4 -12   9   29.99    1.54
   4  12  -8   21.38    1.18
  -4 -12   8   24.77    1.34
   4  12  -7   28.20    1.48
  -4 -12   7   28.08    1.46
   4  12  -6   22.76    1.23
  -4 -12   6   22.75    1.22
   4  12  -5   76.06    3.26
  -4 -12   5   72.13    3.09
   4  12  -4   10.74    0.77
  -4 -12   4    8.82    0.72
   4  12  -3  115.60    4.81
  -4 -12   3  121.00    5.02
   4  12  -2   26.39    1.33
  -4 -12   2   24.58    1.24
   4  12  -1    5.93    0.67
  -4 -12   1    2.50    0.54
   4  12   0    1.67    0.56
  -4 -12   0    0.36    0.49
   4  12   1   35.78    1.71
  -4 -12  -1   33.07    1.56
   4  12   2    0.96    0.53
  -4 -12  -2    0.38    0.51
   4  12   3  191.60    7.82
  -4 -12  -3  197.40    8.05
   4  12   4    0.90    0.54
  -4 -12  -4   -0.14    0.50
   4  12   5   -0.21    0.56
  -4 -12  -5    0.73    0.55
   4  12   6    7.88    0.70
  -4 -12  -6    7.91    0.71
   4  12   7   14.68    0.93
  -4 -12  -7   13.14    0.86
   4  12   8    0.40    0.51
  -4 -12  -8    1.60    0.60
   4  12   9   29.90    1.45
  -4 -12  -9   29.23    1.44
   4  12  10   -0.51    0.53
  -4 -12 -10   -0.25    0.51
   4  12  11   27.99    1.37
  -4 -12 -11   28.69    1.41
   4  12  12    2.58    0.59
  -4 -12 -12    2.03    0.67
   4  12  13    0.10    0.59
   4  12  14    0.07    0.62
   4  12  15    0.62    0.74
  -5 -13  18   14.53    0.98
   5  13 -17   -0.40    0.54
  -5 -13  17   -0.45    0.69
   5  13 -16   -0.04    0.63
  -5 -13  16   -0.12    0.58
   5  13 -15    8.64    0.81
  -5 -13  15    8.04    0.72
   5  13 -14   48.35    2.17
  -5 -13  14   56.48    2.55
   5  13 -13    4.62    0.67
  -5 -13  13    6.13    0.68
   5  13 -12   40.16    1.86
  -5 -13  12   25.25    1.34
   5  13 -11    0.98    0.63
  -5 -13  11   -0.03    0.61
   5  13 -10    0.64    0.57
  -5 -13  10    1.00    0.62
   5  13  -9   42.20    1.94
  -5 -13   9   46.23    2.13
   5  13  -8   20.36    1.14
  -5 -13   8   20.64    1.24
   5  13  -7    4.24    0.68
  -5 -13   7    4.82    0.68
   5  13  -6  141.80    5.86
  -5 -13   6  151.10    6.23
   5  13  -5    3.13    0.62
  -5 -13   5    3.78    0.63
   5  13  -4  109.50    4.57
  -5 -13   4  139.90    5.79
   5  13  -3   51.57    2.30
  -5 -13   3   48.55    2.17
   5  13  -2    5.39    0.65
  -5 -13   2    5.42    0.65
   5  13  -1    7.70    0.71
  -5 -13   1    8.35    0.72
   5  13   0   43.00    1.97
  -5 -13   0   41.21    1.89
   5  13   1   21.41    1.15
  -5 -13  -1   20.41    1.12
   5  13   2   70.51    3.04
  -5 -13  -2   72.25    3.10
   5  13   3   10.42    0.76
  -5 -13  -3   10.06    0.77
   5  13   4   25.69    1.29
  -5 -13  -4   23.09    1.19
   5  13   5   28.43    1.39
  -5 -13  -5   21.82    1.19
   5  13   6    1.00    0.55
  -5 -13  -6    1.42    0.57
   5  13   7   13.23    0.86
  -5 -13  -7   13.71    0.89
   5  13   8   16.09    0.97
  -5 -13  -8   15.34    0.94
   5  13   9   -0.36    0.52
  -5 -13  -9    0.86    0.54
   5  13  10    8.40    0.70
  -5 -13 -10   10.70    0.78
   5  13  11   10.08    0.80
  -5 -13 -11    9.58    0.76
   5  13  12    0.00    0.57
  -5 -13 -12    0.16    0.60
   5  13  13    6.38    0.73
   6  14 -18    1.00    0.56
  -6 -14  18    1.67    0.67
   6  14 -17    1.32    0.60
  -6 -14  17    1.17    0.58
   6  14 -16   24.48    1.28
  -6 -14  16   23.73    1.23
   6  14 -15    0.08    0.68
  -6 -14  15   -0.54    0.68
   6  14 -14    9.84    0.80
  -6 -14  14   11.42    0.90
   6  14 -13   -0.23    0.61
  -6 -14  13    0.87    0.71
   6  14 -12    0.82    0.62
  -6 -14  12    1.48    0.65
   6  14 -11    0.45    0.61
  -6 -14  11   -0.70    0.62
   6  14 -10   31.25    1.52
  -6 -14  10   29.38    1.50
   6  14  -9    1.86    0.61
  -6 -14   9    1.15    0.68
   6  14  -8   20.63    1.12
  -6 -14   8   19.87    1.17
   6  14  -7    1.29    0.57
  -6 -14   7   -0.14    0.58
   6  14  -6    0.81    0.59
  -6 -14   6   -0.68    0.55
   6  14  -5   22.84    1.18
  -6 -14   5   22.04    1.17
   6  14  -4   21.35    1.12
  -6 -14   4   22.49    1.21
   6  14  -3    4.49    0.62
  -6 -14   3    4.86    0.64
   6  14  -2   32.03    1.57
  -6 -14   2   32.43    1.54
   6  14  -1   12.78    0.86
  -6 -14   1   12.94    0.84
   6  14   0   17.16    1.01
  -6 -14   0   17.05    1.00
   6  14   1    5.34    0.64
  -6 -14  -1    5.92    0.65
   6  14   2    1.72    0.56
  -6 -14  -2    1.44    0.56
   6  14   3    0.66    0.53
  -6 -14  -3    0.99    0.59
   6  14   4   18.42    1.04
  -6 -14  -4   21.20    1.12
   6  14   5    0.45    0.52
  -6 -14  -5    0.28    0.56
   6  14   6   14.55    0.88
  -6 -14  -6   16.23    0.97
   6  14   7    0.68    0.54
  -6 -14  -7    1.05    0.51
   6  14   8    8.86    0.73
  -6 -14  -8    7.88    0.74
   6  14   9   -0.61    0.57
  -6 -14  -9    0.51    0.59
   6  14  10    1.47    0.60
  -6 -14 -10    1.45    0.55
   6  14  11    3.32    0.64
  -6 -14 -11    4.23    0.56
   6  14  12    4.90    0.72
  -6 -14 -12    6.33    0.69
   7  15 -17    0.42    0.60
  -7 -15  17   -0.31    0.61
   7  15 -16    0.31    0.62
  -7 -15  16   -0.58    0.61
   7  15 -15    5.05    0.69
  -7 -15  15    3.86    0.64
   7  15 -14    7.90    0.75
  -7 -15  14    7.85    0.78
   7  15 -13    2.29    0.65
  -7 -15  13    1.69    0.68
   7  15 -12   17.82    1.04
  -7 -15  12   21.55    1.22
   7  15 -11    0.89    0.60
  -7 -15  11    0.98    0.68
   7  15 -10   17.34    1.02
  -7 -15  10   17.53    1.08
   7  15  -9   18.80    1.06
  -7 -15   9   17.72    1.08
   7  15  -8   13.03    0.86
  -7 -15   8    9.84    0.77
   7  15  -7    0.49    0.59
  -7 -15   7    0.31    0.54
   7  15  -6   17.87    1.00
  -7 -15   6   17.15    1.01
   7  15  -5    0.97    0.55
  -7 -15   5    0.81    0.57
   7  15  -4    0.50    0.49
  -7 -15   4    0.16    0.51
   7  15  -3   15.02    0.95
  -7 -15   3   11.87    0.81
   7  15  -2   -0.29    0.54
  -7 -15   2   -0.32    0.51
   7  15  -1   11.18    0.79
  -7 -15   1   10.75    0.76
   7  15   0    8.14    0.70
  -7 -15   0    6.97    0.69
   7  15   1    1.85    0.58
  -7 -15  -1    1.13    0.54
   7  15   2    1.55    0.57
  -7 -15  -2    0.64    0.54
   7  15   3    4.05    0.55
  -7 -15  -3    3.08    0.64
   7  15   4    5.78    0.62
  -7 -15  -4    5.29    0.66
   7  15   5    3.53    0.56
  -7 -15  -5    2.38    0.59
   7  15   6    0.98    0.56
  -7 -15  -6    2.02    0.54
   7  15   7   19.81    1.09
  -7 -15  -7   18.80    1.03
   7  15   8    6.97    0.74
  -7 -15  -8    6.53    0.65
   7  15   9   -1.54    0.58
  -7 -15  -9   -0.68    0.54
   7  15  10   11.35    0.84
  -7 -15 -10   11.80    0.78
   8  16 -16   -0.21    0.62
  -8 -16  16    0.75    0.64
   8  16 -15    1.35    0.62
  -8 -16  15    2.02    0.61
   8  16 -14    1.37    0.62
  -8 -16  14    0.54    0.60
   8  16 -13   23.69    1.23
  -8 -16  13   21.43    1.22
   8  16 -12    2.01    0.61
  -8 -16  12    2.46    0.55
   8  16 -11   17.24    1.00
  -8 -16  11   16.61    0.95
   8  16 -10   -0.13    0.50
  -8 -16  10    0.31    0.54
   8  16  -9    2.88    0.66
  -8 -16   9    3.55    0.61
   8  16  -8    8.16    0.77
  -8 -16   8    9.08    0.71
   8  16  -7   61.00    2.64
  -8 -16   7   57.56    2.52
   8  16  -6    3.87    0.58
  -8 -16   6    3.20    0.59
   8  16  -5   16.33    0.96
  -8 -16   5   21.28    1.14
   8  16  -4    0.49    0.54
  -8 -16   4    0.56    0.54
   8  16  -3    3.71    0.61
  -8 -16   3    2.27    0.54
   8  16  -2    6.17    0.66
  -8 -16   2    5.65    0.65
   8  16  -1   11.96    0.83
  -8 -16   1   11.30    0.79
   8  16   0    0.09    0.55
  -8 -16   0   -0.24    0.52
   8  16   1   40.89    1.86
  -8 -16  -1   42.60    1.94
   8  16   2    1.35    0.60
  -8 -16  -2    1.22    0.57
   8  16   3    5.18    0.65
  -8 -16  -3    5.94    0.65
   8  16   4    1.54    0.58
  -8 -16  -4    2.26    0.56
   8  16   5    1.60    0.55
  -8 -16  -5    0.90    0.54
   8  16   6    2.45    0.58
  -8 -16  -6    1.63    0.56
   8  16   7    5.53    0.66
  -8 -16  -7    5.40    0.69
   8  16   8   -0.79    0.66
  -8 -16  -8   -0.07    0.58
   9  17 -15    3.96    0.67
  -9 -17  15    4.10    0.57
   9  17 -14    0.35    0.59
  -9 -17  14    0.21    0.62
   9  17 -13    0.45    0.57
  -9 -17  13   -0.93    0.66
   9  17 -12    0.36    0.58
  -9 -17  12    0.12    0.57
   9  17 -11   14.04    0.89
  -9 -17  11   13.68    0.90
   9  17 -10   -0.14    0.60
  -9 -17  10   -0.11    0.56
   9  17  -9   24.66    1.27
  -9 -17   9   25.97    1.30
   9  17  -8    1.60    0.57
  -9 -17   8    0.38    0.57
   9  17  -7    0.54    0.56
  -9 -17   7    1.69    0.49
   9  17  -6    5.07    0.64
  -9 -17   6    4.14    0.58
   9  17  -5    0.09    0.54
  -9 -17   5   -0.19    0.54
   9  17  -4    0.89    0.53
  -9 -17   4    1.12    0.53
   9  17  -3   34.36    1.61
  -9 -17   3   34.17    1.60
   9  17  -2    1.47    0.62
  -9 -17   2    1.63    0.51
   9  17  -1   14.09    0.91
  -9 -17   1   15.04    0.92
   9  17   0   10.95    0.78
  -9 -17   0   10.07    0.73
   9  17   1    0.88    0.56
  -9 -17  -1    1.34    0.57
   9  17   2    3.85    0.60
  -9 -17  -2    3.35    0.62
   9  17   3    4.36    0.65
  -9 -17  -3    3.10    0.67
   9  17   4    1.16    0.60
  -9 -17  -4    1.76    0.59
   9  17   5    9.48    0.78
  -9 -17  -5    8.76    0.79
   9  17   6    1.85    0.64
  -9 -17  -6    0.50    0.57
  10  18 -13    4.77    0.65
 -10 -18  13    5.46    0.66
  10  18 -12    2.70    0.60
 -10 -18  12    2.43    0.55
  10  18 -11    0.71    0.55
 -10 -18  11    2.97    0.55
  10  18 -10    6.89    0.70
 -10 -18  10    6.44    0.63
  10  18  -9    3.90    0.64
 -10 -18   9    4.92    0.65
  10  18  -8    6.03    0.62
 -10 -18   8    6.36    0.68
  10  18  -7    2.04    0.54
 -10 -18   7    1.75    0.58
  10  18  -6    0.54    0.48
 -10 -18   6   -0.06    0.54
  10  18  -5   10.12    0.75
 -10 -18   5   10.71    0.79
  10  18  -4   13.51    0.86
 -10 -18   4   14.01    0.86
  10  18  -3    4.67    0.59
 -10 -18   3    4.51    0.57
  10  18  -2   12.00    0.83
 -10 -18   2   11.56    0.81
  10  18  -1    2.98    0.56
 -10 -18   1    3.86    0.56
  10  18   0    1.50    0.51
 -10 -18   0   -0.31    0.46
  10  18   1   10.25    0.81
 -10 -18  -1    7.17    0.73
  10  18   2    0.15    0.49
 -10 -18  -2   -0.28    0.51
  10  18   3   -0.63    0.48
 -10 -18  -3    1.42    0.64
  11  19 -10    0.69    0.53
 -11 -19  10    0.94    0.50
  11  19  -9    1.88    0.56
 -11 -19   9   -0.12    0.55
  11  19  -8   12.17    0.84
 -11 -19   8   12.56    0.83
  11  19  -7    8.74    0.77
 -11 -19   7    8.37    0.70
  11  19  -6    5.21    0.62
 -11 -19   6    7.07    0.67
  11  19  -5    1.27    0.56
 -11 -19   5    0.50    0.50
  11  19  -4    0.42    0.50
 -11 -19   4    0.08    0.53
  11  19  -3    0.18    0.58
 -11 -19   3   -0.30    0.54
  11  19  -2    6.07    0.67
 -11 -19   2    4.80    0.61
  11  19  -1    0.37    0.55
 -11 -19   1    0.62    0.56
 -21 -11   7   11.25    0.73
  21  11  -7    9.59    0.81
 -21 -11   8    1.18    0.54
  21  11  -8    0.22    0.55
 -21 -11   9    0.11    0.46
  21  11  -9    1.10    0.63
 -21 -11  10    5.46    0.61
  21  11 -10    4.48    0.63
 -21 -11  11    0.98    0.45
  21  11 -11    1.69    0.56
 -21 -11  12    5.03    0.57
  21  11 -12    6.23    0.68
 -21 -11  13    3.59    0.56
  21  11 -13    3.50    0.64
 -21 -11  14    2.05    0.56
  21  11 -14    1.52    0.67
 -20 -10   2    0.03    0.45
  20  10  -2   -0.01    0.65
 -20 -10   3    4.50    0.51
  20  10  -3    3.58    0.66
 -20 -10   4    3.81    0.65
  20  10  -4    2.85    0.62
 -20 -10   5    0.50    0.52
  20  10  -5    0.43    0.60
 -20 -10   6   17.80    1.00
  20  10  -6   18.46    1.04
 -20 -10   7    1.39    0.46
  20  10  -7    0.78    0.60
 -20 -10   8    3.15    0.59
  20  10  -8    3.06    0.63
 -20 -10   9    7.31    0.65
  20  10  -9    6.97    0.70
 -20 -10  10    0.08    0.49
  20  10 -10    1.06    0.58
 -20 -10  11    3.91    0.58
  20  10 -11    3.91    0.65
 -20 -10  12   13.33    0.80
  20  10 -12   15.71    0.92
 -20 -10  13    2.09    0.55
  20  10 -13    2.66    0.61
 -20 -10  14   24.10    1.18
  20  10 -14   24.80    1.25
 -20 -10  15    5.64    0.61
  20  10 -15    4.65    0.66
 -20 -10  16    1.33    0.53
  20  10 -16    0.55    0.54
 -20 -10  17    5.93    0.64
  20  10 -17    5.74    0.64
 -19  -9  -1    0.60    0.47
  19   9   1   -0.51    0.59
 -19  -9   0    6.43    0.71
  19   9   0    6.53    0.74
 -19  -9   1    0.43    0.55
  19   9  -1   -0.42    0.60
 -19  -9   2    7.70    0.70
  19   9  -2    8.37    0.78
 -19  -9   3    3.67    0.57
  19   9  -3    1.95    0.68
 -19  -9   4   12.86    0.85
  19   9  -4   13.36    0.92
 -19  -9   5    0.06    0.51
  19   9  -5   -0.05    0.60
 -19  -9   6    7.03    0.66
  19   9  -6    8.16    0.77
 -19  -9   7    0.26    0.46
  19   9  -7    0.18    0.58
 -19  -9   8   21.97    1.09
  19   9  -8   19.20    1.08
 -19  -9   9    2.11    0.48
  19   9  -9    3.16    0.62
 -19  -9  10   25.22    1.27
  19   9 -10   24.59    1.29
 -19  -9  11    0.85    0.48
  19   9 -11    1.26    0.59
 -19  -9  12    6.37    0.63
  19   9 -12    6.68    0.72
 -19  -9  13    4.44    0.60
  19   9 -13    4.85    0.66
 -19  -9  14    6.75    0.64
  19   9 -14    8.65    0.74
 -19  -9  15   -0.08    0.53
  19   9 -15   -0.28    0.59
 -19  -9  16   37.47    1.72
  19   9 -16   35.08    1.64
 -19  -9  17    0.21    0.53
  19   9 -17   -0.10    0.57
 -19  -9  18    5.15    0.63
  19   9 -18    4.50    0.61
 -19  -9  19    1.93    0.61
  19   9 -19    0.66    0.50
 -18  -8  -3    2.15    0.54
  18   8   3    2.43    0.65
 -18  -8  -2    7.78    0.67
  18   8   2    7.92    0.75
 -18  -8  -1    4.18    0.53
  18   8   1    4.03    0.64
 -18  -8   0    1.79    0.53
  18   8   0    1.90    0.65
 -18  -8   1   10.39    0.69
  18   8  -1    9.41    0.79
 -18  -8   2    3.99    0.58
  18   8  -2    2.63    0.60
 -18  -8   3   16.54    0.90
  18   8  -3   18.56    1.09
 -18  -8   4    5.85    0.62
  18   8  -4    4.57    0.72
 -18  -8   5    1.49    0.55
  18   8  -5    0.85    0.61
 -18  -8   6    3.87    0.60
  18   8  -6    5.29    0.67
 -18  -8   7   21.03    1.08
  18   8  -7   19.60    1.12
 -18  -8   8   17.03    0.95
  18   8  -8   16.97    1.02
 -18  -8   9    2.85    0.59
  18   8  -9    0.15    0.61
 -18  -8  10   10.58    0.76
  18   8 -10    9.75    0.79
 -18  -8  11   21.50    1.11
  18   8 -11   23.89    1.25
 -18  -8  12   10.89    0.73
  18   8 -12   10.61    0.77
 -18  -8  13    3.53    0.57
  18   8 -13    4.78    0.64
 -18  -8  14    5.10    0.60
  18   8 -14    3.85    0.60
 -18  -8  15   20.79    1.07
  18   8 -15   19.66    1.09
 -18  -8  16    1.41    0.54
  18   8 -16    0.87    0.56
 -18  -8  17   23.95    1.23
  18   8 -17   25.22    1.27
 -18  -8  18    1.36    0.60
  18   8 -18    3.12    0.65
 -18  -8  19   -0.31    0.53
  18   8 -19    0.16    0.60
 -18  -8  20    8.48    0.73
  18   8 -20    9.98    0.79
 -17  -7  -5    6.50    0.58
  17   7   5    7.55    0.71
 -17  -7  -4   -0.24    0.59
  17   7   4    0.50    0.60
 -17  -7  -3   19.74    1.11
  17   7   3   23.07    1.23
 -17  -7  -2    0.25    0.60
  17   7   2    0.92    0.62
 -17  -7  -1   18.97    1.07
  17   7   1   18.43    1.09
 -17  -7   0    5.34    0.69
  17   7   0    4.47    0.68
 -17  -7   1   17.37    1.02
  17   7  -1   15.96    0.98
 -17  -7   2   20.93    1.08
  17   7  -2   20.71    1.15
 -17  -7   3   53.14    2.35
  17   7  -3   54.00    2.40
 -17  -7   4    0.95    0.59
  17   7  -4    1.08    0.60
 -17  -7   5   80.84    3.43
  17   7  -5   80.62    3.43
 -17  -7   6    6.79    0.59
  17   7  -6    6.24    0.67
 -17  -7   7   19.10    1.02
  17   7  -7   21.91    1.20
 -17  -7   8    5.51    0.66
  17   7  -8    4.27    0.69
 -17  -7   9    3.39    0.59
  17   7  -9    4.45    0.68
 -17  -7  10    2.51    0.58
  17   7 -10    2.87    0.61
 -17  -7  11   29.99    1.42
  17   7 -11   33.20    1.58
 -17  -7  12    0.76    0.48
  17   7 -12    1.03    0.50
 -17  -7  13   39.16    1.79
  17   7 -13   32.91    1.56
 -17  -7  14   -0.31    0.51
  17   7 -14    0.52    0.49
 -17  -7  15    8.81    0.68
  17   7 -15   10.09    0.78
 -17  -7  16   -0.22    0.55
  17   7 -16    0.28    0.58
 -17  -7  17    3.62    0.60
  17   7 -17    4.93    0.62
 -17  -7  18    1.50    0.57
  17   7 -18    2.01    0.62
 -17  -7  19   27.54    1.36
  17   7 -19   25.29    1.29
 -17  -7  20    2.35    0.62
  17   7 -20    2.52    0.66
 -17  -7  21    9.92    0.77
  17   7 -21   10.60    0.86
  16   6   6   -0.71    0.58
 -16  -6  -5   15.08    0.91
  16   6   5   16.17    1.01
 -16  -6  -4    0.01    0.49
  16   6   4   -0.18    0.64
 -16  -6  -3    0.16    0.54
  16   6   3    0.26    0.65
 -16  -6  -2   21.41    1.10
  16   6   2   21.61    1.23
 -16  -6  -1    1.89    0.56
  16   6   1    1.68    0.67
 -16  -6   0   23.62    1.21
  16   6   0   23.77    1.26
 -16  -6   1    8.57    0.71
  16   6  -1    7.51    0.75
 -16  -6   2    0.62    0.49
  16   6  -2    0.29    0.54
 -16  -6   3    6.22    0.65
  16   6  -3    6.03    0.72
 -16  -6   4    5.27    0.65
  16   6  -4    4.16    0.67
 -16  -6   5    6.06    0.62
  16   6  -5    4.91    0.66
 -16  -6   6   27.61    1.33
  16   6  -6   27.02    1.40
 -16  -6   7   38.22    1.75
  16   6  -7   38.75    1.82
 -16  -6   8   -0.45    0.50
  16   6  -8    1.08    0.62
 -16  -6   9   37.89    1.80
  16   6  -9   50.72    2.27
 -16  -6  10   21.15    1.16
  16   6 -10   21.28    1.17
 -16  -6  11    2.85    0.56
  16   6 -11    3.86    0.62
 -16  -6  12   12.98    0.78
  16   6 -12   14.40    0.91
 -16  -6  13   43.71    1.93
  16   6 -13   53.01    2.33
 -16  -6  14    1.56    0.48
  16   6 -14    0.73    0.48
 -16  -6  15   28.03    1.37
  16   6 -15   23.20    1.18
 -16  -6  16    3.01    0.51
  16   6 -16    3.20    0.58
 -16  -6  17   10.83    0.78
  16   6 -17    9.00    0.76
 -16  -6  18    3.91    0.58
  16   6 -18    3.08    0.67
 -16  -6  19    0.16    0.53
  16   6 -19    1.43    0.62
 -16  -6  20   15.24    0.94
  16   6 -20   16.14    1.01
 -16  -6  21    5.53    0.79
  16   6 -21    4.24    0.72
 -16  -6  22    2.28    0.70
  16   6 -22    0.64    0.65
  15   5   8    9.80    0.77
  15   5   7   -0.23    0.64
  15   5   6   18.57    1.07
 -15  -5  -5    2.19    0.55
  15   5   5    3.43    0.68
 -15  -5  -4   18.11    1.02
  15   5   4   19.47    1.13
 -15  -5  -3    3.88    0.57
  15   5   3    3.83    0.64
 -15  -5  -2    4.29    0.61
  15   5   2    2.82    0.63
 -15  -5  -1    0.66    0.55
  15   5   1    0.34    0.56
 -15  -5   0   22.89    1.19
  15   5   0   23.96    1.27
 -15  -5   1    6.11    0.64
  15   5  -1    5.92    0.71
 -15  -5   2   47.32    2.16
  15   5  -2   45.78    2.09
 -15  -5   3   -0.29    0.54
  15   5  -3   -0.09    0.53
 -15  -5   4   26.38    1.36
  15   5  -4   27.18    1.40
 -15  -5   5    5.77    0.62
  15   5  -5    6.17    0.71
 -15  -5   6    9.80    0.70
  15   5  -6   10.70    0.84
 -15  -5   7    4.34    0.56
  15   5  -7    1.63    0.60
 -15  -5   8  125.20    5.19
  15   5  -8  160.80    6.60
 -15  -5   9    2.73    0.54
  15   5  -9    0.67    0.58
 -15  -5  10    2.10    0.51
  15   5 -10    1.19    0.60
 -15  -5  11    0.31    0.43
  15   5 -11    0.54    0.55
 -15  -5  12   24.76    1.20
  15   5 -12   24.54    1.24
 -15  -5  13    0.03    0.47
  15   5 -13   -0.61    0.51
 -15  -5  14   40.83    1.88
  15   5 -14   37.85    1.74
 -15  -5  15   -0.04    0.50
  15   5 -15   -0.05    0.48
 -15  -5  16    6.73    0.63
  15   5 -16    6.30    0.67
 -15  -5  17    1.03    0.50
  15   5 -17    0.02    0.50
 -15  -5  18    3.60    0.66
  15   5 -18    3.17    0.62
 -15  -5  19    1.71    0.56
  15   5 -19    2.56    0.65
 -15  -5  20   29.57    1.43
  15   5 -20   30.23    1.49
 -15  -5  21    0.92    0.62
  15   5 -21    1.30    0.67
 -15  -5  22   24.09    1.25
  15   5 -22   24.53    1.25
 -15  -5  23    0.65    0.79
  14   4   9    3.10    0.65
  14   4   8    0.71    0.58
  14   4   7    4.61    0.68
  14   4   6    4.06    0.64
 -14  -4  -5   11.72    0.84
  14   4   5   10.11    0.85
 -14  -4  -4   51.44    2.28
  14   4   4   47.74    2.17
 -14  -4  -3   17.68    1.08
  14   4   3   14.33    0.93
 -14  -4  -2   87.14    3.69
  14   4   2   92.47    3.91
 -14  -4  -1   -0.12    0.51
  14   4   1   -0.47    0.59
 -14  -4   0    0.43    0.56
  14   4   0   -0.09    0.62
 -14  -4   1   13.12    0.88
  14   4  -1   10.93    0.82
 -14  -4   2   12.06    0.89
  14   4  -2   12.02    0.85
 -14  -4   3    7.78    0.74
  14   4  -3    8.39    0.78
 -14  -4   4  171.50    7.02
  14   4  -4  171.10    7.02
 -14  -4   5   27.17    1.34
  14   4  -5   26.42    1.34
 -14  -4   6   87.07    3.65
  14   4  -6   84.82    3.59
 -14  -4   7  114.30    4.73
  14   4  -7  116.20    4.84
 -14  -4   8   13.75    0.88
  14   4  -8   16.72    1.00
 -14  -4   9    0.43    0.49
  14   4  -9    0.36    0.55
 -14  -4  10   56.34    2.45
  14   4 -10   60.59    2.63
 -14  -4  11    0.22    0.42
  14   4 -11    0.91    0.52
 -14  -4  12   35.38    1.60
  14   4 -12   38.29    1.76
 -14  -4  13    0.76    0.45
  14   4 -13    0.19    0.48
 -14  -4  14   16.52    0.94
  14   4 -14   15.35    0.91
 -14  -4  15    2.96    0.56
  14   4 -15    3.24    0.55
 -14  -4  16   26.05    1.30
  14   4 -16   25.63    1.29
 -14  -4  17   28.59    1.37
  14   4 -17   27.87    1.37
 -14  -4  18   40.38    1.83
  14   4 -18   40.38    1.85
 -14  -4  19   11.81    0.80
  14   4 -19   12.47    0.87
 -14  -4  20    2.84    0.59
  14   4 -20    2.77    0.59
 -14  -4  21    0.85    0.64
 -14  -4  22    0.52    0.68
 -14  -4  23    0.63    0.70
  13   3  11    8.69    0.80
  13   3  10   -0.06    0.60
  13   3   9    5.52    0.73
  13   3   8   11.63    0.87
  13   3   7   -0.17    0.61
  13   3   6    4.44    0.74
 -13  -3  -5   66.82    2.88
  13   3   5   66.81    2.91
 -13  -3  -4   25.52    1.39
  13   3   4   25.46    1.34
 -13  -3  -3   53.46    2.39
  13   3   3   61.08    2.70
 -13  -3  -2   21.17    1.10
  13   3   2   21.51    1.20
 -13  -3  -1   12.82    0.86
  13   3   1   13.56    0.92
 -13  -3   0   42.07    1.91
  13   3   0   40.42    1.89
 -13  -3   1   17.02    1.04
  13   3  -1   17.51    1.01
 -13  -3   2   44.37    2.04
  13   3  -2   41.49    1.89
 -13  -3   3  106.40    4.45
  13   3  -3   97.75    4.09
 -13  -3   4    5.06    0.55
  13   3  -4    4.21    0.58
 -13  -3   5  179.30    7.30
  13   3  -5  177.60    7.25
 -13  -3   6    6.56    0.61
  13   3  -6    6.35    0.63
 -13  -3   7    9.55    0.70
  13   3  -7    8.88    0.69
 -13  -3   8   35.81    1.64
  13   3  -8   29.52    1.43
 -13  -3   9   62.92    2.71
  13   3  -9   67.58    2.91
 -13  -3  10    0.42    0.45
  13   3 -10    0.68    0.45
 -13  -3  11   91.47    3.82
  13   3 -11  109.80    4.55
 -13  -3  12    0.46    0.43
  13   3 -12   -0.36    0.48
 -13  -3  13    8.32    0.65
  13   3 -13    8.20    0.67
 -13  -3  14    1.76    0.50
  13   3 -14    1.95    0.51
 -13  -3  15    0.40    0.54
  13   3 -15    0.51    0.53
 -13  -3  16   14.36    0.87
  13   3 -16   15.56    0.93
 -13  -3  17   71.16    3.03
  13   3 -17   76.21    3.24
 -13  -3  18    0.93    0.61
  13   3 -18    2.85    0.60
 -13  -3  19    3.95    0.58
  13   3 -19    3.59    0.59
 -13  -3  20   14.35    0.94
 -13  -3  21   -0.55    0.65
 -13  -3  22   -0.43    0.61
 -13  -3  23    4.39    0.80
  12   2  12    2.94    0.67
  12   2  11    0.13    0.58
  12   2  10    2.05    0.61
  12   2   9   16.04    0.98
  12   2   8    4.06    0.68
  12   2   7   96.20    4.04
  12   2   6   60.20    2.63
  12   2   5   18.63    1.09
 -12  -2  -4    2.74    0.65
  12   2   4    2.33    0.65
 -12  -2  -3   26.03    1.32
  12   2   3   24.77    1.32
 -12  -2  -2   13.34    0.90
  12   2   2   12.53    0.91
 -12  -2  -1  117.10    4.86
  12   2   1  128.90    5.34
 -12  -2   0   21.97    1.17
  12   2   0   18.90    1.06
 -12  -2   1  138.30    5.73
  12   2  -1  141.40    5.82
 -12  -2   2    0.73    0.51
  12   2  -2    0.62    0.53
 -12  -2   3    5.76    0.61
  12   2  -3    5.71    0.63
 -12  -2   4   15.39    0.88
  12   2  -4   15.68    0.92
 -12  -2   5  111.00    4.58
  12   2  -5  115.30    4.77
 -12  -2   6   12.81    0.77
  12   2  -6   12.76    0.81
 -12  -2   7   86.66    3.63
  12   2  -7   81.61    3.42
 -12  -2   8    9.48    0.68
  12   2  -8    8.94    0.68
 -12  -2   9   39.91    1.81
  12   2  -9   36.24    1.64
 -12  -2  10    0.90    0.47
  12   2 -10    0.88    0.43
 -12  -2  11    7.17    0.59
  12   2 -11    5.78    0.57
 -12  -2  12    5.98    0.54
  12   2 -12    4.35    0.55
 -12  -2  13   75.69    3.16
  12   2 -13   72.73    3.07
 -12  -2  14    0.69    0.48
  12   2 -14    0.40    0.48
 -12  -2  15   24.22    1.27
  12   2 -15   23.27    1.20
 -12  -2  16    4.30    0.61
  12   2 -16    3.76    0.64
 -12  -2  17    0.70    0.48
  12   2 -17    0.63    0.53
 -12  -2  18    0.74    0.55
  12   2 -18   -0.45    0.55
 -12  -2  19   28.30    1.40
 -12  -2  20   -0.81    0.63
 -12  -2  21   17.15    1.01
 -12  -2  22   -0.53    0.63
 -12  -2  23    0.58    0.69
  11   1  13    0.02    0.61
  11   1  13    0.16    0.48
  11   1  12   -0.43    0.54
  11   1  12    0.62    0.48
  11   1  11   31.40    1.50
  11   1  10    5.90    0.67
  11   1   9    1.82    0.63
  11   1   8  100.20    4.20
  11   1   7    1.45    0.58
  11   1   6    0.73    0.59
  11   1   5   31.73    1.57
 -11  -1  -4   24.34    1.29
  11   1   4   21.83    1.22
 -11  -1  -3   78.71    3.34
  11   1   3   85.54    3.64
 -11  -1  -2   24.67    1.26
  11   1   2   32.67    1.57
 -11  -1  -1    2.13    0.54
  11   1   1    2.36    0.55
 -11  -1   0  217.10    8.84
  11   1   0  213.30    8.69
 -11  -1   1  108.70    4.51
  11   1  -1  109.60    4.56
 -11  -1   2   15.69    0.94
  11   1  -2   15.16    0.90
 -11  -1   3  129.40    5.33
  11   1  -3  132.70    5.46
 -11  -1   4    1.44    0.45
  11   1  -4    0.81    0.46
 -11  -1   5    2.80    0.43
  11   1  -5    1.25    0.43
 -11  -1   6   14.41    0.77
  11   1  -6   14.50    0.82
 -11  -1   7    2.89    0.42
  11   1  -7    2.38    0.48
 -11  -1   8    0.83    0.40
  11   1  -8    0.46    0.47
 -11  -1   9   30.63    1.41
  11   1  -9   32.58    1.48
 -11  -1  10   84.92    3.53
  11   1 -10   73.92    3.09
 -11  -1  11  108.10    4.45
  11   1 -11  100.20    4.14
 -11  -1  12    1.77    0.46
  11   1 -12    1.72    0.44
 -11  -1  13   59.10    2.51
  11   1 -13   63.16    2.69
 -11  -1  14    1.25    0.50
  11   1 -14    0.80    0.50
 -11  -1  15   12.57    0.88
  11   1 -15   12.81    0.83
 -11  -1  16    0.12    0.57
  11   1 -16    1.71    0.57
 -11  -1  17   23.43    1.20
 -11  -1  18    2.44    0.58
 -11  -1  19   12.28    0.82
 -11  -1  20   19.88    1.12
 -11  -1  21   -0.46    0.58
 -11  -1  22    4.10    0.74
 -11  -1  22    3.28    0.72
 -11  -1  23    1.92    0.76
 -11  -1  23    2.13    0.65
  10   0  14    1.64    0.52
  10   0  14    1.77    0.65
  10   0  13    0.25    0.62
  10   0  13    0.03    0.47
  10   0  11   -0.36    0.63
  10   0  11    0.58    0.50
  10   0  10   35.56    1.69
  10   0   9   -0.31    0.62
  10   0   8   -0.44    0.62
  10   0   7    0.40    0.62
  10   0   6   31.76    1.60
  10   0   5   -0.02    0.67
  10   0   4  104.30    4.39
 -10   0  -3   -0.81    0.54
  10   0   3   -0.81    0.53
 -10   0  -2   21.73    1.18
  10   0   2   18.72    1.04
 -10   0  -1   -1.05    0.49
  10   0   1   -0.49    0.53
 -10   0   0  267.40   10.83
  10   0   0  270.00   10.94
 -10   0   1    0.55    0.48
  10   0  -1    0.25    0.44
 -10   0   2  346.70   13.97
  10   0  -2  357.60   14.41
 -10   0   3   -0.21    0.43
  10   0  -3   -0.61    0.44
 -10   0   4   44.63    1.95
  10   0  -4   45.29    1.98
 -10   0   5   -0.22    0.37
  10   0  -5    0.24    0.39
 -10   0   6    0.50    0.38
  10   0  -6    0.02    0.42
 -10   0   7   -0.04    0.35
  10   0  -7    0.78    0.43
 -10   0   8   74.82    3.11
  10   0  -8   79.57    3.31
 -10   0   9   -0.43    0.36
  10   0  -9   -0.16    0.36
 -10   0  10  101.10    4.18
  10   0 -10   96.25    3.96
 -10   0  11   -0.34    0.39
  10   0 -11   -0.43    0.39
 -10   0  12  226.90    9.16
  10   0 -12  194.90    7.90
 -10   0  13    0.26    0.40
  10   0 -13   -0.77    0.44
 -10   0  14   11.50    0.74
  10   0 -14   10.72    0.72
 -10   0  15    0.41    0.57
 -10   0  16    2.13    0.54
 -10   0  17    0.25    0.56
 -10   0  18  120.70    4.99
 -10   0  19    0.02    0.55
 -10   0  20   19.42    1.07
 -10   0  20   18.42    1.05
 -10   0  21   -0.94    0.58
 -10   0  21    0.50    0.64
 -10   0  22    5.66    0.74
 -10   0  22    7.67    0.75
 -10   0  23    0.07    0.79
 -10   0  23   -1.01    0.67
   9  -1  14   12.38    0.90
   9  -1  14   11.46    0.78
   9  -1  13    2.57    0.69
   9  -1  13    2.58    0.63
   9  -1  12   -0.25    0.49
   9  -1  12    0.73    0.63
   9  -1  11   28.72    1.42
   9  -1  11   28.15    1.42
   9  -1  10    4.31    0.68
   9  -1  10    3.55    0.60
   9  -1   9    0.27    0.62
   9  -1   8   40.10    1.89
   9  -1   7    4.72    0.71
   9  -1   6   10.30    0.88
   9  -1   5   61.94    2.72
   9  -1   4    0.04    0.55
   9  -1   3   42.80    1.95
  -9   1  -2   90.90    3.79
   9  -1   2   94.87    3.97
  -9   1  -1   35.75    1.66
   9  -1   1   34.15    1.59
  -9   1   0   81.81    3.44
   9  -1   0  104.50    4.34
  -9   1   1  139.30    5.71
   9  -1  -1  148.30    6.07
  -9   1   2   14.70    0.86
   9  -1  -2   14.82    0.82
  -9   1   3   36.81    1.65
   9  -1  -3   33.27    1.50
  -9   1   4   76.22    3.17
   9  -1  -4   75.92    3.16
  -9   1   5   86.20    3.55
   9  -1  -5   85.08    3.50
  -9   1   6  285.00   11.46
   9  -1  -6  307.10   12.34
  -9   1   7  110.00    4.48
   9  -1  -7  113.80    4.64
  -9   1   8  141.00    5.70
   9  -1  -8  171.40    6.93
  -9   1   9  101.30    4.13
   9  -1  -9   98.06    4.01
  -9   1  10    0.61    0.35
   9  -1 -10   -0.46    0.34
  -9   1  11   65.14    2.74
   9  -1 -11   84.13    3.47
  -9   1  12   60.52    2.58
   9  -1 -12   52.71    2.24
  -9   1  13   -0.60    0.36
  -9   1  14   79.90    3.35
  -9   1  15    1.46    0.56
  -9   1  16   69.89    2.96
  -9   1  17   54.67    2.39
  -9   1  18   -0.49    0.61
  -9   1  18    0.83    0.57
  -9   1  19    3.13    0.64
  -9   1  19    3.90    0.65
  -9   1  20   20.14    1.11
  -9   1  20   20.50    1.11
  -9   1  21    7.28    0.75
  -9   1  21    6.47    0.76
  -9   1  22    7.26    0.73
  -9   1  22    7.22    0.81
  -9   1  23    3.41    0.71
  -9   1  23    4.48    0.78
   8  -2  15   24.89    1.30
   8  -2  15   24.32    1.21
   8  -2  14    1.62    0.63
   8  -2  14    2.13    0.63
   8  -2  13   12.29    0.89
   8  -2  13   13.39    0.87
   8  -2  12    1.65    0.64
   8  -2  12    0.11    0.63
   8  -2  11   14.72    0.96
   8  -2  11   13.34    0.92
   8  -2  10   55.52    2.46
   8  -2  10   52.07    2.34
   8  -2   9    5.57    0.71
   8  -2   9    6.65    0.73
   8  -2   8   19.17    1.15
   8  -2   7  108.60    4.57
   8  -2   6    3.15    0.61
   8  -2   5    9.48    0.74
   8  -2   4   -0.12    0.52
   8  -2   3   56.91    2.49
   8  -2   2   10.61    0.78
   8  -2   1  196.30    7.99
  -8   2   0   35.96    1.64
   8  -2   0   35.21    1.62
  -8   2   1   77.18    3.25
   8  -2  -1   47.67    2.07
  -8   2   2    1.16    0.40
   8  -2  -2    1.25    0.42
  -8   2   3   75.95    3.15
   8  -2  -3   77.42    3.20
  -8   2   4    0.84    0.35
   8  -2  -4    0.40    0.33
  -8   2   5  622.20   24.91
   8  -2  -5  571.50   22.88
  -8   2   6    3.58    0.32
   8  -2  -6    3.55    0.35
  -8   2   7  396.10   15.88
   8  -2  -7  378.10   15.16
  -8   2   8    5.96    0.38
   8  -2  -8    5.68    0.40
  -8   2   9   53.34    2.21
   8  -2  -9   53.01    2.20
  -8   2  10   31.39    1.37
   8  -2 -10   56.62    2.35
  -8   2  11   30.23    1.35
  -8   2  12    1.10    0.37
  -8   2  13  121.80    4.96
  -8   2  14    2.86    0.48
  -8   2  15  196.90    8.00
  -8   2  15  200.80    8.16
  -8   2  16    9.59    0.69
  -8   2  16    9.29    0.74
  -8   2  17    3.08    0.59
  -8   2  17    2.94    0.64
  -8   2  18    6.27    0.67
  -8   2  18    6.46    0.67
  -8   2  19   25.77    1.35
  -8   2  19   26.25    1.32
  -8   2  20    3.55    0.66
  -8   2  20    4.06    0.64
  -8   2  21   15.03    0.97
  -8   2  21   14.57    0.98
  -8   2  22    2.16    0.70
  -8   2  22    1.40    0.69
  -8   2  23   -0.23    0.76
  -8   2  23    0.66    0.68
   7  -3  16    2.48    0.59
   7  -3  16    2.74    0.57
   7  -3  15    5.96    0.68
   7  -3  15    5.90    0.68
   7  -3  14    5.16    0.66
   7  -3  14    4.67    0.63
   7  -3  13   44.76    2.02
   7  -3  13   46.34    2.07
   7  -3  12   26.31    1.38
   7  -3  12   25.84    1.35
   7  -3  11  104.40    4.38
   7  -3  11  111.20    4.64
   7  -3  10    8.27    0.75
   7  -3  10    6.18    0.74
   7  -3   9   18.50    1.11
   7  -3   9   15.63    1.00
   7  -3   8    5.34    0.76
   7  -3   8    4.07    0.69
   7  -3   7   29.97    1.47
   7  -3   7   34.80    1.69
   7  -3   6   18.32    1.06
   7  -3   5  147.50    6.07
   7  -3   4   10.11    0.75
   7  -3   3  123.50    5.12
   7  -3   2  101.30    4.22
   7  -3   1   14.21    0.85
   7  -3   0   14.36    0.82
   7  -3  -1    0.90    0.40
   7  -3  -2    2.05    0.40
   7  -3  -3  251.80   10.12
  -7   3   4    2.62    0.33
   7  -3  -4    3.18    0.30
  -7   3   5   31.59    1.32
   7  -3  -5   32.20    1.34
  -7   3   6  192.60    7.80
   7  -3  -6  191.40    7.74
  -7   3   7  166.30    6.73
   7  -3  -7  167.90    6.78
  -7   3   8   94.71    3.83
  -7   3   9  144.80    5.85
  -7   3  10    0.54    0.31
  -7   3  11   79.25    3.26
  -7   3  11   80.00    3.30
  -7   3  12   55.97    2.35
  -7   3  12   57.45    2.41
  -7   3  13   11.67    0.68
  -7   3  13   13.15    0.72
  -7   3  14   35.48    1.61
  -7   3  14   32.82    1.51
  -7   3  15  103.00    4.28
  -7   3  15  100.60    4.18
  -7   3  16   16.24    0.96
  -7   3  16   14.62    0.86
  -7   3  17  108.40    4.49
  -7   3  17  108.80    4.52
  -7   3  18   -0.09    0.53
  -7   3  18   -0.39    0.54
  -7   3  19    5.64    0.65
  -7   3  19    5.81    0.74
  -7   3  20   11.91    0.83
  -7   3  20   13.16    0.96
  -7   3  21    0.72    0.61
  -7   3  21    0.65    0.69
  -7   3  22    1.45    0.64
  -7   3  22    0.06    0.65
  -7   3  23    7.96    0.92
  -7   3  23    9.91    0.90
   6  -4  16    0.74    0.62
   6  -4  16    0.17    0.49
   6  -4  15    0.45    0.56
   6  -4  15   -0.21    0.58
   6  -4  14   37.63    1.72
   6  -4  14   35.93    1.72
   6  -4  13    7.05    0.74
   6  -4  13    7.64    0.80
   6  -4  12   43.57    2.01
   6  -4  12   47.57    2.16
   6  -4  11   25.66    1.37
   6  -4  11   28.40    1.47
   6  -4  10   31.99    1.60
   6  -4  10   32.34    1.59
   6  -4   9   25.58    1.38
   6  -4   9   23.52    1.29
   6  -4   8    4.03    0.72
   6  -4   8    4.57    0.67
   6  -4   7   19.15    1.11
   6  -4   7   19.80    1.11
   6  -4   6   87.09    3.67
   6  -4   6   94.22    3.96
   6  -4   5   29.84    1.46
   6  -4   5   26.57    1.33
   6  -4   4    4.85    0.62
   6  -4   4    4.94    0.58
   6  -4   3  175.50    7.18
   6  -4   3  167.80    6.85
   6  -4   2   45.04    2.00
   6  -4   2   40.58    1.82
   6  -4   1   19.83    1.02
   6  -4   1   21.09    1.06
   6  -4   0  173.80    7.05
   6  -4   0  164.30    6.66
   6  -4  -1   -0.43    0.37
   6  -4  -1    0.02    0.37
   6  -4  -2   25.40    1.13
   6  -4  -2   26.51    1.18
   6  -4  -3  207.40    8.34
   6  -4  -3  206.90    8.32
   6  -4  -4   77.93    3.16
   6  -4  -4   78.21    3.18
  -6   4   8  411.70   16.54
  -6   4   8  419.20   16.86
  -6   4   9   31.64    1.34
  -6   4   9   32.20    1.37
  -6   4  10   94.33    3.85
  -6   4  10   93.32    3.81
  -6   4  11   39.28    1.69
  -6   4  11   38.90    1.68
  -6   4  12    2.00    0.39
  -6   4  12    0.99    0.37
  -6   4  13   74.27    3.09
  -6   4  13   70.24    2.94
  -6   4  14  103.40    4.28
  -6   4  14   98.97    4.11
  -6   4  15   24.74    1.23
  -6   4  15   24.45    1.22
  -6   4  16  119.10    4.89
  -6   4  16  114.30    4.72
  -6   4  17   10.97    0.79
  -6   4  17   10.71    0.75
  -6   4  18    6.12    0.64
  -6   4  18    6.22    0.68
  -6   4  19   -0.19    0.54
  -6   4  19   -0.02    0.56
  -6   4  20    0.27    0.62
  -6   4  20    0.44    0.62
  -6   4  21    3.69    0.67
  -6   4  21    3.53    0.69
  -6   4  22   11.29    0.88
  -6   4  22   11.40    0.94
   5  -5  17    0.14    0.59
   5  -5  17    0.89    0.56
   5  -5  16   14.48    0.93
   5  -5  16   13.66    0.88
   5  -5  15    2.86    0.57
   5  -5  15    3.65    0.72
   5  -5  14   15.64    0.98
   5  -5  14   17.19    1.06
   5  -5  13    2.80    0.61
   5  -5  13    2.40    0.64
   5  -5  12   17.12    1.09
   5  -5  12   17.70    1.07
   5  -5  11   17.62    1.07
   5  -5  11   18.58    1.13
   5  -5  10  149.80    6.18
   5  -5  10  143.20    5.92
   5  -5   9   15.61    1.08
   5  -5   9   12.41    0.91
   5  -5   8   35.41    1.72
   5  -5   8   33.88    1.62
   5  -5   7   30.75    1.52
   5  -5   7   30.90    1.50
   5  -5   6    1.04    0.52
   5  -5   5    3.40    0.59
   5  -5   4   27.89    1.37
   5  -5   3   97.63    4.07
   5  -5   2   32.71    1.52
   5  -5   1   18.57    0.97
   5  -5   0  100.20    4.12
   5  -5  -1    1.47    0.39
   5  -5  -2   40.88    1.73
   5  -5  -3   24.57    1.05
   5  -5  -4   28.84    1.20
  -5   5   7   19.01    0.81
  -5   5   7   18.65    0.80
  -5   5   8    8.28    0.44
  -5   5   8    8.58    0.46
  -5   5   9   11.35    0.60
  -5   5   9   10.82    0.56
  -5   5  10  105.90    4.32
  -5   5  10  107.30    4.38
  -5   5  11    3.34    0.40
  -5   5  11    3.63    0.40
  -5   5  12  246.20    9.91
  -5   5  12  245.00    9.88
  -5   5  13    4.81    0.52
  -5   5  13    5.82    0.57
  -5   5  16    2.87    0.57
  -5   5  16    1.34    0.53
  -5   5  17    2.08    0.57
  -5   5  17    2.99    0.59
  -5   5  19    0.50    0.61
  -5   5  19    1.15    0.61
  -5   5  20   32.03    1.53
  -5   5  20   28.18    1.42
  -5   5  21   -0.97    0.66
  -5   5  21    0.66    0.63
  -5   5  22    6.52    0.81
  -5   5  22    5.71    0.77
   4  -6  17    7.86    0.78
   4  -6  17    9.84    0.74
   4  -6  16    0.07    0.61
   4  -6  16    0.42    0.60
   4  -6  15    3.34    0.64
   4  -6  15    3.84    0.61
   4  -6  14   52.41    2.33
   4  -6  14   53.34    2.37
   4  -6  13    0.15    0.57
   4  -6  13    0.92    0.63
   4  -6  12   20.06    1.20
   4  -6  12   18.59    1.11
   4  -6  11  120.70    5.05
   4  -6  11  117.60    4.92
   4  -6  10    2.65    0.71
   4  -6  10    2.55    0.69
   4  -6   9   20.41    1.14
   4  -6   8   19.27    1.09
   4  -6   7   41.16    1.89
   4  -6   6  100.20    4.19
   4  -6   5   30.82    1.47
   4  -6   4    7.21    0.68
   4  -6   3  106.50    4.41
   4  -6   2   33.48    1.54
  -4   6  -1  129.10    5.28
   4  -6   1  124.30    5.09
  -4   6   0   59.02    2.49
   4  -6   0   56.97    2.41
  -4   6   1    8.26    0.55
   4  -6  -1    8.26    0.55
  -4   6   2    7.01    0.49
   4  -6  -2    6.75    0.47
  -4   6   3    2.18    0.29
   4  -6  -3    2.36    0.29
  -4   6   4  385.10   15.44
   4  -6  -4  402.90   16.16
  -4   6   5  575.40   23.07
   4  -6  -5  553.30   22.18
  -4   6   6   35.27    1.47
   4  -6  -6   34.01    1.43
  -4   6   7   55.41    2.28
   4  -6  -7   53.75    2.22
  -4   6   8   19.36    0.89
  -4   6   9   14.02    0.71
  -4   6  10   13.90    0.71
  -4   6  11  138.10    5.61
  -4   6  11  129.60    5.28
  -4   6  12    1.19    0.43
  -4   6  12    0.78    0.41
  -4   6  13   46.89    2.06
  -4   6  13   46.68    2.04
  -4   6  14   26.75    1.31
  -4   6  14   28.61    1.38
  -4   6  16   37.25    1.72
  -4   6  16   35.79    1.65
  -4   6  17   18.84    1.04
  -4   6  17   18.40    1.06
  -4   6  18    0.09    0.54
  -4   6  18    0.74    0.54
  -4   6  19   26.98    1.34
  -4   6  19   27.95    1.36
  -4   6  20    5.69    0.70
  -4   6  20    7.93    0.77
  -4   6  21    4.50    0.70
  -4   6  21    3.61    0.74
   3  -7  18   -0.08    0.56
   3  -7  17    3.27    0.59
   3  -7  17    3.33    0.66
   3  -7  16    2.29    0.65
   3  -7  16    2.22    0.58
   3  -7  15   28.40    1.37
   3  -7  15   27.82    1.44
   3  -7  14    8.10    0.79
   3  -7  14    8.27    0.74
   3  -7  13   75.91    3.26
   3  -7  13   79.93    3.42
   3  -7  12    0.01    0.68
   3  -7  11    0.77    0.57
   3  -7  10   -0.09    0.60
   3  -7   9  103.30    4.33
   3  -7   8    0.89    0.53
   3  -7   7  357.50   14.42
   3  -7   6    1.89    0.52
   3  -7   5  140.00    5.75
  -3   7  -4   27.81    1.34
   3  -7   4   30.85    1.45
  -3   7  -3   44.69    1.99
   3  -7   3   42.22    1.89
  -3   7  -2    8.38    0.66
   3  -7   2    9.49    0.69
  -3   7  -1  404.90   16.27
   3  -7   1  421.60   16.93
  -3   7   0   14.00    0.80
   3  -7   0   14.41    0.78
  -3   7   1  146.80    5.96
   3  -7  -1  148.30    6.03
  -3   7   2   71.43    2.96
   3  -7  -2   75.73    3.13
  -3   7   3  191.60    7.73
   3  -7  -3  202.10    8.15
  -3   7   4    2.61    0.37
   3  -7  -4    2.68    0.33
  -3   7   5   51.76    2.16
   3  -7  -5   53.41    2.22
  -3   7   6   10.83    0.58
   3  -7  -6   11.02    0.59
  -3   7   7   13.68    0.69
   3  -7  -7   12.99    0.70
  -3   7   8   15.76    0.79
   3  -7  -8   14.94    0.78
  -3   7   9   93.33    3.84
  -3   7  10   26.65    1.22
  -3   7  11    0.29    0.38
  -3   7  12   84.64    3.53
  -3   7  13  126.50    5.19
  -3   7  14   39.45    1.76
  -3   7  14   35.78    1.63
  -3   7  15    9.78    0.71
  -3   7  15   10.11    0.75
  -3   7  16   -0.74    0.52
  -3   7  16    1.01    0.53
  -3   7  17    7.89    0.75
  -3   7  17    8.53    0.71
  -3   7  18    3.79    0.64
  -3   7  18    4.32    0.62
  -3   7  19    5.32    0.69
  -3   7  19    3.55    0.61
  -3   7  20    2.80    0.64
  -3   7  20    2.24    0.65
   2  -8  18    0.99    0.58
   2  -8  18   -0.08    0.65
   2  -8  17    8.83    0.79
   2  -8  17   11.39    0.86
   2  -8  16    1.40    0.68
   2  -8  16    0.40    0.64
   2  -8  15    0.80    0.61
   2  -8  15   -0.61    0.56
   2  -8  14   24.03    1.31
   2  -8  13   12.64    0.95
   2  -8  12   51.38    2.34
   2  -8  11    1.28    0.69
   2  -8  10   28.89    1.48
   2  -8   9   38.76    1.84
   2  -8   8   79.24    3.38
  -2   8  -7    2.15    0.54
   2  -8   7    1.36    0.58
  -2   8  -6   79.35    3.36
   2  -8   6   79.74    3.37
  -2   8  -5   24.06    1.23
   2  -8   5   25.08    1.25
  -2   8  -4   31.46    1.48
   2  -8   4   33.29    1.56
  -2   8  -3  263.70   10.66
   2  -8   3  255.70   10.35
  -2   8  -2  142.60    5.84
   2  -8   2  144.20    5.90
  -2   8  -1   59.48    2.53
   2  -8   1   59.34    2.54
  -2   8   0  397.60   15.99
   2  -8   0  404.60   16.26
  -2   8   1    4.52    0.49
   2  -8  -1    3.24    0.44
  -2   8   2   81.21    3.35
   2  -8  -2   81.68    3.38
  -2   8   3  269.10   10.83
   2  -8  -3  250.20   10.08
  -2   8   4    1.93    0.40
   2  -8  -4    1.89    0.37
  -2   8   5   15.87    0.80
   2  -8  -5   15.53    0.79
  -2   8   6    3.17    0.39
   2  -8  -6    2.42    0.38
  -2   8   7   17.22    0.87
   2  -8  -7   17.65    0.88
  -2   8   8   64.19    2.71
   2  -8  -8   61.05    2.58
  -2   8   9    7.17    0.57
   2  -8  -9    7.90    0.58
  -2   8  10    5.30    0.50
   2  -8 -10    5.85    0.53
  -2   8  11   75.57    3.17
  -2   8  12   27.64    1.34
  -2   8  13   41.28    1.85
  -2   8  14    3.77    0.57
  -2   8  15   -0.31    0.52
  -2   8  15    0.07    0.52
  -2   8  16   -0.06    0.55
  -2   8  16    1.19    0.57
  -2   8  17   35.48    1.65
  -2   8  17   34.25    1.60
  -2   8  18    0.56    0.64
  -2   8  18   -0.37    0.58
  -2   8  19    4.68    0.73
  -2   8  19    6.00    0.73
  -2   8  20    0.06    0.74
  -2   8  20    0.73    0.66
   1  -9  18   12.07    0.84
   1  -9  18   14.67    0.97
   1  -9  17    0.39    0.61
   1  -9  17    0.21    0.58
   1  -9  16   19.18    1.11
   1  -9  15   -0.64    0.56
   1  -9  14    0.12    0.61
   1  -9  13    1.36    0.68
   1  -9  12    0.16    0.67
   1  -9  11   20.93    1.16
   1  -9  10  100.80    4.24
  -1   9  -9   -0.33    0.58
   1  -9   9    0.63    0.61
  -1   9  -8   41.82    1.93
   1  -9   8   41.45    1.91
  -1   9  -7    1.17    0.58
   1  -9   7    0.39    0.53
  -1   9  -6   28.46    1.42
   1  -9   6   27.12    1.34
  -1   9  -5    5.39    0.65
   1  -9   5    6.85    0.67
  -1   9  -4   17.11    0.99
   1  -9   4   17.30    0.96
  -1   9  -3    2.26    0.51
   1  -9   3    1.76    0.48
  -1   9  -2  233.40    9.45
   1  -9   2  248.80   10.08
  -1   9  -1    2.55    0.50
   1  -9   1    2.98    0.53
  -1   9   0    0.68    0.41
   1  -9   0    0.62    0.43
  -1   9   1  156.70    6.38
   1  -9  -1  158.50    6.46
  -1   9   2  294.20   11.85
   1  -9  -2  285.90   11.52
  -1   9   3    0.27    0.43
   1  -9  -3    0.13    0.39
  -1   9   4  130.10    5.32
   1  -9  -4  128.20    5.24
  -1   9   5    8.24    0.61
   1  -9  -5    6.61    0.53
  -1   9   6   79.61    3.33
   1  -9  -6   78.80    3.28
  -1   9   7    0.51    0.39
   1  -9  -7    0.32    0.40
  -1   9   8   33.76    1.54
   1  -9  -8   33.77    1.53
  -1   9   9    3.67    0.50
   1  -9  -9    4.27    0.52
  -1   9  10  144.60    5.92
   1  -9 -10  137.00    5.62
  -1   9  11   64.62    2.76
   1  -9 -11   69.92    2.98
  -1   9  12    2.02    0.51
  -1   9  13   24.45    1.25
  -1   9  14    0.68    0.50
  -1   9  15    0.75    0.53
  -1   9  16   12.80    0.81
  -1   9  16   10.37    0.76
  -1   9  17    1.12    0.59
  -1   9  17    1.41    0.58
  -1   9  18   18.51    1.08
  -1   9  18   18.49    1.06
  -1   9  19    0.99    0.68
  -1   9  19   -0.25    0.65
   0 -10  18   -0.78    0.66
   0 -10  17    2.82    0.63
   0 -10  16    6.34    0.80
   0 -10  15    2.49    0.65
   0 -10  14   28.07    1.43
   0 -10  13   26.67    1.39
   0 -10  12    0.91    0.58
   0 -10  11   -0.39    0.65
   0  10 -10    7.45    0.76
   0 -10  10    6.94    0.77
   0  10  -9   12.42    0.95
   0 -10   9   14.52    1.03
   0  10  -8   12.47    0.95
   0 -10   8   11.90    0.85
   0  10  -7    1.74    0.61
   0 -10   7    0.69    0.53
   0  10  -6  155.30    6.38
   0 -10   6  157.90    6.48
   0  10  -5   11.98    0.83
   0 -10   5   12.27    0.84
   0  10  -4    0.44    0.47
   0 -10   4   -1.23    0.51
   0  10  -3   70.59    3.02
   0 -10   3   72.81    3.10
   0  10  -2    7.42    0.63
   0 -10   2    6.57    0.61
   0  10  -1    3.44    0.52
   0 -10   1    2.08    0.45
   0  10   0  525.70   21.10
   0 -10   0  534.50   21.45
   0  10   1    3.33    0.52
   0 -10  -1    3.22    0.48
   0  10   2    7.53    0.62
   0 -10  -2    5.99    0.57
   0  10   3   73.60    3.09
   0 -10  -3   70.32    2.97
   0  10   4   -0.24    0.40
   0 -10  -4   -0.64    0.43
   0  10   5   13.13    0.76
   0 -10  -5   10.58    0.70
   0  10   6  166.50    6.78
   0 -10  -6  160.90    6.56
   0  10   7    1.50    0.47
   0 -10  -7    1.17    0.48
   0  10   8   13.73    0.81
   0 -10  -8   12.01    0.79
   0  10   9   14.96    0.86
   0 -10  -9   14.10    0.87
   0  10  10    8.22    0.67
   0 -10 -10    7.88    0.65
   0  10  11    0.28    0.53
   0 -10 -11   -0.57    0.52
   0  10  12    2.45    0.56
   0  10  13   26.19    1.30
   0  10  14   29.47    1.42
   0  10  15    3.05    0.62
   0  10  16    5.71    0.65
   0  10  17    3.47    0.67
   0  10  17    3.09    0.63
   0  10  18   -0.84    0.64
   0  10  18   -0.10    0.61
  -1 -11  18   -0.15    0.64
  -1 -11  17    1.75    0.61
  -1 -11  16   -0.49    0.57
  -1 -11  15   20.98    1.14
  -1 -11  14    1.35    0.62
  -1 -11  13    6.28    0.75
   1  11 -12    5.07    0.70
  -1 -11  12    8.74    0.80
   1  11 -11    9.14    0.80
  -1 -11  11    9.35    0.84
   1  11 -10    1.77    0.67
  -1 -11  10    0.72    0.64
   1  11  -9    1.52    0.68
  -1 -11   9    0.19    0.62
   1  11  -8   21.53    1.24
  -1 -11   8   23.27    1.33
   1  11  -7   83.19    3.54
  -1 -11   7   84.26    3.57
   1  11  -6    4.85    0.61
  -1 -11   6    4.99    0.64
   1  11  -5    3.53    0.59
  -1 -11   5    2.64    0.63
   1  11  -4    9.46    0.73
  -1 -11   4    8.57    0.70
   1  11  -3    9.65    0.72
  -1 -11   3    9.45    0.72
   1  11  -2  134.20    5.55
  -1 -11   2  125.80    5.19
   1  11  -1  214.50    8.74
  -1 -11   1  207.70    8.45
   1  11   0   51.38    2.26
  -1 -11   0   49.94    2.19
   1  11   1   96.20    4.00
  -1 -11  -1   92.24    3.86
   1  11   2   16.23    0.95
  -1 -11  -2   16.27    0.92
   1  11   3   15.94    0.93
  -1 -11  -3   14.09    0.83
   1  11   4   68.27    2.91
  -1 -11  -4   65.60    2.81
   1  11   5  123.20    5.08
  -1 -11  -5  111.60    4.62
   1  11   6    5.07    0.58
  -1 -11  -6    4.47    0.58
   1  11   7  132.90    5.47
  -1 -11  -7  128.70    5.32
   1  11   8    0.47    0.47
  -1 -11  -8    1.72    0.52
   1  11   9   27.06    1.31
  -1 -11  -9   27.36    1.35
   1  11  10    6.23    0.63
  -1 -11 -10    7.70    0.70
   1  11  11   24.74    1.24
  -1 -11 -11   22.90    1.20
   1  11  12   -0.25    0.57
  -1 -11 -12    0.06    0.51
   1  11  13   60.95    2.64
   1  11  14    2.16    0.62
   1  11  15   20.25    1.14
   1  11  16   -0.03    0.65
   1  11  17    0.76    0.69
  -2 -12  18   -0.30    0.60
  -2 -12  17    5.70    0.71
  -2 -12  16    2.91    0.68
  -2 -12  15    7.67    0.81
  -2 -12  14    0.59    0.60
   2  12 -13   10.94    0.85
  -2 -12  13   11.72    0.93
   2  12 -12    1.88    0.64
  -2 -12  12    2.66    0.72
   2  12 -11   28.46    1.46
  -2 -12  11   27.15    1.44
   2  12 -10   13.69    0.95
  -2 -12  10   13.67    0.96
   2  12  -9   46.57    2.14
  -2 -12   9   47.09    2.18
   2  12  -8    0.82    0.65
  -2 -12   8    1.18    0.63
   2  12  -7    0.30    0.57
  -2 -12   7    0.38    0.70
   2  12  -6    2.43    0.61
  -2 -12   6    3.28    0.62
   2  12  -5   58.23    2.55
  -2 -12   5   58.85    2.59
   2  12  -4    0.66    0.54
  -2 -12   4    1.35    0.55
   2  12  -3  117.00    4.87
  -2 -12   3  114.10    4.74
   2  12  -2    1.04    0.47
  -2 -12   2    2.01    0.54
   2  12  -1   36.95    1.71
  -2 -12   1   38.02    1.75
   2  12   0    4.73    0.63
  -2 -12   0    5.47    0.58
   2  12   1   72.75    3.12
  -2 -12  -1   68.66    2.94
   2  12   2    3.13    0.56
  -2 -12  -2    3.38    0.52
   2  12   3  151.00    6.19
  -2 -12  -3  161.90    6.63
   2  12   4    5.75    0.59
  -2 -12  -4    4.81    0.58
   2  12   5   16.14    0.93
  -2 -12  -5   16.33    0.95
   2  12   6    1.00    0.54
  -2 -12  -6    0.88    0.52
   2  12   7   14.22    0.89
  -2 -12  -7   13.06    0.84
   2  12   8    3.65    0.57
  -2 -12  -8    2.85    0.55
   2  12   9   10.72    0.75
  -2 -12  -9   11.20    0.76
   2  12  10   10.61    0.77
  -2 -12 -10   11.49    0.82
   2  12  11   75.78    3.21
  -2 -12 -11   77.99    3.30
   2  12  12    3.97    0.61
  -2 -12 -12    3.80    0.64
   2  12  13    5.47    0.68
   2  12  14    0.44    0.62
   2  12  15    1.12    0.64
   2  12  16    1.13    0.71
  -3 -13  17    2.08    0.68
  -3 -13  16    3.55    0.67
   3  13 -15   10.95    0.79
  -3 -13  15    9.37    0.79
   3  13 -14    3.91    0.70
  -3 -13  14    3.44    0.72
   3  13 -13    1.18    0.72
  -3 -13  13    2.21    0.74
   3  13 -12   62.91    2.75
  -3 -13  12   68.54    3.01
   3  13 -11   -0.80    0.59
  -3 -13  11    0.50    0.62
   3  13 -10   21.95    1.23
  -3 -13  10   24.44    1.42
   3  13  -9    1.43    0.68
  -3 -13   9    0.71    0.68
   3  13  -8    9.62    0.83
  -3 -13   8    7.89    0.78
   3  13  -7   21.47    1.19
  -3 -13   7   16.69    1.07
   3  13  -6    1.05    0.61
  -3 -13   6    0.47    0.65
   3  13  -5    1.36    0.61
  -3 -13   5   -0.12    0.58
   3  13  -4   40.41    1.87
  -3 -13   4   38.52    1.77
   3  13  -3   15.52    0.95
  -3 -13   3   13.49    0.86
   3  13  -2   69.65    3.00
  -3 -13   2   63.80    2.76
   3  13  -1    0.92    0.51
  -3 -13   1    2.10    0.55
   3  13   0   32.05    1.53
  -3 -13   0   30.98    1.50
   3  13   1   20.97    1.14
  -3 -13  -1   20.88    1.10
   3  13   2   35.08    1.67
  -3 -13  -2   37.68    1.73
   3  13   3    0.77    0.52
  -3 -13  -3    1.00    0.52
   3  13   4    9.17    0.73
  -3 -13  -4    6.95    0.66
   3  13   5   54.30    2.37
  -3 -13  -5   55.15    2.42
   3  13   6    2.68    0.54
  -3 -13  -6    2.31    0.55
   3  13   7   15.78    0.94
  -3 -13  -7   17.50    0.96
   3  13   8    6.82    0.66
  -3 -13  -8    7.01    0.65
   3  13   9    2.70    0.57
  -3 -13  -9    3.12    0.60
   3  13  10   50.44    2.21
  -3 -13 -10   47.22    2.11
   3  13  11   13.74    0.86
  -3 -13 -11   14.62    0.92
   3  13  12    1.72    0.57
  -3 -13 -12    1.78    0.63
   3  13  13   10.19    0.81
   3  13  14    1.42    0.66
   3  13  15   -0.73    0.73
  -4 -14  17    0.33    0.70
   4  14 -16   13.92    0.88
  -4 -14  16   13.65    0.90
   4  14 -15   -0.17    0.59
  -4 -14  15    0.38    0.66
   4  14 -14   32.37    1.56
  -4 -14  14   30.43    1.54
   4  14 -13    3.09    0.66
  -4 -14  13    1.23    0.73
   4  14 -12    1.37    0.61
  -4 -14  12    0.75    0.70
   4  14 -11   -0.45    0.61
  -4 -14  11    0.21    0.63
   4  14 -10   52.26    2.33
  -4 -14  10   54.50    2.43
   4  14  -9    1.51    0.60
  -4 -14   9    1.08    0.62
   4  14  -8   51.96    2.32
  -4 -14   8   51.07    2.29
   4  14  -7    0.49    0.58
  -4 -14   7    0.76    0.64
   4  14  -6   17.15    1.02
  -4 -14   6   18.91    1.14
   4  14  -5    1.37    0.53
  -4 -14   5    1.50    0.65
   4  14  -4   12.89    0.86
  -4 -14   4   12.15    0.87
   4  14  -3   24.52    1.25
  -4 -14   3   24.03    1.25
   4  14  -2  104.60    4.38
  -4 -14   2  102.40    4.29
   4  14  -1   33.09    1.59
  -4 -14   1   33.48    1.60
   4  14   0   25.36    1.31
  -4 -14   0   23.59    1.23
   4  14   1   11.71    0.79
  -4 -14  -1   12.73    0.85
   4  14   2    2.75    0.57
  -4 -14  -2    2.48    0.57
   4  14   3    1.42    0.54
  -4 -14  -3    2.34    0.54
   4  14   4   30.76    1.49
  -4 -14  -4   32.95    1.57
   4  14   5    0.62    0.49
  -4 -14  -5   -0.40    0.56
   4  14   6   29.47    1.42
  -4 -14  -6   28.40    1.40
   4  14   7    9.21    0.72
  -4 -14  -7    8.39    0.74
   4  14   8   29.23    1.42
  -4 -14  -8   27.62    1.37
   4  14   9    1.51    0.53
  -4 -14  -9    1.64    0.54
   4  14  10    5.41    0.64
  -4 -14 -10    5.10    0.71
   4  14  11    4.12    0.62
  -4 -14 -11    4.00    0.67
   4  14  12    6.86    0.73
  -4 -14 -12    6.49    0.73
   4  14  13    0.10    0.63
   5  15 -16    2.12    0.59
  -5 -15  16    2.40    0.68
   5  15 -15   15.72    0.96
  -5 -15  15   15.00    0.93
   5  15 -14   10.23    0.85
  -5 -15  14    8.55    0.80
   5  15 -13   -0.35    0.62
  -5 -15  13   -0.68    0.64
   5  15 -12   20.35    1.12
  -5 -15  12   15.98    1.02
   5  15 -11    1.17    0.63
  -5 -15  11   -0.33    0.61
   5  15 -10    7.35    0.70
  -5 -15  10   11.90    0.85
   5  15  -9   12.03    0.87
  -5 -15   9   11.66    0.87
   5  15  -8    6.00    0.65
  -5 -15   8    6.19    0.70
   5  15  -7    6.89    0.72
  -5 -15   7    7.07    0.77
   5  15  -6   56.98    2.51
  -5 -15   6   56.20    2.50
   5  15  -5    8.79    0.76
  -5 -15   5   11.17    0.80
   5  15  -4    7.88    0.70
  -5 -15   4    6.52    0.67
   5  15  -3   12.34    0.86
  -5 -15   3   15.82    0.98
   5  15  -2   -0.03    0.49
  -5 -15   2    0.32    0.57
   5  15  -1    0.73    0.53
  -5 -15   1    0.00    0.55
   5  15   0   14.51    0.90
  -5 -15   0   14.32    0.91
   5  15   1    2.78    0.55
  -5 -15  -1    3.19    0.60
   5  15   2    3.32    0.56
  -5 -15  -2    3.90    0.61
   5  15   3   18.52    1.05
  -5 -15  -3   17.48    0.99
   5  15   4    5.73    0.65
  -5 -15  -4    5.50    0.67
   5  15   5    4.83    0.60
  -5 -15  -5    5.16    0.62
   5  15   6    1.58    0.50
  -5 -15  -6    1.04    0.56
   5  15   7    7.85    0.65
  -5 -15  -7    9.20    0.73
   5  15   8   13.36    0.85
  -5 -15  -8   13.76    0.94
   5  15   9   -0.63    0.58
  -5 -15  -9    0.87    0.61
   5  15  10    5.11    0.70
  -5 -15 -10    6.40    0.68
   5  15  11   -0.51    0.59
  -5 -15 -11   -0.57    0.59
   5  15  12    1.72    0.70
  -5 -15 -12    1.08    0.63
   6  16 -16    0.10    0.63
  -6 -16  16    0.90    0.63
   6  16 -15    2.44    0.67
  -6 -16  15    0.57    0.65
   6  16 -14   -0.48    0.60
  -6 -16  14   -0.47    0.66
   6  16 -13   30.05    1.48
  -6 -16  13   30.05    1.49
   6  16 -12    0.26    0.60
  -6 -16  12    0.75    0.67
   6  16 -11   14.64    0.97
  -6 -16  11   15.36    1.00
   6  16 -10    0.21    0.64
  -6 -16  10   -0.18    0.66
   6  16  -9    1.01    0.57
  -6 -16   9   -0.08    0.62
   6  16  -8   14.40    0.91
  -6 -16   8   13.98    0.92
   6  16  -7   49.59    2.20
  -6 -16   7   47.70    2.15
   6  16  -6   -0.80    0.58
  -6 -16   6    0.26    0.54
   6  16  -5   50.21    2.23
  -6 -16   5   49.96    2.22
   6  16  -4    8.91    0.71
  -6 -16   4    9.23    0.79
   6  16  -3    3.68    0.59
  -6 -16   3    3.99    0.66
   6  16  -2    0.38    0.54
  -6 -16   2    0.45    0.55
   6  16  -1    6.53    0.67
  -6 -16   1    6.53    0.67
   6  16   0    2.65    0.55
  -6 -16   0    1.87    0.56
   6  16   1   39.50    1.82
  -6 -16  -1   36.19    1.70
   6  16   2    0.16    0.54
  -6 -16  -2    0.11    0.50
   6  16   3   18.90    1.05
  -6 -16  -3   21.00    1.15
   6  16   4   -0.96    0.52
  -6 -16  -4   -0.23    0.56
   6  16   5    2.82    0.59
  -6 -16  -5    3.74    0.59
   6  16   6    2.49    0.61
  -6 -16  -6    0.65    0.59
   6  16   7   10.26    0.78
  -6 -16  -7   10.04    0.79
   6  16   8    0.34    0.57
  -6 -16  -8   -0.58    0.57
   6  16   9   13.31    0.86
  -6 -16  -9   13.81    0.94
   6  16  10   -0.91    0.68
  -6 -16 -10    0.32    0.58
   7  17 -15    1.73    0.69
  -7 -17  15    1.82    0.68
   7  17 -14    0.71    0.62
  -7 -17  14    1.47    0.56
   7  17 -13    0.93    0.60
  -7 -17  13   -0.64    0.65
   7  17 -12    2.70    0.62
  -7 -17  12    2.11    0.69
   7  17 -11   10.00    0.79
  -7 -17  11    9.58    0.76
   7  17 -10   -0.70    0.57
  -7 -17  10   -0.60    0.53
   7  17  -9   26.34    1.33
  -7 -17   9   27.29    1.35
   7  17  -8    3.09    0.65
  -7 -17   8    3.49    0.62
   7  17  -7    3.98    0.64
  -7 -17   7    5.06    0.61
   7  17  -6   20.24    1.10
  -7 -17   6   21.63    1.14
   7  17  -5    5.16    0.60
  -7 -17   5    4.36    0.65
   7  17  -4    4.21    0.60
  -7 -17   4    3.95    0.62
   7  17  -3    3.44    0.56
  -7 -17   3    4.58    0.59
   7  17  -2    2.06    0.52
  -7 -17   2    2.36    0.59
   7  17  -1   28.93    1.42
  -7 -17   1   30.22    1.47
   7  17   0    5.37    0.66
  -7 -17   0    4.43    0.63
   7  17   1    0.05    0.57
  -7 -17  -1    0.43    0.56
   7  17   2   29.11    1.41
  -7 -17  -2   27.94    1.36
   7  17   3    1.76    0.61
  -7 -17  -3    1.13    0.50
   7  17   4   -0.33    0.56
  -7 -17  -4   -0.29    0.54
   7  17   5    9.09    0.83
  -7 -17  -5    9.73    0.77
   7  17   6   -0.66    0.59
  -7 -17  -6   -0.07    0.54
   7  17   7    1.59    0.58
  -7 -17  -7    1.67    0.56
   7  17   8    0.58    0.60
  -7 -17  -8    1.34    0.55
   8  18 -13    3.62    0.62
  -8 -18  13    3.93    0.63
   8  18 -12    0.65    0.51
  -8 -18  12    0.98    0.62
   8  18 -11    1.42    0.57
  -8 -18  11    1.25    0.59
   8  18 -10   10.30    0.77
  -8 -18  10    9.84    0.78
   8  18  -9    0.32    0.55
  -8 -18   9    0.83    0.55
   8  18  -8    2.13    0.60
  -8 -18   8    1.94    0.52
   8  18  -7    0.88    0.60
  -8 -18   7    0.27    0.55
   8  18  -6    1.03    0.58
  -8 -18   6    1.12    0.57
   8  18  -5    5.65    0.65
  -8 -18   5    4.34    0.64
   8  18  -4    0.71    0.49
  -8 -18   4    0.12    0.56
   8  18  -3   11.22    0.77
  -8 -18   3   11.15    0.79
   8  18  -2   19.47    1.04
  -8 -18   2   19.88    1.08
   8  18  -1    4.30    0.62
  -8 -18   1    4.52    0.61
   8  18   0    2.31    0.54
  -8 -18   0    2.35    0.57
   8  18   1    1.21    0.57
  -8 -18  -1    0.92    0.58
   8  18   2   -0.14    0.56
  -8 -18  -2    0.29    0.60
   8  18   3    1.66    0.57
  -8 -18  -3    0.49    0.62
   8  18   4   12.97    0.87
  -8 -18  -4   12.49    0.87
   8  18   5    0.86    0.63
  -8 -18  -5    0.57    0.51
   9  19 -11    0.53    0.49
  -9 -19  11    0.57    0.54
   9  19 -10    1.24    0.53
  -9 -19  10    0.34    0.54
   9  19  -9    0.41    0.54
  -9 -19   9   -0.44    0.48
   9  19  -8    6.42    0.70
  -9 -19   8    5.45    0.67
   9  19  -7   -0.64    0.50
  -9 -19   7    0.73    0.53
   9  19  -6   20.70    1.10
  -9 -19   6   17.90    1.04
   9  19  -5    3.85    0.59
  -9 -19   5    4.80    0.65
   9  19  -4   10.41    0.76
  -9 -19   4   10.11    0.78
   9  19  -3   -0.96    0.48
  -9 -19   3   -0.67    0.53
   9  19  -2    2.93    0.60
  -9 -19   2    2.91    0.55
   9  19  -1    0.14    0.57
  -9 -19   1    0.75    0.56
   9  19   0    5.82    0.62
  -9 -19   0    5.71    0.67
   9  19   1    0.27    0.50
  -9 -19  -1    0.79    0.58
   9  19   2   12.31    0.86
  -9 -19  -2   13.49    0.90
 -10 -20   7    1.41    0.57
  10  20  -6    0.33    0.53
 -10 -20   6    0.67    0.52
  10  20  -5    5.61    0.64
 -10 -20   5    5.25    0.59
  10  20  -4    4.81    0.60
 -10 -20   4    3.71    0.61
  10  20  -3    1.00    0.58
 -10 -20   3    1.73    0.55
 -22 -10   9    0.76    0.50
  22  10  -9    1.75    0.62
 -22 -10  10    0.83    0.50
  22  10 -10   -0.41    0.64
 -22 -10  11    0.08    0.45
  22  10 -11    1.26    0.65
 -22 -10  12    2.44    0.55
  22  10 -12    2.70    0.66
 -22 -10  13    1.36    0.58
 -21  -9   3    2.56    0.60
 -21  -9   4   10.91    0.72
  21   9  -4   13.40    0.94
 -21  -9   5   -0.06    0.55
  21   9  -5    0.25    0.52
 -21  -9   6    0.49    0.50
  21   9  -6   -0.30    0.60
 -21  -9   7    3.97    0.57
  21   9  -7    3.52    0.67
 -21  -9   8    6.86    0.68
  21   9  -8    8.33    0.74
 -21  -9   9   -0.28    0.52
  21   9  -9    0.95    0.64
 -21  -9  10   19.44    1.02
  21   9 -10   19.38    1.12
 -21  -9  11   -0.31    0.51
  21   9 -11    0.89    0.60
 -21  -9  12   12.79    0.79
  21   9 -12   11.98    0.82
 -21  -9  13    5.90    0.63
  21   9 -13    7.24    0.72
 -21  -9  14    0.30    0.52
  21   9 -14    0.23    0.58
 -21  -9  15    1.60    0.54
  21   9 -15    0.87    0.63
 -21  -9  16   15.03    0.88
  21   9 -16   14.16    0.92
 -21  -9  17    0.47    0.53
  21   9 -17    0.44    0.64
 -20  -8   0    0.51    0.55
 -20  -8   1   14.03    0.84
  20   8  -1   16.79    1.01
 -20  -8   2   -0.48    0.56
  20   8  -2    0.17    0.61
 -20  -8   3    2.23    0.59
  20   8  -3    2.72    0.65
 -20  -8   4    3.30    0.57
  20   8  -4    1.77    0.67
 -20  -8   5    0.43    0.48
  20   8  -5    1.10    0.65
 -20  -8   6    6.44    0.61
  20   8  -6    5.16    0.69
 -20  -8   7   13.74    0.86
  20   8  -7   10.37    0.81
 -20  -8   8    1.98    0.59
  20   8  -8    0.43    0.63
 -20  -8   9   12.97    0.81
  20   8  -9   15.07    0.99
 -20  -8  10   -0.39    0.50
  20   8 -10    0.01    0.74
 -20  -8  11   23.98    1.20
  20   8 -11   20.77    1.15
 -20  -8  12    4.65    0.61
  20   8 -12    3.78    0.66
 -20  -8  13    2.29    0.52
  20   8 -13    2.33    0.59
 -20  -8  14    3.52    0.57
  20   8 -14    2.21    0.59
 -20  -8  15    9.41    0.71
  20   8 -15    9.33    0.76
 -20  -8  16    1.20    0.52
  20   8 -16   -0.13    0.59
 -20  -8  17   12.52    0.83
  20   8 -17   14.34    0.94
 -20  -8  18    0.15    0.56
  20   8 -18    1.17    0.61
 -20  -8  19   -0.26    0.59
  20   8 -19    0.58    0.57
 -19  -7  -2    0.44    0.55
  19   7   2    0.79    0.63
 -19  -7  -1   15.67    0.89
  19   7   1   16.83    1.03
 -19  -7   0    3.54    0.58
  19   7   0    4.00    0.66
 -19  -7   1    2.76    0.53
  19   7  -1    3.00    0.66
 -19  -7   2    3.89    0.64
  19   7  -2    3.61    0.68
 -19  -7   3    0.72    0.58
  19   7  -3    1.43    0.63
 -19  -7   4   10.58    0.78
  19   7  -4    7.54    0.79
 -19  -7   5   20.29    1.06
  19   7  -5   21.49    1.18
 -19  -7   6    1.94    0.56
  19   7  -6   -0.17    0.64
 -19  -7   7   11.52    0.82
  19   7  -7   12.39    0.88
 -19  -7   8    1.92    0.54
  19   7  -8    2.16    0.65
 -19  -7   9    0.20    0.50
  19   7  -9    0.12    0.62
 -19  -7  10    9.78    0.74
  19   7 -10    9.77    0.77
 -19  -7  11   25.48    1.30
  19   7 -11   25.83    1.34
 -19  -7  12   -0.14    0.50
  19   7 -12   -0.27    0.51
 -19  -7  13   15.88    0.90
  19   7 -13   15.46    0.93
 -19  -7  14    0.06    0.51
  19   7 -14    0.46    0.56
 -19  -7  15    3.21    0.54
  19   7 -15    2.52    0.64
 -19  -7  16    1.05    0.52
  19   7 -16    0.93    0.58
 -19  -7  17    1.42    0.51
  19   7 -17    0.97    0.61
 -19  -7  18    0.38    0.52
  19   7 -18    1.06    0.56
 -19  -7  19    9.87    0.80
  19   7 -19    9.30    0.81
 -19  -7  20   -0.62    0.56
  19   7 -20   -0.76    0.64
 -18  -6  -4    1.78    0.55
  18   6   4    1.20    0.58
 -18  -6  -3    0.78    0.50
  18   6   3    1.13    0.70
 -18  -6  -2    7.12    0.66
  18   6   2    9.26    0.76
 -18  -6  -1    1.09    0.49
  18   6   1    0.78    0.59
 -18  -6   0   -0.76    0.61
  18   6   0   -0.41    0.62
 -18  -6   1   14.25    0.86
  18   6  -1   14.51    0.95
 -18  -6   2    1.14    0.61
  18   6  -2    1.45    0.57
 -18  -6   3   36.64    1.72
  18   6  -3   34.72    1.66
 -18  -6   4    6.00    0.66
  18   6  -4    4.96    0.68
 -18  -6   5    0.06    0.57
  18   6  -5   -0.12    0.64
 -18  -6   6   27.36    1.38
  18   6  -6   25.09    1.32
 -18  -6   7   16.72    1.00
  18   6  -7   15.20    0.93
 -18  -6   8    2.27    0.54
  18   6  -8    1.61    0.62
 -18  -6   9   60.01    2.58
  18   6  -9   65.40    2.83
 -18  -6  10   13.11    0.81
  18   6 -10   15.07    0.91
 -18  -6  11    3.03    0.54
  18   6 -11    3.81    0.63
 -18  -6  12    1.76    0.50
  18   6 -12    1.29    0.56
 -18  -6  13    6.86    0.59
  18   6 -13    5.82    0.64
 -18  -6  14   15.78    0.91
  18   6 -14   13.40    0.88
 -18  -6  15   18.89    1.03
  18   6 -15   21.90    1.17
 -18  -6  16    0.25    0.47
  18   6 -16    0.99    0.58
 -18  -6  17    9.43    0.72
  18   6 -17    8.46    0.75
 -18  -6  18    1.26    0.52
  18   6 -18    1.08    0.59
 -18  -6  19    3.81    0.62
  18   6 -19    3.88    0.70
 -18  -6  20    2.97    0.61
  18   6 -20    2.76    0.70
 -18  -6  21    1.88    0.59
  18   6 -21    1.88    0.64
  17   5   6    4.21    0.65
  17   5   5    0.45    0.64
 -17  -5  -4   12.54    0.83
  17   5   4   13.51    0.91
 -17  -5  -3    8.07    0.71
  17   5   3    7.97    0.75
 -17  -5  -2    0.00    0.51
  17   5   2    0.34    0.66
 -17  -5  -1    5.16    0.59
  17   5   1    3.37    0.61
 -17  -5   0   17.60    0.97
  17   5   0   16.53    1.06
 -17  -5   1    7.12    0.68
  17   5  -1    7.12    0.78
 -17  -5   2   26.20    1.33
  17   5  -2   24.44    1.30
 -17  -5   3    2.51    0.57
  17   5  -3    2.82    0.62
 -17  -5   4    0.62    0.51
  17   5  -4   -0.98    0.63
 -17  -5   5   21.01    1.14
  17   5  -5   22.51    1.24
 -17  -5   6   32.65    1.59
  17   5  -6   35.26    1.68
 -17  -5   7    2.82    0.59
  17   5  -7    3.74    0.68
 -17  -5   8   67.89    2.92
  17   5  -8   58.46    2.57
 -17  -5   9    0.62    0.50
  17   5  -9    0.52    0.59
 -17  -5  10   12.63    0.79
  17   5 -10   11.60    0.82
 -17  -5  11   25.20    1.26
  17   5 -11   24.71    1.29
 -17  -5  12    5.26    0.58
  17   5 -12    6.65    0.68
 -17  -5  13    1.66    0.50
  17   5 -13    0.64    0.46
 -17  -5  14   62.01    2.65
  17   5 -14   63.14    2.71
 -17  -5  15    1.83    0.48
  17   5 -15    1.59    0.53
 -17  -5  16    8.81    0.71
  17   5 -16    8.51    0.67
 -17  -5  17    0.43    0.49
  17   5 -17    0.21    0.50
 -17  -5  18    9.19    0.72
  17   5 -18    6.10    0.71
 -17  -5  19    0.46    0.51
  17   5 -19   -0.15    0.60
 -17  -5  20    1.02    0.59
  17   5 -20    0.58    0.62
 -17  -5  21   -0.31    0.56
  17   5 -21    0.68    0.66
 -17  -5  22    5.59    0.74
  17   5 -22    5.21    0.70
  16   4   7    0.04    0.64
  16   4   6    0.65    0.60
  16   4   5    2.34    0.68
 -16  -4  -4    8.26    0.71
  16   4   4   10.38    0.85
 -16  -4  -3    1.07    0.56
  16   4   3   -0.03    0.62
 -16  -4  -2   47.27    2.08
  16   4   2   53.91    2.38
 -16  -4  -1    0.69    0.49
  16   4   1    0.48    0.61
 -16  -4   0   18.69    1.08
  16   4   0   18.97    1.10
 -16  -4   1   15.21    0.95
  16   4  -1   14.13    0.95
 -16  -4   2    8.83    0.73
  16   4  -2    9.14    0.82
 -16  -4   3    0.40    0.54
  16   4  -3    1.59    0.64
 -16  -4   4   55.38    2.42
  16   4  -4   62.85    2.74
 -16  -4   5    2.89    0.63
  16   4  -5    2.61    0.66
 -16  -4   6   55.25    2.46
  16   4  -6   57.06    2.52
 -16  -4   7    3.34    0.54
  16   4  -7    2.99    0.67
 -16  -4   8    0.27    0.50
  16   4  -8    0.33    0.57
 -16  -4   9   16.97    0.98
  16   4  -9   15.82    1.00
 -16  -4  10   65.76    2.80
  16   4 -10   80.44    3.49
 -16  -4  11    0.30    0.43
  16   4 -11    1.05    0.53
 -16  -4  12   43.56    1.95
  16   4 -12   45.71    2.05
 -16  -4  13    3.90    0.54
  16   4 -13    4.61    0.60
 -16  -4  14   12.93    0.79
  16   4 -14   10.43    0.74
 -16  -4  15    6.51    0.63
  16   4 -15    7.56    0.67
 -16  -4  16   18.51    1.02
  16   4 -16   17.56    0.99
 -16  -4  17    2.08    0.49
  16   4 -17    2.53    0.57
 -16  -4  18   19.51    1.04
  16   4 -18   19.82    1.09
 -16  -4  19    0.37    0.50
  16   4 -19    0.66    0.59
 -16  -4  20   16.88    0.96
  16   4 -20   16.06    1.02
 -16  -4  21    5.37    0.73
  16   4 -21    4.53    0.71
 -16  -4  22    9.42    0.80
  16   4 -22   10.79    0.82
 -16  -4  23    2.76    0.78
  15   3   8    4.40    0.68
  15   3   7    0.09    0.64
  15   3   6    4.13    0.65
  15   3   5    8.67    0.81
 -15  -3  -4   24.05    1.28
  15   3   4   25.53    1.32
 -15  -3  -3   39.04    1.80
  15   3   3   39.85    1.87
 -15  -3  -2    0.40    0.57
  15   3   2    0.80    0.56
 -15  -3  -1   59.15    2.61
  15   3   1   63.37    2.77
 -15  -3   0   26.09    1.39
  15   3   0   29.40    1.49
 -15  -3   1   -0.03    0.48
  15   3  -1    0.10    0.56
 -15  -3   2   23.95    1.25
  15   3  -2   23.18    1.28
 -15  -3   3   55.03    2.38
  15   3  -3   55.46    2.47
 -15  -3   4    0.06    0.51
  15   3  -4    0.48    0.58
 -15  -3   5   77.27    3.31
  15   3  -5   63.72    2.77
 -15  -3   6   27.85    1.41
  15   3  -6   27.65    1.40
 -15  -3   7  118.70    4.94
  15   3  -7  117.00    4.86
 -15  -3   8    9.39    0.71
  15   3  -8    6.65    0.68
 -15  -3   9   52.54    2.29
  15   3  -9   53.46    2.36
 -15  -3  10   26.98    1.26
  15   3 -10   26.46    1.33
 -15  -3  11  120.40    4.94
  15   3 -11  113.50    4.71
 -15  -3  12   23.57    1.17
  15   3 -12   27.51    1.33
 -15  -3  13   23.57    1.19
  15   3 -13   20.96    1.12
 -15  -3  14   19.09    1.02
  15   3 -14   16.29    0.93
 -15  -3  15    2.74    0.48
  15   3 -15    4.15    0.57
 -15  -3  16   38.17    1.74
  15   3 -16   40.61    1.84
 -15  -3  17   15.22    0.91
  15   3 -17   16.43    0.96
 -15  -3  18    2.26    0.55
  15   3 -18    2.00    0.61
 -15  -3  19   25.58    1.28
  15   3 -19   25.54    1.28
 -15  -3  20   10.26    0.82
  15   3 -20    9.39    0.74
 -15  -3  21    2.18    0.59
 -15  -3  22    2.48    0.62
 -15  -3  23    0.57    0.66
  14   2  10    0.31    0.61
  14   2   9    2.00    0.63
  14   2   8    2.95    0.64
  14   2   7   46.53    2.10
  14   2   6    0.07    0.66
  14   2   5   76.62    3.28
 -14  -2  -4    0.69    0.50
  14   2   4    1.39    0.62
 -14  -2  -3    0.19    0.58
  14   2   3    0.78    0.62
 -14  -2  -2    0.51    0.63
  14   2   2    0.16    0.65
 -14  -2  -1   67.26    2.93
  14   2   1   69.04    3.00
 -14  -2   0    7.06    0.77
  14   2   0    5.73    0.73
 -14  -2   1   76.34    3.24
  14   2  -1   76.63    3.29
 -14  -2   2   24.11    1.24
  14   2  -2   24.55    1.32
 -14  -2   3   17.32    0.97
  14   2  -3   17.78    1.06
 -14  -2   4    0.84    0.50
  14   2  -4    0.46    0.51
 -14  -2   5    3.47    0.58
  14   2  -5    2.72    0.54
 -14  -2   6   27.56    1.37
  14   2  -6   25.05    1.26
 -14  -2   7   33.96    1.61
  14   2  -7   26.75    1.32
 -14  -2   8    0.48    0.44
  14   2  -8    0.28    0.49
 -14  -2   9   92.16    3.84
  14   2  -9  123.20    5.08
 -14  -2  10   14.70    0.81
  14   2 -10   14.05    0.84
 -14  -2  11   11.19    0.68
  14   2 -11   13.81    0.83
 -14  -2  12   31.88    1.48
  14   2 -12   32.84    1.53
 -14  -2  13  104.70    4.36
  14   2 -13  112.50    4.64
 -14  -2  14   -0.06    0.46
  14   2 -14    0.20    0.49
 -14  -2  15   46.59    2.04
  14   2 -15   43.87    1.96
 -14  -2  16    0.63    0.47
  14   2 -16    0.86    0.52
 -14  -2  17    7.16    0.70
  14   2 -17    7.30    0.68
 -14  -2  18    3.88    0.59
  14   2 -18    5.54    0.65
 -14  -2  19   22.72    1.18
  14   2 -19   21.66    1.17
 -14  -2  20    3.33    0.66
 -14  -2  21   42.86    1.96
 -14  -2  22    1.69    0.66
 -14  -2  23    8.25    0.84
  13   1  11    5.90    0.73
  13   1  10    0.99    0.57
  13   1   9    0.59    0.60
  13   1   8   43.66    1.99
  13   1   7    1.85    0.61
  13   1   6   92.34    3.90
  13   1   5    8.76    0.80
  13   1   4    0.78    0.63
 -13  -1  -3  100.10    4.21
  13   1   3  102.50    4.32
 -13  -1  -2   11.02    0.95
  13   1   2   10.35    0.84
 -13  -1  -1    0.54    0.54
  13   1   1    1.14    0.62
 -13  -1   0   99.29    4.16
  13   1   0  101.40    4.26
 -13  -1   1   -0.53    0.54
  13   1  -1    0.71    0.52
 -13  -1   2   16.21    0.92
  13   1  -2   17.24    0.99
 -13  -1   3  112.50    4.65
  13   1  -3  115.50    4.78
 -13  -1   4    0.60    0.45
  13   1  -4    0.12    0.54
 -13  -1   5   35.45    1.63
  13   1  -5   34.46    1.60
 -13  -1   6  114.00    4.72
  13   1  -6  117.60    4.85
 -13  -1   7    0.37    0.46
  13   1  -7    1.01    0.46
 -13  -1   8   40.77    1.84
  13   1  -8   43.62    1.92
 -13  -1   9    5.10    0.52
  13   1  -9    4.15    0.57
 -13  -1  10   14.44    0.79
  13   1 -10   15.44    0.85
 -13  -1  11   13.95    0.78
  13   1 -11   13.26    0.79
 -13  -1  12    0.63    0.41
  13   1 -12    0.38    0.44
 -13  -1  13   50.00    2.16
  13   1 -13   45.82    2.01
 -13  -1  14  102.60    4.26
  13   1 -14  124.00    5.10
 -13  -1  15    8.73    0.66
  13   1 -15    7.94    0.69
 -13  -1  16   33.70    1.53
  13   1 -16   30.76    1.48
 -13  -1  17   16.12    0.93
  13   1 -17   17.61    0.99
 -13  -1  18    0.48    0.54
  13   1 -18    0.17    0.45
 -13  -1  19   12.12    0.86
 -13  -1  20   24.02    1.25
 -13  -1  21    1.02    0.64
 -13  -1  22    8.46    0.81
 -13  -1  23    1.18    0.63
 -13  -1  23   -0.99    0.69
  12   0  12    2.93    0.67
  12   0  12    4.23    0.56
  12   0  11   -0.70    0.58
  12   0  11   -0.09    0.52
  12   0  10   55.37    2.44
  12   0   9   -0.18    0.60
  12   0   8   -0.44    0.57
  12   0   7    0.77    0.59
  12   0   6   36.46    1.74
  12   0   5    0.00    0.60
  12   0   4  169.60    6.96
  12   0   3   -0.10    0.58
 -12   0  -2   41.79    1.95
  12   0   2   42.42    1.97
 -12   0  -1    0.56    0.60
  12   0   1   -0.03    0.51
 -12   0   0   -0.45    0.50
  12   0   0    0.27    0.53
 -12   0   1    0.40    0.51
  12   0  -1   -0.80    0.50
 -12   0   2  264.10   10.66
  12   0  -2  272.90   11.04
 -12   0   3    0.44    0.43
  12   0  -3   -1.03    0.46
 -12   0   4   67.10    2.85
  12   0  -4   73.09    3.09
 -12   0   5    0.30    0.41
  12   0  -5    0.44    0.45
 -12   0   6    8.17    0.63
  12   0  -6    6.03    0.56
 -12   0   7   -0.02    0.39
  12   0  -7    0.16    0.43
 -12   0   8    0.89    0.41
  12   0  -8    0.42    0.40
 -12   0   9    0.25    0.38
  12   0  -9   -0.05    0.41
 -12   0  10   13.48    0.72
  12   0 -10   14.42    0.79
 -12   0  11    0.12    0.34
  12   0 -11    0.43    0.43
 -12   0  12  145.90    5.93
  12   0 -12  141.50    5.77
 -12   0  13    0.33    0.40
  12   0 -13   -0.21    0.44
 -12   0  14   10.49    0.70
  12   0 -14   10.22    0.70
 -12   0  15   -0.07    0.45
  12   0 -15   -0.19    0.50
 -12   0  16   84.26    3.51
  12   0 -16   82.51    3.47
 -12   0  17    0.61    0.51
 -12   0  18   49.12    2.14
 -12   0  19   -0.09    0.54
 -12   0  20    6.17    0.65
 -12   0  21   -0.23    0.61
 -12   0  22   -0.65    0.75
 -12   0  22    1.08    0.69
 -12   0  23   -1.58    0.69
 -12   0  23   -0.22    0.81
  11  -1  13    0.27    0.59
  11  -1  13    1.05    0.55
  11  -1  12    0.12    0.60
  11  -1  12    0.13    0.55
  11  -1  11   33.41    1.62
  11  -1  11   32.65    1.55
  11  -1  10    4.66    0.66
  11  -1  10    5.36    0.62
  11  -1   9    1.49    0.66
  11  -1   8   61.61    2.71
  11  -1   7    1.53    0.66
  11  -1   6    1.50    0.67
  11  -1   5   26.25    1.37
  11  -1   4   26.15    1.39
  11  -1   3   78.85    3.38
  11  -1   2   34.45    1.63
 -11   1  -1    1.27    0.59
  11  -1   1    0.62    0.53
 -11   1   0  213.20    8.65
  11  -1   0  228.90    9.31
 -11   1   1  113.20    4.68
  11  -1  -1  107.80    4.47
 -11   1   2   17.10    0.93
  11  -1  -2   16.23    0.92
 -11   1   3  126.20    5.16
  11  -1  -3  131.50    5.40
 -11   1   4    0.94    0.40
  11  -1  -4    1.18    0.44
 -11   1   5    2.43    0.44
  11  -1  -5    1.64    0.44
 -11   1   6   14.76    0.80
  11  -1  -6   13.80    0.77
 -11   1   7    2.40    0.42
  11  -1  -7    2.60    0.41
 -11   1   8    0.65    0.35
  11  -1  -8    0.59    0.43
 -11   1   9   30.45    1.36
  11  -1  -9   28.67    1.29
 -11   1  10   89.64    3.69
  11  -1 -10   85.41    3.51
 -11   1  11  105.90    4.33
  11  -1 -11  104.10    4.27
 -11   1  12    2.04    0.36
  11  -1 -12    1.15    0.39
 -11   1  13   60.65    2.55
  11  -1 -13   62.13    2.62
 -11   1  14    0.81    0.52
  11  -1 -14    1.01    0.47
 -11   1  15   11.74    0.77
 -11   1  16    0.30    0.50
 -11   1  17   25.28    1.33
 -11   1  18    1.46    0.52
 -11   1  19   11.79    0.85
 -11   1  20   17.01    1.01
 -11   1  20   19.74    1.11
 -11   1  21    0.57    0.65
 -11   1  21    0.67    0.58
 -11   1  22    1.97    0.70
 -11   1  22    3.73    0.71
 -11   1  23    2.47    0.66
 -11   1  23    2.89    0.72
  10  -2  14    0.60    0.54
  10  -2  13    6.28    0.65
  10  -2  13    8.16    0.78
  10  -2  12    1.30    0.63
  10  -2  12    2.69    0.65
  10  -2  11   29.78    1.46
  10  -2  11   31.19    1.54
  10  -2  10    8.04    0.78
  10  -2  10    8.63    0.80
  10  -2   9   33.59    1.63
  10  -2   9   32.25    1.58
  10  -2   8    3.79    0.69
  10  -2   7   21.27    1.21
  10  -2   6   20.76    1.19
  10  -2   5    5.45    0.70
  10  -2   4   21.18    1.16
  10  -2   3   70.05    3.02
  10  -2   2    5.43    0.64
  10  -2   1  299.60   12.11
 -10   2   0   42.75    1.92
  10  -2   0   40.57    1.82
 -10   2   1  172.60    7.03
  10  -2  -1  165.10    6.74
 -10   2   2    8.85    0.60
  10  -2  -2    9.24    0.65
 -10   2   3   42.75    1.87
  10  -2  -3   44.05    1.92
 -10   2   4   37.09    1.63
  10  -2  -4   35.72    1.58
 -10   2   5  100.50    4.10
  10  -2  -5  116.00    4.74
 -10   2   6   25.48    1.13
  10  -2  -6   27.99    1.25
 -10   2   7   54.24    2.25
  10  -2  -7   41.57    1.77
 -10   2   8    5.49    0.41
  10  -2  -8    5.14    0.39
 -10   2   9  177.90    7.18
  10  -2  -9  183.50    7.40
 -10   2  10   16.57    0.79
  10  -2 -10   13.80    0.70
 -10   2  11    6.04    0.42
  10  -2 -11    5.10    0.43
 -10   2  12    0.19    0.29
  10  -2 -12    0.29    0.35
 -10   2  13   80.81    3.33
 -10   2  14   20.62    1.04
 -10   2  15   21.89    1.09
 -10   2  16    8.46    0.67
 -10   2  17    7.14    0.70
 -10   2  17    6.53    0.64
 -10   2  18    9.65    0.67
 -10   2  18    8.90    0.73
 -10   2  19   21.04    1.10
 -10   2  19   22.49    1.17
 -10   2  20    4.28    0.66
 -10   2  20    4.55    0.66
 -10   2  21    9.07    0.82
 -10   2  21   10.89    0.85
 -10   2  22   -0.85    0.66
 -10   2  22   -0.30    0.66
 -10   2  23    2.17    0.74
 -10   2  23    1.19    0.67
   9  -3  14    1.83    0.66
   9  -3  14    0.59    0.54
   9  -3  13   10.43    0.81
   9  -3  13   11.76    0.86
   9  -3  12    1.49    0.62
   9  -3  12    2.73    0.57
   9  -3  11   10.03    0.79
   9  -3  11   10.33    0.83
   9  -3  10    1.36    0.62
   9  -3  10    1.03    0.64
   9  -3   9    8.04    0.79
   9  -3   9    8.70    0.80
   9  -3   8   -0.41    0.54
   9  -3   8   -0.84    0.62
   9  -3   7   25.27    1.36
   9  -3   7   24.82    1.31
   9  -3   6   37.57    1.78
   9  -3   5   10.33    0.77
   9  -3   4   30.08    1.48
   9  -3   3   39.42    1.81
   9  -3   2    9.36    0.71
   9  -3   1  176.60    7.21
   9  -3   0   33.81    1.56
   9  -3  -1    8.17    0.63
   9  -3  -2   18.31    0.96
  -9   3   3  194.30    7.84
   9  -3  -3  199.00    8.06
  -9   3   4    3.42    0.38
   9  -3  -4    2.50    0.38
  -9   3   5   31.89    1.37
   9  -3  -5   37.32    1.61
  -9   3   6    1.46    0.26
   9  -3  -6    1.59    0.28
  -9   3   7   18.75    0.81
   9  -3  -7   22.03    0.96
  -9   3   8    0.69    0.19
   9  -3  -8    0.66    0.23
  -9   3   9  167.40    6.75
   9  -3  -9  177.60    7.16
  -9   3  10    8.67    0.48
  -9   3  11  128.40    5.20
  -9   3  12    8.24    0.49
  -9   3  13    4.73    0.43
  -9   3  14    4.99    0.51
  -9   3  14    4.36    0.48
  -9   3  15   19.44    1.00
  -9   3  15   16.82    0.91
  -9   3  16    0.06    0.50
  -9   3  16   -0.01    0.50
  -9   3  18    6.91    0.66
  -9   3  18    6.99    0.67
  -9   3  19   27.48    1.35
  -9   3  19   30.84    1.47
  -9   3  20    2.31    0.62
  -9   3  20    2.83    0.67
  -9   3  21    0.04    0.60
  -9   3  21    0.58    0.62
  -9   3  22    0.34    0.65
  -9   3  22    0.00    0.67
  -9   3  23    5.63    0.83
  -9   3  23    5.68    0.76
   8  -4  15    6.04    0.67
   8  -4  15    5.39    0.62
   8  -4  14    5.76    0.64
   8  -4  14    4.84    0.69
   8  -4  13    4.73    0.71
   8  -4  13    5.27    0.66
   8  -4  12   18.53    1.10
   8  -4  12   19.29    1.11
   8  -4  11    5.61    0.71
   8  -4  11    3.62    0.65
   8  -4  10   42.70    1.97
   8  -4  10   38.24    1.81
   8  -4   9    4.85    0.70
   8  -4   9    4.54    0.66
   8  -4   8    0.48    0.67
   8  -4   8    0.65    0.69
   8  -4   7   14.23    0.99
   8  -4   7   15.12    0.97
   8  -4   6    7.32    0.72
   8  -4   6    7.39    0.76
   8  -4   5   23.03    1.23
   8  -4   5   19.16    1.07
   8  -4   4   84.89    3.59
   8  -4   4   86.52    3.66
   8  -4   3   46.13    2.08
   8  -4   2   16.54    0.96
   8  -4   1  102.90    4.28
   8  -4   0   61.40    2.62
   8  -4  -1    8.22    0.62
   8  -4  -2    3.70    0.45
   8  -4  -3    2.96    0.39
   8  -4  -4  155.70    6.28
   8  -4  -5   67.53    2.76
   8  -4  -6   61.39    2.53
  -8   4  11   21.06    0.94
  -8   4  11   20.91    0.92
  -8   4  12   12.27    0.62
  -8   4  12   11.71    0.60
  -8   4  13   74.03    3.06
  -8   4  13   67.51    2.80
  -8   4  14   17.33    0.90
  -8   4  14   17.26    0.87
  -8   4  15    8.43    0.61
  -8   4  15    7.24    0.60
  -8   4  16   87.31    3.65
  -8   4  16   91.19    3.78
  -8   4  17    0.60    0.48
  -8   4  17    0.87    0.52
  -8   4  18    7.52    0.66
  -8   4  18    7.90    0.65
  -8   4  19    2.79    0.63
  -8   4  19    1.85    0.55
  -8   4  20    2.51    0.59
  -8   4  20    1.12    0.58
  -8   4  21    0.57    0.58
  -8   4  21    0.68    0.56
  -8   4  22    3.27    0.68
  -8   4  22    3.94    0.71
  -8   4  23    0.61    0.71
  -8   4  23    0.29    0.77
   7  -5  15   -0.34    0.60
   7  -5  15    0.34    0.54
   7  -5  14    5.87    0.73
   7  -5  14    5.87    0.63
   7  -5  13    2.14    0.66
   7  -5  13    0.13    0.61
   7  -5  12    4.93    0.75
   7  -5  12    7.33    0.73
   7  -5  11    0.26    0.60
   7  -5  11   -0.72    0.59
   7  -5  10   73.00    3.15
   7  -5  10   70.42    3.05
   7  -5   9    2.63    0.70
   7  -5   9    2.29    0.64
   7  -5   8   76.76    3.31
   7  -5   8   81.80    3.52
   7  -5   7    9.85    0.88
   7  -5   7    9.87    0.85
   7  -5   6    1.08    0.60
   7  -5   6    0.83    0.58
   7  -5   5    2.60    0.58
   7  -5   5    3.83    0.62
   7  -5   3    8.01    0.71
   7  -5   3    7.33    0.64
   7  -5   2    1.61    0.51
   7  -5   2    0.97    0.48
   7  -5   1    4.65    0.56
   7  -5   1    4.32    0.54
   7  -5   0  431.20   17.32
   7  -5   0  385.90   15.51
   7  -5  -1   24.54    1.16
   7  -5  -1   26.92    1.24
   7  -5  -2   31.28    1.38
   7  -5  -2   31.02    1.37
   7  -5  -3   15.77    0.76
   7  -5  -3   16.54    0.80
   7  -5  -4   55.56    2.28
   7  -5  -4   54.04    2.22
  -7   5   9    2.22    0.14
  -7   5  10   14.05    0.65
  -7   5  10   14.88    0.67
  -7   5  11    0.93    0.26
  -7   5  11    1.02    0.26
  -7   5  12   97.50    3.97
  -7   5  12   94.77    3.86
  -7   5  13    1.45    0.39
  -7   5  13    1.72    0.37
  -7   5  14  181.60    7.38
  -7   5  14  168.60    6.84
  -7   5  15    6.59    0.54
  -7   5  15    7.11    0.57
  -7   5  16    7.81    0.67
  -7   5  16    8.93    0.65
  -7   5  17   -0.18    0.50
  -7   5  17    0.53    0.51
  -7   5  18   10.86    0.81
  -7   5  18   10.76    0.78
  -7   5  19    1.64    0.62
  -7   5  19    0.58    0.60
  -7   5  20   10.15    0.85
  -7   5  20   10.85    0.81
  -7   5  21    1.04    0.69
  -7   5  21    1.10    0.69
  -7   5  22    3.56    0.75
  -7   5  22    4.18    0.72
   6  -6  16   -0.78    0.55
   6  -6  16   -0.44    0.55
   6  -6  15    2.32    0.68
   6  -6  15    2.17    0.66
   6  -6  13   10.06    0.81
   6  -6  13   10.14    0.83
   6  -6  12   61.09    2.66
   6  -6  12   61.61    2.69
   6  -6  11   29.88    1.49
   6  -6  11   32.54    1.60
   6  -6  10   18.27    1.13
   6  -6  10   19.59    1.14
   6  -6   9   32.31    1.62
   6  -6   9   32.74    1.64
   6  -6   8    1.26    0.63
   6  -6   8    1.68    0.74
   6  -6   7    1.03    0.57
   6  -6   7    1.77    0.64
   6  -6   6   60.38    2.64
   6  -6   6   60.07    2.62
   6  -6   5   11.53    0.87
   6  -6   5   12.14    0.84
   6  -6   4    1.74    0.53
   6  -6   3   20.59    1.09
   6  -6   2  140.70    5.77
   6  -6   1   15.56    0.88
   6  -6   0    0.44    0.41
   6  -6  -1   21.25    1.01
   6  -6  -2   70.15    2.90
   6  -6  -3   16.78    0.79
   6  -6  -4   57.47    2.35
  -6   6   9   -0.27    0.20
  -6   6   9    0.14    0.18
  -6   6  10   98.33    3.99
  -6   6  10   95.06    3.86
  -6   6  11   49.23    2.04
  -6   6  11   50.70    2.11
  -6   6  12   16.97    0.83
  -6   6  12   17.73    0.86
  -6   6  13  281.60   11.35
  -6   6  13  266.90   10.75
  -6   6  14   64.02    2.69
  -6   6  14   66.59    2.80
  -6   6  15    1.30    0.52
  -6   6  15    1.65    0.46
  -6   6  18   10.98    0.77
  -6   6  18   11.77    0.82
  -6   6  19   11.50    0.78
  -6   6  19   11.54    0.83
  -6   6  20    0.55    0.59
  -6   6  20    1.02    0.57
  -6   6  21    3.30    0.67
  -6   6  21    3.93    0.71
  -6   6  22    1.44    0.72
  -6   6  22    0.21    0.77
   5  -7  16    0.03    0.65
   5  -7  16    0.48    0.51
   5  -7  15   13.29    0.89
   5  -7  15   14.58    0.93
   5  -7  14    1.41    0.66
   5  -7  14   -0.21    0.60
   5  -7  13   73.67    3.15
   5  -7  13   81.87    3.48
   5  -7  12   15.58    1.03
   5  -7  12   16.01    1.01
   5  -7  11   92.46    3.91
   5  -7  11  102.00    4.28
   5  -7  10    0.55    0.62
   5  -7  10    0.28    0.70
   5  -7   9   15.69    1.03
   5  -7   8    9.91    0.89
   5  -7   7  168.80    6.92
   5  -7   6    2.55    0.59
   5  -7   5  155.70    6.39
   5  -7   4   49.16    2.17
   5  -7   3   32.50    1.52
   5  -7   2   40.63    1.83
   5  -7   1   11.47    0.72
   5  -7   0   20.50    1.02
  -5   7   1  155.10    6.29
   5  -7  -1  167.00    6.76
  -5   7   2    9.69    0.59
   5  -7  -2    9.97    0.59
  -5   7   3   77.74    3.18
   5  -7  -3   82.22    3.37
  -5   7   4   -0.10    0.24
   5  -7  -4    0.70    0.24
  -5   7   5    1.80    0.25
   5  -7  -5    1.63    0.23
  -5   7   6   36.86    1.53
   5  -7  -6   36.12    1.50
  -5   7   7  167.80    6.78
   5  -7  -7  157.20    6.34
  -5   7   8   -0.33    0.23
  -5   7   9   89.30    3.64
  -5   7  10    3.30    0.33
  -5   7  11   27.59    1.22
  -5   7  11   29.98    1.33
  -5   7  12    7.91    0.56
  -5   7  12    9.38    0.58
  -5   7  13  158.50    6.46
  -5   7  13  162.20    6.59
  -5   7  14   31.34    1.44
  -5   7  14   31.82    1.45
  -5   7  15   52.57    2.28
  -5   7  15   52.99    2.27
  -5   7  16    1.08    0.53
  -5   7  16   -0.51    0.46
  -5   7  18    0.20    0.57
  -5   7  18    0.11    0.54
  -5   7  19    0.47    0.57
  -5   7  19    0.72    0.54
  -5   7  20    0.01    0.61
  -5   7  20   -0.13    0.58
  -5   7  21   13.45    0.93
  -5   7  21   11.78    0.91
   4  -8  17    5.77    0.75
   4  -8  17    6.40    0.73
   4  -8  16    4.00    0.73
   4  -8  16    4.62    0.70
   4  -8  15    9.28    0.82
   4  -8  15    8.20    0.78
   4  -8  14    3.83    0.73
   4  -8  14    3.27    0.69
   4  -8  13    8.69    0.85
   4  -8  13   10.80    0.89
   4  -8  12   89.00    3.76
   4  -8  12   92.71    3.92
   4  -8  11   49.06    2.23
   4  -8  10   45.62    2.10
   4  -8   9   62.72    2.77
   4  -8   8   59.47    2.63
   4  -8   7   12.69    0.85
   4  -8   6  150.00    6.17
   4  -8   5    2.86    0.57
   4  -8   4   23.51    1.20
  -4   8  -3  141.50    5.80
   4  -8   3  137.40    5.63
  -4   8  -2   18.29    0.96
   4  -8   2   18.14    0.97
  -4   8  -1   82.53    3.45
   4  -8   1   80.85    3.38
  -4   8   0  126.40    5.17
   4  -8   0  127.10    5.20
  -4   8   1    3.44    0.46
   4  -8  -1    3.63    0.43
  -4   8   2  137.80    5.60
   4  -8  -2  139.60    5.68
  -4   8   3   47.60    2.00
   4  -8  -3   48.81    2.05
  -4   8   4   -0.41    0.28
   4  -8  -4    0.34    0.27
  -4   8   5    4.12    0.35
   4  -8  -5    3.92    0.36
  -4   8   6   56.83    2.36
   4  -8  -6   51.72    2.15
  -4   8   7   36.00    1.54
   4  -8  -7   33.93    1.45
  -4   8   8   33.29    1.44
   4  -8  -8   32.01    1.39
  -4   8   9    8.62    0.54
   4  -8  -9    9.12    0.57
  -4   8  10   40.40    1.76
  -4   8  11  180.70    7.32
  -4   8  12    4.11    0.48
  -4   8  13    1.30    0.45
  -4   8  13    2.12    0.44
  -4   8  14   18.91    1.02
  -4   8  14   19.29    1.00
  -4   8  15    0.71    0.51
  -4   8  15    1.09    0.49
  -4   8  16    8.42    0.74
  -4   8  16   10.37    0.75
  -4   8  17   27.15    1.33
  -4   8  17   25.53    1.29
  -4   8  18    1.06    0.57
  -4   8  18    0.99    0.60
  -4   8  19   25.02    1.26
  -4   8  19   25.15    1.31
  -4   8  20    0.18    0.63
  -4   8  20   -0.07    0.67
   3  -9  17   -0.34    0.62
   3  -9  17    0.30    0.59
   3  -9  16    9.35    0.76
   3  -9  16   10.32    0.88
   3  -9  15    7.78    0.82
   3  -9  15    6.25    0.65
   3  -9  14    1.18    0.69
   3  -9  13    1.04    0.62
   3  -9  12    5.85    0.75
   3  -9  11   19.06    1.16
   3  -9  10   55.08    2.48
   3  -9   9   -0.27    0.60
   3  -9   8  115.00    4.81
   3  -9   7    1.37    0.57
   3  -9   6    0.08    0.55
  -3   9  -5   17.17    0.97
   3  -9   5   17.74    1.01
  -3   9  -4   49.51    2.20
   3  -9   4   53.35    2.34
  -3   9  -3    1.41    0.54
   3  -9   3    3.45    0.57
  -3   9  -2  208.30    8.45
   3  -9   2  217.60    8.83
  -3   9  -1    2.78    0.52
   3  -9   1    3.24    0.48
  -3   9   0  157.90    6.42
   3  -9   0  178.60    7.27
  -3   9   1    0.66    0.38
   3  -9  -1    1.13    0.43
  -3   9   2   86.18    3.56
   3  -9  -2   87.01    3.60
  -3   9   3   39.44    1.71
   3  -9  -3   39.02    1.69
  -3   9   4  242.30    9.76
   3  -9  -4  255.80   10.30
  -3   9   5    1.77    0.37
   3  -9  -5    2.21    0.36
  -3   9   6   83.22    3.42
   3  -9  -6   77.16    3.18
  -3   9   7    0.95    0.35
   3  -9  -7    0.15    0.35
  -3   9   8    0.58    0.33
   3  -9  -8    0.55    0.37
  -3   9   9    3.99    0.43
   3  -9  -9    4.58    0.45
  -3   9  10   87.81    3.63
   3  -9 -10   87.55    3.63
  -3   9  11    3.24    0.49
  -3   9  12    2.30    0.49
  -3   9  13    0.57    0.47
  -3   9  14   50.55    2.20
  -3   9  15    0.82    0.47
  -3   9  15    1.00    0.52
  -3   9  16   10.44    0.77
  -3   9  16   11.09    0.78
  -3   9  17    9.10    0.76
  -3   9  17    9.69    0.79
  -3   9  18   17.20    1.03
  -3   9  18   19.48    1.08
  -3   9  19    0.58    0.64
  -3   9  19    0.90    0.63
  -3   9  20    6.96    0.83
  -3   9  20    4.66    0.80
   2 -10  17    3.05    0.64
   2 -10  17    3.21    0.66
   2 -10  16    4.60    0.72
   2 -10  16    2.59    0.68
   2 -10  15   18.78    1.05
   2 -10  14   14.94    0.94
   2 -10  13    5.28    0.78
   2 -10  12   17.54    1.12
   2 -10  11    0.26    0.60
   2 -10  10    1.42    0.64
   2 -10   9   45.82    2.08
  -2  10  -8   91.73    3.88
   2 -10   8   93.89    3.96
  -2  10  -7   18.19    1.07
   2 -10   7   17.65    1.02
  -2  10  -6  228.50    9.29
   2 -10   6  230.70    9.38
  -2  10  -5   13.67    0.89
   2 -10   5   13.72    0.86
  -2  10  -4   20.96    1.12
   2 -10   4   21.40    1.11
  -2  10  -3    8.97    0.73
   2 -10   3    8.64    0.68
  -2  10  -2   22.51    1.14
   2 -10   2   25.10    1.25
  -2  10  -1   20.84    1.07
   2 -10   1   24.42    1.22
  -2  10   0  359.20   14.46
   2 -10   0  370.60   14.91
  -2  10   1   49.43    2.12
   2 -10  -1   53.51    2.31
  -2  10   2  114.70    4.71
   2 -10  -2  117.50    4.82
  -2  10   3   32.51    1.49
   2 -10  -3   31.42    1.42
  -2  10   4    6.08    0.54
   2 -10  -4    5.26    0.47
  -2  10   5   14.81    0.81
   2 -10  -5   16.98    0.87
  -2  10   6   57.60    2.45
   2 -10  -6   55.52    2.35
  -2  10   7    8.81    0.61
   2 -10  -7    8.44    0.60
  -2  10   8   72.77    3.05
   2 -10  -8   68.04    2.86
  -2  10   9   79.75    3.32
   2 -10  -9   79.05    3.31
  -2  10  10    0.07    0.41
   2 -10 -10    0.67    0.46
  -2  10  11   37.47    1.68
   2 -10 -11   35.76    1.62
  -2  10  12    6.88    0.66
  -2  10  13   27.34    1.32
  -2  10  14   31.44    1.49
  -2  10  15    0.51    0.52
  -2  10  16   16.87    0.99
  -2  10  16   15.86    0.94
  -2  10  17    3.53    0.62
  -2  10  17    2.81    0.62
  -2  10  18    1.18    0.63
  -2  10  18    1.32    0.66
  -2  10  19    2.69    0.72
  -2  10  19    1.75    0.72
   1 -11  17    0.04    0.62
   1 -11  16   -0.89    0.62
   1 -11  15   20.69    1.16
   1 -11  14    1.20    0.61
   1 -11  13   57.85    2.56
   1 -11  12    1.68    0.70
   1 -11  11   25.94    1.37
   1 -11  10    7.52    0.82
  -1  11  -9   32.27    1.59
   1 -11   9   28.82    1.48
  -1  11  -8    1.69    0.65
   1 -11   8    1.00    0.64
  -1  11  -7  135.20    5.61
   1 -11   7  136.10    5.63
  -1  11  -6    5.79    0.66
   1 -11   6    4.29    0.59
  -1  11  -5  113.10    4.72
   1 -11   5  110.40    4.60
  -1  11  -4   65.28    2.80
   1 -11   4   70.34    3.01
  -1  11  -3   17.17    1.00
   1 -11   3   17.71    0.97
  -1  11  -2   14.57    0.88
   1 -11   2   16.16    0.95
  -1  11  -1   90.78    3.78
   1 -11   1   96.70    4.04
  -1  11   0   48.15    2.13
   1 -11   0   48.92    2.14
  -1  11   1  202.50    8.23
   1 -11  -1  197.30    8.01
  -1  11   2  130.40    5.34
   1 -11  -2  129.40    5.31
  -1  11   3    9.30    0.63
   1 -11  -3    8.34    0.61
  -1  11   4   11.56    0.72
   1 -11  -4    9.61    0.65
  -1  11   5    5.07    0.55
   1 -11  -5    3.84    0.50
  -1  11   6    5.95    0.55
   1 -11  -6    5.97    0.54
  -1  11   7   87.10    3.63
   1 -11  -7   85.65    3.59
  -1  11   8   22.91    1.13
   1 -11  -8   22.44    1.12
  -1  11   9   -0.43    0.41
   1 -11  -9    0.74    0.48
  -1  11  10    1.49    0.46
   1 -11 -10    1.59    0.47
  -1  11  11    8.36    0.65
   1 -11 -11    9.05    0.73
  -1  11  12    7.41    0.64
  -1  11  13    9.35    0.71
  -1  11  14    2.29    0.56
  -1  11  15   20.86    1.12
  -1  11  16   -1.13    0.59
  -1  11  17    1.11    0.59
  -1  11  17    0.69    0.66
  -1  11  18    1.13    0.70
  -1  11  18    1.96    0.69
   0 -12  17    9.74    0.75
   0 -12  16    6.41    0.75
   0 -12  15    0.08    0.68
   0 -12  14    0.71    0.63
   0 -12  13    1.85    0.62
   0 -12  12    3.01    0.73
   0  12 -11   31.34    1.55
   0 -12  11   33.58    1.64
   0  12 -10   -0.02    0.66
   0 -12  10   -0.23    0.62
   0  12  -9    3.09    0.74
   0 -12   9    2.16    0.61
   0  12  -8    4.37    0.75
   0 -12   8    3.66    0.74
   0  12  -7   -0.05    0.59
   0 -12   7    0.65    0.67
   0  12  -6    8.87    0.82
   0 -12   6    8.73    0.72
   0  12  -5  124.00    5.15
   0 -12   5  119.80    4.97
   0  12  -4    0.84    0.52
   0 -12   4    0.37    0.53
   0  12  -3   56.66    2.47
   0 -12   3   48.19    2.15
   0  12  -2    5.99    0.67
   0 -12   2    6.42    0.63
   0  12  -1   55.66    2.43
   0 -12   1   54.60    2.39
   0  12   0    1.02    0.46
   0 -12   0    0.69    0.48
   0  12   1   61.23    2.63
   0 -12  -1   59.75    2.57
   0  12   2    6.54    0.61
   0 -12  -2    6.71    0.61
   0  12   3   58.42    2.52
   0 -12  -3   55.75    2.41
   0  12   4    0.85    0.47
   0 -12  -4    0.61    0.45
   0  12   5  121.40    4.99
   0 -12  -5  121.20    5.00
   0  12   6    8.88    0.64
   0 -12  -6    7.47    0.66
   0  12   7    1.25    0.49
   0 -12  -7    1.19    0.51
   0  12   8    3.07    0.53
   0 -12  -8    2.75    0.48
   0  12   9    2.99    0.52
   0 -12  -9    2.98    0.54
   0  12  10    0.70    0.52
   0 -12 -10    0.45    0.56
   0  12  11   37.20    1.69
   0 -12 -11   41.12    1.86
   0  12  12    3.35    0.56
   0 -12 -12    3.54    0.64
   0  12  13    1.82    0.54
   0  12  14   -0.26    0.58
   0  12  15    0.30    0.62
   0  12  16    7.23    0.75
   0  12  17    9.92    0.92
  -1 -13  17    0.38    0.53
  -1 -13  16    1.76    0.61
  -1 -13  15    5.11    0.70
  -1 -13  14    1.24    0.69
  -1 -13  13   15.02    0.94
   1  13 -12   12.88    0.93
  -1 -13  12   10.95    0.88
   1  13 -11    7.97    0.75
  -1 -13  11    8.75    0.83
   1  13 -10    7.93    0.83
  -1 -13  10    7.16    0.74
   1  13  -9    4.48    0.68
  -1 -13   9    3.30    0.72
   1  13  -8    9.62    0.80
  -1 -13   8    8.41    0.85
   1  13  -7   39.35    1.85
  -1 -13   7   45.64    2.18
   1  13  -6   30.69    1.52
  -1 -13   6   30.11    1.52
   1  13  -5    1.04    0.62
  -1 -13   5    0.71    0.65
   1  13  -4   15.05    0.95
  -1 -13   4   15.63    0.99
   1  13  -3   17.54    1.03
  -1 -13   3   17.25    1.06
   1  13  -2    0.75    0.54
  -1 -13   2    0.03    0.59
   1  13  -1   23.06    1.19
  -1 -13   1   26.28    1.32
   1  13   0    9.73    0.71
  -1 -13   0   11.06    0.76
   1  13   1   35.58    1.63
  -1 -13  -1   36.41    1.69
   1  13   2   13.83    0.86
  -1 -13  -2   13.94    0.86
   1  13   3   20.57    1.10
  -1 -13  -3   18.72    1.01
   1  13   4   41.99    1.91
  -1 -13  -4   45.25    2.03
   1  13   5   35.44    1.64
  -1 -13  -5   33.40    1.54
   1  13   6    0.43    0.46
  -1 -13  -6    1.16    0.52
   1  13   7   15.37    0.90
  -1 -13  -7   17.90    1.00
   1  13   8    4.64    0.60
  -1 -13  -8    3.87    0.58
   1  13   9   15.13    0.90
  -1 -13  -9   15.92    0.97
   1  13  10   11.63    0.79
  -1 -13 -10   13.34    0.88
   1  13  11    0.36    0.53
  -1 -13 -11   -0.35    0.49
   1  13  12   17.04    0.99
  -1 -13 -12   18.66    1.05
   1  13  13    7.23    0.70
   1  13  14    1.13    0.60
   1  13  15    2.37    0.68
   1  13  16    6.41    0.78
  -2 -14  16    3.12    0.61
  -2 -14  15   -0.62    0.65
   2  14 -14   16.58    0.97
  -2 -14  14   16.54    1.03
   2  14 -13    0.44    0.63
  -2 -14  13    0.33    0.71
   2  14 -12    2.71    0.71
  -2 -14  12    4.13    0.73
   2  14 -11    2.67    0.69
  -2 -14  11    2.51    0.63
   2  14 -10    8.50    0.79
  -2 -14  10   10.37    0.89
   2  14  -9    7.45    0.80
  -2 -14   9    7.84    0.78
   2  14  -8   24.86    1.33
  -2 -14   8   26.12    1.36
   2  14  -7   -0.31    0.56
  -2 -14   7    0.43    0.67
   2  14  -6   19.97    1.16
  -2 -14   6   22.17    1.23
   2  14  -5    0.74    0.55
  -2 -14   5    0.65    0.62
   2  14  -4   14.08    0.92
  -2 -14   4   16.81    1.04
   2  14  -3    1.63    0.59
  -2 -14   3    2.13    0.61
   2  14  -2  102.10    4.26
  -2 -14   2  104.70    4.37
   2  14  -1  100.70    4.22
  -2 -14   1  100.20    4.19
   2  14   0   20.37    1.12
  -2 -14   0   18.72    1.04
   2  14   1    1.20    0.52
  -2 -14  -1    2.12    0.54
   2  14   2   12.71    0.82
  -2 -14  -2   11.47    0.78
   2  14   3    0.18    0.51
  -2 -14  -3   -0.09    0.49
   2  14   4   23.36    1.21
  -2 -14  -4   24.25    1.25
   2  14   5   10.05    0.74
  -2 -14  -5   11.83    0.78
   2  14   6   49.50    2.20
  -2 -14  -6   47.21    2.10
   2  14   7    8.57    0.67
  -2 -14  -7    8.06    0.67
   2  14   8   61.21    2.64
  -2 -14  -8   63.09    2.70
   2  14   9    0.37    0.49
  -2 -14  -9    0.30    0.47
   2  14  10    1.09    0.55
  -2 -14 -10    0.98    0.55
   2  14  11    0.97    0.57
  -2 -14 -11    0.08    0.56
   2  14  12   21.19    1.15
  -2 -14 -12   22.45    1.19
   2  14  13    1.20    0.60
   2  14  14   18.44    1.11
  -3 -15  16    4.41    0.77
   3  15 -15    6.37    0.65
  -3 -15  15    4.90    0.75
   3  15 -14    1.28    0.60
  -3 -15  14    0.61    0.70
   3  15 -13    8.76    0.80
  -3 -15  13    7.54    0.83
   3  15 -12   28.95    1.48
  -3 -15  12   27.30    1.43
   3  15 -11    7.02    0.77
  -3 -15  11    8.38    0.77
   3  15 -10   43.03    1.97
  -3 -15  10   42.30    1.98
   3  15  -9   51.27    2.29
  -3 -15   9   36.61    1.76
   3  15  -8   -0.92    0.60
  -3 -15   8    0.12    0.67
   3  15  -7    9.85    0.82
  -3 -15   7   11.10    0.86
   3  15  -6   24.26    1.25
  -3 -15   6   23.83    1.24
   3  15  -5    0.07    0.52
  -3 -15   5    1.59    0.62
   3  15  -4   24.65    1.29
  -3 -15   4   23.58    1.26
   3  15  -3   28.36    1.40
  -3 -15   3   29.48    1.48
   3  15  -2    4.47    0.62
  -3 -15   2    4.07    0.61
   3  15  -1    6.71    0.67
  -3 -15   1    7.34    0.69
   3  15   0    0.86    0.52
  -3 -15   0    0.81    0.55
   3  15   1   18.60    1.04
  -3 -15  -1   17.86    1.01
   3  15   2   23.85    1.23
  -3 -15  -2   23.51    1.21
   3  15   3    1.91    0.54
  -3 -15  -3    1.68    0.54
   3  15   4   16.28    0.94
  -3 -15  -4   17.36    0.97
   3  15   5   17.59    1.00
  -3 -15  -5   18.11    0.99
   3  15   6    1.77    0.54
  -3 -15  -6    4.17    0.60
   3  15   7    2.43    0.57
  -3 -15  -7    3.11    0.55
   3  15   8    6.19    0.62
  -3 -15  -8    6.23    0.64
   3  15   9    2.30    0.58
  -3 -15  -9    1.98    0.59
   3  15  10   20.11    1.11
  -3 -15 -10   16.38    0.98
   3  15  11   11.59    0.84
  -3 -15 -11   12.84    0.90
   3  15  12    3.81    0.67
  -3 -15 -12    5.40    0.73
   3  15  13    2.36    0.72
  -3 -15 -13    0.90    0.58
   4  16 -15    0.53    0.56
  -4 -16  15    0.59    0.63
   4  16 -14    3.30    0.68
  -4 -16  14    1.67    0.60
   4  16 -13   14.99    0.96
  -4 -16  13   15.85    1.03
   4  16 -12    2.33    0.63
  -4 -16  12    1.28    0.67
   4  16 -11   44.22    2.01
  -4 -16  11   47.56    2.17
   4  16 -10    6.42    0.72
  -4 -16  10    5.67    0.72
   4  16  -9    0.70    0.63
  -4 -16   9    1.25    0.62
   4  16  -8    5.95    0.72
  -4 -16   8    7.37    0.69
   4  16  -7   11.94    0.84
  -4 -16   7   11.84    0.86
   4  16  -6    1.25    0.54
  -4 -16   6   -0.32    0.60
   4  16  -5   60.80    2.65
  -4 -16   5   64.39    2.80
   4  16  -4    0.32    0.53
  -4 -16   4   -0.35    0.49
   4  16  -3   29.42    1.45
  -4 -16   3   30.84    1.50
   4  16  -2    1.92    0.56
  -4 -16   2    1.09    0.56
   4  16  -1    1.04    0.49
  -4 -16   1    2.26    0.59
   4  16   0   17.78    1.02
  -4 -16   0   19.90    1.10
   4  16   1   57.49    2.50
  -4 -16  -1   58.78    2.56
   4  16   2    6.59    0.66
  -4 -16  -2    4.38    0.64
   4  16   3   13.44    0.89
  -4 -16  -3   13.08    0.85
   4  16   4    1.45    0.50
  -4 -16  -4    1.34    0.59
   4  16   5   19.17    1.05
  -4 -16  -5   19.47    1.06
   4  16   6    8.07    0.67
  -4 -16  -6    7.49    0.70
   4  16   7    1.69    0.55
  -4 -16  -7    1.05    0.60
   4  16   8    1.21    0.54
  -4 -16  -8    0.46    0.56
   4  16   9   28.50    1.40
  -4 -16  -9   27.09    1.41
   4  16  10    0.09    0.54
  -4 -16 -10    0.18    0.58
   4  16  11    2.67    0.70
  -4 -16 -11    1.36    0.61
   5  17 -14    0.09    0.57
  -5 -17  14   -0.30    0.68
   5  17 -13    3.34    0.62
  -5 -17  13    3.73    0.71
   5  17 -12    5.50    0.65
  -5 -17  12    5.06    0.69
   5  17 -11    7.79    0.75
  -5 -17  11    8.90    0.85
   5  17 -10    2.76    0.64
  -5 -17  10    2.70    0.70
   5  17  -9   22.94    1.22
  -5 -17   9   20.74    1.17
   5  17  -8    0.73    0.56
  -5 -17   8    0.56    0.53
   5  17  -7   16.17    0.97
  -5 -17   7   16.79    1.02
   5  17  -6   11.14    0.80
  -5 -17   6   11.61    0.82
   5  17  -5    3.16    0.58
  -5 -17   5    3.15    0.57
   5  17  -4   26.16    1.31
  -5 -17   4   27.21    1.37
   5  17  -3   19.97    1.09
  -5 -17   3   20.89    1.12
   5  17  -2    0.33    0.54
  -5 -17   2    1.32    0.58
   5  17  -1   34.57    1.63
  -5 -17   1   36.58    1.70
   5  17   0   -0.33    0.55
  -5 -17   0    0.67    0.53
   5  17   1    1.37    0.54
  -5 -17  -1    1.14    0.56
   5  17   2    5.91    0.64
  -5 -17  -2    5.32    0.62
   5  17   3   -0.53    0.49
  -5 -17  -3    0.77    0.54
   5  17   4   13.34    0.87
  -5 -17  -4   10.65    0.82
   5  17   5   17.46    0.98
  -5 -17  -5   16.15    1.02
   5  17   6    0.04    0.52
  -5 -17  -6   -0.16    0.58
   5  17   7   13.91    0.87
  -5 -17  -7   13.08    0.88
   5  17   8    6.36    0.67
  -5 -17  -8    7.38    0.66
   5  17   9   -0.27    0.60
  -5 -17  -9   -0.60    0.64
   5  17  10    3.08    0.74
  -5 -17 -10    3.48    0.75
   6  18 -13    0.95    0.58
  -6 -18  13    0.69    0.63
   6  18 -12    0.27    0.53
  -6 -18  12   -0.18    0.62
   6  18 -11    2.71    0.65
  -6 -18  11    1.95    0.68
   6  18 -10    3.23    0.65
  -6 -18  10    3.09    0.66
   6  18  -9    0.33    0.58
  -6 -18   9    0.30    0.58
   6  18  -8   35.55    1.66
  -6 -18   8   37.74    1.77
   6  18  -7    0.76    0.60
  -6 -18   7    0.14    0.54
   6  18  -6    0.71    0.60
  -6 -18   6   -0.03    0.53
   6  18  -5    0.01    0.55
  -6 -18   5   -0.19    0.52
   6  18  -4    7.77    0.73
  -6 -18   4    6.41    0.68
   6  18  -3    3.08    0.57
  -6 -18   3    2.17    0.62
   6  18  -2   17.51    0.99
  -6 -18   2   16.19    0.97
   6  18  -1    4.90    0.57
  -6 -18   1    4.81    0.65
   6  18   0    3.34    0.57
  -6 -18   0    3.61    0.59
   6  18   1    1.73    0.59
  -6 -18  -1    1.36    0.54
   6  18   2    4.92    0.64
  -6 -18  -2    5.00    0.59
   6  18   3    0.88    0.49
  -6 -18  -3    0.81    0.57
   6  18   4   17.28    1.03
  -6 -18  -4   15.73    0.99
   6  18   5    0.17    0.55
  -6 -18  -5    1.11    0.59
   6  18   6   12.94    0.86
  -6 -18  -6   14.41    0.92
   6  18   7    2.77    0.64
  -6 -18  -7    3.62    0.63
  -7 -19  12    3.41    0.70
   7  19 -11   -0.56    0.56
  -7 -19  11    0.88    0.58
   7  19 -10    3.63    0.60
  -7 -19  10    2.21    0.62
   7  19  -9    5.05    0.61
  -7 -19   9    4.11    0.62
   7  19  -8    0.06    0.55
  -7 -19   8    0.27    0.52
   7  19  -7   -0.61    0.57
  -7 -19   7   -0.13    0.59
   7  19  -6    6.37    0.69
  -7 -19   6    6.21    0.69
   7  19  -5    0.47    0.52
  -7 -19   5   -0.11    0.50
   7  19  -4   14.89    0.92
  -7 -19   4   16.90    0.98
   7  19  -3    2.44    0.58
  -7 -19   3    0.99    0.55
   7  19  -2    0.76    0.54
  -7 -19   2    1.47    0.57
   7  19  -1   -0.29    0.50
  -7 -19   1    0.56    0.52
   7  19   0    2.83    0.61
  -7 -19   0    2.63    0.61
   7  19   1    1.46    0.56
  -7 -19  -1   -0.16    0.54
   7  19   2   19.44    1.07
  -7 -19  -2   20.59    1.09
   7  19   3   -0.08    0.54
  -7 -19  -3   -0.52    0.48
   7  19   4    4.49    0.66
  -7 -19  -4    5.46    0.65
   7  19   5    1.46    0.62
  -7 -19  -5    2.01    0.60
   8  20  -9    0.50    0.51
  -8 -20   9    0.93    0.52
   8  20  -8    4.80    0.63
  -8 -20   8    4.26    0.63
   8  20  -7    5.48    0.69
  -8 -20   7    4.37    0.60
   8  20  -6    0.44    0.50
  -8 -20   6    0.38    0.57
   8  20  -5   18.32    1.04
  -8 -20   5   19.96    1.08
   8  20  -4    0.66    0.54
  -8 -20   4    0.46    0.53
   8  20  -3    1.47    0.59
  -8 -20   3    0.94    0.55
   8  20  -2    1.89    0.60
  -8 -20   2    4.05    0.65
   8  20  -1    4.36    0.63
  -8 -20   1    2.92    0.65
   8  20   0    7.35    0.69
  -8 -20   0    7.92    0.72
   8  20   1   17.90    1.04
  -8 -20  -1   15.61    0.95
 -22  -8   5    1.18    0.53
  22   8  -5    0.87    0.68
 -22  -8   6   11.55    0.75
  22   8  -6   10.43    0.85
 -22  -8   7    0.08    0.53
  22   8  -7    0.58    0.67
 -22  -8   8   -0.14    0.52
  22   8  -8    0.57    0.57
 -22  -8   9    7.27    0.63
  22   8  -9    9.78    0.85
 -22  -8  10    0.63    0.53
  22   8 -10    1.09    0.57
 -22  -8  11   12.44    0.76
  22   8 -11   13.06    0.86
 -22  -8  12    5.91    0.65
  22   8 -12    7.73    0.76
 -22  -8  13    3.21    0.60
  22   8 -13    5.32    0.73
 -22  -8  14    1.73    0.53
  22   8 -14    1.86    0.63
 -22  -8  15    3.76    0.61
  22   8 -15    3.62    0.64
 -22  -8  16    1.32    0.57
  22   8 -16    1.16    0.65
 -21  -7   2   -0.50    0.55
  21   7  -2   -0.78    0.60
 -21  -7   3    7.06    0.70
  21   7  -3    8.89    0.76
 -21  -7   4   -0.87    0.54
  21   7  -4    1.22    0.63
 -21  -7   5   19.56    1.02
  21   7  -5   19.48    1.10
 -21  -7   6    0.14    0.55
  21   7  -6    0.51    0.67
 -21  -7   7   13.97    0.88
  21   7  -7   13.70    0.96
 -21  -7   8    1.27    0.53
  21   7  -8    0.90    0.68
 -21  -7   9    0.78    0.59
  21   7  -9    1.25    0.64
 -21  -7  10    0.12    0.53
  21   7 -10    0.88    0.57
 -21  -7  11    7.76    0.64
  21   7 -11    9.13    0.77
 -21  -7  12    1.21    0.54
  21   7 -12    0.78    0.55
 -21  -7  13   30.44    1.45
  21   7 -13   35.99    1.70
 -21  -7  14   -0.63    0.52
  21   7 -14   -0.13    0.53
 -21  -7  15    7.80    0.65
  21   7 -15    5.08    0.65
 -21  -7  16    0.66    0.55
  21   7 -16    0.70    0.60
 -21  -7  17    1.28    0.54
  21   7 -17    2.05    0.63
 -21  -7  18   -0.45    0.53
  21   7 -18    0.58    0.66
 -21  -7  19    5.89    0.68
  21   7 -19    4.99    0.68
 -20  -6  -1   -0.05    0.53
  20   6   1    0.09    0.68
 -20  -6   0    5.79    0.64
  20   6   0    6.01    0.73
 -20  -6   1    1.29    0.50
  20   6  -1    0.58    0.60
 -20  -6   2    2.27    0.61
  20   6  -2    1.64    0.61
 -20  -6   3   22.38    1.15
  20   6  -3   21.88    1.18
 -20  -6   4   -0.30    0.56
  20   6  -4   -0.53    0.63
 -20  -6   5    0.50    0.50
  20   6  -5    1.33    0.63
 -20  -6   6   19.39    1.02
  20   6  -6   19.13    1.14
 -20  -6   7   10.27    0.76
  20   6  -7   10.85    0.86
 -20  -6   8    4.11    0.60
  20   6  -8    1.47    0.60
 -20  -6   9   21.80    1.16
  20   6  -9   11.01    0.86
 -20  -6  10   21.62    1.10
  20   6 -10   27.02    1.38
 -20  -6  11    7.10    0.66
  20   6 -11    5.47    0.65
 -20  -6  12    8.98    0.72
  20   6 -12    9.13    0.75
 -20  -6  13    2.07    0.52
  20   6 -13    1.27    0.57
 -20  -6  14    0.69    0.51
  20   6 -14    1.41    0.60
 -20  -6  15    7.23    0.67
  20   6 -15    7.79    0.71
 -20  -6  16    0.25    0.48
  20   6 -16   -0.51    0.59
 -20  -6  17   17.70    0.98
  20   6 -17   16.16    0.98
 -20  -6  18    0.54    0.57
  20   6 -18    0.98    0.60
 -20  -6  19    4.62    0.61
  20   6 -19    5.35    0.71
 -20  -6  20    5.01    0.61
  20   6 -20    6.42    0.72
 -19  -5  -3    1.17    0.59
  19   5   3    0.05    0.55
 -19  -5  -2    0.52    0.54
  19   5   2    0.39    0.58
 -19  -5  -1    2.37    0.52
  19   5   1    2.51    0.63
 -19  -5   0   13.36    0.88
  19   5   0   14.84    0.98
 -19  -5   1    5.69    0.68
  19   5  -1    6.18    0.72
 -19  -5   2   40.88    1.84
  19   5  -2   38.57    1.80
 -19  -5   3    2.86    0.52
  19   5  -3    3.19    0.64
 -19  -5   4   14.30    0.89
  19   5  -4   14.51    0.96
 -19  -5   5    7.00    0.67
  19   5  -5    6.67    0.75
 -19  -5   6   15.73    0.93
  19   5  -6   14.93    1.00
 -19  -5   7    0.09    0.49
  19   5  -7   -0.04    0.54
 -19  -5   8   74.27    3.17
  19   5  -8   81.99    3.47
 -19  -5   9    3.73    0.55
  19   5  -9    4.20    0.66
 -19  -5  10   30.14    1.44
  19   5 -10   39.04    1.82
 -19  -5  11    2.05    0.48
  19   5 -11    2.39    0.58
 -19  -5  12    1.91    0.52
  19   5 -12    3.54    0.61
 -19  -5  13    2.18    0.54
  19   5 -13    1.60    0.56
 -19  -5  14    6.54    0.59
  19   5 -14    6.56    0.67
 -19  -5  15    0.73    0.52
  19   5 -15   -0.08    0.58
 -19  -5  16   38.43    1.74
  19   5 -16   42.38    1.92
 -19  -5  17   -1.05    0.52
  19   5 -17   -0.10    0.61
 -19  -5  18   14.94    0.88
  19   5 -18   17.64    1.03
 -19  -5  19    0.71    0.51
  19   5 -19    0.88    0.62
 -19  -5  20    0.78    0.59
  19   5 -20    1.61    0.64
 -19  -5  21    1.00    0.57
  19   5 -21    0.22    0.66
  18   4   5    2.06    0.64
  18   4   4    6.98    0.75
 -18  -4  -3    0.19    0.59
  18   4   3   -0.23    0.63
 -18  -4  -2   30.41    1.47
  18   4   2   31.31    1.54
 -18  -4  -1    0.25    0.48
  18   4   1    0.50    0.67
 -18  -4   0   15.88    0.98
  18   4   0   15.48    0.98
 -18  -4   1    1.12    0.57
  18   4  -1   -0.34    0.57
 -18  -4   2    0.61    0.55
  18   4  -2    0.42    0.59
 -18  -4   3    9.63    0.80
  18   4  -3   11.80    0.87
 -18  -4   4   43.01    1.99
  18   4  -4   40.75    1.88
 -18  -4   5   20.25    1.13
  18   4  -5   19.86    1.14
 -18  -4   6   45.85    2.05
  18   4  -6   45.02    2.06
 -18  -4   7    9.19    0.69
  18   4  -7    9.23    0.79
 -18  -4   8    1.26    0.53
  18   4  -8    0.18    0.59
 -18  -4   9   10.06    0.74
  18   4  -9   13.47    0.89
 -18  -4  10   10.10    0.73
  18   4 -10   13.91    0.93
 -18  -4  11    8.22    0.65
  18   4 -11    7.06    0.69
 -18  -4  12   34.44    1.57
  18   4 -12   36.97    1.72
 -18  -4  13    7.12    0.64
  18   4 -13    6.06    0.66
 -18  -4  14    5.88    0.63
  18   4 -14    4.75    0.59
 -18  -4  15   22.48    1.13
  18   4 -15   26.65    1.32
 -18  -4  16   -0.64    0.46
  18   4 -16    0.65    0.54
 -18  -4  17    1.60    0.47
  18   4 -17    1.86    0.54
 -18  -4  18   18.52    1.02
  18   4 -18   21.68    1.19
 -18  -4  19    1.01    0.59
  18   4 -19    0.99    0.62
 -18  -4  20    4.77    0.62
  18   4 -20    5.31    0.73
 -18  -4  21    0.04    0.56
  18   4 -21   -0.16    0.64
 -18  -4  22    0.27    0.61
  18   4 -22    0.86    0.66
  17   3   6    2.47    0.65
  17   3   5    7.06    0.70
  17   3   4    0.87    0.65
 -17  -3  -3   14.58    0.94
  17   3   3   11.86    0.90
 -17  -3  -2    4.14    0.66
  17   3   2    2.25    0.66
 -17  -3  -1   12.74    0.90
  17   3   1    8.70    0.80
 -17  -3   0   22.11    1.17
  17   3   0   22.29    1.21
 -17  -3   1   29.50    1.43
  17   3  -1   29.35    1.47
 -17  -3   2    1.03    0.55
  17   3  -2    0.44    0.61
 -17  -3   3   17.27    1.07
  17   3  -3   16.98    1.05
 -17  -3   4   19.99    1.14
  17   3  -4   21.43    1.19
 -17  -3   5   25.92    1.33
  17   3  -5   20.55    1.15
 -17  -3   6   28.56    1.42
  17   3  -6   29.17    1.46
 -17  -3   7    8.91    0.72
  17   3  -7    7.22    0.73
 -17  -3   8    4.99    0.58
  17   3  -8    4.71    0.66
 -17  -3   9    2.35    0.55
  17   3  -9    3.15    0.66
 -17  -3  10    9.50    0.72
  17   3 -10    7.22    0.69
 -17  -3  11   18.23    0.99
  17   3 -11   15.40    0.93
 -17  -3  12    0.79    0.49
  17   3 -12    0.42    0.51
 -17  -3  13   10.74    0.69
  17   3 -13    7.99    0.65
 -17  -3  14    2.70    0.52
  17   3 -14    2.29    0.54
 -17  -3  15   11.55    0.75
  17   3 -15    8.48    0.71
 -17  -3  16   31.47    1.45
  17   3 -16   32.38    1.52
 -17  -3  17   15.18    0.91
  17   3 -17   15.78    0.96
 -17  -3  18    1.53    0.49
  17   3 -18    1.62    0.58
 -17  -3  19   15.40    0.93
  17   3 -19   18.43    1.06
 -17  -3  20    0.72    0.53
  17   3 -20    0.20    0.64
 -17  -3  21   12.23    0.83
  17   3 -21   12.95    0.90
 -17  -3  22   -0.72    0.61
 -17  -3  23    0.76    0.67
  16   2   7   21.16    1.18
  16   2   6    3.11    0.68
  16   2   5   17.76    1.04
  16   2   4    3.66    0.69
 -16  -2  -3   22.29    1.17
  16   2   3   20.81    1.18
 -16  -2  -2    3.31    0.65
  16   2   2    2.08    0.64
 -16  -2  -1   14.55    0.96
  16   2   1   13.15    0.90
 -16  -2   0   20.69    1.11
  16   2   0   19.06    1.12
 -16  -2   1   41.21    1.90
  16   2  -1   37.31    1.80
 -16  -2   2    0.26    0.59
  16   2  -2    0.95    0.64
 -16  -2   3   40.05    1.89
  16   2  -3   36.91    1.77
 -16  -2   4   -0.14    0.58
  16   2  -4    0.86    0.55
 -16  -2   5    7.30    0.74
  16   2  -5    7.22    0.71
 -16  -2   6    0.49    0.53
  16   2  -6    0.43    0.59
 -16  -2   7    4.78    0.56
  16   2  -7    8.82    0.74
 -16  -2   8   14.25    0.79
  16   2  -8   12.00    0.82
 -16  -2   9   53.15    2.30
  16   2  -9   65.90    2.83
 -16  -2  10   -0.60    0.44
  16   2 -10    1.11    0.54
 -16  -2  11   12.24    0.78
  16   2 -11   13.07    0.85
 -16  -2  12    0.62    0.43
  16   2 -12    0.83    0.46
 -16  -2  13   24.66    1.18
  16   2 -13   24.31    1.22
 -16  -2  14    1.33    0.46
  16   2 -14    1.60    0.50
 -16  -2  15   24.88    1.20
  16   2 -15   22.67    1.14
 -16  -2  16    4.11    0.56
  16   2 -16    4.90    0.57
 -16  -2  17   30.36    1.43
  16   2 -17   33.31    1.54
 -16  -2  18   -0.41    0.47
  16   2 -18    0.18    0.57
 -16  -2  19   -0.28    0.51
  16   2 -19    1.37    0.57
 -16  -2  20    5.34    0.63
  16   2 -20    5.70    0.68
 -16  -2  21   28.90    1.41
 -16  -2  22    1.27    0.64
 -16  -2  23   11.05    0.91
  15   1   9    1.75    0.66
  15   1   8   14.93    0.97
  15   1   7    0.97    0.63
  15   1   6   13.90    0.93
  15   1   5    2.57    0.69
  15   1   4   10.00    0.87
  15   1   3   66.14    2.88
 -15  -1  -2    3.63    0.71
  15   1   2    1.81    0.68
 -15  -1  -1    3.53    0.69
  15   1   1    2.94    0.65
 -15  -1   0   39.27    1.80
  15   1   0   40.44    1.90
 -15  -1   1    4.18    0.67
  15   1  -1    4.15    0.69
 -15  -1   2   36.48    1.71
  15   1  -2   39.19    1.82
 -15  -1   3   25.68    1.33
  15   1  -3   24.11    1.26
 -15  -1   4    5.51    0.70
  15   1  -4    6.36    0.73
 -15  -1   5   12.36    0.84
  15   1  -5   11.61    0.83
 -15  -1   6    0.04    0.47
  15   1  -6    1.57    0.55
 -15  -1   7    7.98    0.63
  15   1  -7   10.05    0.79
 -15  -1   8   21.75    1.07
  15   1  -8   22.73    1.18
 -15  -1   9    6.21    0.56
  15   1  -9    3.08    0.57
 -15  -1  10   13.94    0.79
  15   1 -10   16.50    0.94
 -15  -1  11   21.93    1.13
  15   1 -11   19.87    1.06
 -15  -1  12    0.13    0.43
  15   1 -12    0.24    0.45
 -15  -1  13   41.31    1.81
  15   1 -13   47.61    2.08
 -15  -1  14   28.92    1.31
  15   1 -14   33.25    1.56
 -15  -1  15    1.84    0.46
  15   1 -15    2.18    0.51
 -15  -1  16   14.89    0.87
  15   1 -16   14.34    0.86
 -15  -1  17    9.85    0.66
  15   1 -17   10.56    0.74
 -15  -1  18    8.32    0.66
  15   1 -18    7.53    0.70
 -15  -1  19   25.35    1.28
  15   1 -19   21.39    1.14
 -15  -1  20   21.24    1.14
 -15  -1  21    1.18    0.63
 -15  -1  22   23.54    1.21
 -15  -1  23    1.90    0.63
  14   0  10   21.01    1.10
  14   0  10   21.35    1.09
  14   0   9   -0.99    0.57
  14   0   8    2.42    0.67
  14   0   7   -1.95    0.60
  14   0   6    1.04    0.61
  14   0   5   -0.59    0.59
  14   0   4   66.41    2.88
  14   0   3   -0.04    0.60
  14   0   2   61.22    2.69
 -14   0  -1   -0.50    0.60
  14   0   1    0.58    0.66
 -14   0   0    2.15    0.58
  14   0   0    2.11    0.66
 -14   0   1   -0.27    0.61
  14   0  -1    0.04    0.56
 -14   0   2   43.31    1.98
  14   0  -2   43.50    1.99
 -14   0   3    0.30    0.53
  14   0  -3   -0.18    0.54
 -14   0   4  157.00    6.46
  14   0  -4  159.70    6.54
 -14   0   5    0.26    0.47
  14   0  -5    0.54    0.46
 -14   0   6  159.90    6.53
  14   0  -6  150.10    6.14
 -14   0   7    0.60    0.43
  14   0  -7   -0.06    0.49
 -14   0   8   10.25    0.65
  14   0  -8    8.79    0.64
 -14   0   9    0.09    0.38
  14   0  -9    0.39    0.45
 -14   0  10   26.20    1.24
  14   0 -10   25.29    1.23
 -14   0  11    0.06    0.42
  14   0 -11    0.59    0.43
 -14   0  12   54.37    2.33
  14   0 -12   65.17    2.75
 -14   0  13   -0.63    0.36
  14   0 -13    0.56    0.43
 -14   0  14   98.13    4.04
  14   0 -14   93.27    3.87
 -14   0  15    0.01    0.42
  14   0 -15    0.20    0.49
 -14   0  16    1.74    0.48
  14   0 -16    0.92    0.49
 -14   0  17   -0.13    0.42
  14   0 -17   -0.53    0.51
 -14   0  18   35.24    1.61
 -14   0  19    0.68    0.50
 -14   0  20   20.75    1.10
 -14   0  21   -0.31    0.64
 -14   0  22    6.16    0.78
 -14   0  23    0.38    0.68
 -14   0  23   -0.74    0.73
  13  -1  11    5.37    0.65
  13  -1  11    5.66    0.66
  13  -1  10   -0.36    0.59
  13  -1  10   -0.29    0.48
  13  -1   9   -1.06    0.61
  13  -1   8   36.74    1.71
  13  -1   7    0.93    0.58
  13  -1   6   82.59    3.51
  13  -1   5    9.54    0.81
  13  -1   4    1.44    0.60
  13  -1   3  100.80    4.25
  13  -1   2   12.01    0.90
 -13   1  -1    0.65    0.54
  13  -1   1    0.28    0.57
 -13   1   0  100.60    4.19
  13  -1   0  103.90    4.36
 -13   1   1    0.11    0.42
  13  -1  -1    0.25    0.52
 -13   1   2   17.73    1.00
  13  -1  -2   14.88    0.89
 -13   1   3  123.50    5.09
  13  -1  -3  118.90    4.92
 -13   1   4    0.51    0.47
  13  -1  -4    0.08    0.44
 -13   1   5   32.22    1.52
  13  -1  -5   38.58    1.75
 -13   1   6  109.60    4.51
  13  -1  -6  112.00    4.61
 -13   1   7    0.22    0.36
  13  -1  -7    0.37    0.43
 -13   1   8   43.53    1.88
  13  -1  -8   40.19    1.77
 -13   1   9    4.48    0.41
  13  -1  -9    4.61    0.55
 -13   1  10   15.72    0.79
  13  -1 -10   13.58    0.75
 -13   1  11   12.70    0.67
  13  -1 -11   14.51    0.77
 -13   1  12    0.17    0.36
  13  -1 -12    0.81    0.40
 -13   1  13   47.38    2.04
  13  -1 -13   43.07    1.87
 -13   1  14  107.20    4.39
  13  -1 -14  105.90    4.35
 -13   1  15    8.82    0.58
  13  -1 -15    9.43    0.67
 -13   1  16   35.19    1.62
  13  -1 -16   32.42    1.48
 -13   1  17   14.63    0.80
 -13   1  18   -0.16    0.48
 -13   1  19   10.09    0.74
 -13   1  20   32.07    1.51
 -13   1  21    0.57    0.63
 -13   1  21   -0.43    0.67
 -13   1  22    9.70    0.87
 -13   1  22   11.00    0.88
 -13   1  23    0.72    0.69
 -13   1  23    1.75    0.78
  12  -2  12    4.18    0.71
  12  -2  12    4.91    0.66
  12  -2  11    0.01    0.62
  12  -2  11    1.63    0.51
  12  -2  10    1.36    0.67
  12  -2  10    1.63    0.53
  12  -2   9   15.18    0.95
  12  -2   9   13.25    0.88
  12  -2   8    2.65    0.69
  12  -2   7   59.88    2.65
  12  -2   6   35.15    1.70
  12  -2   5   11.27    0.89
  12  -2   4    1.81    0.62
  12  -2   3   28.38    1.45
  12  -2   2   15.19    1.03
  12  -2   1  133.60    5.52
  12  -2   0   21.89    1.16
 -12   2   1  133.70    5.49
  12  -2  -1  133.40    5.49
 -12   2   2    0.27    0.48
  12  -2  -2    1.06    0.46
 -12   2   3    4.22    0.55
  12  -2  -3    5.25    0.54
 -12   2   4   17.34    0.94
  12  -2  -4   15.96    0.87
 -12   2   5  110.80    4.57
  12  -2  -5  122.10    5.01
 -12   2   6   13.38    0.77
  12  -2  -6   11.33    0.69
 -12   2   7   80.91    3.35
  12  -2  -7   84.80    3.50
 -12   2   8   10.28    0.59
  12  -2  -8    8.47    0.56
 -12   2   9   37.26    1.59
  12  -2  -9   32.85    1.44
 -12   2  10    0.96    0.29
  12  -2 -10    1.54    0.35
 -12   2  11    6.57    0.43
  12  -2 -11    6.17    0.45
 -12   2  12    5.00    0.42
  12  -2 -12    4.08    0.44
 -12   2  13   70.02    2.90
  12  -2 -13   71.15    2.94
 -12   2  14    0.72    0.34
  12  -2 -14    0.62    0.37
 -12   2  15   23.36    1.10
 -12   2  16    4.61    0.55
 -12   2  17    0.34    0.46
 -12   2  18    0.49    0.54
 -12   2  20   -0.21    0.54
 -12   2  20    0.20    0.57
 -12   2  21   17.18    1.03
 -12   2  21   15.13    0.99
 -12   2  22    0.12    0.70
 -12   2  22   -0.39    0.63
 -12   2  23    0.00    0.70
 -12   2  23    0.22    0.79
  11  -3  13    6.34    0.67
  11  -3  12    0.25    0.49
  11  -3  12    0.18    0.63
  11  -3  11   22.46    1.25
  11  -3  11   24.79    1.26
  11  -3  10    1.48    0.64
  11  -3  10    0.70    0.62
  11  -3   9   15.89    1.02
  11  -3   9   14.56    0.94
  11  -3   8    4.50    0.67
  11  -3   8    3.04    0.69
  11  -3   7   26.44    1.34
  11  -3   7   27.18    1.39
  11  -3   6   29.25    1.49
  11  -3   5   67.38    2.93
  11  -3   4    0.93    0.64
  11  -3   3   64.01    2.80
  11  -3   2   22.79    1.21
  11  -3   1    1.06    0.53
  11  -3   0   11.05    0.78
  11  -3  -1  112.30    4.65
  11  -3  -2   82.07    3.43
 -11   3   3  253.00   10.22
  11  -3  -3  262.90   10.61
 -11   3   4    9.80    0.69
  11  -3  -4   10.18    0.65
 -11   3   5    8.24    0.57
  11  -3  -5    7.10    0.52
 -11   3   6   76.48    3.15
  11  -3  -6   74.61    3.08
 -11   3   7    2.86    0.35
  11  -3  -7    2.51    0.35
 -11   3   8   32.89    1.41
  11  -3  -8   36.48    1.55
 -11   3   9   67.03    2.76
  11  -3  -9   68.15    2.79
 -11   3  10    1.36    0.25
  11  -3 -10    1.38    0.29
 -11   3  11  177.30    7.14
  11  -3 -11  172.90    6.98
 -11   3  12    1.44    0.25
 -11   3  13    1.93    0.35
 -11   3  14    1.45    0.34
 -11   3  15    4.70    0.44
 -11   3  16    7.91    0.60
 -11   3  16    6.91    0.58
 -11   3  17   50.77    2.18
 -11   3  17   48.93    2.11
 -11   3  18    1.32    0.58
 -11   3  18    0.03    0.48
 -11   3  19    4.64    0.58
 -11   3  19    4.62    0.61
 -11   3  20    9.43    0.73
 -11   3  20    8.63    0.70
 -11   3  21    6.03    0.75
 -11   3  21    6.02    0.72
 -11   3  22    1.38    0.66
 -11   3  22    0.56    0.60
 -11   3  23    4.09    0.78
 -11   3  23    3.73    0.77
  10  -4  13    1.24    0.59
  10  -4  13    0.62    0.49
  10  -4  12   13.09    0.89
  10  -4  12   12.37    0.88
  10  -4  11    5.74    0.72
  10  -4  11    5.03    0.72
  10  -4  10   28.09    1.41
  10  -4  10   24.41    1.29
  10  -4   9   13.73    0.92
  10  -4   9   12.28    0.86
  10  -4   8    2.24    0.68
  10  -4   8    3.13    0.65
  10  -4   7    1.94    0.59
  10  -4   7    1.00    0.54
  10  -4   6    7.53    0.76
  10  -4   6    7.22    0.78
  10  -4   5    5.75    0.66
  10  -4   5    5.97    0.75
  10  -4   4   27.29    1.41
  10  -4   3   19.94    1.10
  10  -4   2   27.18    1.35
  10  -4   1   72.85    3.09
  10  -4   0   41.73    1.87
  10  -4  -1    3.50    0.51
  10  -4  -2   46.81    2.04
  10  -4  -3   31.03    1.40
  10  -4  -4  165.00    6.69
  10  -4  -5    0.02    0.29
  10  -4  -6   66.87    2.75
  10  -4  -7  137.80    5.57
  10  -4  -8  374.90   15.24
 -10   4  11   36.29    1.51
 -10   4  11   31.67    1.33
 -10   4  12   21.21    0.91
 -10   4  12   20.91    0.92
 -10   4  13    0.53    0.29
 -10   4  13    0.14    0.29
 -10   4  14    1.99    0.35
 -10   4  14    2.46    0.37
 -10   4  15    0.07    0.38
 -10   4  15    0.25    0.34
 -10   4  16   75.57    3.14
 -10   4  16   74.12    3.07
 -10   4  17    3.31    0.49
 -10   4  17    3.19    0.48
 -10   4  18   12.13    0.82
 -10   4  18   10.97    0.74
 -10   4  19   -0.26    0.51
 -10   4  19    0.38    0.49
 -10   4  20    2.74    0.59
 -10   4  20    1.95    0.54
 -10   4  21   14.02    0.92
 -10   4  21   12.78    0.89
 -10   4  22    3.86    0.68
 -10   4  22    4.07    0.72
 -10   4  23   -0.14    0.77
 -10   4  23   -0.42    0.76
   9  -5  14   12.40    0.85
   9  -5  14   12.50    0.83
   9  -5  13   -0.04    0.63
   9  -5  13    1.14    0.60
   9  -5  12    1.69    0.62
   9  -5  12    1.13    0.55
   9  -5  11   15.52    0.96
   9  -5  11   16.86    1.02
   9  -5  10   38.00    1.78
   9  -5  10   36.19    1.69
   9  -5   9    2.57    0.65
   9  -5   9    1.20    0.60
   9  -5   8   32.58    1.60
   9  -5   8   31.96    1.58
   9  -5   7    6.00    0.71
   9  -5   7    6.10    0.77
   9  -5   6   38.90    1.85
   9  -5   6   39.55    1.87
   9  -5   5    5.16    0.75
   9  -5   5    4.67    0.70
   9  -5   4    3.66    0.58
   9  -5   4    4.02    0.60
   9  -5   3   62.23    2.69
   9  -5   3   65.95    2.83
   9  -5   2  132.30    5.45
   9  -5   2  119.70    4.95
   9  -5   1   34.61    1.59
   9  -5   1   32.57    1.52
   9  -5   0  139.10    5.71
   9  -5   0  141.00    5.77
   9  -5  -1   54.59    2.35
   9  -5  -2    5.08    0.50
   9  -5  -3    3.94    0.44
   9  -5  -3    4.31    0.40
   9  -5  -4    9.01    0.52
   9  -5  -4    9.28    0.53
   9  -5  -5   12.48    0.61
   9  -5  -5   14.58    0.68
   9  -5  -6  643.00   26.07
   9  -5  -6  620.80   25.18
  -9   5  12    4.09    0.28
  -9   5  12    3.88    0.27
  -9   5  13    0.24    0.30
  -9   5  13   -0.08    0.27
  -9   5  14  229.30    9.23
  -9   5  14  222.30    8.96
  -9   5  15   52.19    2.20
  -9   5  15   53.47    2.24
  -9   5  16    5.41    0.51
  -9   5  16    5.99    0.51
  -9   5  17    3.74    0.50
  -9   5  17    4.26    0.51
  -9   5  18    2.96    0.51
  -9   5  18    3.78    0.56
  -9   5  19    0.28    0.53
  -9   5  19    0.54    0.54
  -9   5  20   21.74    1.16
  -9   5  20   22.58    1.16
  -9   5  21    0.74    0.62
  -9   5  21    0.66    0.63
  -9   5  22    0.91    0.74
  -9   5  22    1.63    0.72
  -9   5  23    1.48    0.81
  -9   5  23    2.56    0.89
   8  -6  14    4.98    0.73
   8  -6  14    5.21    0.61
   8  -6  13   -0.12    0.58
   8  -6  13   -0.01    0.55
   8  -6  12    1.63    0.66
   8  -6  12    1.60    0.67
   8  -6  11   11.95    0.81
   8  -6  11   12.53    0.89
   8  -6  10    2.64    0.65
   8  -6  10    3.33    0.60
   8  -6   9   92.60    3.92
   8  -6   9   81.70    3.47
   8  -6   8    0.61    0.66
   8  -6   8    0.55    0.64
   8  -6   7   43.56    2.03
   8  -6   7   42.76    1.99
   8  -6   6    5.51    0.74
   8  -6   6    7.35    0.76
   8  -6   5   80.72    3.43
   8  -6   5   80.71    3.43
   8  -6   4   58.17    2.54
   8  -6   4   60.58    2.63
   8  -6   3  105.90    4.40
   8  -6   3   92.34    3.87
   8  -6   2    1.96    0.55
   8  -6   2    1.91    0.53
   8  -6   1   59.69    2.57
   8  -6   1   65.06    2.77
   8  -6   0    4.59    0.55
   8  -6   0    5.24    0.54
   8  -6  -1  147.40    6.02
   8  -6  -1  137.20    5.60
   8  -6  -2   84.75    3.51
   8  -6  -2   86.97    3.58
   8  -6  -3   70.12    2.90
   8  -6  -3   76.20    3.13
   8  -6  -4   70.38    2.89
   8  -6  -4   70.13    2.87
   8  -6  -5   60.20    2.46
   8  -6  -5   63.96    2.61
  -8   6  12   72.11    2.94
  -8   6  12   78.02    3.18
  -8   6  13  153.70    6.22
  -8   6  13  138.90    5.64
  -8   6  14   24.08    1.07
  -8   6  14   24.19    1.09
  -8   6  15    0.44    0.39
  -8   6  15   -0.12    0.34
  -8   6  16   49.77    2.14
  -8   6  16   50.52    2.16
  -8   6  17    1.85    0.54
  -8   6  17    1.01    0.44
  -8   6  18   37.00    1.66
  -8   6  18   37.85    1.70
  -8   6  19    4.99    0.63
  -8   6  19    5.19    0.60
  -8   6  20    0.28    0.60
  -8   6  20   -0.61    0.55
  -8   6  21    8.82    0.84
  -8   6  21    8.50    0.73
  -8   6  22    0.07    0.73
  -8   6  22   -0.70    0.68
   7  -7  15    0.62    0.59
   7  -7  15    0.08    0.60
   7  -7  14    0.87    0.61
   7  -7  14    1.41    0.59
   7  -7  13   15.88    1.05
   7  -7  13   18.58    1.07
   7  -7  12    0.91    0.63
   7  -7  12    0.13    0.57
   7  -7  11   27.19    1.43
   7  -7  11   30.79    1.49
   7  -7  10   24.40    1.29
   7  -7  10   24.54    1.26
   7  -7   9    1.72    0.71
   7  -7   9    2.88    0.61
   7  -7   8    0.17    0.61
   7  -7   8   -0.38    0.63
   7  -7   7    1.48    0.70
   7  -7   7    1.54    0.62
   7  -7   6   28.89    1.51
   7  -7   6   32.94    1.62
   7  -7   5  145.10    5.97
   7  -7   5  151.10    6.22
   7  -7   4    1.23    0.50
   7  -7   4   -0.47    0.52
   7  -7   3    3.34    0.57
   7  -7   2    9.12    0.69
   7  -7   1    0.12    0.45
   7  -7   0    5.57    0.54
   7  -7  -1   99.86    4.11
   7  -7  -2    2.28    0.36
   7  -7  -3  112.20    4.56
   7  -7  -4    8.39    0.47
   7  -7  -4    8.54    0.46
   7  -7  -5    7.48    0.38
   7  -7  -5    7.27    0.37
  -7   7  11   60.77    2.49
  -7   7  11   59.02    2.42
  -7   7  12    1.56    0.31
  -7   7  12    1.89    0.29
  -7   7  13   37.98    1.62
  -7   7  13   37.82    1.61
  -7   7  14   45.22    1.93
  -7   7  14   45.69    1.93
  -7   7  15   16.60    0.88
  -7   7  15   16.47    0.84
  -7   7  16    7.34    0.58
  -7   7  16    6.74    0.56
  -7   7  17   44.38    1.94
  -7   7  17   43.51    1.90
  -7   7  18    9.43    0.68
  -7   7  18    9.52    0.73
  -7   7  19    4.42    0.58
  -7   7  19    6.14    0.66
  -7   7  20    3.62    0.63
  -7   7  20    3.62    0.72
  -7   7  21    3.54    0.64
  -7   7  21    3.90    0.75
  -7   7  22    0.04    0.73
  -7   7  22    1.09    0.84
   6  -8  15    3.10    0.71
   6  -8  15    3.74    0.60
   6  -8  14    6.32    0.74
   6  -8  14    7.81    0.74
   6  -8  13    5.04    0.71
   6  -8  13    5.58    0.74
   6  -8  11    5.77    0.76
   6  -8  11    4.32    0.64
   6  -8  10   14.24    0.98
   6  -8  10   15.22    0.96
   6  -8   8   -0.59    0.66
   6  -8   8   -0.43    0.65
   6  -8   7   23.32    1.27
   6  -8   6  103.50    4.33
   6  -8   5    4.16    0.58
   6  -8   4   91.27    3.83
   6  -8   3    2.39    0.54
   6  -8   2    2.99    0.52
   6  -8   1   90.94    3.78
   6  -8   0    0.68    0.42
   6  -8  -1    0.70    0.38
   6  -8  -2  133.00    5.40
   6  -8  -3  135.20    5.49
  -6   8   4   20.17    0.91
   6  -8  -4   22.19    0.98
  -6   8   5   19.68    0.86
   6  -8  -5   18.90    0.83
  -6   8   6    0.39    0.15
   6  -8  -6    0.64    0.18
  -6   8   7   24.16    1.02
   6  -8  -7   25.52    1.08
  -6   8   8  124.40    5.11
  -6   8   9    0.22    0.19
  -6   8   9    0.23    0.18
  -6   8  10   15.64    0.71
  -6   8  10   13.49    0.62
  -6   8  11  147.10    5.95
  -6   8  11  143.30    5.81
  -6   8  12    2.31    0.39
  -6   8  12    1.84    0.33
  -6   8  13    8.74    0.53
  -6   8  13    8.46    0.58
  -6   8  14    7.67    0.61
  -6   8  14    5.89    0.51
  -6   8  16   23.67    1.17
  -6   8  16   25.07    1.19
  -6   8  17    5.74    0.57
  -6   8  17    4.96    0.59
  -6   8  18   13.92    0.86
  -6   8  18   12.28    0.80
  -6   8  19   14.53    0.92
  -6   8  19   16.20    0.96
  -6   8  20   -0.26    0.67
  -6   8  20    0.66    0.57
  -6   8  21    7.30    0.80
  -6   8  21    8.70    0.87
   5  -9  16    3.07    0.66
   5  -9  15    0.06    0.61
   5  -9  15    0.22    0.54
   5  -9  14    5.09    0.66
   5  -9  14    6.89    0.77
   5  -9  13   15.58    1.04
   5  -9  13   12.61    0.95
   5  -9  12    6.38    0.80
   5  -9  12    5.50    0.71
   5  -9  11   -0.29    0.58
   5  -9  11    0.37    0.61
   5  -9  10   43.21    1.98
   5  -9   9    1.20    0.59
   5  -9   8   13.95    0.93
   5  -9   7   -1.12    0.59
   5  -9   6   20.01    1.09
   5  -9   5    1.16    0.52
   5  -9   4   57.28    2.50
   5  -9   3   42.91    1.93
   5  -9   2  143.70    5.89
  -5   9  -1   34.56    1.59
   5  -9   1   39.37    1.76
  -5   9   0    8.93    0.61
   5  -9   0    9.99    0.68
  -5   9   1    4.17    0.50
   5  -9  -1    3.75    0.46
  -5   9   2   26.55    1.21
   5  -9  -2   30.07    1.36
  -5   9   3    1.39    0.35
   5  -9  -3    1.59    0.34
  -5   9   4  197.00    7.94
   5  -9  -4  216.30    8.72
  -5   9   5   81.79    3.35
   5  -9  -5   79.46    3.25
  -5   9   6   84.99    3.46
   5  -9  -6   82.05    3.35
  -5   9   7   31.35    1.33
   5  -9  -7   30.09    1.30
  -5   9   8   21.52    0.95
   5  -9  -8   20.76    0.94
  -5   9   9   15.62    0.74
   5  -9  -9   16.37    0.80
  -5   9  10   57.01    2.37
  -5   9  11    6.51    0.46
  -5   9  12   37.62    1.65
  -5   9  13   27.58    1.27
  -5   9  13   29.62    1.36
  -5   9  14   93.69    3.88
  -5   9  14  100.00    4.12
  -5   9  15    0.77    0.53
  -5   9  15    1.54    0.46
  -5   9  16    0.37    0.49
  -5   9  16    0.45    0.47
  -5   9  17    1.54    0.58
  -5   9  17    1.54    0.55
  -5   9  18   26.00    1.30
  -5   9  18   25.86    1.27
  -5   9  19    5.23    0.69
  -5   9  19    5.72    0.65
  -5   9  20    5.41    0.74
  -5   9  20    5.46    0.74
   4 -10  16    0.48    0.67
   4 -10  16    0.87    0.60
   4 -10  15    2.39    0.66
   4 -10  15    2.20    0.67
   4 -10  14   23.58    1.26
   4 -10  14   22.17    1.19
   4 -10  13   -0.16    0.68
   4 -10  12   17.92    1.04
   4 -10  11    0.82    0.57
   4 -10  10   22.74    1.24
   4 -10   9    0.35    0.70
   4 -10   8   12.21    0.91
   4 -10   7    9.10    0.81
   4 -10   6  125.60    5.21
   4 -10   5   34.31    1.61
  -4  10  -4  136.30    5.61
   4 -10   4  151.80    6.23
  -4  10  -3   13.64    0.90
   4 -10   3   13.64    0.82
  -4  10  -2    1.47    0.51
   4 -10   2    0.97    0.48
  -4  10  -1   20.64    1.08
   4 -10   1   21.48    1.09
  -4  10   0   68.01    2.86
   4 -10   0   70.99    3.00
  -4  10   1    1.18    0.44
   4 -10  -1    1.00    0.41
  -4  10   2   96.92    4.01
   4 -10  -2   97.72    4.03
  -4  10   3   54.73    2.30
   4 -10  -3   54.29    2.30
  -4  10   4    8.41    0.53
   4 -10  -4    8.60    0.54
  -4  10   5    9.55    0.57
   4 -10  -5    9.23    0.56
  -4  10   6    7.29    0.50
   4 -10  -6    6.83    0.48
  -4  10   7   22.29    1.04
   4 -10  -7   22.21    1.03
  -4  10   8   28.40    1.27
   4 -10  -8   25.47    1.15
  -4  10   9    1.32    0.35
   4 -10  -9    1.34    0.39
  -4  10  10    0.25    0.36
   4 -10 -10    0.48    0.40
  -4  10  11   26.73    1.26
  -4  10  12    2.75    0.44
  -4  10  13   14.14    0.81
  -4  10  14   15.25    0.87
  -4  10  15    0.99    0.50
  -4  10  15    0.90    0.48
  -4  10  16   11.56    0.81
  -4  10  16   14.26    0.86
  -4  10  17    7.76    0.72
  -4  10  17    8.15    0.72
  -4  10  18    5.97    0.66
  -4  10  18    5.53    0.71
  -4  10  19    0.57    0.68
  -4  10  19    0.83    0.66
  -4  10  20    2.95    0.79
  -4  10  20    1.92    0.78
   3 -11  16    2.81    0.70
   3 -11  16    2.87    0.67
   3 -11  15   19.76    1.13
   3 -11  14    1.66    0.59
   3 -11  13   35.62    1.70
   3 -11  12   -0.09    0.58
   3 -11  11    9.79    0.79
   3 -11  10   28.18    1.44
   3 -11   9   12.54    0.90
   3 -11   8    6.71    0.81
   3 -11   7   36.31    1.72
  -3  11  -6    7.64    0.81
   3 -11   6    5.90    0.73
  -3  11  -5  174.00    7.13
   3 -11   5  180.30    7.37
  -3  11  -4   99.16    4.15
   3 -11   4  101.70    4.25
  -3  11  -3    0.28    0.57
   3 -11   3    0.22    0.51
  -3  11  -2   48.63    2.13
   3 -11   2   52.01    2.28
  -3  11  -1   72.46    3.07
   3 -11   1   74.48    3.15
  -3  11   0   40.68    1.81
   3 -11   0   39.60    1.79
  -3  11   1  322.40   12.98
   3 -11  -1  326.50   13.15
  -3  11   2    6.42    0.56
   3 -11  -2    6.44    0.57
  -3  11   3   26.98    1.28
   3 -11  -3   25.23    1.18
  -3  11   4   11.31    0.66
   3 -11  -4    9.97    0.62
  -3  11   5   27.58    1.25
   3 -11  -5   25.48    1.19
  -3  11   6    9.19    0.60
   3 -11  -6    8.42    0.57
  -3  11   7   45.14    1.95
   3 -11  -7   50.00    2.15
  -3  11   8    1.79    0.42
   3 -11  -8    2.56    0.42
  -3  11   9   39.42    1.71
   3 -11  -9   42.22    1.86
  -3  11  10    2.33    0.43
   3 -11 -10    2.33    0.46
  -3  11  11   12.21    0.71
   3 -11 -11   10.85    0.73
  -3  11  12    6.15    0.55
  -3  11  13   16.51    0.90
  -3  11  14    0.05    0.49
  -3  11  15   14.83    0.86
  -3  11  16    5.09    0.66
  -3  11  16    5.08    0.61
  -3  11  17    5.12    0.68
  -3  11  17    5.05    0.69
  -3  11  18    0.13    0.70
  -3  11  18    0.58    0.63
  -3  11  19   -0.10    0.70
  -3  11  19   -0.60    0.69
   2 -12  16    1.23    0.73
   2 -12  15    0.01    0.64
   2 -12  14    0.42    0.61
   2 -12  13    3.64    0.71
   2 -12  12    3.64    0.74
   2 -12  11   66.21    2.88
   2 -12  10   12.93    0.96
   2 -12   9    9.54    0.87
  -2  12  -8    1.84    0.65
   2 -12   8    0.74    0.68
  -2  12  -7   11.25    0.85
   2 -12   7   11.78    0.86
  -2  12  -6    3.43    0.66
   2 -12   6    1.95    0.64
  -2  12  -5   16.97    1.06
   2 -12   5   19.28    1.13
  -2  12  -4    4.49    0.70
   2 -12   4    6.15    0.71
  -2  12  -3  147.90    6.08
   2 -12   3  162.30    6.65
  -2  12  -2    3.55    0.57
   2 -12   2    2.11    0.53
  -2  12  -1   64.87    2.77
   2 -12   1   69.95    2.98
  -2  12   0    5.68    0.59
   2 -12   0    4.74    0.55
  -2  12   1   39.56    1.78
   2 -12  -1   42.41    1.89
  -2  12   2    1.03    0.45
   2 -12  -2    1.99    0.46
  -2  12   3  111.10    4.57
   2 -12  -3  110.00    4.53
  -2  12   4    1.36    0.46
   2 -12  -4    1.42    0.42
  -2  12   5   59.78    2.54
   2 -12  -5   58.24    2.48
  -2  12   6    2.64    0.46
   2 -12  -6    3.48    0.49
  -2  12   7    0.47    0.43
   2 -12  -7   -0.81    0.46
  -2  12   8    2.47    0.47
   2 -12  -8    2.97    0.48
  -2  12   9   47.48    2.07
   2 -12  -9   46.81    2.03
  -2  12  10   11.31    0.72
   2 -12 -10   12.29    0.78
  -2  12  11   29.88    1.39
   2 -12 -11   29.55    1.40
  -2  12  12    2.70    0.52
  -2  12  13   12.75    0.80
  -2  12  14   -0.11    0.51
  -2  12  15    6.95    0.68
  -2  12  16    2.83    0.63
  -2  12  17    7.05    0.72
  -2  12  17    6.16    0.77
  -2  12  18   -0.13    0.76
  -2  12  18    1.85    0.72
   1 -13  16    6.42    0.77
   1 -13  15    1.73    0.64
   1 -13  14    1.98    0.69
   1 -13  13    7.73    0.72
   1 -13  12   19.09    1.11
   1 -13  11    0.34    0.60
  -1  13 -10   11.32    0.88
   1 -13  10   11.77    0.88
  -1  13  -9   14.14    0.95
   1 -13   9   13.58    0.94
  -1  13  -8    2.94    0.67
   1 -13   8    4.29    0.74
  -1  13  -7   15.44    1.03
   1 -13   7   16.17    1.02
  -1  13  -6   -0.40    0.60
   1 -13   6    0.22    0.65
  -1  13  -5   28.22    1.45
   1 -13   5   30.43    1.53
  -1  13  -4   46.63    2.11
   1 -13   4   41.89    1.96
  -1  13  -3   22.59    1.21
   1 -13   3   23.23    1.24
  -1  13  -2   13.05    0.86
   1 -13   2   13.05    0.88
  -1  13  -1   37.98    1.75
   1 -13   1   37.98    1.77
  -1  13   0   12.33    0.82
   1 -13   0   11.32    0.81
  -1  13   1   24.90    1.24
   1 -13  -1   23.74    1.17
  -1  13   2    0.88    0.47
   1 -13  -2    1.45    0.48
  -1  13   3   16.56    0.90
   1 -13  -3   17.13    0.94
  -1  13   4   15.92    0.89
   1 -13  -4   15.16    0.87
  -1  13   5    0.03    0.46
   1 -13  -5    1.00    0.45
  -1  13   6   30.66    1.42
   1 -13  -6   30.90    1.45
  -1  13   7   42.18    1.88
   1 -13  -7   42.11    1.88
  -1  13   8    8.12    0.63
   1 -13  -8    8.78    0.67
  -1  13   9    3.46    0.49
   1 -13  -9    2.38    0.56
  -1  13  10    7.93    0.62
   1 -13 -10    8.16    0.66
  -1  13  11    9.46    0.71
   1 -13 -11    8.98    0.71
  -1  13  12   11.20    0.75
   1 -13 -12   11.97    0.82
  -1  13  13   13.40    0.84
  -1  13  14    1.02    0.58
  -1  13  15    4.88    0.68
  -1  13  16    1.45    0.64
  -1  13  17    0.60    0.67
  -1  13  17    0.05    0.72
   0 -14  15    0.18    0.60
   0 -14  14   32.11    1.56
   0 -14  13    2.17    0.68
   0 -14  12    5.53    0.68
   0  14 -11   -0.66    0.64
   0 -14  11    1.38    0.63
   0  14 -10   25.31    1.34
   0 -14  10   28.24    1.45
   0  14  -9   -0.03    0.60
   0 -14   9    0.98    0.69
   0  14  -8   61.97    2.72
   0 -14   8   61.24    2.69
   0  14  -7    0.52    0.65
   0 -14   7   -0.44    0.68
   0  14  -6   65.51    2.84
   0 -14   6   47.06    2.16
   0  14  -5    3.79    0.70
   0 -14   5    3.93    0.75
   0  14  -4    0.31    0.57
   0 -14   4    0.79    0.58
   0  14  -3    0.47    0.56
   0 -14   3    1.41    0.63
   0  14  -2   73.51    3.18
   0 -14   2   67.85    2.93
   0  14  -1    0.48    0.52
   0 -14   1    1.89    0.62
   0  14   0   22.97    1.15
   0 -14   0   22.50    1.16
   0  14   1    1.43    0.52
   0 -14  -1    1.55    0.51
   0  14   2   67.45    2.89
   0 -14  -2   64.72    2.77
   0  14   3    1.14    0.46
   0 -14  -3    1.24    0.46
   0  14   4    0.41    0.46
   0 -14  -4    0.14    0.47
   0  14   5    4.88    0.57
   0 -14  -5    3.93    0.53
   0  14   6   60.13    2.58
   0 -14  -6   64.97    2.78
   0  14   7    0.48    0.50
   0 -14  -7    0.26    0.53
   0  14   8   66.36    2.83
   0 -14  -8   61.83    2.65
   0  14   9    0.49    0.46
   0 -14  -9    1.33    0.51
   0  14  10   26.93    1.31
   0 -14 -10   25.31    1.26
   0  14  11    1.45    0.52
   0 -14 -11    0.29    0.49
   0  14  12    5.67    0.62
   0 -14 -12    4.33    0.68
   0  14  13    1.96    0.60
   0  14  14   27.06    1.37
   0  14  15   -0.37    0.63
  -1 -15  15    7.69    0.75
  -1 -15  14    0.10    0.68
   1  15 -13    5.09    0.64
  -1 -15  13    2.70    0.65
   1  15 -12    3.73    0.61
  -1 -15  12    4.43    0.69
   1  15 -11    0.82    0.63
  -1 -15  11    0.40    0.58
   1  15 -10   10.88    0.89
  -1 -15  10   10.48    0.88
   1  15  -9   33.60    1.63
  -1 -15   9   35.33    1.69
   1  15  -8    4.00    0.70
  -1 -15   8    2.93    0.75
   1  15  -7    4.92    0.70
  -1 -15   7    5.57    0.70
   1  15  -6   23.99    1.29
  -1 -15   6   27.03    1.43
   1  15  -5    7.00    0.70
  -1 -15   5    6.26    0.72
   1  15  -4   23.10    1.23
  -1 -15   4   24.69    1.31
   1  15  -3    4.32    0.62
  -1 -15   3    4.66    0.70
   1  15  -2   13.41    0.88
  -1 -15   2   16.20    1.00
   1  15  -1   56.79    2.48
  -1 -15   1   54.41    2.40
   1  15   0    3.45    0.53
  -1 -15   0    3.79    0.58
   1  15   1   34.12    1.59
  -1 -15  -1   33.21    1.58
   1  15   2   26.61    1.31
  -1 -15  -2   26.15    1.30
   1  15   3    0.33    0.50
  -1 -15  -3    0.25    0.53
   1  15   4   37.30    1.69
  -1 -15  -4   39.03    1.78
   1  15   5   18.76    1.01
  -1 -15  -5   16.78    0.96
   1  15   6   20.22    1.06
  -1 -15  -6   20.98    1.10
   1  15   7   13.05    0.83
  -1 -15  -7   12.78    0.88
   1  15   8    1.59    0.54
  -1 -15  -8    1.59    0.56
   1  15   9   19.73    1.04
  -1 -15  -9   21.15    1.13
   1  15  10   29.92    1.43
  -1 -15 -10   30.42    1.47
   1  15  11    1.38    0.55
  -1 -15 -11    1.55    0.60
   1  15  12   15.23    0.96
  -1 -15 -12   13.37    0.95
   1  15  13    4.87    0.68
  -1 -15 -13    5.59    0.74
   1  15  14    0.56    0.66
  -2 -16  15   -0.21    0.62
   2  16 -14    0.46    0.55
  -2 -16  14   -0.02    0.64
   2  16 -13    0.71    0.62
  -2 -16  13    1.73    0.71
   2  16 -12    0.63    0.65
  -2 -16  12    1.42    0.66
   2  16 -11   38.58    1.79
  -2 -16  11   44.15    2.03
   2  16 -10    3.19    0.62
  -2 -16  10    2.40    0.71
   2  16  -9   15.51    0.99
  -2 -16   9   11.41    0.89
   2  16  -8    3.52    0.65
  -2 -16   8    3.31    0.68
   2  16  -7    6.56    0.72
  -2 -16   7    5.69    0.73
   2  16  -6    2.31    0.60
  -2 -16   6    2.17    0.63
   2  16  -5   23.03    1.22
  -2 -16   5   22.55    1.22
   2  16  -4    1.25    0.58
  -2 -16   4    1.60    0.62
   2  16  -3    6.95    0.71
  -2 -16   3    6.66    0.72
   2  16  -2   38.28    1.77
  -2 -16   2   40.23    1.87
   2  16  -1   13.96    0.89
  -2 -16   1   13.64    0.88
   2  16   0   22.94    1.18
  -2 -16   0   24.84    1.29
   2  16   1   19.16    1.04
  -2 -16  -1   18.09    1.00
   2  16   2    1.49    0.50
  -2 -16  -2    1.70    0.54
   2  16   3   25.37    1.28
  -2 -16  -3   24.75    1.25
   2  16   4    0.14    0.51
  -2 -16  -4    1.50    0.55
   2  16   5   13.75    0.85
  -2 -16  -5   14.98    0.88
   2  16   6    0.52    0.52
  -2 -16  -6    0.52    0.52
   2  16   7    2.35    0.55
  -2 -16  -7    2.40    0.60
   2  16   8    6.67    0.68
  -2 -16  -8    7.02    0.70
   2  16   9   44.80    2.01
  -2 -16  -9   44.08    2.00
   2  16  10    0.13    0.59
  -2 -16 -10    0.18    0.59
   2  16  11   35.59    1.65
  -2 -16 -11   35.41    1.69
   2  16  12   -0.34    0.63
  -2 -16 -12   -0.33    0.60
   2  16  13    1.75    0.72
  -2 -16 -13    1.15    0.61
   3  17 -14   -0.02    0.56
  -3 -17  14    0.63    0.66
   3  17 -13   11.08    0.85
  -3 -17  13   12.43    0.87
   3  17 -12    5.80    0.68
  -3 -17  12    5.12    0.75
   3  17 -11    0.71    0.65
  -3 -17  11    1.92    0.72
   3  17 -10    6.71    0.74
  -3 -17  10    4.77    0.75
   3  17  -9   16.72    1.03
  -3 -17   9   14.36    0.95
   3  17  -8    0.86    0.65
  -3 -17   8    0.21    0.65
   3  17  -7   12.38    0.90
  -3 -17   7   12.50    0.87
   3  17  -6    8.73    0.75
  -3 -17   6    7.29    0.75
   3  17  -5    3.42    0.62
  -3 -17   5    2.79    0.64
   3  17  -4    8.00    0.73
  -3 -17   4    8.02    0.78
   3  17  -3    9.30    0.75
  -3 -17   3    9.85    0.79
   3  17  -2   20.95    1.12
  -3 -17   2   21.56    1.17
   3  17  -1   59.25    2.57
  -3 -17   1   61.03    2.65
   3  17   0   -0.46    0.54
  -3 -17   0   -0.19    0.55
   3  17   1    3.78    0.57
  -3 -17  -1    3.96    0.63
   3  17   2    3.79    0.57
  -3 -17  -2    4.41    0.62
   3  17   3    7.50    0.68
  -3 -17  -3    7.94    0.72
   3  17   4    5.79    0.64
  -3 -17  -4    3.94    0.58
   3  17   5    3.36    0.56
  -3 -17  -5    2.40    0.57
   3  17   6    4.85    0.63
  -3 -17  -6    5.08    0.68
   3  17   7   37.49    1.72
  -3 -17  -7   40.76    1.86
   3  17   8    1.23    0.57
  -3 -17  -8    1.74    0.58
   3  17   9    0.17    0.55
  -3 -17  -9   -0.16    0.53
   3  17  10    6.29    0.76
  -3 -17 -10    5.04    0.70
   3  17  11    4.22    0.74
  -3 -17 -11    4.57    0.66
   4  18 -13    0.46    0.62
  -4 -18  13    0.53    0.69
   4  18 -12    0.56    0.61
  -4 -18  12   -0.03    0.70
   4  18 -11    3.61    0.67
  -4 -18  11    3.97    0.71
   4  18 -10    7.98    0.72
  -4 -18  10    8.06    0.73
   4  18  -9    0.89    0.62
  -4 -18   9    1.87    0.60
   4  18  -8   11.74    0.86
  -4 -18   8   13.63    0.96
   4  18  -7   -0.07    0.59
  -4 -18   7    0.44    0.61
   4  18  -6    9.27    0.77
  -4 -18   6   12.59    0.90
   4  18  -5    4.81    0.68
  -4 -18   5    4.53    0.65
   4  18  -4    7.35    0.71
  -4 -18   4    7.78    0.73
   4  18  -3    0.22    0.53
  -4 -18   3    0.10    0.60
   4  18  -2   21.49    1.16
  -4 -18   2   23.66    1.25
   4  18  -1    2.44    0.57
  -4 -18   1    2.84    0.60
   4  18   0   10.34    0.74
  -4 -18   0    9.69    0.76
   4  18   1    3.03    0.53
  -4 -18  -1    1.75    0.56
   4  18   2   -0.40    0.50
  -4 -18  -2   -0.15    0.54
   4  18   3    0.14    0.57
  -4 -18  -3   -0.47    0.54
   4  18   4    8.36    0.68
  -4 -18  -4    8.44    0.76
   4  18   5    0.81    0.54
  -4 -18  -5   -0.10    0.60
   4  18   6   35.51    1.66
  -4 -18  -6   31.14    1.54
   4  18   7    2.73    0.57
  -4 -18  -7    2.60    0.62
   4  18   8    2.42    0.68
  -4 -18  -8    2.74    0.60
   4  18   9    2.32    0.68
  -4 -18  -9    2.10    0.66
   5  19 -11    1.13    0.55
  -5 -19  11   -0.21    0.52
   5  19 -10    2.77    0.63
  -5 -19  10    2.35    0.66
   5  19  -9    0.58    0.61
  -5 -19   9    0.96    0.63
   5  19  -8   -1.25    0.62
  -5 -19   8   -0.28    0.55
   5  19  -7    1.31    0.54
  -5 -19   7    1.09    0.58
   5  19  -6    5.55    0.61
  -5 -19   6    4.90    0.64
   5  19  -5    3.31    0.62
  -5 -19   5    1.47    0.58
   5  19  -4   16.33    0.98
  -5 -19   4   16.91    1.04
   5  19  -3    0.21    0.57
  -5 -19   3   -0.41    0.55
   5  19  -2    1.39    0.56
  -5 -19   2    1.58    0.59
   5  19  -1    4.10    0.65
  -5 -19   1    4.39    0.58
   5  19   0    2.94    0.59
  -5 -19   0    4.04    0.58
   5  19   1    2.13    0.55
  -5 -19  -1    1.51    0.57
   5  19   2   13.38    0.88
  -5 -19  -2   13.77    0.87
   5  19   3    1.69    0.56
  -5 -19  -3    2.26    0.58
   5  19   4   11.02    0.83
  -5 -19  -4   11.50    0.77
   5  19   5    3.07    0.62
  -5 -19  -5    4.14    0.63
   5  19   6    1.90    0.60
  -5 -19  -6    3.26    0.67
   5  19   7    0.26    0.66
  -5 -19  -7    1.68    0.65
   6  20  -9   -0.35    0.55
  -6 -20   9   -0.34    0.55
   6  20  -8    2.08    0.62
  -6 -20   8    3.04    0.60
   6  20  -7    2.41    0.60
  -6 -20   7    2.78    0.58
   6  20  -6    0.07    0.53
  -6 -20   6   -0.36    0.60
   6  20  -5    9.46    0.80
  -6 -20   5   10.36    0.79
   6  20  -4    1.68    0.58
  -6 -20   4    0.92    0.59
   6  20  -3    6.85    0.68
  -6 -20   3    7.25    0.68
   6  20  -2   -0.67    0.59
  -6 -20   2    0.22    0.56
   6  20  -1    2.18    0.57
  -6 -20   1    1.71    0.56
   6  20   0    8.35    0.74
  -6 -20   0    8.80    0.76
   6  20   1    7.59    0.72
  -6 -20  -1    6.04    0.65
   6  20   2    0.74    0.53
  -6 -20  -2    0.20    0.51
   6  20   3    5.65    0.63
  -6 -20  -3    6.03    0.67
   6  20   4    4.03    0.77
  -6 -20  -4    4.99    0.73
   7  21  -5    0.55    0.64
  -7 -21   5    1.74    0.63
   7  21  -4    1.29    0.62
  -7 -21   4    2.35    0.60
   7  21  -3    2.21    0.57
  -7 -21   3    2.78    0.62
   7  21  -2    0.43    0.62
  -7 -21   2    0.09    0.57
 -23  -7   7   17.36    0.98
  23   7  -7   15.87    1.07
 -23  -7   8    0.18    0.50
  23   7  -8    0.05    0.72
 -23  -7   9    2.37    0.57
  23   7  -9    2.00    0.72
 -23  -7  10    2.00    0.64
  23   7 -10    1.71    0.69
 -23  -7  11    0.85    0.54
  23   7 -11    1.34    0.67
 -23  -7  12    0.77    0.57
  23   7 -12    0.19    0.65
 -23  -7  13    8.94    0.66
  23   7 -13    7.37    0.75
 -23  -7  14    2.25    0.57
  23   7 -14    2.28    0.64
 -23  -7  15    6.14    0.67
  23   7 -15    5.35    0.74
 -22  -6   3   18.08    0.98
  22   6  -3   16.70    1.01
 -22  -6   4    3.84    0.53
  22   6  -4    4.72    0.75
 -22  -6   5    4.80    0.62
  22   6  -5    5.40    0.78
 -22  -6   6   10.37    0.76
  22   6  -6   12.39    0.93
 -22  -6   7    2.83    0.59
  22   6  -7    2.54    0.64
 -22  -6   8    5.30    0.63
  22   6  -8    3.85    0.74
 -22  -6   9   17.53    1.03
  22   6  -9   14.16    0.96
 -22  -6  10    0.15    0.56
  22   6 -10    0.48    0.65
 -22  -6  11   20.54    1.08
  22   6 -11   24.47    1.34
 -22  -6  12    0.84    0.54
  22   6 -12    0.68    0.62
 -22  -6  13    0.87    0.46
  22   6 -13    0.75    0.61
 -22  -6  14   12.27    0.83
  22   6 -14   12.76    0.88
 -22  -6  15    1.40    0.57
  22   6 -15    0.75    0.64
 -22  -6  16    0.45    0.51
  22   6 -16   -0.03    0.64
 -22  -6  17    4.34    0.61
  22   6 -17    3.19    0.66
 -22  -6  18   -0.91    0.56
  22   6 -18   -0.90    0.63
 -21  -5   1   -0.09    0.46
  21   5  -1    0.26    0.61
 -21  -5   2   12.13    0.82
  21   5  -2   13.70    0.92
 -21  -5   3   -0.20    0.52
  21   5  -3   -0.22    0.64
 -21  -5   4   12.45    0.84
  21   5  -4   12.77    0.92
 -21  -5   5    4.76    0.63
  21   5  -5    8.09    0.86
 -21  -5   6   -0.14    0.50
  21   5  -6   -0.56    0.66
 -21  -5   7    0.91    0.60
  21   5  -7    0.41    0.62
 -21  -5   8   34.39    1.61
  21   5  -8   35.08    1.68
 -21  -5   9    1.30    0.56
  21   5  -9    1.71    0.67
 -21  -5  10   71.67    3.03
  21   5 -10   69.48    3.00
 -21  -5  11   -0.29    0.56
  21   5 -11    0.86    0.67
 -21  -5  12    4.04    0.56
  21   5 -12    6.62    0.72
 -21  -5  13    3.49    0.55
  21   5 -13    4.56    0.67
 -21  -5  14    3.38    0.54
  21   5 -14    2.58    0.62
 -21  -5  15    0.06    0.47
  21   5 -15   -0.29    0.58
 -21  -5  16    7.42    0.65
  21   5 -16    5.73    0.69
 -21  -5  17    0.50    0.55
  21   5 -17   -0.55    0.60
 -21  -5  18   17.13    0.99
  21   5 -18   17.56    1.04
 -21  -5  19    0.11    0.60
  21   5 -19    0.34    0.59
 -21  -5  20    2.04    0.63
  21   5 -20    2.91    0.74
 -20  -4  -2   10.02    0.79
 -20  -4  -1    1.66    0.61
  20   4   1    2.59    0.68
 -20  -4   0   18.02    1.02
  20   4   0   16.40    1.04
 -20  -4   1    2.73    0.53
  20   4  -1    1.86    0.68
 -20  -4   2    0.96    0.61
  20   4  -2    0.76    0.64
 -20  -4   3   27.55    1.34
  20   4  -3   29.62    1.47
 -20  -4   4    2.85    0.57
  20   4  -4    3.34    0.69
 -20  -4   5    1.01    0.58
  20   4  -5    1.15    0.66
 -20  -4   6   50.11    2.23
  20   4  -6   41.12    1.91
 -20  -4   7    2.59    0.59
  20   4  -7    4.09    0.71
 -20  -4   8    3.58    0.56
  20   4  -8    3.26    0.61
 -20  -4   9   39.14    1.77
  20   4  -9   39.59    1.84
 -20  -4  10    7.82    0.69
  20   4 -10    6.54    0.77
 -20  -4  11   11.40    0.77
  20   4 -11   13.03    0.92
 -20  -4  12   35.18    1.60
  20   4 -12   35.00    1.65
 -20  -4  13    0.12    0.53
  20   4 -13    0.50    0.55
 -20  -4  14    9.82    0.75
  20   4 -14   11.64    0.81
 -20  -4  15    2.21    0.51
  20   4 -15    0.10    0.54
 -20  -4  16    0.64    0.54
  20   4 -16    1.24    0.58
 -20  -4  17    9.78    0.74
  20   4 -17   10.54    0.82
 -20  -4  18    2.73    0.58
  20   4 -18    2.89    0.62
 -20  -4  19    0.27    0.54
  20   4 -19   -0.25    0.65
 -20  -4  20   11.33    0.81
  20   4 -20   11.96    0.88
 -20  -4  21    0.29    0.62
  20   4 -21    1.28    0.71
  19   3   3   12.45    0.89
  19   3   2    1.79    0.68
 -19  -3  -1    8.47    0.77
  19   3   1    8.32    0.74
 -19  -3   0   14.90    0.93
  19   3   0   16.29    1.02
 -19  -3   1   -0.66    0.50
  19   3  -1   -0.06    0.63
 -19  -3   2    2.35    0.64
  19   3  -2    1.19    0.60
 -19  -3   3    1.67    0.58
  19   3  -3    3.17    0.66
 -19  -3   4    0.16    0.50
  19   3  -4    1.00    0.56
 -19  -3   5   54.57    2.41
  19   3  -5   55.60    2.44
 -19  -3   6    0.55    0.58
  19   3  -6    1.88    0.63
 -19  -3   7   22.95    1.19
  19   3  -7   24.70    1.31
 -19  -3   8   12.40    0.81
  19   3  -8   12.97    0.90
 -19  -3   9    1.93    0.51
  19   3  -9    1.02    0.58
 -19  -3  10    4.42    0.58
  19   3 -10    3.69    0.65
 -19  -3  11   72.90    3.09
  19   3 -11   85.53    3.66
 -19  -3  12    0.42    0.49
  19   3 -12   -0.23    0.55
 -19  -3  13   29.14    1.39
  19   3 -13   27.11    1.33
 -19  -3  14    7.31    0.65
  19   3 -14    6.11    0.65
 -19  -3  15   20.49    1.08
  19   3 -15   20.44    1.08
 -19  -3  16    6.73    0.63
  19   3 -16    6.94    0.66
 -19  -3  17    3.27    0.57
  19   3 -17    4.14    0.62
 -19  -3  18    1.67    0.54
  19   3 -18    2.47    0.61
 -19  -3  19   11.81    0.77
  19   3 -19    9.71    0.81
 -19  -3  20    2.25    0.52
  19   3 -20    1.78    0.67
 -19  -3  21    2.25    0.58
  19   3 -21    2.64    0.66
 -19  -3  22    1.82    0.70
  19   3 -22    1.69    0.72
  18   2   5   13.48    0.94
  18   2   4    0.88    0.62
  18   2   3    0.06    0.58
  18   2   2    1.30    0.60
 -18  -2  -1    2.61    0.56
  18   2   1    2.91    0.63
 -18  -2   0    1.24    0.66
  18   2   0    1.36    0.66
 -18  -2   1   16.32    1.01
  18   2  -1   17.17    1.07
 -18  -2   2    4.84    0.65
  18   2  -2    4.33    0.71
 -18  -2   3    3.30    0.57
  18   2  -3    2.37    0.65
 -18  -2   4    2.13    0.55
  18   2  -4    2.13    0.62
 -18  -2   5    2.37    0.52
  18   2  -5    2.47    0.60
 -18  -2   6   -0.08    0.53
  18   2  -6    0.10    0.60
 -18  -2   7   37.94    1.77
  18   2  -7   34.56    1.67
 -18  -2   8    6.24    0.66
  18   2  -8    6.32    0.71
 -18  -2   9   38.24    1.74
  18   2  -9   32.07    1.54
 -18  -2  10    4.39    0.54
  18   2 -10    4.39    0.67
 -18  -2  11    6.36    0.56
  18   2 -11    6.76    0.67
 -18  -2  12    1.33    0.45
  18   2 -12    1.34    0.52
 -18  -2  13   20.00    1.06
  18   2 -13   16.82    0.94
 -18  -2  14    2.77    0.49
  18   2 -14    1.96    0.50
 -18  -2  15   27.72    1.31
  18   2 -15   30.87    1.44
 -18  -2  16    0.26    0.47
  18   2 -16    0.49    0.50
 -18  -2  17   71.50    3.02
  18   2 -17   74.02    3.13
 -18  -2  18    0.16    0.47
  18   2 -18   -0.24    0.55
 -18  -2  19    0.53    0.53
  18   2 -19   -0.01    0.61
 -18  -2  20    2.85    0.60
  18   2 -20    3.37    0.72
 -18  -2  21    1.84    0.63
  18   2 -21    1.42    0.64
 -18  -2  22    1.69    0.65
  17   1   6   14.43    0.94
  17   1   5    1.83    0.67
  17   1   4    4.67    0.68
  17   1   3   18.79    1.07
  17   1   2    0.73    0.62
 -17  -1  -1   14.13    0.89
  17   1   1   14.13    0.96
 -17  -1   0   12.20    0.92
  17   1   0   10.16    0.85
 -17  -1   1   -0.41    0.61
  17   1  -1   -0.32    0.60
 -17  -1   2    9.57    0.82
  17   1  -2    9.00    0.81
 -17  -1   3   10.12    0.75
  17   1  -3   10.11    0.86
 -17  -1   4    0.29    0.53
  17   1  -4   -0.04    0.60
 -17  -1   5    6.65    0.66
  17   1  -5    8.52    0.80
 -17  -1   6   30.65    1.46
  17   1  -6   28.41    1.41
 -17  -1   7    0.88    0.57
  17   1  -7    0.30    0.54
 -17  -1   8    3.73    0.59
  17   1  -8    3.68    0.67
 -17  -1   9    0.79    0.53
  17   1  -9    1.80    0.58
 -17  -1  10   21.39    1.08
  17   1 -10   22.45    1.20
 -17  -1  11   18.36    0.95
  17   1 -11   18.63    1.02
 -17  -1  12    7.15    0.60
  17   1 -12    6.19    0.64
 -17  -1  13   15.75    0.92
  17   1 -13   16.33    0.94
 -17  -1  14   55.83    2.41
  17   1 -14   56.89    2.45
 -17  -1  15    7.45    0.56
  17   1 -15    8.33    0.67
 -17  -1  16   52.26    2.25
  17   1 -16   57.33    2.45
 -17  -1  17    8.78    0.64
  17   1 -17    9.77    0.72
 -17  -1  18    4.45    0.58
  17   1 -18    4.50    0.63
 -17  -1  19    8.43    0.65
  17   1 -19    8.20    0.71
 -17  -1  20    0.46    0.51
  17   1 -20    1.19    0.65
 -17  -1  21    8.03    0.70
 -17  -1  22   13.24    0.86
 -17  -1  23    2.65    0.73
  16   0   8    1.34    0.65
  16   0   7   -0.53    0.62
  16   0   6    3.26    0.65
  16   0   5    0.40    0.67
  16   0   4   30.87    1.53
  16   0   3   -0.08    0.60
  16   0   2   68.67    2.97
  16   0   1   -0.60    0.60
 -16   0   0   19.79    1.18
  16   0   0   17.35    1.06
 -16   0   1   -0.70    0.56
  16   0  -1   -0.30    0.58
 -16   0   2   14.43    0.95
  16   0  -2   17.18    1.06
 -16   0   3    1.27    0.60
  16   0  -3    0.17    0.59
 -16   0   4   18.01    1.01
  16   0  -4   15.86    0.98
 -16   0   5   -0.27    0.45
  16   0  -5    0.01    0.56
 -16   0   6   21.13    1.10
  16   0  -6   19.94    1.09
 -16   0   7   -0.58    0.51
  16   0  -7   -1.10    0.54
 -16   0   8    2.49    0.56
  16   0  -8    2.34    0.55
 -16   0   9   -0.29    0.47
  16   0  -9   -0.29    0.51
 -16   0  10   10.00    0.68
  16   0 -10    4.32    0.61
 -16   0  11   -0.05    0.43
  16   0 -11   -0.15    0.45
 -16   0  12   45.88    1.99
  16   0 -12   48.83    2.12
 -16   0  13    0.32    0.41
  16   0 -13    0.48    0.46
 -16   0  14   53.56    2.32
  16   0 -14   55.02    2.37
 -16   0  15    0.03    0.39
  16   0 -15    0.13    0.43
 -16   0  16   45.22    1.96
  16   0 -16   42.00    1.86
 -16   0  17    0.44    0.45
  16   0 -17    0.53    0.49
 -16   0  18    8.34    0.63
  16   0 -18    7.93    0.68
 -16   0  19    0.43    0.48
 -16   0  20   44.65    1.96
 -16   0  21   -0.23    0.57
 -16   0  22    0.29    0.62
 -16   0  23    0.81    0.69
  15  -1   9    1.45    0.60
  15  -1   9    1.33    0.57
  15  -1   8   13.33    0.90
  15  -1   7    1.23    0.62
  15  -1   6   14.44    0.93
  15  -1   5    1.60    0.64
  15  -1   4    8.74    0.82
  15  -1   3   66.23    2.86
  15  -1   2    2.53    0.67
  15  -1   1    2.69    0.68
 -15   1   0   49.33    2.30
  15  -1   0   43.04    2.00
 -15   1   1    4.23    0.75
  15  -1  -1    4.18    0.68
 -15   1   2   37.29    1.77
  15  -1  -2   34.78    1.67
 -15   1   3   23.73    1.23
  15  -1  -3   23.58    1.24
 -15   1   4    5.89    0.61
  15  -1  -4    4.65    0.65
 -15   1   5    9.92    0.73
  15  -1  -5   11.63    0.85
 -15   1   6    0.76    0.43
  15  -1  -6    1.48    0.51
 -15   1   7   11.14    0.72
  15  -1  -7   10.54    0.76
 -15   1   8   24.61    1.20
  15  -1  -8   24.97    1.25
 -15   1   9    6.90    0.62
  15  -1  -9    8.34    0.65
 -15   1  10   16.50    0.93
  15  -1 -10   14.52    0.84
 -15   1  11   18.96    0.95
  15  -1 -11   18.11    0.93
 -15   1  12    0.59    0.35
  15  -1 -12    0.20    0.40
 -15   1  13   48.46    2.06
  15  -1 -13   46.38    2.00
 -15   1  14   32.77    1.46
  15  -1 -14   31.18    1.41
 -15   1  15    1.89    0.45
  15  -1 -15    2.26    0.50
 -15   1  16   15.87    0.83
  15  -1 -16   15.00    0.84
 -15   1  17    8.75    0.63
  15  -1 -17    9.64    0.66
 -15   1  18    6.92    0.56
 -15   1  19   20.28    1.02
 -15   1  20   20.25    1.04
 -15   1  21    0.88    0.61
 -15   1  22   22.52    1.20
 -15   1  22   24.56    1.30
 -15   1  23    1.42    0.67
 -15   1  23    2.50    0.76
  14  -2   9    1.69    0.65
  14  -2   9    2.23    0.53
  14  -2   8    1.93    0.55
  14  -2   8    1.72    0.64
  14  -2   7   41.58    1.90
  14  -2   6    1.08    0.60
  14  -2   5   70.25    3.04
  14  -2   4    1.09    0.60
  14  -2   3    0.69    0.66
  14  -2   2    0.26    0.54
  14  -2   1   64.84    2.82
  14  -2   0    6.65    0.73
  14  -2  -1   80.83    3.44
 -14   2   2   25.27    1.29
  14  -2  -2   25.58    1.32
 -14   2   3   18.96    1.03
  14  -2  -3   15.60    0.95
 -14   2   4    1.00    0.44
  14  -2  -4   -0.04    0.51
 -14   2   5    3.38    0.48
  14  -2  -5    1.87    0.48
 -14   2   6   26.27    1.24
  14  -2  -6   25.95    1.24
 -14   2   7   28.68    1.31
  14  -2  -7   30.49    1.40
 -14   2   8    0.76    0.36
  14  -2  -8    0.08    0.38
 -14   2   9   85.00    3.50
  14  -2  -9  117.30    4.80
 -14   2  10   11.64    0.66
  14  -2 -10   14.77    0.77
 -14   2  11   12.03    0.66
  14  -2 -11   12.90    0.70
 -14   2  12   33.70    1.47
  14  -2 -12   35.56    1.56
 -14   2  13  115.70    4.71
  14  -2 -13  116.70    4.77
 -14   2  14   -0.04    0.33
  14  -2 -14   -0.24    0.40
 -14   2  15   43.18    1.86
  14  -2 -15   42.48    1.83
 -14   2  16    0.35    0.36
 -14   2  17    6.36    0.53
 -14   2  18    4.84    0.49
 -14   2  19   18.18    0.94
 -14   2  20    2.70    0.53
 -14   2  20    2.35    0.57
 -14   2  21   42.38    1.90
 -14   2  21   40.77    1.85
 -14   2  22    1.41    0.65
 -14   2  22    0.78    0.67
 -14   2  23    8.21    0.85
 -14   2  23    8.26    0.83
  13  -3  11   10.84    0.86
  13  -3  11    9.32    0.74
  13  -3  10   -0.44    0.61
  13  -3  10   -0.46    0.49
  13  -3   9    6.53    0.75
  13  -3   9    6.52    0.68
  13  -3   8    9.95    0.85
  13  -3   8   10.28    0.81
  13  -3   7    0.44    0.64
  13  -3   7    0.28    0.56
  13  -3   6    4.28    0.73
  13  -3   5   56.81    2.51
  13  -3   4   21.87    1.20
  13  -3   3   64.64    2.82
  13  -3   2   22.62    1.28
  13  -3   1   14.53    0.93
  13  -3   0   41.62    1.91
  13  -3  -1   19.94    1.11
  13  -3  -2   42.76    1.93
 -13   3   3  104.70    4.33
  13  -3  -3  107.10    4.44
 -13   3   4    4.75    0.56
  13  -3  -4    4.98    0.51
 -13   3   5  167.10    6.77
  13  -3  -5  158.50    6.46
 -13   3   6    5.65    0.47
  13  -3  -6    6.10    0.51
 -13   3   7    8.87    0.56
  13  -3  -7    8.67    0.58
 -13   3   8   34.50    1.49
  13  -3  -8   36.85    1.60
 -13   3   9   60.37    2.50
  13  -3  -9   62.52    2.60
 -13   3  10   -0.10    0.29
  13  -3 -10    0.31    0.31
 -13   3  11  106.50    4.35
  13  -3 -11   97.10    3.96
 -13   3  12    0.26    0.27
  13  -3 -12    0.44    0.30
 -13   3  13    9.88    0.54
  13  -3 -13    8.72    0.50
 -13   3  14    1.26    0.29
 -13   3  15   -0.05    0.35
 -13   3  16   13.15    0.69
 -13   3  17   65.94    2.75
 -13   3  17   68.67    2.87
 -13   3  18    1.43    0.42
 -13   3  18    1.34    0.44
 -13   3  19    3.13    0.44
 -13   3  19    2.52    0.48
 -13   3  20    8.61    0.66
 -13   3  20    9.28    0.70
 -13   3  21   -0.14    0.59
 -13   3  21    1.20    0.59
 -13   3  22    0.17    0.64
 -13   3  22    0.57    0.63
 -13   3  23    5.06    0.79
 -13   3  23    4.52    0.72
  12  -4  11    0.48    0.64
  12  -4  11    0.00    0.52
  12  -4  10   11.73    0.89
  12  -4  10   10.30    0.77
  12  -4   9    4.31    0.68
  12  -4   9    3.98    0.69
  12  -4   8    0.04    0.58
  12  -4   8    0.63    0.58
  12  -4   7   31.30    1.54
  12  -4   7   32.93    1.56
  12  -4   6   12.06    0.91
  12  -4   6   10.49    0.80
  12  -4   5    7.15    0.70
  12  -4   5    6.45    0.76
  12  -4   4   61.48    2.70
  12  -4   3    9.15    0.82
  12  -4   2   34.44    1.68
  12  -4   1    1.50    0.64
  12  -4   0    1.10    0.64
  12  -4  -1   47.41    2.11
  12  -4  -2   59.30    2.55
  12  -4  -3   27.93    1.32
  12  -4  -4  278.60   11.24
  12  -4  -5   13.97    0.77
  12  -4  -6   41.02    1.77
 -12   4   7   20.53    0.93
  12  -4  -7   22.80    1.05
 -12   4   8   37.41    1.57
  12  -4  -8   26.68    1.16
 -12   4   9   27.72    1.17
  12  -4  -9   27.94    1.19
 -12   4  10  165.70    6.76
  12  -4 -10  171.90    6.98
 -12   4  11   14.87    0.65
 -12   4  13    2.02    0.21
 -12   4  13    1.56    0.22
 -12   4  14   34.97    1.48
 -12   4  14   36.21    1.51
 -12   4  15    2.30    0.32
 -12   4  15    1.67    0.29
 -12   4  16   49.57    2.07
 -12   4  16   54.86    2.29
 -12   4  17    0.03    0.35
 -12   4  17    0.11    0.39
 -12   4  18    9.70    0.62
 -12   4  18   11.77    0.69
 -12   4  19    1.00    0.46
 -12   4  19    0.33    0.44
 -12   4  20    2.30    0.48
 -12   4  20    2.67    0.54
 -12   4  21    0.33    0.56
 -12   4  21    0.01    0.60
 -12   4  22    0.53    0.63
 -12   4  22    0.40    0.66
  11  -5  12    5.97    0.58
  11  -5  12    7.53    0.75
  11  -5  11    0.96    0.60
  11  -5  11    1.28    0.61
  11  -5  10   16.76    1.02
  11  -5  10   15.16    0.96
  11  -5   9    0.82    0.60
  11  -5   9    0.59    0.59
  11  -5   8   51.13    2.28
  11  -5   8   49.95    2.22
  11  -5   7   -0.25    0.60
  11  -5   7   -1.26    0.61
  11  -5   6    5.08    0.71
  11  -5   6    4.94    0.70
  11  -5   5    1.50    0.62
  11  -5   5    0.95    0.59
  11  -5   4    0.39    0.57
  11  -5   4    0.50    0.56
  11  -5   3    3.66    0.66
  11  -5   3    4.22    0.64
  11  -5   2   89.62    3.77
  11  -5   2   92.39    3.90
  11  -5   1    4.33    0.65
  11  -5   0  191.80    7.81
  11  -5  -1   16.45    0.90
  11  -5  -2   48.51    2.12
  11  -5  -3    0.52    0.42
  11  -5  -4    0.31    0.34
  11  -5  -5    1.08    0.33
  11  -5  -6  247.60    9.97
  11  -5  -7    4.56    0.32
  11  -5  -7    3.60    0.29
 -11   5  16    1.47    0.32
 -11   5  16    1.50    0.30
 -11   5  17   14.28    0.73
 -11   5  17   13.04    0.70
 -11   5  18    1.48    0.43
 -11   5  18    0.68    0.40
 -11   5  19    0.46    0.48
 -11   5  19    1.35    0.45
 -11   5  20    5.34    0.56
 -11   5  20    4.92    0.60
 -11   5  21    0.23    0.55
 -11   5  21    0.96    0.55
 -11   5  22   15.19    1.00
 -11   5  22   16.34    0.99
 -11   5  23    0.13    0.82
 -11   5  23   -0.06    0.78
  10  -6  13    9.73    0.73
  10  -6  13    8.94    0.76
  10  -6  12    9.20    0.76
  10  -6  12    9.55    0.76
  10  -6  11   -0.53    0.58
  10  -6  11    0.01    0.64
  10  -6  10    5.27    0.69
  10  -6  10    5.75    0.67
  10  -6   9   22.23    1.22
  10  -6   9   21.56    1.16
  10  -6   8    5.96    0.73
  10  -6   8    7.81    0.74
  10  -6   7   78.72    3.37
  10  -6   7   77.71    3.31
  10  -6   6    0.00    0.61
  10  -6   6    0.51    0.56
  10  -6   5   11.18    0.91
  10  -6   5    9.77    0.79
  10  -6   4    4.12    0.65
  10  -6   4    3.80    0.63
  10  -6   3   41.75    1.94
  10  -6   3   41.26    1.88
  10  -6   2    1.02    0.62
  10  -6   2    1.16    0.58
  10  -6   1   26.51    1.30
  10  -6   1   27.05    1.32
  10  -6   0    4.47    0.57
  10  -6   0    4.89    0.54
  10  -6  -1  150.70    6.16
  10  -6  -1  142.70    5.83
  10  -6  -2   91.83    3.80
  10  -6  -2   93.67    3.87
  10  -6  -3    0.61    0.40
  10  -6  -3    0.79    0.35
  10  -6  -4   30.71    1.35
  10  -6  -4   32.31    1.41
  10  -6  -5   58.81    2.43
  10  -6  -5   59.91    2.47
  10  -6  -6    3.73    0.29
  10  -6  -6    2.77    0.25
 -10   6  15    0.42    0.23
 -10   6  15    0.53    0.27
 -10   6  16   17.40    0.83
 -10   6  16   16.17    0.76
 -10   6  17    0.19    0.34
 -10   6  17   -0.03    0.36
 -10   6  18    2.48    0.43
 -10   6  18    2.21    0.42
 -10   6  19    1.28    0.43
 -10   6  19    1.60    0.44
 -10   6  20    3.65    0.54
 -10   6  20    3.21    0.51
 -10   6  21   17.35    0.95
 -10   6  21   16.48    0.95
   9  -7  13    6.83    0.73
   9  -7  13    4.54    0.60
   9  -7  12    0.83    0.62
   9  -7  12    1.47    0.58
   9  -7  11   41.35    1.91
   9  -7  11   42.52    1.94
   9  -7  10    0.63    0.64
   9  -7  10    0.26    0.58
   9  -7   9    8.53    0.79
   9  -7   9    7.13    0.75
   9  -7   8   20.88    1.18
   9  -7   8   22.92    1.24
   9  -7   7    8.75    0.81
   9  -7   7    9.14    0.81
   9  -7   6    0.29    0.58
   9  -7   6    0.51    0.63
   9  -7   5   14.83    1.02
   9  -7   5   16.63    1.00
   9  -7   4   23.93    1.28
   9  -7   4   26.10    1.35
   9  -7   3   56.04    2.48
   9  -7   3   52.18    2.31
   9  -7   2    0.49    0.50
   9  -7   2    0.48    0.53
   9  -7   1    2.02    0.53
   9  -7   1    2.13    0.53
   9  -7  -1   24.94    1.19
   9  -7  -1   23.24    1.13
   9  -7  -2    1.52    0.42
   9  -7  -2    1.13    0.40
   9  -7  -3  206.70    8.35
   9  -7  -3  210.50    8.49
   9  -7  -4   26.51    1.17
   9  -7  -4   26.68    1.17
  -9   7  15   21.91    0.96
  -9   7  15   24.72    1.07
  -9   7  16    0.66    0.33
  -9   7  16    0.44    0.32
  -9   7  18    0.58    0.45
  -9   7  18    1.37    0.42
  -9   7  19   20.18    1.02
  -9   7  19   22.05    1.07
  -9   7  20   -0.24    0.51
  -9   7  20   -0.02    0.52
  -9   7  21    2.99    0.66
  -9   7  21    2.28    0.60
  -9   7  22   -0.18    0.74
  -9   7  22   -0.71    0.74
   8  -8  14    0.54    0.61
   8  -8  14    0.66    0.53
   8  -8  13    2.75    0.66
   8  -8  13    1.29    0.61
   8  -8  12   19.39    1.08
   8  -8  12   18.20    1.10
   8  -8  11    7.79    0.76
   8  -8  11    8.13    0.73
   8  -8   9   18.24    1.08
   8  -8   9   17.96    1.05
   8  -8   8    5.02    0.72
   8  -8   8    5.52    0.68
   8  -8   7   37.10    1.79
   8  -8   7   37.35    1.77
   8  -8   6    0.77    0.66
   8  -8   6    0.30    0.59
   8  -8   5    0.33    0.57
   8  -8   5    1.71    0.64
   8  -8   4   60.43    2.67
   8  -8   4   58.43    2.55
   8  -8   3   50.60    2.27
   8  -8   3   46.83    2.10
   8  -8   2    0.42    0.53
   8  -8   2    0.86    0.51
   8  -8   1   60.77    2.61
   8  -8   1   62.99    2.70
   8  -8   0   12.22    0.76
   8  -8   0   12.86    0.78
   8  -8  -1   31.72    1.43
   8  -8  -1   32.35    1.48
   8  -8  -2   29.04    1.33
   8  -8  -2   29.80    1.33
   8  -8  -3   72.75    3.01
   8  -8  -3   77.71    3.20
   8  -8  -4    0.88    0.30
   8  -8  -4    1.33    0.31
   8  -8  -5  103.00    4.19
   8  -8  -5   99.39    4.04
  -8   8  14    6.39    0.40
  -8   8  14    5.56    0.38
  -8   8  15   24.11    1.07
  -8   8  15   22.69    1.02
  -8   8  16    1.59    0.39
  -8   8  16    1.22    0.35
  -8   8  17    0.81    0.42
  -8   8  17    0.96    0.40
  -8   8  18   10.16    0.65
  -8   8  18    9.00    0.63
  -8   8  19   17.26    0.94
  -8   8  19   18.37    0.95
  -8   8  20    2.72    0.62
  -8   8  20    3.71    0.59
  -8   8  21    2.00    0.64
  -8   8  21    3.19    0.76
  -8   8  22    1.73    0.90
  -8   8  22    0.56    0.83
   7  -9  14    6.12    0.73
   7  -9  14    5.43    0.66
   7  -9  13    0.41    0.60
   7  -9  13    0.08    0.63
   7  -9  12    0.28    0.64
   7  -9  12    1.67    0.65
   7  -9  11    0.43    0.54
   7  -9  11    0.55    0.63
   7  -9  10   46.20    2.08
   7  -9  10   45.05    2.06
   7  -9   9    1.47    0.65
   7  -9   9    0.81    0.58
   7  -9   8   89.83    3.82
   7  -9   8   86.10    3.65
   7  -9   7    2.27    0.67
   7  -9   7    1.90    0.66
   7  -9   6    0.34    0.61
   7  -9   5    3.68    0.66
   7  -9   4   36.04    1.68
   7  -9   3    1.33    0.52
   7  -9   2  149.30    6.12
   7  -9   1    0.14    0.47
   7  -9   0   63.76    2.70
   7  -9  -1   25.04    1.19
   7  -9  -2   34.70    1.53
   7  -9  -3    3.13    0.39
   7  -9  -4  175.00    7.06
   7  -9  -5   37.90    1.59
   7  -9  -6   47.91    1.97
  -7   9  12   79.13    3.24
  -7   9  12   78.24    3.19
  -7   9  13    8.67    0.49
  -7   9  13    8.74    0.50
  -7   9  14  110.00    4.48
  -7   9  14   99.79    4.07
  -7   9  15    8.42    0.58
  -7   9  15    6.78    0.50
  -7   9  16   10.31    0.63
  -7   9  16    9.80    0.61
  -7   9  17    7.62    0.58
  -7   9  17    6.77    0.57
  -7   9  18    5.04    0.53
  -7   9  18    4.87    0.51
  -7   9  19   -0.22    0.50
  -7   9  19   -1.52    0.60
  -7   9  20    7.82    0.81
  -7   9  20    7.95    0.73
  -7   9  21   -0.13    0.73
  -7   9  21   -0.40    0.70
   6 -10  14   12.67    0.89
   6 -10  14   12.93    0.85
   6 -10  13    4.61    0.73
   6 -10  13    4.32    0.71
   6 -10  12   33.35    1.64
   6 -10  12   33.56    1.63
   6 -10  11    5.77    0.74
   6 -10  11    6.02    0.77
   6 -10  10   21.35    1.19
   6 -10  10   23.47    1.23
   6 -10   9   11.22    0.86
   6 -10   8    4.23    0.65
   6 -10   7    4.29    0.64
   6 -10   6   80.75    3.44
   6 -10   5    2.10    0.62
   6 -10   4   54.57    2.39
   6 -10   3   63.57    2.75
   6 -10   2   13.83    0.85
   6 -10   1    3.32    0.53
   6 -10   0   57.54    2.46
  -6  10   1    0.11    0.42
   6 -10  -1    0.46    0.40
  -6  10   2  161.40    6.54
   6 -10  -2  169.80    6.89
  -6  10   3    6.12    0.49
   6 -10  -3    6.63    0.50
  -6  10   4    0.26    0.33
   6 -10  -4    0.26    0.33
  -6  10   5   40.60    1.71
   6 -10  -5   42.59    1.80
  -6  10   6  124.00    5.02
   6 -10  -6  127.00    5.14
  -6  10   7   48.52    2.01
   6 -10  -7   46.15    1.92
  -6  10   8   12.34    0.58
   6 -10  -8   11.35    0.56
  -6  10   9    0.95    0.22
  -6  10  10   46.11    1.91
  -6  10  11    8.04    0.48
  -6  10  12   -0.12    0.32
  -6  10  12    0.39    0.34
  -6  10  13   -0.37    0.36
  -6  10  13   -0.03    0.34
  -6  10  14   13.26    0.75
  -6  10  14   13.19    0.69
  -6  10  15    5.30    0.52
  -6  10  15    5.13    0.49
  -6  10  16   34.87    1.56
  -6  10  16   34.89    1.55
  -6  10  17    0.14    0.50
  -6  10  17    0.23    0.48
  -6  10  19    4.99    0.71
  -6  10  19    6.06    0.69
  -6  10  20    0.22    0.69
  -6  10  20    0.68    0.66
   5 -11  15    8.08    0.81
   5 -11  14    1.03    0.63
   5 -11  14    1.14    0.65
   5 -11  13   16.59    1.04
   5 -11  13   14.73    0.94
   5 -11  12   -0.24    0.59
   5 -11  11    3.36    0.67
   5 -11  10   32.01    1.56
   5 -11   9    3.56    0.64
   5 -11   8   21.60    1.21
   5 -11   7   20.91    1.18
   5 -11   6    1.08    0.59
   5 -11   5  174.20    7.13
   5 -11   4    1.45    0.61
   5 -11   3   14.98    0.95
  -5  11  -2   31.24    1.48
   5 -11   2   33.84    1.58
  -5  11  -1   12.31    0.81
   5 -11   1   12.70    0.79
  -5  11   0   13.98    0.82
   5 -11   0   13.80    0.82
  -5  11   1  119.90    4.93
   5 -11  -1  123.80    5.08
  -5  11   2    5.05    0.51
   5 -11  -2    5.14    0.47
  -5  11   3   38.84    1.68
   5 -11  -3   39.44    1.73
  -5  11   4    4.58    0.45
   5 -11  -4    3.66    0.39
  -5  11   5   17.39    0.85
   5 -11  -5   17.70    0.86
  -5  11   6    4.05    0.38
   5 -11  -6    4.69    0.41
  -5  11   7   36.13    1.55
   5 -11  -7   35.39    1.54
  -5  11   8    1.43    0.32
   5 -11  -8    1.10    0.35
  -5  11   9   31.46    1.38
   5 -11  -9   30.14    1.33
  -5  11  10   43.29    1.84
   5 -11 -10   54.90    2.30
  -5  11  11    7.31    0.52
  -5  11  12   -0.06    0.35
  -5  11  13    1.89    0.45
  -5  11  14    7.37    0.57
  -5  11  14    7.70    0.58
  -5  11  15   53.01    2.27
  -5  11  15   51.49    2.21
  -5  11  16    9.62    0.72
  -5  11  16   10.88    0.72
  -5  11  17   16.28    0.94
  -5  11  17   18.20    1.02
  -5  11  18    5.82    0.71
  -5  11  18    5.02    0.65
  -5  11  19    0.78    0.67
  -5  11  19   -0.20    0.62
   4 -12  15    0.02    0.71
   4 -12  15    2.05    0.66
   4 -12  14   -0.05    0.65
   4 -12  14    0.83    0.67
   4 -12  13    0.78    0.63
   4 -12  12    1.59    0.65
   4 -12  11   28.20    1.43
   4 -12  10   -1.16    0.66
   4 -12   9   26.70    1.38
   4 -12   8    0.13    0.59
   4 -12   7   11.71    0.87
   4 -12   6    6.29    0.72
  -4  12  -5    0.35    0.60
   4 -12   5    1.09    0.58
  -4  12  -4   -0.97    0.60
   4 -12   4    0.42    0.60
  -4  12  -3  196.30    8.01
   4 -12   3  196.10    7.99
  -4  12  -2    0.48    0.59
   4 -12   2    0.71    0.57
  -4  12  -1   32.42    1.52
   4 -12   1   35.49    1.64
  -4  12   0    1.09    0.48
   4 -12   0   -0.33    0.47
  -4  12   1    2.94    0.49
   4 -12  -1    2.70    0.49
  -4  12   2   24.31    1.18
   4 -12  -2   24.96    1.21
  -4  12   3  120.40    4.93
   4 -12  -3  122.60    5.03
  -4  12   4    9.37    0.62
   4 -12  -4    9.03    0.59
  -4  12   5   72.47    3.03
   4 -12  -5   72.57    3.03
  -4  12   6   24.07    1.12
   4 -12  -6   22.73    1.07
  -4  12   7   23.78    1.10
   4 -12  -7   27.13    1.24
  -4  12   8   24.74    1.15
   4 -12  -8   24.08    1.13
  -4  12   9   28.87    1.33
   4 -12  -9   24.02    1.13
  -4  12  10    9.22    0.61
   4 -12 -10    8.58    0.58
  -4  12  11   23.18    1.09
   4 -12 -11   26.19    1.24
  -4  12  12    5.81    0.52
  -4  12  13   65.54    2.75
  -4  12  14    6.42    0.58
  -4  12  15   -0.76    0.49
  -4  12  15   -0.03    0.52
  -4  12  16    5.89    0.63
  -4  12  16    4.67    0.63
  -4  12  17   24.29    1.26
  -4  12  17   21.50    1.13
  -4  12  18    0.06    0.68
  -4  12  18    0.55    0.64
  -4  12  19    4.16    0.93
   3 -13  15    0.59    0.73
   3 -13  14    1.51    0.66
   3 -13  13    9.56    0.84
   3 -13  12    3.66    0.72
   3 -13  11   13.81    0.95
   3 -13  10   48.05    2.20
   3 -13   9    2.08    0.69
   3 -13   8    4.93    0.71
  -3  13  -7   17.83    1.09
   3 -13   7   18.44    1.08
  -3  13  -6    2.71    0.64
   3 -13   6    1.40    0.64
  -3  13  -5   52.91    2.38
   3 -13   5   50.34    2.25
  -3  13  -4    9.51    0.86
   3 -13   4   10.48    0.83
  -3  13  -3    0.33    0.64
   3 -13   3   -0.10    0.60
  -3  13  -2   38.36    1.77
   3 -13   2   33.73    1.62
  -3  13  -1   20.30    1.11
   3 -13   1   20.38    1.10
  -3  13   0   28.44    1.36
   3 -13   0   28.76    1.42
  -3  13   1    1.89    0.51
   3 -13  -1    1.55    0.54
  -3  13   2   71.14    3.01
   3 -13  -2   75.35    3.19
  -3  13   3   14.40    0.83
   3 -13  -3   14.97    0.85
  -3  13   4   40.85    1.80
   3 -13  -4   44.39    1.96
  -3  13   5    0.77    0.42
   3 -13  -5    0.33    0.41
  -3  13   6    0.64    0.42
   3 -13  -6    0.07    0.40
  -3  13   7   21.99    1.07
   3 -13  -7   20.83    1.03
  -3  13   8    8.55    0.60
   3 -13  -8    7.98    0.59
  -3  13   9    0.55    0.39
   3 -13  -9    1.20    0.46
  -3  13  10   22.26    1.08
   3 -13 -10   21.93    1.12
  -3  13  11   -0.23    0.40
   3 -13 -11    0.03    0.46
  -3  13  12   62.46    2.64
  -3  13  13    1.75    0.47
  -3  13  14    1.13    0.50
  -3  13  15    8.98    0.74
  -3  13  16    5.63    0.66
  -3  13  16    4.44    0.64
  -3  13  17    1.17    0.63
  -3  13  17    0.95    0.70
  -3  13  18    5.73    0.92
   2 -14  14   17.02    1.02
   2 -14  13    1.44    0.60
   2 -14  12   17.61    1.04
   2 -14  11    0.57    0.60
   2 -14  10    1.76    0.69
  -2  14  -9    0.17    0.56
   2 -14   9   -0.48    0.58
  -2  14  -8   63.52    2.74
   2 -14   8   61.85    2.69
  -2  14  -7    7.52    0.80
   2 -14   7    7.11    0.71
  -2  14  -6   48.77    2.20
   2 -14   6   44.64    2.03
  -2  14  -5   10.39    0.88
   2 -14   5   11.18    0.88
  -2  14  -4   18.83    1.11
   2 -14   4   22.47    1.25
  -2  14  -3    0.29    0.62
   2 -14   3   -0.64    0.66
  -2  14  -2   12.70    0.86
   2 -14   2   13.44    0.93
  -2  14  -1    0.77    0.58
   2 -14   1    0.19    0.57
  -2  14   0   22.44    1.19
   2 -14   0   21.76    1.15
  -2  14   1  106.90    4.43
   2 -14  -1  104.40    4.33
  -2  14   2   98.64    4.10
   2 -14  -2   98.65    4.12
  -2  14   3    1.95    0.51
   2 -14  -3    2.80    0.51
  -2  14   4   15.16    0.85
   2 -14  -4   13.37    0.81
  -2  14   5    0.45    0.42
   2 -14  -5    0.74    0.47
  -2  14   6   22.21    1.11
   2 -14  -6   21.28    1.06
  -2  14   7    0.16    0.44
   2 -14  -7   -0.19    0.46
  -2  14   8   21.81    1.08
   2 -14  -8   24.53    1.19
  -2  14   9    6.91    0.58
   2 -14  -9    8.23    0.63
  -2  14  10    9.59    0.67
   2 -14 -10    8.56    0.71
  -2  14  11    3.79    0.53
   2 -14 -11    3.77    0.55
  -2  14  12    3.70    0.53
   2 -14 -12    4.37    0.62
  -2  14  13    0.38    0.47
  -2  14  14   17.49    1.00
  -2  14  15    0.16    0.60
  -2  14  16    1.46    0.71
   1 -15  14   -0.63    0.65
   1 -15  13    5.17    0.72
   1 -15  12   12.66    0.91
   1 -15  11    0.96    0.68
  -1  15 -10   26.77    1.36
   1 -15  10   30.13    1.50
  -1  15  -9   21.13    1.19
   1 -15   9   21.42    1.19
  -1  15  -8    0.47    0.61
   1 -15   8    0.64    0.66
  -1  15  -7   12.58    0.96
   1 -15   7   13.20    0.98
  -1  15  -6   24.06    1.29
   1 -15   6   16.52    1.05
  -1  15  -5   19.46    1.15
   1 -15   5   18.05    1.09
  -1  15  -4   36.21    1.71
   1 -15   4   40.80    1.91
  -1  15  -3    0.33    0.55
   1 -15   3    1.17    0.63
  -1  15  -2   24.69    1.26
   1 -15   2   26.07    1.33
  -1  15  -1   33.67    1.58
   1 -15   1   35.27    1.69
  -1  15   0    3.49    0.58
   1 -15   0    3.54    0.60
  -1  15   1   58.14    2.52
   1 -15  -1   58.06    2.52
  -1  15   2   15.41    0.89
   1 -15  -2   15.28    0.88
  -1  15   3    3.54    0.56
   1 -15  -3    3.21    0.54
  -1  15   4   28.39    1.35
   1 -15  -4   27.56    1.33
  -1  15   5    7.60    0.62
   1 -15  -5    7.96    0.65
  -1  15   6   23.83    1.19
   1 -15  -6   22.14    1.12
  -1  15   7    6.02    0.57
   1 -15  -7    6.10    0.62
  -1  15   8    4.28    0.54
   1 -15  -8    3.69    0.56
  -1  15   9   29.93    1.40
   1 -15  -9   33.83    1.56
  -1  15  10   11.63    0.77
   1 -15 -10   10.65    0.80
  -1  15  11    0.43    0.53
   1 -15 -11    1.35    0.54
  -1  15  12    5.00    0.56
   1 -15 -12    4.88    0.65
  -1  15  13    3.63    0.57
  -1  15  14    0.88    0.60
  -1  15  15    9.29    0.84
   0 -16  14    1.04    0.63
   0 -16  13    3.06    0.74
   0 -16  12    2.70    0.70
   0  16 -11    6.41    0.74
   0 -16  11    9.56    0.86
   0  16 -10   -0.04    0.53
   0 -16  10    1.91    0.80
   0  16  -9   12.23    0.95
   0 -16   9    8.64    0.78
   0  16  -8    4.28    0.74
   0 -16   8    3.74    0.65
   0  16  -7    1.32    0.61
   0 -16   7    1.23    0.61
   0  16  -6    2.22    0.61
   0 -16   6    3.67    0.69
   0  16  -5   20.00    1.12
   0 -16   5   20.21    1.16
   0  16  -4    3.30    0.63
   0 -16   4    2.37    0.64
   0  16  -3    8.97    0.79
   0 -16   3   12.49    0.91
   0  16  -2    1.19    0.55
   0 -16   2   -0.24    0.56
   0  16  -1    0.40    0.53
   0 -16   1   -0.44    0.55
   0  16   0   16.89    1.01
   0 -16   0   17.17    0.99
   0  16   1   -0.34    0.53
   0 -16  -1   -0.06    0.54
   0  16   2   -0.75    0.47
   0 -16  -2    0.48    0.54
   0  16   3   11.53    0.78
   0 -16  -3   13.75    0.86
   0  16   4    3.08    0.52
   0 -16  -4    2.70    0.55
   0  16   5   20.42    1.06
   0 -16  -5   19.75    1.05
   0  16   6    2.26    0.56
   0 -16  -6    2.20    0.53
   0  16   7    2.01    0.54
   0 -16  -7    1.24    0.55
   0  16   8    4.08    0.55
   0 -16  -8    3.15    0.62
   0  16   9   13.05    0.81
   0 -16  -9   11.55    0.80
   0  16  10    0.92    0.56
   0 -16 -10    1.92    0.57
   0  16  11    8.00    0.72
   0 -16 -11    6.92    0.74
   0  16  12    2.31    0.63
   0 -16 -12    2.35    0.63
   0  16  13    2.32    0.66
   0 -16 -13    2.50    0.64
   0  16  14    0.42    0.73
  -1 -17  13    1.88    0.60
   1  17 -12    4.31    0.62
  -1 -17  12    1.37    0.65
   1  17 -11    4.08    0.68
  -1 -17  11    4.50    0.68
   1  17 -10    4.47    0.66
  -1 -17  10    4.34    0.72
   1  17  -9   10.36    0.86
  -1 -17   9    6.72    0.78
   1  17  -8    9.01    0.82
  -1 -17   8    8.48    0.79
   1  17  -7   18.27    1.09
  -1 -17   7   18.10    1.09
   1  17  -6    1.10    0.60
  -1 -17   6    2.19    0.67
   1  17  -5   -0.05    0.53
  -1 -17   5    0.73    0.60
   1  17  -4    5.84    0.67
  -1 -17   4    4.45    0.67
   1  17  -3    8.41    0.72
  -1 -17   3    8.43    0.77
   1  17  -2   -0.41    0.58
  -1 -17   2   -0.60    0.54
   1  17  -1    6.04    0.66
  -1 -17   1    3.36    0.61
   1  17   0   20.02    1.09
  -1 -17   0   18.60    1.06
   1  17   1   21.73    1.14
  -1 -17  -1   20.14    1.09
   1  17   2    0.25    0.49
  -1 -17  -2    0.28    0.50
   1  17   3    1.64    0.50
  -1 -17  -3    1.41    0.53
   1  17   4    8.34    0.68
  -1 -17  -4    8.57    0.69
   1  17   5    4.86    0.59
  -1 -17  -5    2.71    0.56
   1  17   6    0.57    0.53
  -1 -17  -6   -1.04    0.52
   1  17   7   36.30    1.68
  -1 -17  -7   39.45    1.83
   1  17   8    3.51    0.56
  -1 -17  -8    3.00    0.65
   1  17   9    9.57    0.71
  -1 -17  -9    9.71    0.81
   1  17  10    1.27    0.54
  -1 -17 -10   -0.15    0.67
   1  17  11    0.44    0.55
  -1 -17 -11    0.34    0.66
   1  17  12    1.46    0.72
  -1 -17 -12    1.13    0.64
   2  18 -12    4.93    0.68
  -2 -18  12    6.38    0.79
   2  18 -11    3.28    0.59
  -2 -18  11    1.69    0.74
   2  18 -10    3.77    0.73
  -2 -18  10    4.31    0.76
   2  18  -9    0.41    0.63
  -2 -18   9    0.98    0.62
   2  18  -8   23.49    1.23
  -2 -18   8   24.73    1.34
   2  18  -7   -0.36    0.55
  -2 -18   7    0.31    0.64
   2  18  -6   11.69    0.82
  -2 -18   6   11.93    0.87
   2  18  -5    1.52    0.61
  -2 -18   5    1.01    0.63
   2  18  -4   -0.19    0.57
  -2 -18   4    0.82    0.58
   2  18  -3   13.74    0.87
  -2 -18   3   14.29    0.89
   2  18  -2   15.10    0.94
  -2 -18   2   17.43    1.00
   2  18  -1    3.66    0.57
  -2 -18   1    3.18    0.61
   2  18   0   48.11    2.12
  -2 -18   0   52.12    2.31
   2  18   1    2.68    0.55
  -2 -18  -1    3.28    0.59
   2  18   2    7.45    0.68
  -2 -18  -2    7.85    0.71
   2  18   3   15.91    0.91
  -2 -18  -3   16.54    1.00
   2  18   4    4.20    0.55
  -2 -18  -4    5.19    0.63
   2  18   5    1.04    0.56
  -2 -18  -5    1.61    0.56
   2  18   6   25.13    1.30
  -2 -18  -6   26.53    1.32
   2  18   7    0.36    0.55
  -2 -18  -7    0.27    0.58
   2  18   8    2.91    0.60
  -2 -18  -8    4.25    0.68
   2  18   9    4.31    0.65
  -2 -18  -9    4.67    0.74
   2  18  10   -1.38    0.68
  -2 -18 -10   -0.34    0.62
   3  19 -11    0.24    0.62
  -3 -19  11   -0.29    0.64
   3  19 -10    6.70    0.66
  -3 -19  10    4.07    0.66
   3  19  -9    0.08    0.63
  -3 -19   9    1.29    0.58
   3  19  -8   -0.63    0.65
  -3 -19   8    1.09    0.56
   3  19  -7   -0.68    0.57
  -3 -19   7   -0.81    0.65
   3  19  -6    2.92    0.59
  -3 -19   6    2.23    0.63
   3  19  -5    0.41    0.60
  -3 -19   5    0.36    0.59
   3  19  -4   26.74    1.35
  -3 -19   4   24.95    1.29
   3  19  -3    0.42    0.55
  -3 -19   3    0.06    0.59
   3  19  -2    5.87    0.67
  -3 -19   2    4.82    0.66
   3  19  -1    3.15    0.58
  -3 -19   1    2.74    0.59
   3  19   0    1.23    0.53
  -3 -19   0    0.65    0.55
   3  19   1    1.53    0.54
  -3 -19  -1    0.42    0.53
   3  19   2   46.18    2.06
  -3 -19  -2   47.46    2.13
   3  19   3    2.40    0.54
  -3 -19  -3    1.84    0.57
   3  19   4   12.16    0.78
  -3 -19  -4   12.61    0.85
   3  19   5    1.99    0.57
  -3 -19  -5    2.50    0.62
   3  19   6    0.25    0.58
  -3 -19  -6    0.18    0.65
   3  19   7    0.40    0.61
  -3 -19  -7    1.31    0.64
   3  19   8    7.17    0.78
  -3 -19  -8    7.19    0.66
   4  20  -9    0.70    0.60
  -4 -20   9   -0.63    0.64
   4  20  -8    3.17    0.60
  -4 -20   8    2.48    0.63
   4  20  -7    2.26    0.60
  -4 -20   7    1.12    0.59
   4  20  -6    5.74    0.70
  -4 -20   6    3.73    0.67
   4  20  -5    8.44    0.76
  -4 -20   5    8.00    0.73
   4  20  -4   -1.06    0.56
  -4 -20   4    0.45    0.52
   4  20  -3    5.10    0.68
  -4 -20   3    4.93    0.66
   4  20  -2    6.82    0.69
  -4 -20   2    7.52    0.75
   4  20  -1    0.08    0.59
  -4 -20   1    0.03    0.56
   4  20   0    5.25    0.69
  -4 -20   0    5.52    0.64
   4  20   1    3.58    0.60
  -4 -20  -1    2.63    0.60
   4  20   2    0.05    0.51
  -4 -20  -2    0.09    0.58
   4  20   3    3.15    0.60
  -4 -20  -3    4.99    0.67
   4  20   4    7.19    0.71
  -4 -20  -4    6.75    0.72
   4  20   5    3.67    0.67
  -4 -20  -5    4.67    0.72
   5  21  -6    0.91    0.60
  -5 -21   6    0.30    0.66
   5  21  -5    0.91    0.57
  -5 -21   5    0.58    0.61
   5  21  -4    0.49    0.60
  -5 -21   4    0.49    0.61
   5  21  -3   11.14    0.83
  -5 -21   3   10.07    0.80
   5  21  -2    0.49    0.60
  -5 -21   2    1.38    0.58
   5  21  -1    9.89    0.77
  -5 -21   1   10.63    0.78
   5  21   0    0.45    0.63
  -5 -21   0    0.08    0.59
   5  21   1    1.06    0.62
  -5 -21  -1    2.74    0.61
   5  21   2   -0.15    0.69
  -5 -21  -2   -0.41    0.61
 -23  -5   5    1.39    0.51
  23   5  -5    0.10    0.71
 -23  -5   6    1.75    0.57
  23   5  -6    2.29    0.75
 -23  -5   7    0.40    0.59
  23   5  -7   -0.99    0.71
 -23  -5   8    4.08    0.66
  23   5  -8    5.50    0.76
 -23  -5   9   -0.05    0.60
  23   5  -9    0.82    0.70
 -23  -5  10    8.02    0.71
  23   5 -10    6.69    0.79
 -23  -5  11    0.91    0.56
  23   5 -11    1.01    0.68
 -23  -5  12    4.79    0.70
  23   5 -12    5.06    0.72
 -23  -5  13    0.89    0.54
  23   5 -13    0.77    0.62
 -23  -5  14    0.73    0.61
  23   5 -14    0.48    0.61
 -23  -5  15   -0.02    0.49
  23   5 -15    0.33    0.62
 -23  -5  16    2.43    0.58
  23   5 -16    2.35    0.63
 -23  -5  17    0.37    0.57
  23   5 -17   -0.04    0.67
 -22  -4   2   -0.31    0.49
  22   4  -2    0.21    0.65
 -22  -4   3    2.35    0.60
  22   4  -3    3.39    0.66
 -22  -4   4    4.48    0.56
  22   4  -4    2.75    0.72
 -22  -4   5   -1.21    0.57
  22   4  -5    1.23    0.71
 -22  -4   6   15.74    0.94
  22   4  -6   16.24    1.05
 -22  -4   7   -0.02    0.57
  22   4  -7   -0.51    0.71
 -22  -4   8    9.70    0.77
  22   4  -8    9.19    0.81
 -22  -4   9    2.20    0.61
  22   4  -9    1.46    0.70
 -22  -4  10    1.11    0.55
  22   4 -10    0.04    0.66
 -22  -4  11    9.04    0.74
  22   4 -11    6.76    0.74
 -22  -4  12   11.08    0.78
  22   4 -12    8.47    0.76
 -22  -4  13    1.06    0.53
  22   4 -13   -1.03    0.60
 -22  -4  14   11.69    0.77
  22   4 -14   11.25    0.83
 -22  -4  15   -0.17    0.55
  22   4 -15   -0.11    0.63
 -22  -4  16    1.25    0.51
  22   4 -16    1.83    0.63
 -22  -4  17    0.53    0.55
  22   4 -17    0.55    0.62
 -22  -4  18    0.46    0.56
  22   4 -18    1.27    0.62
 -22  -4  19    3.90    0.67
  22   4 -19    2.83    0.68
 -21  -3   0    1.91    0.53
  21   3   0    1.02    0.61
 -21  -3   1   13.21    0.86
  21   3  -1   12.84    0.94
 -21  -3   2    9.92    0.73
  21   3  -2   10.85    0.88
 -21  -3   3    2.20    0.64
  21   3  -3    1.32    0.65
 -21  -3   4    0.96    0.58
  21   3  -4    0.32    0.65
 -21  -3   5   12.45    0.88
  21   3  -5   12.10    0.90
 -21  -3   6    0.27    0.56
  21   3  -6   -0.14    0.61
 -21  -3   7   16.70    0.95
  21   3  -7   16.50    1.01
 -21  -3   8    7.14    0.67
  21   3  -8    6.99    0.74
 -21  -3   9    8.04    0.69
  21   3  -9    7.52    0.76
 -21  -3  10    1.67    0.58
  21   3 -10   -0.40    0.64
 -21  -3  11    9.58    0.74
  21   3 -11    2.87    0.70
 -21  -3  12    2.16    0.54
  21   3 -12    3.04    0.63
 -21  -3  13   22.48    1.15
  21   3 -13   20.00    1.10
 -21  -3  14    1.50    0.51
  21   3 -14    0.89    0.58
 -21  -3  15    1.88    0.50
  21   3 -15    1.80    0.58
 -21  -3  16    4.31    0.59
  21   3 -16    2.25    0.65
 -21  -3  17    0.75    0.52
  21   3 -17    0.27    0.58
 -21  -3  18    1.38    0.54
  21   3 -18    1.83    0.62
 -21  -3  19    8.75    0.77
  21   3 -19    8.69    0.80
 -21  -3  20   -0.31    0.60
  21   3 -20    0.11    0.70
 -21  -3  21    6.86    0.79
  20   2   2   -0.09    0.63
  20   2   1    2.39    0.71
 -20  -2   0   -0.12    0.52
  20   2   0   -0.83    0.69
 -20  -2   1   37.25    1.73
  20   2  -1   36.51    1.75
 -20  -2   2    0.69    0.64
  20   2  -2   -0.90    0.61
 -20  -2   3   17.04    1.02
  20   2  -3   16.73    1.06
 -20  -2   4    1.22    0.48
  20   2  -4    0.31    0.62
 -20  -2   5    1.94    0.58
  20   2  -5   -1.13    0.59
 -20  -2   6    0.66    0.52
  20   2  -6    1.51    0.67
 -20  -2   7   11.17    0.81
  20   2  -7    9.16    0.82
 -20  -2   8    2.03    0.60
  20   2  -8    1.90    0.61
 -20  -2   9   82.33    3.48
  20   2  -9   82.60    3.49
 -20  -2  10    1.65    0.53
  20   2 -10    1.45    0.57
 -20  -2  11   27.38    1.32
  20   2 -11   20.44    1.11
 -20  -2  12    5.92    0.60
  20   2 -12    5.48    0.63
 -20  -2  13    3.32    0.50
  20   2 -13    3.42    0.58
 -20  -2  14    4.87    0.54
  20   2 -14    1.49    0.54
 -20  -2  15    4.22    0.59
  20   2 -15    4.23    0.59
 -20  -2  16    2.58    0.53
  20   2 -16    2.86    0.60
 -20  -2  17   43.98    1.94
  20   2 -17   44.42    1.99
 -20  -2  18   -0.32    0.52
  20   2 -18    0.12    0.56
 -20  -2  19    0.70    0.51
  20   2 -19    1.28    0.66
 -20  -2  20   -0.07    0.54
  20   2 -20    0.55    0.65
 -20  -2  21    3.05    0.63
  20   2 -21    3.23    0.76
  19   1   4    2.86    0.65
  19   1   3   10.42    0.86
  19   1   2    0.30    0.66
  19   1   1    9.73    0.85
  19   1   0    6.78    0.80
 -19  -1   1    1.15    0.61
  19   1  -1    0.82    0.60
 -19  -1   2   10.51    0.82
  19   1  -2    9.38    0.78
 -19  -1   3    5.19    0.69
  19   1  -3    6.92    0.80
 -19  -1   4    4.92    0.66
  19   1  -4    3.01    0.69
 -19  -1   5   19.63    1.05
  19   1  -5   19.25    1.09
 -19  -1   6    8.78    0.71
  19   1  -6    6.81    0.74
 -19  -1   7   21.96    1.13
  19   1  -7   22.83    1.24
 -19  -1   8   28.40    1.36
  19   1  -8   28.94    1.45
 -19  -1   9    4.00    0.61
  19   1  -9    1.94    0.59
 -19  -1  10   24.13    1.22
  19   1 -10   16.98    1.00
 -19  -1  11    3.78    0.55
  19   1 -11    4.26    0.66
 -19  -1  12   -0.48    0.46
  19   1 -12    0.02    0.53
 -19  -1  13   26.91    1.31
  19   1 -13   30.08    1.43
 -19  -1  14   12.16    0.76
  19   1 -14   11.59    0.75
 -19  -1  15    6.30    0.56
  19   1 -15    6.47    0.65
 -19  -1  16   39.85    1.78
  19   1 -16   37.20    1.69
 -19  -1  17    1.20    0.47
  19   1 -17    0.51    0.56
 -19  -1  18   11.39    0.73
  19   1 -18   12.09    0.86
 -19  -1  19    8.56    0.70
  19   1 -19    7.24    0.77
 -19  -1  20   -0.50    0.53
  19   1 -20   -0.15    0.63
 -19  -1  21    0.60    0.60
  19   1 -21    1.75    0.64
 -19  -1  22    2.34    0.67
  18   0   5   -0.38    0.67
  18   0   4   14.65    0.96
  18   0   3    0.40    0.61
  18   0   2   30.44    1.51
  18   0   1   -0.85    0.59
  18   0   0    8.41    0.82
 -18   0   1   -0.16    0.58
  18   0  -1    0.46    0.62
 -18   0   2    2.36    0.65
  18   0  -2    0.64    0.63
 -18   0   3    0.21    0.60
  18   0  -3    0.92    0.55
 -18   0   4   65.25    2.83
  18   0  -4   68.82    2.98
 -18   0   5   -1.36    0.60
  18   0  -5   -0.37    0.61
 -18   0   6   37.83    1.74
  18   0  -6   39.48    1.81
 -18   0   7   -0.38    0.49
  18   0  -7    0.68    0.57
 -18   0   8    4.17    0.53
  18   0  -8    5.08    0.68
 -18   0   9    0.19    0.48
  18   0  -9   -0.55    0.50
 -18   0  10    0.95    0.51
  18   0 -10    0.53    0.55
 -18   0  11    1.25    0.48
  18   0 -11    0.17    0.49
 -18   0  12   70.88    3.00
  18   0 -12   68.20    2.89
 -18   0  13    0.35    0.37
  18   0 -13    0.23    0.45
 -18   0  14  118.50    4.86
  18   0 -14  111.00    4.57
 -18   0  15   -0.41    0.40
  18   0 -15    0.20    0.51
 -18   0  16   11.93    0.73
  18   0 -16   14.66    0.87
 -18   0  17   -0.38    0.43
  18   0 -17    0.44    0.54
 -18   0  18   26.36    1.24
  18   0 -18   25.06    1.26
 -18   0  19    0.29    0.45
  18   0 -19   -0.15    0.53
 -18   0  20   15.32    0.90
 -18   0  21    0.19    0.56
 -18   0  22    4.02    0.73
 -18   0  23    0.31    0.79
  17  -1   6   14.77    0.95
  17  -1   5    2.09    0.70
  17  -1   4    3.73    0.69
  17  -1   3   17.12    1.06
  17  -1   2   -0.40    0.67
  17  -1   1   12.59    0.91
  17  -1   0   12.01    0.89
  17  -1  -1   -0.26    0.61
 -17   1   2   10.51    0.79
  17  -1  -2    8.57    0.79
 -17   1   3   10.81    0.86
  17  -1  -3   10.85    0.86
 -17   1   4   -0.02    0.56
  17  -1  -4    0.75    0.60
 -17   1   5    6.96    0.67
  17  -1  -5    7.07    0.72
 -17   1   6   33.70    1.61
  17  -1  -6   31.85    1.52
 -17   1   7    1.44    0.54
  17  -1  -7    1.25    0.55
 -17   1   8    2.85    0.50
  17  -1  -8    3.07    0.59
 -17   1   9    0.39    0.45
  17  -1  -9    0.58    0.54
 -17   1  10   22.88    1.12
  17  -1 -10   22.21    1.15
 -17   1  11   19.08    1.01
  17  -1 -11   17.87    0.97
 -17   1  12    6.56    0.57
  17  -1 -12    6.30    0.56
 -17   1  13   12.00    0.70
  17  -1 -13   15.06    0.84
 -17   1  14   55.48    2.34
  17  -1 -14   61.52    2.60
 -17   1  15    7.92    0.56
  17  -1 -15    7.84    0.61
 -17   1  16   52.91    2.25
  17  -1 -16   52.64    2.25
 -17   1  17    8.56    0.58
  17  -1 -17    9.27    0.70
 -17   1  18    3.33    0.45
  17  -1 -18    4.22    0.58
 -17   1  19    7.97    0.63
 -17   1  20   -0.25    0.50
 -17   1  21    5.88    0.63
 -17   1  22   12.25    0.87
 -17   1  22   15.46    1.01
 -17   1  23    1.45    0.74
 -17   1  23   -0.28    0.70
  16  -2   7   19.86    1.11
  16  -2   7   20.63    1.06
  16  -2   6    2.80    0.61
  16  -2   5   17.10    1.03
  16  -2   4    3.54    0.67
  16  -2   3   19.16    1.12
  16  -2   2    3.14    0.68
  16  -2   1   17.15    1.05
  16  -2   0   22.71    1.23
  16  -2  -1   39.43    1.85
  16  -2  -2   -0.44    0.59
 -16   2   3   38.88    1.80
  16  -2  -3   37.28    1.75
 -16   2   4    1.17    0.59
  16  -2  -4    1.57    0.57
 -16   2   5    9.49    0.72
  16  -2  -5    6.55    0.72
 -16   2   6    1.21    0.57
  16  -2  -6    0.59    0.56
 -16   2   7    8.67    0.70
  16  -2  -7    7.94    0.67
 -16   2   8   12.14    0.75
  16  -2  -8   12.81    0.81
 -16   2   9   47.29    2.04
  16  -2  -9   47.19    2.05
 -16   2  10    0.52    0.38
  16  -2 -10    0.61    0.46
 -16   2  11   11.51    0.66
  16  -2 -11   11.66    0.70
 -16   2  12    1.66    0.42
  16  -2 -12    2.92    0.44
 -16   2  13   25.16    1.16
  16  -2 -13   23.70    1.13
 -16   2  14    1.46    0.37
  16  -2 -14    1.12    0.42
 -16   2  15   23.78    1.09
  16  -2 -15   23.05    1.09
 -16   2  16    4.64    0.50
  16  -2 -16    5.24    0.52
 -16   2  17   28.38    1.27
 -16   2  18   -0.25    0.39
 -16   2  19    0.89    0.42
 -16   2  20    5.20    0.54
 -16   2  20    6.21    0.67
 -16   2  21   26.22    1.28
 -16   2  21   26.39    1.30
 -16   2  22    1.54    0.64
 -16   2  22    1.10    0.57
 -16   2  23   10.54    0.85
 -16   2  23    9.12    0.83
  15  -3   8    4.54    0.59
  15  -3   8    3.21    0.61
  15  -3   7   -0.49    0.62
  15  -3   7    0.66    0.59
  15  -3   6    5.43    0.63
  15  -3   6    4.08    0.69
  15  -3   5    8.64    0.75
  15  -3   4   22.63    1.20
  15  -3   3   43.18    1.97
  15  -3   2    2.23    0.67
  15  -3   1   57.04    2.52
  15  -3   0   25.73    1.33
  15  -3  -1   -0.90    0.57
  15  -3  -2   25.25    1.32
  15  -3  -3   54.83    2.41
 -15   3   4    0.53    0.50
  15  -3  -4    0.54    0.54
 -15   3   5   65.76    2.81
  15  -3  -5   64.02    2.76
 -15   3   6   26.04    1.27
  15  -3  -6   29.81    1.42
 -15   3   7  102.70    4.25
  15  -3  -7  109.70    4.52
 -15   3   8    7.07    0.59
  15  -3  -8    7.78    0.60
 -15   3   9   50.14    2.14
  15  -3  -9   55.74    2.36
 -15   3  10   26.02    1.17
  15  -3 -10   26.39    1.21
 -15   3  11  119.40    4.84
  15  -3 -11  100.60    4.11
 -15   3  12   21.90    0.98
  15  -3 -12   23.66    1.07
 -15   3  13   27.54    1.20
  15  -3 -13   25.19    1.14
 -15   3  14   14.40    0.70
  15  -3 -14   17.38    0.83
 -15   3  15    3.57    0.35
 -15   3  16   38.95    1.67
 -15   3  17   17.14    0.81
 -15   3  18    1.95    0.38
 -15   3  18    1.71    0.43
 -15   3  19   21.23    1.03
 -15   3  19   20.01    0.99
 -15   3  20    8.04    0.58
 -15   3  20    7.19    0.62
 -15   3  21    2.03    0.53
 -15   3  21    1.97    0.58
 -15   3  22    1.44    0.60
 -15   3  22    1.15    0.58
 -15   3  23    0.80    0.71
 -15   3  23    2.60    0.73
  14  -4   9    2.09    0.56
  14  -4   9    2.46    0.66
  14  -4   8    1.53    0.69
  14  -4   8    1.29    0.64
  14  -4   7    5.81    0.69
  14  -4   7    5.05    0.74
  14  -4   6    4.53    0.61
  14  -4   6    4.70    0.69
  14  -4   5   12.78    0.93
  14  -4   5   12.76    0.87
  14  -4   4   56.47    2.51
  14  -4   3   15.60    0.99
  14  -4   2   93.47    3.97
  14  -4   1   -0.15    0.55
  14  -4   0   -0.38    0.59
  14  -4  -1   12.71    0.88
  14  -4  -2   11.10    0.79
  14  -4  -3    8.65    0.74
  14  -4  -4  171.80    7.01
  14  -4  -5   27.56    1.32
  14  -4  -6   80.62    3.36
  14  -4  -7  124.40    5.07
 -14   4   8   14.78    0.76
  14  -4  -8   13.24    0.72
 -14   4   9    0.92    0.34
  14  -4  -9    0.58    0.37
 -14   4  10   61.63    2.54
  14  -4 -10   68.01    2.80
 -14   4  11    0.45    0.22
  14  -4 -11    0.51    0.23
 -14   4  12   31.48    1.32
  14  -4 -12   32.28    1.36
 -14   4  13    1.05    0.13
 -14   4  16   27.96    1.18
 -14   4  16   24.77    1.06
 -14   4  17   25.20    1.10
 -14   4  17   24.27    1.05
 -14   4  18   37.23    1.59
 -14   4  18   32.73    1.41
 -14   4  19    9.69    0.58
 -14   4  19    9.17    0.58
 -14   4  20    2.02    0.48
 -14   4  20    1.77    0.44
 -14   4  21    1.07    0.51
 -14   4  21    0.89    0.52
 -14   4  22   -1.08    0.57
 -14   4  22    0.16    0.60
 -14   4  23    1.67    0.74
 -14   4  23    0.02    0.74
  13  -5  10    1.39    0.53
  13  -5  10    0.78    0.65
  13  -5   9    0.80    0.59
  13  -5   9    0.53    0.66
  13  -5   8   29.51    1.45
  13  -5   8   33.80    1.64
  13  -5   7    4.91    0.70
  13  -5   7    4.63    0.71
  13  -5   6   64.24    2.80
  13  -5   6   64.90    2.80
  13  -5   5   -0.58    0.65
  13  -5   5    0.42    0.59
  13  -5   4    2.39    0.66
  13  -5   4    2.43    0.59
  13  -5   3    4.01    0.66
  13  -5   3    5.56    0.70
  13  -5   2    1.75    0.64
  13  -5   1    0.26    0.61
  13  -5   0   82.26    3.51
  13  -5  -1    1.84    0.63
  13  -5  -2   60.45    2.62
  13  -5  -3    9.30    0.73
  13  -5  -4   48.83    2.11
  13  -5  -5    0.47    0.38
  13  -5  -6  148.70    6.04
  13  -5  -7   12.59    0.65
  13  -5  -8   87.74    3.58
  13  -5  -9    1.25    0.21
 -13   5  18   18.82    0.85
 -13   5  18   17.91    0.80
 -13   5  19   -0.43    0.35
 -13   5  19    0.27    0.33
 -13   5  20    1.07    0.45
 -13   5  20    1.28    0.41
 -13   5  21    1.72    0.52
 -13   5  21    2.01    0.51
 -13   5  22    5.19    0.65
 -13   5  22    5.52    0.64
 -13   5  23    1.03    0.72
 -13   5  23    1.19    0.67
  12  -6  11    0.01    0.55
  12  -6  11   -0.72    0.59
  12  -6   9   19.14    1.10
  12  -6   9   21.56    1.19
  12  -6   8   -0.24    0.64
  12  -6   8   -0.47    0.57
  12  -6   7   28.22    1.45
  12  -6   7   30.61    1.50
  12  -6   6   22.28    1.23
  12  -6   6   20.07    1.14
  12  -6   5    0.63    0.57
  12  -6   5    1.61    0.55
  12  -6   4   63.21    2.75
  12  -6   4   63.69    2.76
  12  -6   3   -0.53    0.55
  12  -6   3   -0.03    0.58
  12  -6   2   21.82    1.20
  12  -6   2   21.70    1.17
  12  -6   1   65.18    2.83
  12  -6   1   69.21    2.97
  12  -6   0    5.18    0.65
  12  -6   0    6.29    0.64
  12  -6  -1  133.20    5.49
  12  -6  -1  137.70    5.66
  12  -6  -2   46.22    2.02
  12  -6  -2   48.26    2.14
  12  -6  -3    8.88    0.66
  12  -6  -3    9.18    0.64
  12  -6  -4  172.90    7.02
  12  -6  -4  173.80    7.04
  12  -6  -5   13.04    0.71
  12  -6  -5   13.26    0.71
  12  -6  -6    1.33    0.33
  12  -6  -6    1.71    0.32
  12  -6  -7  119.40    4.84
  12  -6  -7  126.10    5.12
 -12   6  19    1.55    0.33
 -12   6  19    1.30    0.33
 -12   6  20    0.27    0.43
 -12   6  20    0.29    0.37
 -12   6  21    7.88    0.59
 -12   6  21    8.12    0.67
 -12   6  22    0.48    0.61
 -12   6  22   -0.03    0.54
 -12   6  23    1.09    0.79
 -12   6  23    0.08    0.70
  11  -7  12    0.31    0.58
  11  -7  11    3.98    0.70
  11  -7  11    5.86    0.64
  11  -7  10    1.00    0.65
  11  -7  10   -0.24    0.57
  11  -7   9    6.30    0.77
  11  -7   9    4.67    0.71
  11  -7   8    1.66    0.66
  11  -7   8    0.86    0.64
  11  -7   7    9.34    0.81
  11  -7   7    9.26    0.79
  11  -7   6   17.70    1.07
  11  -7   6   18.79    1.08
  11  -7   5   45.81    2.09
  11  -7   5   43.10    1.98
  11  -7   4    1.23    0.65
  11  -7   4    0.74    0.59
  11  -7   3    4.37    0.69
  11  -7   3    4.39    0.65
  11  -7   2    1.54    0.62
  11  -7   2    0.43    0.58
  11  -7   1    0.52    0.60
  11  -7   1    0.19    0.54
  11  -7   0    8.04    0.71
  11  -7   0    7.98    0.68
  11  -7  -1   20.95    1.11
  11  -7  -1   20.89    1.08
  11  -7  -2    1.50    0.45
  11  -7  -2    1.04    0.45
  11  -7  -3  208.80    8.44
  11  -7  -3  209.60    8.49
  11  -7  -5    7.25    0.47
  11  -7  -5    7.46    0.50
  11  -7  -6    1.17    0.25
  11  -7  -6    1.27    0.25
 -11   7  19    7.33    0.50
 -11   7  19    6.49    0.44
 -11   7  20   -0.13    0.39
 -11   7  20    0.20    0.43
 -11   7  21    0.58    0.54
 -11   7  21   -0.09    0.47
 -11   7  22   -0.38    0.66
 -11   7  22    0.29    0.58
  10  -8  11    0.97    0.59
  10  -8  11    1.20    0.57
  10  -8  10   16.65    1.03
  10  -8  10   17.24    1.03
  10  -8   9    4.09    0.62
  10  -8   9    4.44    0.69
  10  -8   8   -1.05    0.64
  10  -8   8   -1.49    0.62
  10  -8   7   17.12    1.04
  10  -8   7   16.58    1.01
  10  -8   6   48.12    2.19
  10  -8   6   44.99    2.03
  10  -8   5   19.19    1.12
  10  -8   5   18.87    1.09
  10  -8   4    1.74    0.65
  10  -8   4    1.57    0.59
  10  -8   3   25.88    1.35
  10  -8   3   26.53    1.35
  10  -8   2   12.22    0.89
  10  -8   2   11.79    0.82
  10  -8   1   67.79    2.92
  10  -8   1   64.81    2.78
  10  -8   0    3.33    0.59
  10  -8   0    3.81    0.58
  10  -8  -1   20.30    1.06
  10  -8  -1   21.11    1.06
  10  -8  -2   15.53    0.86
  10  -8  -2   17.41    0.91
  10  -8  -3    0.47    0.37
  10  -8  -3    1.54    0.38
  10  -8  -4   38.12    1.64
  10  -8  -4   39.40    1.69
  10  -8  -5   46.32    1.93
  10  -8  -5   49.98    2.08
  10  -8  -6    6.84    0.35
  10  -8  -6    8.19    0.40
 -10   8  18    3.59    0.37
 -10   8  18    4.73    0.37
 -10   8  19    2.20    0.41
 -10   8  19    2.24    0.37
 -10   8  20    1.48    0.49
 -10   8  20    0.79    0.44
 -10   8  21    4.60    0.63
 -10   8  21    4.36    0.58
 -10   8  22    0.07    0.70
 -10   8  22   -0.92    0.61
   9  -9  12    0.83    0.64
   9  -9  12    0.57    0.60
   9  -9  11    0.72    0.65
   9  -9  11    0.31    0.64
   9  -9  10   11.26    0.92
   9  -9  10   11.12    0.84
   9  -9   9    0.19    0.60
   9  -9   9    0.06    0.61
   9  -9   8   93.19    3.93
   9  -9   8  101.60    4.24
   9  -9   6   17.10    1.07
   9  -9   6   19.06    1.09
   9  -9   5   32.01    1.60
   9  -9   5   31.48    1.56
   9  -9   3   -0.18    0.62
   9  -9   3    0.10    0.58
   9  -9   2  169.20    6.94
   9  -9   2  171.50    7.01
   9  -9   1    0.44    0.58
   9  -9   1    0.75    0.53
   9  -9   0  111.30    4.61
   9  -9   0  110.40    4.57
   9  -9  -1    4.45    0.50
   9  -9  -1    4.95    0.55
   9  -9  -2   14.06    0.82
   9  -9  -2   13.75    0.77
   9  -9  -3   10.58    0.65
   9  -9  -3   10.62    0.63
   9  -9  -4  138.20    5.61
   9  -9  -4  131.70    5.35
   9  -9  -5   17.23    0.79
   9  -9  -5   15.35    0.72
  -9   9  17    5.27    0.37
  -9   9  17    6.41    0.40
  -9   9  18    1.78    0.38
  -9   9  18    2.48    0.37
  -9   9  19    2.64    0.47
  -9   9  19    2.80    0.47
  -9   9  20   12.03    0.78
  -9   9  20   10.73    0.73
  -9   9  21    1.59    0.63
  -9   9  21    1.83    0.66
   8 -10  13   -0.64    0.64
   8 -10  13    0.10    0.58
   8 -10  12   11.67    0.83
   8 -10  12   11.01    0.81
   8 -10  11    1.35    0.69
   8 -10  11    1.93    0.65
   8 -10   9   26.56    1.37
   8 -10   9   26.18    1.34
   8 -10   8    0.66    0.65
   8 -10   8    1.27    0.59
   8 -10   7    1.88    0.55
   8 -10   7    0.99    0.70
   8 -10   6   32.60    1.62
   8 -10   6   31.37    1.53
   8 -10   5    1.69    0.62
   8 -10   5    1.48    0.62
   8 -10   4   56.79    2.49
   8 -10   3   22.76    1.21
   8 -10   2    8.95    0.70
   8 -10   1   62.38    2.69
   8 -10   0   65.16    2.78
   8 -10  -1    0.86    0.43
   8 -10  -2  153.40    6.23
   8 -10  -3   13.80    0.75
   8 -10  -4   66.70    2.76
   8 -10  -5    8.61    0.50
   8 -10  -6   45.58    1.88
   8 -10  -6   51.15    2.12
  -8  10  17    1.80    0.38
  -8  10  17    2.06    0.37
  -8  10  18   16.09    0.85
  -8  10  18   18.06    0.90
  -8  10  19    0.96    0.55
  -8  10  19    0.89    0.49
  -8  10  20    0.06    0.59
  -8  10  20    0.66    0.62
  -8  10  21    0.70    0.78
  -8  10  21   -0.41    0.75
   7 -11  13   16.70    1.01
   7 -11  13   18.89    1.08
   7 -11  12    3.82    0.69
   7 -11  12    3.96    0.68
   7 -11  11    9.16    0.86
   7 -11  11   11.40    0.91
   7 -11  10    2.26    0.61
   7 -11  10    1.70    0.72
   7 -11   9    1.33    0.58
   7 -11   9    2.41    0.72
   7 -11   8   13.26    0.88
   7 -11   7    0.87    0.63
   7 -11   6    0.85    0.60
   7 -11   5   86.54    3.67
   7 -11   4    0.84    0.58
   7 -11   3   23.80    1.23
   7 -11   2   20.22    1.10
   7 -11   1   29.66    1.44
   7 -11   0   20.79    1.10
   7 -11  -1   39.32    1.75
   7 -11  -2   33.93    1.52
   7 -11  -3   29.56    1.35
   7 -11  -4    8.38    0.53
  -7  11   5    1.91    0.32
   7 -11  -5    1.82    0.32
  -7  11   6   47.84    1.99
   7 -11  -6   46.35    1.93
  -7  11   7    4.06    0.28
   7 -11  -7    4.86    0.34
  -7  11   8    6.43    0.34
   7 -11  -8    5.48    0.31
  -7  11  13    2.74    0.28
  -7  11  13    3.49    0.30
  -7  11  15    8.97    0.55
  -7  11  15    8.41    0.52
  -7  11  16    3.57    0.46
  -7  11  16    4.67    0.47
  -7  11  17   28.80    1.31
  -7  11  17   25.73    1.20
  -7  11  18    0.69    0.51
  -7  11  18    0.95    0.51
  -7  11  19    1.04    0.59
  -7  11  19    1.08    0.58
  -7  11  20    1.86    0.69
  -7  11  20    0.68    0.67
   6 -12  13   -1.47    0.67
   6 -12  13    0.72    0.59
   6 -12  12    3.42    0.71
   6 -12  12    3.86    0.75
   6 -12  11    7.89    0.78
   6 -12  11   10.35    0.87
   6 -12  10   10.57    0.87
   6 -12   9   23.61    1.27
   6 -12   8    5.89    0.71
   6 -12   7   23.57    1.26
   6 -12   6   10.01    0.83
   6 -12   5    6.56    0.74
   6 -12   4   14.14    0.94
   6 -12   3   85.07    3.59
   6 -12   2    4.38    0.66
   6 -12   1   26.24    1.33
  -6  12   0   13.15    0.84
   6 -12   0   15.14    0.93
  -6  12   1    0.31    0.48
   6 -12  -1    0.50    0.57
  -6  12   2   21.13    1.08
   6 -12  -2   20.01    1.05
  -6  12   3    2.37    0.44
   6 -12  -3    2.19    0.46
  -6  12   4    9.37    0.59
   6 -12  -4   10.64    0.64
  -6  12   5  112.80    4.60
   6 -12  -5  108.30    4.42
  -6  12   6   44.41    1.89
   6 -12  -6   44.80    1.90
  -6  12   7   68.46    2.82
   6 -12  -7   69.05    2.86
  -6  12   8    2.43    0.32
   6 -12  -8    3.22    0.36
  -6  12   9    6.68    0.42
   6 -12  -9    7.10    0.46
  -6  12  10    0.04    0.26
  -6  12  11   38.68    1.63
  -6  12  12    6.89    0.48
  -6  12  13   47.31    1.98
  -6  12  13   43.09    1.83
  -6  12  14    0.19    0.42
  -6  12  14    0.56    0.39
  -6  12  15   39.49    1.72
  -6  12  15   44.29    1.90
  -6  12  16    1.54    0.48
  -6  12  16    1.22    0.45
  -6  12  17    4.80    0.59
  -6  12  17    6.38    0.63
  -6  12  18    1.26    0.64
  -6  12  18    0.40    0.60
  -6  12  19    7.65    0.78
  -6  12  19    6.71    0.78
   5 -13  13    7.25    0.72
   5 -13  13    6.60    0.71
   5 -13  12   -0.45    0.57
   5 -13  11    6.87    0.74
   5 -13  10    9.97    0.83
   5 -13   9    0.82    0.63
   5 -13   8   17.07    1.05
   5 -13   7   11.60    0.88
   5 -13   6    1.30    0.63
   5 -13   5   30.63    1.53
   5 -13   4   25.67    1.32
  -5  13  -3    7.20    0.72
   5 -13   3    8.99    0.78
  -5  13  -2   71.64    3.08
   5 -13   2   69.01    2.98
  -5  13  -1   21.70    1.17
   5 -13   1   21.78    1.14
  -5  13   0   38.92    1.77
   5 -13   0   40.36    1.87
  -5  13   1    7.87    0.67
   5 -13  -1    7.79    0.67
  -5  13   2    4.38    0.57
   5 -13  -2    5.05    0.59
  -5  13   3   48.39    2.11
   5 -13  -3   50.98    2.19
  -5  13   4  129.00    5.26
   5 -13  -4  129.70    5.31
  -5  13   5    4.14    0.47
   5 -13  -5    3.57    0.43
  -5  13   6  141.00    5.74
   5 -13  -6  145.30    5.91
  -5  13   7    5.10    0.46
   5 -13  -7    5.12    0.48
  -5  13   8   20.76    0.97
   5 -13  -8   21.75    1.03
  -5  13   9   46.15    1.96
   5 -13  -9   42.44    1.82
  -5  13  10    1.34    0.40
   5 -13 -10    0.96    0.38
  -5  13  11    0.68    0.38
   5 -13 -11    0.34    0.44
  -5  13  12   42.57    1.83
  -5  13  13    6.33    0.56
  -5  13  14   49.09    2.10
  -5  13  15    7.10    0.62
  -5  13  15    8.05    0.62
  -5  13  16   -0.62    0.56
  -5  13  16    0.33    0.57
  -5  13  17    0.59    0.66
  -5  13  17    0.55    0.62
  -5  13  18   11.16    0.87
  -5  13  18   13.76    0.97
   4 -14  13    0.17    0.55
   4 -14  12    4.08    0.71
   4 -14  11    1.73    0.67
   4 -14  10    5.16    0.66
   4 -14   9    1.23    0.65
   4 -14   8   28.77    1.47
   4 -14   7    7.88    0.78
   4 -14   6   28.66    1.46
  -4  14  -5    0.01    0.63
   4 -14   5    0.15    0.61
  -4  14  -4   30.84    1.52
   4 -14   4   33.85    1.63
  -4  14  -3    0.49    0.58
   4 -14   3    1.73    0.62
  -4  14  -2    2.28    0.69
   4 -14   2    1.46    0.62
  -4  14  -1   11.15    0.86
   4 -14   1   12.31    0.89
  -4  14   0   23.98    1.24
   4 -14   0   22.52    1.18
  -4  14   1   32.86    1.55
   4 -14  -1   34.81    1.61
  -4  14   2  101.80    4.21
   4 -14  -2  103.60    4.30
  -4  14   3   24.28    1.20
   4 -14  -3   24.51    1.18
  -4  14   4   11.19    0.72
   4 -14  -4   11.40    0.71
  -4  14   5    2.21    0.45
   4 -14  -5    1.18    0.44
  -4  14   6   21.10    1.04
   4 -14  -6   20.16    1.01
  -4  14   7    0.66    0.41
   4 -14  -7    0.91    0.44
  -4  14   8   50.42    2.14
   4 -14  -8   50.97    2.19
  -4  14   9    1.46    0.39
   4 -14  -9    1.12    0.43
  -4  14  10   50.47    2.15
   4 -14 -10   48.13    2.07
  -4  14  11    0.15    0.38
   4 -14 -11   -0.36    0.46
  -4  14  12    1.17    0.44
  -4  14  13    2.51    0.48
  -4  14  14   29.56    1.39
  -4  14  15    0.05    0.52
  -4  14  16   13.38    0.89
  -4  14  16   12.80    0.84
  -4  14  17    0.31    0.64
  -4  14  17    0.42    0.69
   3 -15  13    1.08    0.61
   3 -15  12    5.50    0.75
   3 -15  11    9.32    0.79
   3 -15  10   14.81    0.98
   3 -15   9    2.51    0.67
   3 -15   8    5.45    0.70
  -3  15  -7    0.51    0.65
   3 -15   7    3.08    0.69
  -3  15  -6    3.45    0.64
   3 -15   6    2.85    0.67
  -3  15  -5   17.24    1.06
   3 -15   5   18.21    1.09
  -3  15  -4   16.85    1.05
   3 -15   4   15.40    1.00
  -3  15  -3    1.58    0.58
   3 -15   3    2.11    0.66
  -3  15  -2   25.16    1.32
   3 -15   2   23.89    1.23
  -3  15  -1   18.53    1.03
   3 -15   1   18.60    1.09
  -3  15   0    1.57    0.57
   3 -15   0   -0.37    0.53
  -3  15   1    6.12    0.66
   3 -15  -1    6.57    0.66
  -3  15   2    5.07    0.58
   3 -15  -2    4.96    0.56
  -3  15   3   29.67    1.41
   3 -15  -3   26.05    1.28
  -3  15   4   23.35    1.17
   3 -15  -4   20.70    1.05
  -3  15   5    0.93    0.44
   3 -15  -5    0.47    0.44
  -3  15   6   25.61    1.23
   3 -15  -6   25.29    1.21
  -3  15   7   10.38    0.68
   3 -15  -7   10.60    0.71
  -3  15   8    0.50    0.42
   3 -15  -8    0.22    0.50
  -3  15   9   49.22    2.13
   3 -15  -9   49.91    2.17
  -3  15  10   42.51    1.86
   3 -15 -10   41.66    1.86
  -3  15  11    8.89    0.66
   3 -15 -11    6.91    0.63
  -3  15  12   23.89    1.18
   3 -15 -12   30.38    1.45
  -3  15  13    7.75    0.66
  -3  15  14    0.86    0.52
  -3  15  15    3.86    0.65
  -3  15  16    5.71    0.79
   2 -16  13    2.14    0.70
   2 -16  12   -0.11    0.63
   2 -16  11   35.07    1.69
   2 -16  10   -0.20    0.67
  -2  16  -9   38.80    1.81
   2 -16   9   44.52    2.06
  -2  16  -8    5.78    0.70
   2 -16   8    6.14    0.78
  -2  16  -7    3.14    0.70
   2 -16   7    2.64    0.68
  -2  16  -6    2.56    0.70
   2 -16   6    0.45    0.56
  -2  16  -5   14.65    0.98
   2 -16   5   12.21    0.90
  -2  16  -4    1.16    0.64
   2 -16   4    0.09    0.62
  -2  16  -3   23.90    1.26
   2 -16   3   24.32    1.27
  -2  16  -2    1.44    0.60
   2 -16   2    1.98    0.65
  -2  16  -1   16.72    1.01
   2 -16   1   18.69    1.05
  -2  16   0   22.17    1.15
   2 -16   0   24.78    1.27
  -2  16   1   14.10    0.86
   2 -16  -1   13.90    0.86
  -2  16   2   37.64    1.73
   2 -16  -2   36.32    1.69
  -2  16   3    7.95    0.67
   2 -16  -3    8.38    0.69
  -2  16   4    0.75    0.48
   2 -16  -4    2.07    0.51
  -2  16   5   22.17    1.10
   2 -16  -5   22.31    1.14
  -2  16   6    2.27    0.49
   2 -16  -6    3.54    0.54
  -2  16   7    5.74    0.54
   2 -16  -7    5.89    0.63
  -2  16   8    3.22    0.53
   2 -16  -8    3.87    0.57
  -2  16   9   15.39    0.90
   2 -16  -9   14.93    0.87
  -2  16  10    2.24    0.52
   2 -16 -10    2.03    0.55
  -2  16  11   40.10    1.80
   2 -16 -11   40.50    1.83
  -2  16  12   -0.12    0.52
   2 -16 -12    0.99    0.65
  -2  16  13    1.44    0.58
  -2  16  14    0.68    0.61
  -2  16  15    0.16    0.75
   1 -17  12   -0.26    0.67
   1 -17  11    0.85    0.63
  -1  17 -10    1.22    0.62
   1 -17  10    0.98    0.72
  -1  17  -9    9.20    0.81
   1 -17   9    9.16    0.84
  -1  17  -8    2.49    0.66
   1 -17   8    3.12    0.74
  -1  17  -7   33.83    1.60
   1 -17   7   34.29    1.67
  -1  17  -6    0.29    0.67
   1 -17   6   -0.93    0.65
  -1  17  -5    1.86    0.65
   1 -17   5    3.70    0.63
  -1  17  -4    8.00    0.72
   1 -17   4    9.29    0.76
  -1  17  -3    1.97    0.55
   1 -17   3    0.80    0.61
  -1  17  -2    0.80    0.57
   1 -17   2    1.22    0.60
  -1  17  -1   22.84    1.20
   1 -17   1   23.68    1.24
  -1  17   0   18.72    1.03
   1 -17   0   19.15    1.05
  -1  17   1    4.40    0.61
   1 -17  -1    5.23    0.61
  -1  17   2    1.41    0.53
   1 -17  -2    0.83    0.51
  -1  17   3    6.80    0.63
   1 -17  -3    8.36    0.70
  -1  17   4    5.70    0.64
   1 -17  -4    5.83    0.63
  -1  17   5    1.44    0.53
   1 -17  -5    0.47    0.49
  -1  17   6    1.78    0.51
   1 -17  -6    1.44    0.54
  -1  17   7   19.52    1.03
   1 -17  -7   18.22    1.03
  -1  17   8    7.25    0.63
   1 -17  -8    7.00    0.69
  -1  17   9   10.81    0.77
   1 -17  -9   10.53    0.82
  -1  17  10    6.09    0.65
   1 -17 -10    5.43    0.68
  -1  17  11    5.82    0.68
   1 -17 -11    5.59    0.73
  -1  17  12    3.60    0.68
   1 -17 -12    3.08    0.71
  -1  17  13    1.02    0.71
   0  18 -11   -0.69    0.59
   0 -18  11    0.80    0.75
   0  18 -10   -0.39    0.61
   0 -18  10    0.79    0.64
   0  18  -9    1.05    0.63
   0 -18   9    0.30    0.67
   0  18  -8   24.18    1.29
   0 -18   8   27.73    1.42
   0  18  -7    4.21    0.65
   0 -18   7    3.63    0.70
   0  18  -6   13.50    0.91
   0 -18   6   12.20    0.92
   0  18  -5    4.55    0.67
   0 -18   5    3.26    0.68
   0  18  -4    1.45    0.56
   0 -18   4    0.69    0.62
   0  18  -3   16.78    0.99
   0 -18   3   14.82    0.93
   0  18  -2   16.26    0.96
   0 -18   2   16.70    1.00
   0  18  -1   -0.15    0.54
   0 -18   1   -0.67    0.54
   0  18   0   26.33    1.31
   0 -18   0   24.73    1.26
   0  18   1   -0.19    0.52
   0 -18  -1    0.87    0.51
   0  18   2   16.93    0.99
   0 -18  -2   15.62    0.93
   0  18   3   15.00    0.89
   0 -18  -3   15.42    0.94
   0  18   4    1.32    0.51
   0 -18  -4    1.95    0.58
   0  18   5    4.38    0.60
   0 -18  -5    4.13    0.62
   0  18   6   14.76    0.87
   0 -18  -6   15.21    0.91
   0  18   7    4.95    0.59
   0 -18  -7    4.61    0.67
   0  18   8   25.86    1.30
   0 -18  -8   29.13    1.45
   0  18   9   -0.93    0.58
   0 -18  -9   -0.37    0.61
   0  18  10   -0.39    0.60
   0 -18 -10    0.38    0.63
   0  18  11    0.07    0.69
   0 -18 -11   -0.78    0.66
   1  19 -10    7.81    0.75
  -1 -19  10    5.23    0.81
   1  19  -9    3.18    0.71
  -1 -19   9    3.21    0.71
   1  19  -8    0.04    0.56
  -1 -19   8    0.82    0.66
   1  19  -7    6.21    0.75
  -1 -19   7    6.44    0.75
   1  19  -6    3.22    0.64
  -1 -19   6    3.34    0.70
   1  19  -5    0.52    0.55
  -1 -19   5    0.15    0.61
   1  19  -4   23.41    1.23
  -1 -19   4   27.78    1.41
   1  19  -3    0.95    0.58
  -1 -19   3    0.84    0.57
   1  19  -2    6.66    0.71
  -1 -19   2    5.89    0.69
   1  19  -1    2.95    0.59
  -1 -19   1    3.38    0.65
   1  19   0    0.70    0.55
  -1 -19   0   -0.17    0.55
   1  19   1    0.63    0.59
  -1 -19  -1   -1.17    0.56
   1  19   2   21.28    1.11
  -1 -19  -2   18.76    1.05
   1  19   3   -0.32    0.57
  -1 -19  -3    0.14    0.55
   1  19   4   20.19    1.10
  -1 -19  -4   17.48    0.97
   1  19   5   -0.34    0.54
  -1 -19  -5    1.55    0.57
   1  19   6    0.77    0.52
  -1 -19  -6    1.65    0.71
   1  19   7    3.04    0.61
  -1 -19  -7    2.88    0.76
   1  19   8    4.04    0.64
  -1 -19  -8    4.11    0.69
   1  19   9    1.84    0.67
  -1 -19  -9    1.50    0.63
   2  20  -9    1.43    0.70
  -2 -20   9    2.26    0.76
   2  20  -8    0.82    0.62
  -2 -20   8    0.60    0.65
   2  20  -7    0.82    0.64
  -2 -20   7    0.05    0.67
   2  20  -6    2.83    0.64
  -2 -20   6    3.40    0.67
   2  20  -5   13.88    0.90
  -2 -20   5   14.02    0.95
   2  20  -4    0.80    0.63
  -2 -20   4    0.51    0.59
   2  20  -3    4.17    0.66
  -2 -20   3    4.78    0.66
   2  20  -2    2.80    0.59
  -2 -20   2    1.94    0.61
   2  20  -1    0.94    0.58
  -2 -20   1    2.19    0.61
   2  20   0   13.71    0.89
  -2 -20   0   13.61    0.90
   2  20   1    4.54    0.62
  -2 -20  -1    4.11    0.64
   2  20   2    1.18    0.56
  -2 -20  -2    1.35    0.58
   2  20   3    3.49    0.60
  -2 -20  -3    2.62    0.61
   2  20   4    2.01    0.62
  -2 -20  -4    1.88    0.65
   2  20   5    5.54    0.70
  -2 -20  -5    6.47    0.71
   2  20   6    2.80    0.63
  -2 -20  -6    2.61    0.69
   2  20   7    0.69    0.65
  -2 -20  -7    0.74    0.68
   3  21  -7    5.23    0.78
  -3 -21   7    7.75    0.88
   3  21  -6    1.36    0.59
  -3 -21   6    1.42    0.62
   3  21  -5    2.12    0.64
  -3 -21   5    1.68    0.61
   3  21  -4   -0.05    0.54
  -3 -21   4   -0.21    0.58
   3  21  -3    4.75    0.66
  -3 -21   3    2.84    0.65
   3  21  -2   -1.05    0.61
  -3 -21   2   -0.75    0.55
   3  21  -1   18.82    1.07
  -3 -21   1   18.00    1.05
   3  21   0    0.73    0.63
  -3 -21   0    0.37    0.58
   3  21   1    5.10    0.65
  -3 -21  -1    5.53    0.68
   3  21   2    1.18    0.62
  -3 -21  -2    1.03    0.62
   3  21   3    2.32    0.68
  -3 -21  -3    0.24    0.60
   3  21   4    1.52    0.71
  -3 -21  -4    1.17    0.67
 -24  -4   8    3.23    0.61
  24   4  -8    0.76    0.84
 -24  -4   9    0.72    0.59
  24   4  -9    0.09    0.80
 -24  -4  10    0.21    0.61
  24   4 -10   -0.73    0.73
 -24  -4  11    1.39    0.56
  24   4 -11   -0.19    0.74
 -24  -4  12    2.47    0.61
  24   4 -12    3.00    0.73
 -24  -4  13    0.09    0.56
  24   4 -13    0.58    0.67
 -24  -4  14    5.64    0.71
  24   4 -14    3.07    0.70
 -24  -4  15    0.47    0.62
  24   4 -15    1.62    0.69
 -23  -3   4    1.07    0.59
  23   3  -4    2.52    0.79
 -23  -3   5   14.60    0.91
  23   3  -5   14.75    1.00
 -23  -3   6    0.71    0.52
  23   3  -6    1.50    0.74
 -23  -3   7    7.77    0.70
  23   3  -7    8.32    0.84
 -23  -3   8    3.06    0.64
  23   3  -8    4.29    0.72
 -23  -3   9    3.15    0.66
  23   3  -9    2.14    0.72
 -23  -3  10    8.54    0.74
  23   3 -10    5.54    0.76
 -23  -3  11    0.92    0.58
  23   3 -11    1.75    0.66
 -23  -3  12    0.66    0.53
  23   3 -12    0.61    0.61
 -23  -3  13   11.21    0.82
  23   3 -13   11.12    0.86
 -23  -3  14    1.16    0.58
  23   3 -14    0.29    0.61
 -23  -3  15    2.91    0.62
  23   3 -15    4.15    0.70
 -23  -3  16    3.74    0.61
  23   3 -16    3.36    0.76
 -23  -3  17    0.87    0.55
  23   3 -17    2.19    0.67
 -23  -3  18    1.09    0.63
  23   3 -18    1.33    0.67
 -22  -2   2    0.75    0.60
  22   2  -2    0.68    0.70
 -22  -2   3   24.35    1.26
  22   2  -3   23.88    1.30
 -22  -2   4    0.63    0.57
  22   2  -4   -0.48    0.60
 -22  -2   5    1.47    0.61
  22   2  -5    1.99    0.72
 -22  -2   6    6.04    0.71
  22   2  -6    4.91    0.77
 -22  -2   7    0.77    0.58
  22   2  -7    0.42    0.71
 -22  -2   8   -0.19    0.55
  22   2  -8    0.00    0.68
 -22  -2   9   28.33    1.37
  22   2  -9   26.90    1.40
 -22  -2  10    4.34    0.63
  22   2 -10    5.74    0.75
 -22  -2  11   22.90    1.17
  22   2 -11   29.26    1.49
 -22  -2  12    3.51    0.60
  22   2 -12    1.83    0.62
 -22  -2  13    6.52    0.69
  22   2 -13    5.53    0.68
 -22  -2  14    1.96    0.56
  22   2 -14    0.82    0.60
 -22  -2  15    6.54    0.66
  22   2 -15    4.46    0.69
 -22  -2  16    1.04    0.54
  22   2 -16    0.83    0.64
 -22  -2  17   20.60    1.08
  22   2 -17   20.89    1.18
 -22  -2  18    0.34    0.58
  22   2 -18    1.17    0.66
 -22  -2  19    3.40    0.64
  22   2 -19    4.77    0.73
 -22  -2  20    0.67    0.71
  22   2 -20    2.07    0.78
  21   1   0    4.92    0.76
  21   1  -1    4.93    0.72
 -21  -1   2   18.90    1.05
  21   1  -2   20.89    1.22
 -21  -1   3    2.79    0.63
  21   1  -3    2.40    0.72
 -21  -1   4    9.86    0.82
  21   1  -4    8.29    0.79
 -21  -1   5    1.47    0.53
  21   1  -5   -0.27    0.60
 -21  -1   6    1.14    0.59
  21   1  -6    0.95    0.64
 -21  -1   7   30.61    1.49
  21   1  -7   36.65    1.76
 -21  -1   8    8.07    0.71
  21   1  -8    8.18    0.82
 -21  -1   9    0.17    0.56
  21   1  -9    0.71    0.58
 -21  -1  10   42.79    1.92
  21   1 -10   53.64    2.37
 -21  -1  11    1.32    0.57
  21   1 -11   -0.20    0.62
 -21  -1  12   24.79    1.25
  21   1 -12   25.59    1.31
 -21  -1  13   10.87    0.80
  21   1 -13    9.89    0.75
 -21  -1  14    6.04    0.63
  21   1 -14    7.28    0.69
 -21  -1  15   10.77    0.72
  21   1 -15    9.97    0.81
 -21  -1  16    9.10    0.70
  21   1 -16    6.94    0.72
 -21  -1  17    0.75    0.50
  21   1 -17   -0.33    0.56
 -21  -1  18    4.42    0.63
  21   1 -18    4.20    0.69
 -21  -1  19    8.03    0.72
  21   1 -19    7.62    0.77
 -21  -1  20    0.87    0.57
  21   1 -20    0.34    0.68
 -21  -1  21    3.99    0.76
  21   1 -21    6.84    0.83
  20   0   2   25.39    1.34
  20   0   1   -0.17    0.68
  20   0   0    8.74    0.80
  20   0  -1   -0.75    0.67
  20   0  -2   -0.60    0.67
 -20   0   3   -0.29    0.60
  20   0  -3   -0.23    0.67
 -20   0   4    7.67    0.77
  20   0  -4    6.99    0.76
 -20   0   5    0.53    0.54
  20   0  -5   -0.19    0.58
 -20   0   6   63.36    2.72
  20   0  -6   57.47    2.52
 -20   0   7   -0.26    0.56
  20   0  -7    0.45    0.60
 -20   0   8    5.92    0.62
  20   0  -8    6.14    0.70
 -20   0   9    0.34    0.55
  20   0  -9    0.45    0.55
 -20   0  10    0.97    0.60
  20   0 -10    2.20    0.60
 -20   0  11    0.75    0.51
  20   0 -11    0.02    0.55
 -20   0  12   32.55    1.51
  20   0 -12   37.07    1.70
 -20   0  13   -0.11    0.50
  20   0 -13    0.49    0.54
 -20   0  14   96.84    4.01
  20   0 -14   82.37    3.46
 -20   0  15   -0.34    0.46
  20   0 -15    0.27    0.54
 -20   0  16    2.19    0.46
  20   0 -16    3.42    0.56
 -20   0  17    0.06    0.47
  20   0 -17   -1.30    0.56
 -20   0  18    5.05    0.56
  20   0 -18    4.23    0.65
 -20   0  19    0.38    0.53
  20   0 -19    0.97    0.63
 -20   0  20   20.34    1.06
  20   0 -20   22.12    1.19
 -20   0  21   -0.06    0.62
 -20   0  22    1.08    0.73
  19  -1   4    3.67    0.69
  19  -1   3   11.13    0.84
  19  -1   2   -1.17    0.64
  19  -1   1    8.97    0.79
  19  -1   0    6.13    0.73
  19  -1  -1   -0.20    0.64
  19  -1  -2    9.53    0.80
 -19   1   3    5.99    0.64
  19  -1  -3    6.57    0.75
 -19   1   4    3.61    0.60
  19  -1  -4    5.37    0.70
 -19   1   5   17.64    1.01
  19  -1  -5   19.14    1.11
 -19   1   6    7.40    0.70
  19  -1  -6    8.83    0.75
 -19   1   7   18.95    1.03
  19  -1  -7   20.06    1.11
 -19   1   8   28.18    1.37
  19  -1  -8   28.51    1.42
 -19   1   9    2.62    0.51
  19  -1  -9    3.61    0.60
 -19   1  10   26.83    1.28
  19  -1 -10   34.18    1.59
 -19   1  11    3.89    0.54
  19  -1 -11    4.12    0.64
 -19   1  12    0.17    0.49
  19  -1 -12    0.06    0.49
 -19   1  13   27.42    1.30
  19  -1 -13   31.29    1.45
 -19   1  14   12.37    0.73
  19  -1 -14   10.95    0.72
 -19   1  15    4.35    0.48
  19  -1 -15    3.82    0.58
 -19   1  16   39.45    1.73
  19  -1 -16   44.72    1.97
 -19   1  17    1.00    0.46
  19  -1 -17    0.90    0.55
 -19   1  18   11.47    0.70
  19  -1 -18   12.41    0.81
 -19   1  19    7.69    0.64
  19  -1 -19    6.93    0.66
 -19   1  20   -0.24    0.53
 -19   1  21    0.72    0.59
 -19   1  22    1.48    0.69
  18  -2   5   13.40    0.93
  18  -2   4    0.79    0.67
  18  -2   3    1.38    0.62
  18  -2   2    2.07    0.70
  18  -2   1    2.76    0.63
  18  -2   0    1.60    0.66
  18  -2  -1   17.24    1.05
  18  -2  -2    4.03    0.68
  18  -2  -3    3.13    0.69
 -18   2   4    2.25    0.52
  18  -2  -4    2.11    0.67
 -18   2   5    0.73    0.58
  18  -2  -5    3.17    0.67
 -18   2   6    0.03    0.51
  18  -2  -6    1.00    0.58
 -18   2   7   35.44    1.63
  18  -2  -7   34.94    1.63
 -18   2   8    5.14    0.66
  18  -2  -8    6.20    0.67
 -18   2   9   34.07    1.58
  18  -2  -9   32.99    1.54
 -18   2  10    3.98    0.55
  18  -2 -10    3.32    0.55
 -18   2  11    6.82    0.56
  18  -2 -11    6.16    0.57
 -18   2  12    2.09    0.45
  18  -2 -12    1.50    0.46
 -18   2  13   19.52    0.98
  18  -2 -13   19.10    0.97
 -18   2  14    1.35    0.43
  18  -2 -14    1.44    0.43
 -18   2  15   30.83    1.38
  18  -2 -15   26.33    1.22
 -18   2  16    0.40    0.39
  18  -2 -16    0.08    0.42
 -18   2  17   66.56    2.77
  18  -2 -17   70.01    2.93
 -18   2  18    0.82    0.41
 -18   2  19    0.78    0.42
 -18   2  20    2.99    0.51
 -18   2  21    2.04    0.53
 -18   2  21    1.17    0.59
 -18   2  22    1.44    0.63
 -18   2  22    2.13    0.60
  17  -3   6    2.04    0.67
  17  -3   6    0.76    0.56
  17  -3   5    7.17    0.73
  17  -3   5    6.77    0.66
  17  -3   4    1.99    0.64
  17  -3   3   13.54    0.93
  17  -3   2    3.51    0.71
  17  -3   1   14.02    0.98
  17  -3   0   19.72    1.12
  17  -3  -1   27.75    1.41
  17  -3  -2    0.42    0.61
  17  -3  -3   16.20    0.99
  17  -3  -4   18.70    1.07
  17  -3  -5   26.29    1.32
 -17   3   6   26.61    1.30
  17  -3  -6   24.79    1.27
 -17   3   7    8.64    0.67
  17  -3  -7    7.69    0.68
 -17   3   8    5.27    0.59
  17  -3  -8    4.15    0.56
 -17   3   9    1.04    0.52
  17  -3  -9    2.53    0.52
 -17   3  10    7.26    0.57
  17  -3 -10    7.70    0.61
 -17   3  11   16.21    0.82
  17  -3 -11   17.71    0.92
 -17   3  12    0.54    0.34
  17  -3 -12   -0.11    0.41
 -17   3  13   10.88    0.60
  17  -3 -13   10.80    0.62
 -17   3  14    2.34    0.37
  17  -3 -14    2.48    0.41
 -17   3  15    9.07    0.53
  17  -3 -15   10.02    0.58
 -17   3  16   35.11    1.49
 -17   3  17   18.28    0.85
 -17   3  18    0.81    0.33
 -17   3  19   15.57    0.76
 -17   3  19   13.98    0.73
 -17   3  20    0.46    0.37
 -17   3  20    0.93    0.42
 -17   3  22    0.46    0.49
 -17   3  22    0.18    0.54
 -17   3  23    0.57    0.63
 -17   3  23    0.54    0.62
  16  -4   7    0.59    0.64
  16  -4   7    1.48    0.54
  16  -4   6    1.79    0.67
  16  -4   6    1.93    0.58
  16  -4   5    3.69    0.63
  16  -4   5    2.88    0.70
  16  -4   4    7.99    0.82
  16  -4   4    8.49    0.71
  16  -4   3    1.21    0.62
  16  -4   2   53.03    2.37
  16  -4   1    1.73    0.59
  16  -4   0   17.58    1.05
  16  -4  -1   15.28    0.98
  16  -4  -2    9.41    0.78
  16  -4  -3    0.26    0.58
  16  -4  -4   59.14    2.58
  16  -4  -5    2.79    0.58
  16  -4  -6   56.50    2.46
  16  -4  -7    4.65    0.56
  16  -4  -8    0.42    0.45
 -16   4   9   17.63    0.89
  16  -4  -9   15.84    0.84
 -16   4  10   61.56    2.57
  16  -4 -10   64.80    2.70
 -16   4  11    0.15    0.32
  16  -4 -11    0.23    0.32
 -16   4  12   46.77    1.95
  16  -4 -12   46.38    1.93
 -16   4  13    4.74    0.31
  16  -4 -13    4.64    0.33
  15  -5   8    9.59    0.84
  15  -5   8    9.13    0.74
  15  -5   7   -0.16    0.60
  15  -5   7    0.42    0.56
  15  -5   6   19.70    1.09
  15  -5   6   20.44    1.15
  15  -5   5    1.71    0.63
  15  -5   5    1.10    0.54
  15  -5   4   19.41    1.15
  15  -5   4   18.89    1.08
  15  -5   3    3.68    0.74
  15  -5   3    2.18    0.59
  15  -5   2    4.09    0.70
  15  -5   2    3.49    0.58
  15  -5   1   -0.60    0.61
  15  -5   0   23.19    1.26
  15  -5  -1    6.17    0.70
  15  -5  -2   48.16    2.16
  15  -5  -3   -0.23    0.56
  15  -5  -4   28.55    1.41
  15  -5  -5    5.45    0.62
  15  -5  -6   10.97    0.72
  15  -5  -7    5.08    0.49
  15  -5  -8  125.40    5.11
  15  -5  -9    1.64    0.36
  15  -5 -10    1.56    0.26
  14  -6   9    2.17    0.66
  14  -6   9    2.66    0.57
  14  -6   8    0.21    0.68
  14  -6   8    0.81    0.61
  14  -6   7   30.76    1.52
  14  -6   7   29.52    1.44
  14  -6   6    2.41    0.70
  14  -6   6    1.92    0.64
  14  -6   5   19.92    1.15
  14  -6   5   21.33    1.13
  14  -6   4   21.96    1.24
  14  -6   4   24.40    1.27
  14  -6   3    0.27    0.64
  14  -6   3    0.65    0.54
  14  -6   2   52.22    2.33
  14  -6   2   52.45    2.32
  14  -6   1    0.71    0.64
  14  -6   1    0.15    0.55
  14  -6   0    1.66    0.60
  14  -6   0    1.38    0.55
  14  -6  -1  113.00    4.72
  14  -6  -1  104.30    4.35
  14  -6  -2   32.37    1.57
  14  -6  -2   35.85    1.62
  14  -6  -3    4.63    0.58
  14  -6  -3    4.99    0.57
  14  -6  -4   36.03    1.65
  14  -6  -4   37.24    1.70
  14  -6  -5    0.07    0.43
  14  -6  -5    0.53    0.41
  14  -6  -6   90.11    3.71
  14  -6  -6   81.54    3.37
  14  -6  -7   25.92    1.18
  14  -6  -7   25.32    1.14
  14  -6  -8    5.08    0.39
  14  -6  -8    4.11    0.36
  13  -7  10    0.45    0.66
  13  -7  10    0.33    0.54
  13  -7   9    3.88    0.65
  13  -7   9    2.49    0.66
  13  -7   8   -0.47    0.62
  13  -7   8    0.19    0.63
  13  -7   7    1.39    0.61
  13  -7   7    0.69    0.57
  13  -7   6   -1.40    0.61
  13  -7   6   -0.22    0.56
  13  -7   5   96.03    4.04
  13  -7   5   92.91    3.90
  13  -7   4   10.51    0.84
  13  -7   4   11.39    0.82
  13  -7   3   75.07    3.22
  13  -7   3   72.58    3.10
  13  -7   2   15.45    0.99
  13  -7   2   15.95    0.99
  13  -7   1    4.74    0.69
  13  -7   1    4.77    0.62
  13  -7   0    0.33    0.57
  13  -7   0    0.82    0.59
  13  -7  -1    4.69    0.65
  13  -7  -1    5.03    0.63
  13  -7  -2    1.93    0.61
  13  -7  -2    0.97    0.52
  13  -7  -3  194.90    7.93
  13  -7  -3  186.90    7.60
  13  -7  -4   -0.15    0.44
  13  -7  -4    0.49    0.45
  13  -7  -5  167.90    6.82
  13  -7  -5  163.00    6.61
  13  -7  -6   13.69    0.71
  13  -7  -6   14.85    0.76
  13  -7  -7    0.02    0.26
  13  -7  -7    0.13    0.27
  12  -8  10    0.91    0.54
  12  -8  10    0.66    0.54
  12  -8   9    4.67    0.66
  12  -8   9    5.61    0.72
  12  -8   8    1.08    0.59
  12  -8   8    0.44    0.58
  12  -8   7   25.33    1.34
  12  -8   7   25.18    1.30
  12  -8   6   23.96    1.28
  12  -8   6   24.57    1.29
  12  -8   5    6.58    0.76
  12  -8   5    5.40    0.66
  12  -8   4    7.69    0.74
  12  -8   4    7.65    0.74
  12  -8   3   12.18    0.90
  12  -8   3   12.58    0.87
  12  -8   2    0.79    0.60
  12  -8   2    0.29    0.57
  12  -8   1   69.90    3.01
  12  -8   1   66.03    2.84
  12  -8   0    8.68    0.73
  12  -8   0    6.40    0.66
  12  -8  -1   42.80    1.92
  12  -8  -1   44.43    1.97
  12  -8  -2   17.54    0.99
  12  -8  -2   18.31    1.00
  12  -8  -3   14.81    0.87
  12  -8  -3   17.19    0.92
  12  -8  -4   53.08    2.27
  12  -8  -4   51.97    2.21
  12  -8  -5  127.70    5.20
  12  -8  -5  120.20    4.89
  12  -8  -6   15.97    0.76
  12  -8  -6   17.20    0.79
  11  -9  11    3.53    0.67
  11  -9  11    1.89    0.55
  11  -9  10    3.51    0.66
  11  -9  10    3.58    0.63
  11  -9   9   -0.12    0.66
  11  -9   9    0.10    0.60
  11  -9   8   42.69    1.97
  11  -9   8   36.64    1.70
  11  -9   7   -0.51    0.62
  11  -9   7    0.80    0.63
  11  -9   6   27.49    1.41
  11  -9   6   28.14    1.41
  11  -9   5    1.20    0.60
  11  -9   5    0.38    0.58
  11  -9   4    2.45    0.67
  11  -9   4    1.89    0.62
  11  -9   3    3.09    0.68
  11  -9   3    2.87    0.62
  11  -9   2   97.86    4.12
  11  -9   2  104.60    4.36
  11  -9   1    1.59    0.63
  11  -9   1    1.73    0.57
  11  -9   0  127.10    5.25
  11  -9   0  121.40    5.01
  11  -9  -1    0.93    0.55
  11  -9  -1    0.51    0.48
  11  -9  -2   21.55    1.12
  11  -9  -2   20.43    1.05
  11  -9  -3   39.59    1.75
  11  -9  -3   39.86    1.76
  11  -9  -4   26.00    1.19
  11  -9  -4   26.02    1.18
  11  -9  -6  141.80    5.75
  11  -9  -6  144.10    5.85
  10 -10  11    0.15    0.62
  10 -10  11   -0.16    0.58
  10 -10  10    7.83    0.80
  10 -10  10    8.05    0.78
  10 -10   9    5.47    0.72
  10 -10   9    7.07    0.74
  10 -10   8   -1.09    0.65
  10 -10   8    1.13    0.59
  10 -10   7   17.84    1.07
  10 -10   7   16.16    0.98
  10 -10   6    8.28    0.76
  10 -10   6    9.26    0.79
  10 -10   5   15.13    0.97
  10 -10   5   14.75    0.95
  10 -10   4   34.18    1.64
  10 -10   4   36.33    1.70
  10 -10   3   33.37    1.63
  10 -10   3   34.34    1.63
  10 -10   2   28.13    1.40
  10 -10   2   25.45    1.29
  10 -10   1   43.24    1.96
  10 -10   1   40.89    1.85
  10 -10   0   53.58    2.36
  10 -10   0   51.82    2.25
  10 -10  -1    0.33    0.54
  10 -10  -1   -0.42    0.46
  10 -10  -2  158.20    6.46
  10 -10  -2  171.90    6.98
  10 -10  -3   20.61    1.03
  10 -10  -3   21.85    1.07
  10 -10  -4    9.09    0.58
  10 -10  -4    8.18    0.52
  10 -10  -5  121.10    4.91
  10 -10  -5  113.50    4.62
  10 -10  -6    3.17    0.28
  10 -10  -6    3.17    0.27
   9 -11  11   11.58    0.89
   9 -11  11   11.59    0.87
   9 -11  10    0.43    0.63
   9 -11  10    1.76    0.61
   9 -11   9    5.75    0.75
   9 -11   9    7.34    0.74
   9 -11   8    3.17    0.66
   9 -11   8    2.43    0.65
   9 -11   7    0.11    0.62
   9 -11   7    0.72    0.61
   9 -11   6   -0.66    0.65
   9 -11   6   -0.16    0.56
   9 -11   5   42.74    1.98
   9 -11   5   40.41    1.85
   9 -11   4    1.50    0.70
   9 -11   4   -0.05    0.55
   9 -11   3   28.48    1.47
   9 -11   3   29.40    1.43
   9 -11   2    2.71    0.65
   9 -11   2    1.43    0.57
   9 -11   1    4.22    0.59
   9 -11   0   17.45    0.97
   9 -11  -1   37.29    1.71
   9 -11  -2   95.86    3.97
   9 -11  -3   34.34    1.53
   9 -11  -4    1.77    0.40
   9 -11  -5    0.71    0.35
   9 -11  -5    0.72    0.33
   9 -11  -6   11.43    0.56
   9 -11  -6   11.31    0.54
   8 -12  12    7.41    0.77
   8 -12  12    6.36    0.69
   8 -12  11    4.17    0.70
   8 -12  11    4.51    0.71
   8 -12  10    0.51    0.65
   8 -12  10    0.88    0.59
   8 -12   9   20.47    1.17
   8 -12   9   18.57    1.07
   8 -12   8   -0.86    0.69
   8 -12   8    0.00    0.61
   8 -12   7   24.27    1.28
   8 -12   7   24.86    1.29
   8 -12   6    1.02    0.59
   8 -12   5    0.45    0.65
   8 -12   4    0.38    0.55
   8 -12   3   31.86    1.54
   8 -12   2    0.52    0.61
   8 -12   1   89.79    3.76
   8 -12   0    3.62    0.56
   8 -12  -1    0.11    0.50
   8 -12  -2   59.54    2.55
   8 -12  -3    1.86    0.47
   8 -12  -4   -0.60    0.39
   8 -12  -5   29.97    1.31
   8 -12  -6   15.76    0.74
   8 -12  -7   24.03    1.03
   7 -13  12    4.77    0.70
   7 -13  12    4.57    0.76
   7 -13  11    4.94    0.76
   7 -13  11    5.10    0.75
   7 -13  10    8.00    0.84
   7 -13  10    7.54    0.80
   7 -13   9    1.36    0.65
   7 -13   8    7.90    0.76
   7 -13   7    6.91    0.74
   7 -13   6   -0.22    0.60
   7 -13   5   11.42    0.91
   7 -13   4    1.21    0.59
   7 -13   3   14.52    0.94
   7 -13   2   82.07    3.49
   7 -13   1   11.35    0.80
   7 -13   0   32.74    1.54
   7 -13  -1    0.50    0.52
   7 -13  -2    3.67    0.56
  -7  13   3   73.41    3.06
   7 -13  -3   82.36    3.43
  -7  13   4    9.06    0.65
   7 -13  -4    7.36    0.57
  -7  13   5    0.71    0.37
   7 -13  -5    1.27    0.41
  -7  13   6   50.07    2.11
   7 -13  -6   47.65    2.01
  -7  13   7   48.97    2.05
   7 -13  -7   47.09    1.98
  -7  13   8    7.92    0.45
   7 -13  -8    8.32    0.48
  -7  13   9    3.58    0.28
   7 -13  -9    2.84    0.30
  -7  13  17    4.15    0.50
  -7  13  17    3.10    0.46
  -7  13  18    6.13    0.59
  -7  13  18    5.56    0.62
  -7  13  19   -0.02    0.71
  -7  13  19   -0.04    0.64
   6 -14  12    3.58    0.75
   6 -14  12    5.88    0.77
   6 -14  11    3.68    0.73
   6 -14  10    1.64    0.61
   6 -14   9   -0.29    0.64
   6 -14   8    7.54    0.77
   6 -14   7    0.16    0.70
   6 -14   6   17.09    1.02
   6 -14   5    0.20    0.60
   6 -14   4   19.38    1.09
   6 -14   3    1.20    0.59
   6 -14   2    0.40    0.57
  -6  14  -1    4.06    0.60
   6 -14   1    3.63    0.63
  -6  14   0   15.18    0.93
   6 -14   0   16.68    1.03
  -6  14   1   11.96    0.83
   6 -14  -1   10.29    0.80
  -6  14   2   32.28    1.52
   6 -14  -2   32.74    1.53
  -6  14   3    5.64    0.61
   6 -14  -3    4.45    0.53
  -6  14   4   19.06    0.99
   6 -14  -4   18.36    0.94
  -6  14   5   22.69    1.12
   6 -14  -5   23.10    1.11
  -6  14   6    0.00    0.37
   6 -14  -6    0.63    0.38
  -6  14   7   -0.27    0.41
   6 -14  -7   -0.13    0.35
  -6  14   8   21.90    1.01
   6 -14  -8   20.44    0.97
  -6  14   9    1.98    0.35
   6 -14  -9    2.37    0.40
  -6  14  10   30.14    1.31
   6 -14 -10   28.78    1.27
  -6  14  11    0.30    0.32
  -6  14  12    0.45    0.34
  -6  14  13    0.14    0.40
  -6  14  13    0.59    0.36
  -6  14  14   10.99    0.65
  -6  14  14   11.44    0.67
  -6  14  15   -0.16    0.45
  -6  14  15    0.21    0.46
  -6  14  16   23.07    1.12
  -6  14  16   20.84    1.07
  -6  14  17    1.88    0.64
  -6  14  17    1.76    0.59
  -6  14  18    1.54    0.79
  -6  14  18    1.74    0.71
   5 -15  12    2.92    0.73
   5 -15  11   -0.26    0.66
   5 -15  10    6.88    0.77
   5 -15   9    0.94    0.60
   5 -15   8   12.48    0.90
   5 -15   7    8.24    0.77
   5 -15   6    0.49    0.62
   5 -15   5    4.08    0.67
   5 -15   4    5.33    0.67
  -5  15  -3   15.73    0.99
   5 -15   3   15.98    0.99
  -5  15  -2    5.92    0.69
   5 -15   2    3.21    0.63
  -5  15  -1    3.03    0.65
   5 -15   1    3.04    0.65
  -5  15   0   13.61    0.89
   5 -15   0   14.92    0.96
  -5  15   1    1.46    0.56
   5 -15  -1   -0.09    0.55
  -5  15   2    1.09    0.56
   5 -15  -2    0.42    0.49
  -5  15   3   12.59    0.77
   5 -15  -3   13.19    0.77
  -5  15   4    7.30    0.60
   5 -15  -4    6.89    0.61
  -5  15   5    8.96    0.64
   5 -15  -5    9.32    0.65
  -5  15   6   50.35    2.15
   5 -15  -6   53.01    2.27
  -5  15   7    6.92    0.54
   5 -15  -7    7.37    0.57
  -5  15   8    6.37    0.51
   5 -15  -8    6.51    0.57
  -5  15   9   11.40    0.68
   5 -15  -9   11.01    0.70
  -5  15  10   13.74    0.76
   5 -15 -10   12.04    0.73
  -5  15  11    0.47    0.42
   5 -15 -11    1.73    0.48
  -5  15  12   19.97    0.98
  -5  15  13    0.39    0.47
  -5  15  14    7.29    0.65
  -5  15  15   14.53    0.90
  -5  15  15   12.69    0.82
  -5  15  16    2.07    0.61
  -5  15  16    1.81    0.67
  -5  15  17   -0.46    0.82
  -5  15  17    0.77    0.89
   4 -16  11    2.09    0.74
   4 -16  10    0.20    0.60
   4 -16   9   23.63    1.24
   4 -16   8    0.16    0.67
   4 -16   7    2.42    0.67
   4 -16   6    6.43    0.76
  -4  16  -5   15.71    0.98
   4 -16   5   17.97    1.11
  -4  16  -4    0.96    0.60
   4 -16   4   -0.12    0.65
  -4  16  -3   14.17    0.96
   4 -16   3   11.09    0.89
  -4  16  -2    4.73    0.69
   4 -16   2    4.44    0.66
  -4  16  -1   57.95    2.53
   4 -16   1   59.82    2.60
  -4  16   0   18.27    1.04
   4 -16   0   19.79    1.11
  -4  16   1    1.49    0.57
   4 -16  -1    2.28    0.54
  -4  16   2    2.02    0.55
   4 -16  -2    0.47    0.51
  -4  16   3   32.54    1.50
   4 -16  -3   30.09    1.42
  -4  16   4   -0.16    0.47
   4 -16  -4    0.53    0.47
  -4  16   5   60.73    2.58
   4 -16  -5   61.24    2.62
  -4  16   6    0.40    0.43
   4 -16  -6    0.54    0.48
  -4  16   7   10.55    0.69
   4 -16  -7   11.23    0.73
  -4  16   8    6.68    0.57
   4 -16  -8    6.36    0.60
  -4  16   9    1.47    0.45
   4 -16  -9    1.34    0.49
  -4  16  10    5.00    0.52
   4 -16 -10    4.89    0.58
  -4  16  11   41.55    1.81
   4 -16 -11   40.94    1.82
  -4  16  12    1.04    0.53
   4 -16 -12    2.54    0.57
  -4  16  13   15.54    0.90
  -4  16  14    2.74    0.65
  -4  16  15    0.97    0.72
   3 -17  11    4.30    0.70
   3 -17  10    6.55    0.79
   3 -17   9    1.02    0.67
   3 -17   8    1.64    0.58
  -3  17  -7   35.63    1.70
   3 -17   7   39.02    1.85
  -3  17  -6    2.92    0.67
   3 -17   6    5.07    0.75
  -3  17  -5    1.32    0.63
   3 -17   5    1.60    0.60
  -3  17  -4    2.80    0.67
   3 -17   4    5.56    0.73
  -3  17  -3    7.83    0.75
   3 -17   3    6.29    0.74
  -3  17  -2    4.18    0.67
   3 -17   2    2.78    0.63
  -3  17  -1    4.69    0.64
   3 -17   1    4.14    0.65
  -3  17   0   -0.96    0.54
   3 -17   0    0.92    0.58
  -3  17   1   55.05    2.39
   3 -17  -1   56.35    2.46
  -3  17   2   23.52    1.19
   3 -17  -2   21.49    1.15
  -3  17   3   11.07    0.77
   3 -17  -3    9.79    0.73
  -3  17   4    7.48    0.62
   3 -17  -4    7.64    0.66
  -3  17   5    2.96    0.54
   3 -17  -5    4.56    0.58
  -3  17   6    8.07    0.65
   3 -17  -6    7.33    0.65
  -3  17   7   13.00    0.79
   3 -17  -7   13.25    0.83
  -3  17   8    0.94    0.48
   3 -17  -8    1.50    0.55
  -3  17   9   14.71    0.83
   3 -17  -9   12.35    0.81
  -3  17  10    6.00    0.58
   3 -17 -10    8.02    0.75
  -3  17  11    0.96    0.54
   3 -17 -11    1.05    0.60
  -3  17  12    5.09    0.61
   3 -17 -12    7.04    0.75
  -3  17  13    8.94    0.79
  -3  17  14    0.24    0.75
   2 -18  10   -0.21    0.73
   2 -18   9    3.03    0.74
  -2  18  -8    4.13    0.67
   2 -18   8    3.67    0.69
  -2  18  -7   -0.68    0.63
   2 -18   7    0.85    0.73
  -2  18  -6   23.46    1.29
   2 -18   6   22.26    1.27
  -2  18  -5    0.38    0.67
   2 -18   5    0.56    0.66
  -2  18  -4    4.94    0.65
   2 -18   4    4.82    0.72
  -2  18  -3   15.58    0.98
   2 -18   3   15.46    1.00
  -2  18  -2    8.82    0.75
   2 -18   2    8.22    0.82
  -2  18  -1    2.71    0.59
   2 -18   1    1.16    0.57
  -2  18   0   45.16    2.03
   2 -18   0   46.32    2.07
  -2  18   1    3.86    0.60
   2 -18  -1    1.69    0.56
  -2  18   2   15.51    0.93
   2 -18  -2   16.00    0.94
  -2  18   3   14.05    0.87
   2 -18  -3   15.38    0.92
  -2  18   4    0.08    0.54
   2 -18  -4    0.36    0.54
  -2  18   5    0.44    0.54
   2 -18  -5    1.71    0.56
  -2  18   6   13.79    0.82
   2 -18  -6   11.79    0.81
  -2  18   7    0.03    0.50
   2 -18  -7    0.30    0.51
  -2  18   8   23.31    1.16
   2 -18  -8   24.37    1.26
  -2  18   9    0.45    0.54
   2 -18  -9    0.36    0.56
  -2  18  10    3.94    0.61
   2 -18 -10    3.11    0.64
  -2  18  11    3.16    0.62
   2 -18 -11    3.51    0.68
  -2  18  12    6.50    0.75
   2 -18 -12    6.22    0.82
  -1  19  -9    0.65    0.60
   1 -19   9    1.06    0.73
  -1  19  -8    4.59    0.69
   1 -19   8    2.85    0.79
  -1  19  -7    2.90    0.73
   1 -19   7    2.51    0.75
  -1  19  -6    0.46    0.63
   1 -19   6    1.31    0.71
  -1  19  -5    0.39    0.64
   1 -19   5    0.76    0.70
  -1  19  -4   18.05    1.05
   1 -19   4   20.15    1.16
  -1  19  -3    0.93    0.58
   1 -19   3   -0.16    0.59
  -1  19  -2   17.99    1.03
   1 -19   2   17.12    1.06
  -1  19  -1    0.00    0.61
   1 -19   1    0.36    0.56
  -1  19   0    0.71    0.57
   1 -19   0   -0.22    0.57
  -1  19   1    2.64    0.62
   1 -19  -1    2.85    0.61
  -1  19   2    6.53    0.67
   1 -19  -2    8.26    0.70
  -1  19   3    1.08    0.53
   1 -19  -3    0.77    0.54
  -1  19   4   25.86    1.28
   1 -19  -4   25.79    1.29
  -1  19   5    0.76    0.54
   1 -19  -5    0.68    0.56
  -1  19   6    2.28    0.59
   1 -19  -6    2.89    0.67
  -1  19   7    8.97    0.72
   1 -19  -7    7.74    0.77
  -1  19   8    0.74    0.59
   1 -19  -8    0.56    0.67
  -1  19   9    2.40    0.62
   1 -19  -9    3.62    0.68
  -1  19  10    8.75    0.80
   1 -19 -10    8.85    0.86
   0  20  -8   -0.61    0.68
   0 -20   8    1.05    0.74
   0  20  -7   -0.27    0.62
   0 -20   7   -0.32    0.71
   0  20  -6    3.97    0.70
   0 -20   6    4.43    0.69
   0  20  -5    1.11    0.64
   0 -20   5    2.26    0.66
   0  20  -4    1.37    0.67
   0 -20   4    2.84    0.66
   0  20  -3   11.29    0.81
   0 -20   3   12.43    0.87
   0  20  -2    3.29    0.64
   0 -20   2    3.00    0.64
   0  20  -1    0.16    0.57
   0 -20   1    0.85    0.59
   0  20   0    3.78    0.63
   0 -20   0    3.52    0.62
   0  20   1    0.62    0.59
   0 -20  -1    0.83    0.55
   0  20   2    3.52    0.64
   0 -20  -2    3.63    0.62
   0  20   3   15.29    0.95
   0 -20  -3   13.90    0.95
   0  20   4    2.68    0.61
   0 -20  -4    3.23    0.65
   0  20   5    0.87    0.60
   0 -20  -5    1.16    0.67
   0  20   6    4.06    0.65
   0 -20  -6    5.29    0.72
   0  20   7    0.28    0.64
   0 -20  -7    0.77    0.66
   0  20   8    0.76    0.67
   0 -20  -8   -0.11    0.64
   1  21  -6    1.64    0.67
  -1 -21   6    0.38    0.65
   1  21  -5    1.61    0.61
  -1 -21   5    1.74    0.60
   1  21  -4   -0.32    0.62
  -1 -21   4    0.90    0.63
   1  21  -3    0.97    0.58
  -1 -21   3    1.41    0.62
   1  21  -2    0.69    0.61
  -1 -21   2   -0.01    0.60
   1  21  -1    7.91    0.74
  -1 -21   1    6.60    0.72
   1  21   0    1.30    0.58
  -1 -21   0   -0.38    0.59
   1  21   1   12.70    0.90
  -1 -21  -1   13.85    0.92
   1  21   2    1.24    0.64
  -1 -21  -2   -0.32    0.63
   1  21   3   -0.14    0.63
  -1 -21  -3   -0.05    0.59
   1  21   4    5.37    0.70
  -1 -21  -4    4.13    0.66
   1  21   5    3.86    0.73
  -1 -21  -5    3.51    0.67
 -24  -2   7    1.18    0.63
  24   2  -7    1.90    0.82
 -24  -2   8   -0.60    0.64
  24   2  -8    0.30    0.78
 -24  -2   9   12.55    0.83
  24   2  -9   11.61    1.00
 -24  -2  10   -0.08    0.60
  24   2 -10   -0.34    0.66
 -24  -2  11    7.72    0.72
  24   2 -11   10.32    0.87
 -24  -2  12    0.14    0.59
  24   2 -12    1.18    0.68
 -24  -2  13    2.85    0.63
  24   2 -13    4.09    0.78
 -24  -2  14   -0.11    0.63
  24   2 -14   -0.93    0.68
 -24  -2  15   -0.43    0.62
  24   2 -15   -0.84    0.72
 -24  -2  16    1.01    0.63
  24   2 -16    0.64    0.78
 -24  -2  17   15.45    1.08
 -23  -1   4   10.69    0.80
  23   1  -4   11.57    0.91
 -23  -1   5    3.47    0.61
  23   1  -5    2.28    0.67
 -23  -1   6    0.77    0.59
  23   1  -6    0.67    0.73
 -23  -1   7    1.28    0.64
  23   1  -7    0.02    0.76
 -23  -1   8    1.39    0.63
  23   1  -8    1.13    0.74
 -23  -1   9    2.58    0.64
  23   1  -9    3.15    0.73
 -23  -1  10    6.66    0.71
  23   1 -10    5.50    0.80
 -23  -1  11   -0.34    0.53
  23   1 -11   -0.20    0.71
 -23  -1  12   11.04    0.78
  23   1 -12    9.14    0.85
 -23  -1  13    0.86    0.57
  23   1 -13    0.14    0.64
 -23  -1  14    0.48    0.60
  23   1 -14    0.79    0.68
 -23  -1  15   14.01    0.90
  23   1 -15   10.87    0.87
 -23  -1  16   14.08    0.92
  23   1 -16   13.73    0.96
 -23  -1  17   -0.06    0.62
  23   1 -17    1.55    0.63
 -23  -1  18    5.02    0.72
  23   1 -18    5.85    0.79
 -23  -1  19   -0.02    0.70
  22   0  -2    3.54    0.75
  22   0  -3    1.07    0.72
  22   0  -4    5.03    0.78
 -22   0   5    0.22    0.62
  22   0  -5    0.57    0.67
 -22   0   6    4.50    0.71
  22   0  -6    3.09    0.74
 -22   0   7   -0.18    0.58
  22   0  -7   -0.73    0.71
 -22   0   8   29.61    1.45
  22   0  -8   27.43    1.43
 -22   0   9   -0.37    0.59
  22   0  -9   -0.27    0.65
 -22   0  10    4.71    0.62
  22   0 -10    3.44    0.74
 -22   0  11   -0.04    0.54
  22   0 -11   -0.40    0.69
 -22   0  12    6.01    0.66
  22   0 -12    6.04    0.68
 -22   0  13   -0.35    0.58
  22   0 -13   -0.03    0.61
 -22   0  14   60.63    2.61
  22   0 -14   70.90    3.02
 -22   0  15    1.27    0.61
  22   0 -15    0.41    0.61
 -22   0  16    0.26    0.61
  22   0 -16    0.20    0.61
 -22   0  17   -0.74    0.60
  22   0 -17    0.16    0.65
 -22   0  18    0.54    0.61
  22   0 -18    0.36    0.67
 -22   0  19   -0.50    0.62
  22   0 -19    1.07    0.67
 -22   0  20   12.11    0.96
  22   0 -20   11.91    0.87
  21  -1   0    3.84    0.68
  21  -1  -1    5.33    0.79
  21  -1  -2   20.50    1.22
  21  -1  -3    2.94    0.73
  21  -1  -4    8.80    0.85
 -21   1   5    0.36    0.54
  21  -1  -5    0.84    0.66
 -21   1   6    0.40    0.62
  21  -1  -6    1.04    0.63
 -21   1   7   31.29    1.48
  21  -1  -7   30.99    1.54
 -21   1   8    7.11    0.67
  21  -1  -8    8.76    0.81
 -21   1   9   -1.30    0.57
  21  -1  -9    0.25    0.58
 -21   1  10   44.48    1.97
  21  -1 -10   43.89    1.99
 -21   1  11    1.54    0.55
  21  -1 -11    0.06    0.58
 -21   1  12   28.99    1.38
  21  -1 -12   25.01    1.27
 -21   1  13    9.71    0.75
  21  -1 -13    7.91    0.68
 -21   1  14    5.43    0.57
  21  -1 -14    4.57    0.60
 -21   1  15   10.93    0.73
  21  -1 -15   10.28    0.78
 -21   1  16   10.02    0.72
  21  -1 -16    9.05    0.72
 -21   1  17   -0.05    0.52
  21  -1 -17    0.45    0.62
 -21   1  18    4.94    0.62
  21  -1 -18    5.26    0.68
 -21   1  19    6.97    0.70
  21  -1 -19    5.98    0.71
 -21   1  20    0.94    0.66
 -21   1  21    5.60    0.77
  20  -2   2    0.88    0.68
  20  -2   1    2.67    0.69
  20  -2   0    0.50    0.69
  20  -2  -1   33.02    1.62
  20  -2  -2    0.07    0.67
  20  -2  -3   14.87    1.02
  20  -2  -4    0.92    0.67
  20  -2  -5    0.75    0.62
 -20   2   6    2.08    0.55
  20  -2  -6    0.52    0.59
 -20   2   7   11.36    0.82
  20  -2  -7   10.61    0.81
 -20   2   8    1.74    0.60
  20  -2  -8    3.04    0.62
 -20   2   9   84.46    3.53
  20  -2  -9   80.17    3.39
 -20   2  10    1.24    0.52
  20  -2 -10    0.46    0.57
 -20   2  11   25.82    1.26
  20  -2 -11   20.72    1.10
 -20   2  12    6.53    0.61
  20  -2 -12    5.48    0.62
 -20   2  13    2.20    0.49
  20  -2 -13    3.22    0.52
 -20   2  14    3.33    0.50
  20  -2 -14    2.42    0.54
 -20   2  15    4.91    0.55
  20  -2 -15    4.56    0.55
 -20   2  16    1.73    0.46
  20  -2 -16    1.57    0.51
 -20   2  17   42.58    1.84
  20  -2 -17   44.71    1.95
 -20   2  18   -0.34    0.45
  20  -2 -18   -0.26    0.52
 -20   2  19    0.85    0.49
 -20   2  20   -0.23    0.47
 -20   2  21    1.51    0.50
 -20   2  21    2.41    0.48
  19  -3   3   14.65    1.00
  19  -3   2    3.05    0.70
  19  -3   1    8.16    0.82
  19  -3   0   14.20    0.97
  19  -3  -1   -1.13    0.60
  19  -3  -2    1.42    0.66
  19  -3  -3    2.66    0.66
  19  -3  -4    0.37    0.61
  19  -3  -5   50.88    2.27
  19  -3  -6    0.95    0.64
  19  -3  -7   24.23    1.23
 -19   3   8   11.22    0.77
  19  -3  -8   13.47    0.86
 -19   3   9    1.52    0.52
  19  -3  -9    1.48    0.54
 -19   3  10    4.32    0.55
  19  -3 -10    4.69    0.63
 -19   3  11   75.49    3.15
  19  -3 -11   70.30    2.96
 -19   3  12    0.02    0.42
  19  -3 -12   -0.01    0.46
 -19   3  13   23.56    1.10
  19  -3 -13   28.12    1.29
 -19   3  14    6.93    0.53
  19  -3 -14    5.86    0.51
 -19   3  15   15.37    0.77
  19  -3 -15   16.18    0.82
 -19   3  16    5.42    0.43
  19  -3 -16    4.41    0.44
 -19   3  17    3.62    0.35
  18  -4   5    2.52    0.62
  18  -4   5    1.62    0.73
  18  -4   4    6.34    0.72
  18  -4   4    7.62    0.73
  18  -4   3   -0.19    0.66
  18  -4   3   -0.37    0.51
  18  -4   2   29.88    1.49
  18  -4   1    0.89    0.63
  18  -4   0   16.57    1.05
  18  -4  -1    1.36    0.64
  18  -4  -2    0.52    0.62
  18  -4  -3   11.29    0.85
  18  -4  -4   37.93    1.77
  18  -4  -5   18.00    1.07
  18  -4  -6   43.75    1.97
  18  -4  -7    8.39    0.68
  18  -4  -8   -0.16    0.51
  18  -4  -9    9.29    0.67
  18  -4 -10    8.86    0.67
  18  -4 -11    7.76    0.58
  18  -4 -12   35.80    1.55
  18  -4 -13    6.42    0.45
  18  -4 -14    3.39    0.31
  17  -5   6    5.16    0.73
  17  -5   6    4.60    0.66
  17  -5   5   -0.08    0.63
  17  -5   5    0.80    0.62
  17  -5   4    8.71    0.83
  17  -5   4   10.62    0.77
  17  -5   3    7.78    0.72
  17  -5   3    7.89    0.78
  17  -5   2    0.03    0.56
  17  -5   2    0.66    0.65
  17  -5   1    4.31    0.68
  17  -5   1    5.39    0.66
  17  -5   0   17.65    1.07
  17  -5  -1    6.80    0.73
  17  -5  -2   26.51    1.36
  17  -5  -3    2.01    0.65
  17  -5  -4    0.65    0.56
  17  -5  -5   21.78    1.14
  17  -5  -6   30.09    1.44
  17  -5  -7    1.50    0.53
  17  -5  -8   67.59    2.85
  17  -5  -9    0.80    0.45
  17  -5 -10   11.03    0.65
  17  -5 -11   22.69    1.01
  16  -6   7    1.32    0.73
  16  -6   7    2.05    0.63
  16  -6   6    1.09    0.60
  16  -6   6   -0.22    0.60
  16  -6   5   13.59    0.96
  16  -6   5   12.98    0.87
  16  -6   4    1.40    0.70
  16  -6   4    1.31    0.61
  16  -6   3   -0.52    0.63
  16  -6   3    0.38    0.62
  16  -6   2   22.22    1.23
  16  -6   2   22.54    1.16
  16  -6   1    1.74    0.66
  16  -6   1    2.31    0.61
  16  -6   0   23.15    1.24
  16  -6   0   23.26    1.21
  16  -6  -1    7.39    0.73
  16  -6  -1    5.68    0.64
  16  -6  -2    0.63    0.55
  16  -6  -2    0.12    0.50
  16  -6  -3    5.89    0.71
  16  -6  -3    4.85    0.64
  16  -6  -4    4.67    0.63
  16  -6  -5    5.34    0.63
  16  -6  -6   27.22    1.32
  16  -6  -7   35.04    1.57
  16  -6  -7   38.87    1.74
  16  -6  -8    0.18    0.41
  16  -6  -8   -0.17    0.36
  16  -6  -9   33.21    1.44
  16  -6  -9   30.61    1.32
  15  -7   7    0.89    0.71
  15  -7   7    0.17    0.61
  15  -7   6    5.12    0.75
  15  -7   6    6.28    0.67
  15  -7   5   10.12    0.87
  15  -7   5   10.02    0.77
  15  -7   4   13.99    0.97
  15  -7   4   14.68    0.93
  15  -7   3   39.98    1.86
  15  -7   3   41.00    1.87
  15  -7   2    0.28    0.64
  15  -7   2   -0.28    0.53
  15  -7   0   17.56    1.06
  15  -7   0   14.35    0.91
  15  -7  -1    2.66    0.66
  15  -7  -1    3.70    0.65
  15  -7  -2   10.10    0.77
  15  -7  -2   10.89    0.78
  15  -7  -3   45.13    2.03
  15  -7  -3   45.13    1.99
  15  -7  -4   31.23    1.49
  15  -7  -4   32.09    1.49
  15  -7  -5   30.36    1.44
  15  -7  -5   29.09    1.35
  15  -7  -6   -0.22    0.45
  15  -7  -6    0.48    0.44
  15  -7  -7   15.80    0.80
  15  -7  -7   15.53    0.79
  15  -7  -8    0.17    0.29
  15  -7  -8   -0.07    0.28
  14  -8   8   -0.65    0.63
  14  -8   8   -0.42    0.60
  14  -8   7   24.02    1.27
  14  -8   7   21.99    1.18
  14  -8   6   11.42    0.90
  14  -8   6   12.70    0.86
  14  -8   5   35.66    1.71
  14  -8   5   33.66    1.60
  14  -8   4   18.98    1.12
  14  -8   4   19.35    1.10
  14  -8   3   -0.33    0.63
  14  -8   3    0.21    0.53
  14  -8   2    7.79    0.77
  14  -8   2    8.69    0.74
  14  -8   1   22.12    1.21
  14  -8   1   21.31    1.15
  14  -8   0    1.23    0.60
  14  -8   0    0.03    0.52
  14  -8  -1   31.18    1.53
  14  -8  -1   29.57    1.44
  14  -8  -2   36.08    1.69
  14  -8  -2   37.78    1.72
  14  -8  -3  109.60    4.57
  14  -8  -3   94.53    3.93
  14  -8  -4   14.86    0.89
  14  -8  -4   13.39    0.78
  14  -8  -5    1.53    0.48
  14  -8  -5    2.13    0.46
  14  -8  -6    7.69    0.54
  14  -8  -6    6.34    0.50
  14  -8  -7   14.16    0.69
  14  -8  -7   13.88    0.66
  13  -9   9    1.15    0.64
  13  -9   9    1.83    0.68
  13  -9   8   21.42    1.18
  13  -9   8   21.41    1.14
  13  -9   7   -0.11    0.58
  13  -9   7    0.17    0.56
  13  -9   6   15.67    1.01
  13  -9   6   18.54    1.02
  13  -9   5   12.01    0.86
  13  -9   5   12.29    0.87
  13  -9   4    6.71    0.75
  13  -9   4    6.67    0.69
  13  -9   3    9.13    0.75
  13  -9   3    8.60    0.76
  13  -9   2    7.44    0.73
  13  -9   2    8.49    0.73
  13  -9   1    2.20    0.61
  13  -9   1    1.06    0.57
  13  -9   0  115.20    4.78
  13  -9   0  119.50    4.94
  13  -9  -1   12.51    0.85
  13  -9  -1   13.06    0.85
  13  -9  -2    7.95    0.70
  13  -9  -2    9.07    0.68
  13  -9  -3  105.60    4.38
  13  -9  -3  103.60    4.28
  13  -9  -4    2.08    0.49
  13  -9  -4    2.33    0.45
  13  -9  -5    4.63    0.46
  13  -9  -5    5.57    0.45
  13  -9  -6   15.41    0.76
  13  -9  -6   16.42    0.78
  12 -10   9    2.66    0.69
  12 -10   9    2.62    0.60
  12 -10   8    0.90    0.66
  12 -10   8   -0.17    0.61
  12 -10   7    5.18    0.73
  12 -10   7    4.10    0.66
  12 -10   6   10.70    0.88
  12 -10   6   11.95    0.85
  12 -10   5   17.20    1.07
  12 -10   5   14.84    0.94
  12 -10   4   41.66    1.93
  12 -10   4   40.04    1.85
  12 -10   3   14.85    0.98
  12 -10   3   13.46    0.87
  12 -10   2    8.59    0.79
  12 -10   2    9.26    0.78
  12 -10   1   30.80    1.52
  12 -10   1   29.54    1.45
  12 -10   0    0.08    0.60
  12 -10   0    0.57    0.55
  12 -10  -1    6.72    0.70
  12 -10  -1    6.18    0.63
  12 -10  -2  104.00    4.33
  12 -10  -2  101.50    4.20
  12 -10  -3   52.26    2.26
  12 -10  -3   52.80    2.26
  12 -10  -4   25.47    1.21
  12 -10  -4   29.51    1.34
  12 -10  -5    5.95    0.49
  12 -10  -5    5.06    0.42
  11 -11  10    0.09    0.64
  11 -11  10   -0.10    0.59
  11 -11   9    3.12    0.70
  11 -11   9    1.37    0.63
  11 -11   8    4.61    0.69
  11 -11   8    6.00    0.64
  11 -11   7    0.45    0.62
  11 -11   7    0.01    0.56
  11 -11   6   -0.11    0.65
  11 -11   6    0.51    0.60
  11 -11   5   39.38    1.86
  11 -11   5   41.51    1.90
  11 -11   4   10.64    0.85
  11 -11   4   11.13    0.83
  11 -11   3   35.11    1.66
  11 -11   3   34.02    1.61
  11 -11   2    8.41    0.79
  11 -11   2    9.86    0.77
  11 -11   1    3.41    0.65
  11 -11   1    2.87    0.62
  11 -11   0   25.18    1.30
  11 -11   0   25.28    1.29
  11 -11  -1   15.02    0.93
  11 -11  -1   17.17    0.95
  11 -11  -2   20.74    1.10
  11 -11  -2   19.87    1.03
  11 -11  -3   44.73    1.96
  11 -11  -3   48.75    2.09
  11 -11  -4    0.97    0.44
  11 -11  -4    1.09    0.39
  11 -11  -5   75.11    3.10
  11 -11  -5   81.71    3.36
  11 -11  -6   32.72    1.39
  11 -11  -6   36.53    1.54
  10 -12  10    0.41    0.67
  10 -12  10   -0.14    0.67
  10 -12   9   10.30    0.80
  10 -12   9    9.51    0.84
  10 -12   8    5.03    0.73
  10 -12   8    4.03    0.61
  10 -12   7   27.85    1.43
  10 -12   7   27.71    1.40
  10 -12   6    0.66    0.67
  10 -12   6   -0.73    0.62
  10 -12   5    0.43    0.65
  10 -12   5   -0.25    0.58
  10 -12   4   12.36    0.89
  10 -12   4   13.41    0.89
  10 -12   3   32.71    1.60
  10 -12   3   32.26    1.54
  10 -12   2    0.52    0.63
  10 -12   2   -0.33    0.55
  10 -12   1   78.63    3.35
  10 -12   1   77.14    3.26
  10 -12   0    3.46    0.71
  10 -12   0    2.24    0.59
  10 -12  -1   32.08    1.55
  10 -12  -1   33.60    1.57
  10 -12  -2   47.90    2.12
  10 -12  -2   48.71    2.11
  10 -12  -3    0.36    0.51
  10 -12  -3    1.08    0.45
  10 -12  -4    0.06    0.44
  10 -12  -4    0.23    0.39
  10 -12  -5   68.80    2.84
  10 -12  -5   66.60    2.76
  10 -12  -6    1.35    0.30
  10 -12  -6    1.24    0.27
   9 -13  10    8.19    0.78
   9 -13  10    9.08    0.82
   9 -13   9    1.57    0.65
   9 -13   9    0.34    0.65
   9 -13   8    6.05    0.79
   9 -13   8    5.21    0.70
   9 -13   7    2.48    0.73
   9 -13   7    2.42    0.57
   9 -13   6    3.75    0.73
   9 -13   6    2.35    0.63
   9 -13   5    5.59    0.78
   9 -13   5    5.97    0.69
   9 -13   4    2.83    0.63
   9 -13   3   17.16    1.03
   9 -13   2   24.35    1.25
   9 -13   1   16.93    0.98
   9 -13   0  105.30    4.37
   9 -13  -1   11.77    0.80
   9 -13  -2    1.39    0.51
   9 -13  -3   54.30    2.33
   9 -13  -4   24.20    1.15
   9 -13  -5   15.37    0.80
   9 -13  -6   57.99    2.41
   9 -13  -7    7.98    0.42
   9 -13  -7    8.50    0.43
   8 -14  10    8.65    0.81
   8 -14  10    8.13    0.83
   8 -14   9    0.79    0.65
   8 -14   9    0.96    0.62
   8 -14   8    2.35    0.76
   8 -14   8    1.59    0.61
   8 -14   7    1.12    0.62
   8 -14   6   19.01    1.09
   8 -14   5   -0.40    0.60
   8 -14   4    6.60    0.73
   8 -14   3    3.06    0.66
   8 -14   2    2.77    0.63
   8 -14   1   33.11    1.58
   8 -14   0   31.50    1.50
   8 -14  -1    0.62    0.58
   8 -14  -2   29.60    1.41
   8 -14  -3    4.48    0.56
   8 -14  -4   11.39    0.70
   8 -14  -5    4.41    0.46
   8 -14  -6   16.06    0.82
   8 -14  -7    0.49    0.29
   8 -14  -8   53.57    2.22
   7 -15  10    9.67    0.80
   7 -15  10    9.49    0.86
   7 -15   9   -0.51    0.62
   7 -15   8    6.07    0.75
   7 -15   7   17.04    1.04
   7 -15   6    1.28    0.66
   7 -15   5    2.64    0.65
   7 -15   4    4.14    0.66
   7 -15   3    4.08    0.64
   7 -15   2    0.06    0.61
   7 -15   1    1.60    0.62
   7 -15   0    5.41    0.69
   7 -15  -1   10.34    0.77
  -7  15   2   -0.52    0.45
   7 -15  -2   -0.57    0.53
  -7  15   3   12.78    0.80
   7 -15  -3   13.73    0.84
  -7  15   4   -0.28    0.47
   7 -15  -4    0.51    0.41
  -7  15   5    0.60    0.45
   7 -15  -5   -0.56    0.43
  -7  15   6   15.98    0.82
   7 -15  -6   16.50    0.86
  -7  15   7    0.14    0.36
   7 -15  -7    1.05    0.36
  -7  15   8   11.23    0.61
   7 -15  -8   10.29    0.60
  -7  15   9   17.56    0.81
   7 -15  -9   17.38    0.82
  -7  15  10   18.78    0.83
   6 -16  10   -0.40    0.68
   6 -16   9   12.78    0.93
   6 -16   8   -0.89    0.62
   6 -16   7    7.88    0.76
   6 -16   6    1.48    0.64
   6 -16   5    2.71    0.67
   6 -16   4   -0.14    0.60
   6 -16   3   22.88    1.26
   6 -16   2    0.88    0.59
  -6  16  -1   35.42    1.65
   6 -16   1   33.18    1.60
  -6  16   0    1.34    0.57
   6 -16   0    0.42    0.59
  -6  16   1    3.72    0.59
   6 -16  -1    4.88    0.66
  -6  16   2    0.37    0.53
   6 -16  -2   -0.53    0.55
  -6  16   3    5.39    0.65
   6 -16  -3    5.34    0.58
  -6  16   4    9.10    0.66
   6 -16  -4    8.67    0.67
  -6  16   5   47.70    2.06
   6 -16  -5   46.03    2.00
  -6  16   6    0.02    0.42
   6 -16  -6    0.46    0.44
  -6  16   7   47.07    2.01
   6 -16  -7   48.70    2.10
  -6  16   8   14.52    0.79
   6 -16  -8   14.34    0.78
  -6  16   9    0.07    0.39
   6 -16  -9    0.44    0.43
  -6  16  10    0.21    0.38
   6 -16 -10   -0.05    0.40
  -6  16  11   15.16    0.77
  -6  16  12    0.19    0.38
  -6  16  13   31.32    1.38
  -6  16  14    0.87    0.42
  -6  16  14    0.70    0.41
   5 -17  10    2.31    0.83
   5 -17   9    0.78    0.68
   5 -17   8    6.47    0.77
   5 -17   7   12.20    0.92
   5 -17   6   -0.17    0.64
   5 -17   5   15.74    1.06
   5 -17   4   12.05    0.92
  -5  17  -3   -0.38    0.60
   5 -17   3   -0.78    0.64
  -5  17  -2    4.72    0.70
   5 -17   2    3.18    0.68
  -5  17  -1    1.17    0.60
   5 -17   1    1.72    0.60
  -5  17   0   -0.12    0.59
   5 -17   0   -0.78    0.60
  -5  17   1   36.03    1.69
   5 -17  -1   37.80    1.74
  -5  17   2    1.40    0.55
   5 -17  -2    0.94    0.51
  -5  17   3   18.54    1.02
   5 -17  -3   17.72    0.99
  -5  17   4   26.71    1.27
   5 -17  -4   28.64    1.38
  -5  17   5    3.63    0.54
   5 -17  -5    2.90    0.52
  -5  17   6   11.01    0.73
   5 -17  -6   10.32    0.70
  -5  17   7   16.66    0.91
   5 -17  -7   16.88    0.91
  -5  17   8    0.38    0.42
   5 -17  -8    0.37    0.52
  -5  17   9   23.06    1.10
   5 -17  -9   22.96    1.14
  -5  17  10    2.97    0.48
   5 -17 -10    3.05    0.55
  -5  17  11    8.62    0.65
   5 -17 -11    8.01    0.68
  -5  17  12    5.41    0.59
  -5  17  13    2.52    0.60
  -5  17  14   -0.27    0.63
   4 -18   9    0.99    0.63
   4 -18   8    1.85    0.77
   4 -18   7    0.98    0.70
   4 -18   6   32.05    1.60
  -4  18  -5   -0.90    0.59
   4 -18   5    0.57    0.71
  -4  18  -4    5.91    0.70
   4 -18   4    5.18    0.76
  -4  18  -3    0.57    0.64
   4 -18   3    0.41    0.61
  -4  18  -2    0.22    0.68
   4 -18   2    0.14    0.63
  -4  18  -1    1.49    0.61
   4 -18   1    1.82    0.62
  -4  18   0    9.71    0.80
   4 -18   0    9.51    0.80
  -4  18   1    2.61    0.64
   4 -18  -1    2.55    0.57
  -4  18   2   18.47    1.02
   4 -18  -2   20.29    1.07
  -4  18   3   -0.16    0.56
   4 -18  -3    0.03    0.53
  -4  18   4    6.87    0.63
   4 -18  -4    7.12    0.67
  -4  18   5    3.46    0.58
   4 -18  -5    4.80    0.62
  -4  18   6   11.82    0.77
   4 -18  -6   12.29    0.81
  -4  18   7    0.14    0.49
   4 -18  -7    0.83    0.57
  -4  18   8   13.85    0.84
   4 -18  -8   13.64    0.86
  -4  18   9    1.49    0.54
   4 -18  -9    1.27    0.57
  -4  18  10    7.07    0.68
   4 -18 -10    8.06    0.72
  -4  18  11    4.38    0.66
   4 -18 -11    3.61    0.66
  -4  18  12    0.21    0.68
   4 -18 -12    1.10    0.61
  -4  18  13    0.27    0.72
   3 -19   8    6.00    0.78
  -3  19  -7    0.76    0.62
   3 -19   7   -0.37    0.68
  -3  19  -6    0.14    0.65
   3 -19   6    1.10    0.71
  -3  19  -5    3.10    0.67
   3 -19   5    2.52    0.66
  -3  19  -4   13.79    0.94
   3 -19   4   11.98    0.94
  -3  19  -3    1.43    0.64
   3 -19   3    1.85    0.70
  -3  19  -2   41.99    1.93
   3 -19   2   45.09    2.06
  -3  19  -1    0.47    0.65
   3 -19   1   -0.10    0.57
  -3  19   0    1.04    0.64
   3 -19   0    0.75    0.59
  -3  19   1    2.74    0.60
   3 -19  -1    2.10    0.58
  -3  19   2    4.82    0.68
   3 -19  -2    4.74    0.65
  -3  19   3    1.73    0.57
   3 -19  -3    0.43    0.56
  -3  19   4   26.81    1.31
   3 -19  -4   24.70    1.26
  -3  19   5   -0.05    0.57
   3 -19  -5   -0.11    0.55
  -3  19   6    3.46    0.61
   3 -19  -6    2.00    0.60
  -3  19   7   -0.38    0.57
   3 -19  -7   -0.18    0.61
  -3  19   8   -0.28    0.58
   3 -19  -8   -0.72    0.61
  -3  19   9    0.71    0.60
   3 -19  -9    0.34    0.60
  -3  19  10    6.61    0.70
   3 -19 -10    7.61    0.80
  -3  19  11    0.29    0.69
   3 -19 -11   -1.02    0.66
  -2  20  -7   -0.10    0.60
   2 -20   7    0.66    0.69
  -2  20  -6    1.06    0.64
   2 -20   6    2.69    0.70
  -2  20  -5    4.96    0.70
   2 -20   5    4.06    0.76
  -2  20  -4    1.70    0.71
   2 -20   4    1.78    0.72
  -2  20  -3    3.62    0.67
   2 -20   3    3.16    0.69
  -2  20  -2    1.67    0.66
   2 -20   2    2.53    0.68
  -2  20  -1    4.03    0.70
   2 -20   1    4.11    0.65
  -2  20   0   13.86    0.92
   2 -20   0   13.61    0.92
  -2  20   1    1.40    0.61
   2 -20  -1    1.06    0.63
  -2  20   2    2.70    0.62
   2 -20  -2    0.51    0.61
  -2  20   3    5.26    0.66
   2 -20  -3    5.24    0.68
  -2  20   4    1.09    0.61
   2 -20  -4    0.17    0.60
  -2  20   5   12.85    0.89
   2 -20  -5   13.50    0.91
  -2  20   6    2.17    0.67
   2 -20  -6    2.76    0.64
  -2  20   7    0.80    0.65
   2 -20  -7    1.89    0.65
  -2  20   8    1.50    0.65
   2 -20  -8    1.07    0.69
  -2  20   9    2.23    0.71
   2 -20  -9    2.27    0.73
  -1  21  -5    3.01    0.69
   1 -21   5    3.96    0.71
  -1  21  -4    4.43    0.72
   1 -21   4    3.58    0.67
  -1  21  -3   -0.79    0.66
   1 -21   3   -0.34    0.60
  -1  21  -2    0.87    0.63
   1 -21   2    0.32    0.57
  -1  21  -1   11.46    0.88
   1 -21   1   11.75    0.87
  -1  21   0    0.21    0.63
   1 -21   0    0.29    0.63
  -1  21   1    7.24    0.76
   1 -21  -1    7.50    0.77
  -1  21   2   -0.61    0.61
   1 -21  -2   -0.18    0.64
  -1  21   3    2.34    0.66
   1 -21  -3    0.51    0.65
  -1  21   4   -0.94    0.62
   1 -21  -4    0.50    0.66
  -1  21   5    2.50    0.71
   1 -21  -5    2.17    0.71
  -1  21   6    0.57    0.72
   1 -21  -6    0.93    0.67
 -24   0   7   -0.16    0.62
  24   0  -7   -1.27    0.78
 -24   0   8    1.93    0.65
  24   0  -8    2.24    0.78
 -24   0   9   -0.52    0.59
  24   0  -9   -0.27    0.66
 -24   0  10    1.05    0.56
  24   0 -10    1.02    0.70
 -24   0  11   -0.46    0.63
  24   0 -11    0.42    0.75
 -24   0  12    1.41    0.64
  24   0 -12    0.92    0.71
 -24   0  13   -0.75    0.61
  24   0 -13    0.61    0.66
 -24   0  14   12.78    0.93
  24   0 -14   12.91    0.97
 -24   0  15   -0.28    0.64
  24   0 -15   -1.50    0.72
 -24   0  16    1.18    0.66
  24   0 -16    1.37    0.71
 -24   0  17   -0.91    0.76
  23  -1  -4   10.31    0.91
  23  -1  -5    2.02    0.71
  23  -1  -6   -0.11    0.70
 -23   1   7    1.43    0.63
  23  -1  -7    0.91    0.74
 -23   1   8    0.84    0.66
  23  -1  -8    1.64    0.79
 -23   1   9    3.45    0.65
  23  -1  -9    2.78    0.77
 -23   1  10    6.14    0.70
  23  -1 -10    5.51    0.81
 -23   1  11   -0.74    0.55
  23  -1 -11   -0.84    0.68
 -23   1  12   10.06    0.83
  23  -1 -12    9.84    0.79
 -23   1  13    1.06    0.62
  23  -1 -13    0.66    0.64
 -23   1  14   -0.16    0.57
  23  -1 -14    0.39    0.62
 -23   1  15   13.08    0.88
  23  -1 -15   14.14    0.99
 -23   1  16   13.99    0.93
  23  -1 -16   13.56    0.91
 -23   1  17    0.72    0.64
  23  -1 -17   -0.65    0.65
 -23   1  18    4.99    0.74
  23  -1 -18    3.55    0.73
 -23   1  19    0.32    0.72
  22  -2  -2    1.38    0.73
  22  -2  -3   23.78    1.33
  22  -2  -4    0.35    0.73
  22  -2  -5    1.96    0.73
  22  -2  -6    4.96    0.80
  22  -2  -7    1.97    0.75
  22  -2  -8    0.42    0.73
 -22   2   9   26.03    1.31
  22  -2  -9   27.70    1.46
 -22   2  10    6.08    0.64
  22  -2 -10    4.24    0.71
 -22   2  11   19.90    1.10
  22  -2 -11   26.13    1.36
 -22   2  12    2.59    0.61
  22  -2 -12    1.18    0.61
 -22   2  13    6.23    0.65
  22  -2 -13    4.78    0.65
 -22   2  14    1.17    0.58
  22  -2 -14   -0.07    0.59
 -22   2  15    5.41    0.63
  22  -2 -15    4.39    0.68
 -22   2  16    1.41    0.57
  22  -2 -16    0.54    0.62
 -22   2  17   19.78    1.04
  22  -2 -17   18.72    1.03
 -22   2  18    0.10    0.51
  22  -2 -18   -0.01    0.59
 -22   2  19    3.85    0.53
  21  -3   0    3.75    0.77
  21  -3  -1   10.94    0.92
  21  -3  -2    8.22    0.89
  21  -3  -3    2.33    0.74
  21  -3  -4    0.93    0.70
  21  -3  -5   10.06    0.88
  21  -3  -6    1.45    0.70
  21  -3  -7   15.67    0.99
  21  -3  -8    5.44    0.72
  21  -3  -9    6.58    0.75
  21  -3 -10    1.36    0.59
 -21   3  11    7.66    0.63
  21  -3 -11    3.90    0.61
 -21   3  12    2.22    0.51
  21  -3 -12    2.98    0.59
 -21   3  13   18.94    0.98
  21  -3 -13   15.37    0.92
 -21   3  14    1.65    0.48
  21  -3 -14    1.15    0.53
 -21   3  15    2.03    0.48
  21  -3 -15    2.37    0.51
 -21   3  16    2.40    0.42
  21  -3 -16    2.60    0.48
  21  -3 -17   -0.04    0.37
  20  -4   2    6.47    0.77
  20  -4   1    0.91    0.66
  20  -4   0   18.04    1.11
  20  -4  -1    2.62    0.72
  20  -4  -2   -0.16    0.68
  20  -4  -3   31.26    1.58
  20  -4  -4    3.45    0.70
  20  -4  -5    0.20    0.66
  20  -4  -6   45.91    2.07
  20  -4  -7    3.65    0.64
  20  -4  -8    1.91    0.63
  20  -4  -9   37.31    1.73
  20  -4 -10    9.40    0.74
  20  -4 -11   10.40    0.78
  20  -4 -12   33.40    1.52
  20  -4 -13   -0.30    0.42
  20  -4 -14    9.33    0.56
  19  -5   3    0.81    0.74
  19  -5   3    0.54    0.50
  19  -5   2    0.33    0.68
  19  -5   2   -0.60    0.54
  19  -5   1    0.85    0.55
  19  -5   1    2.96    0.71
  19  -5   0   12.54    0.95
  19  -5   0   13.70    0.87
  19  -5  -1    3.93    0.74
  19  -5  -2   39.56    1.85
  19  -5  -3    3.03    0.68
  19  -5  -4   12.55    0.89
  19  -5  -5    6.08    0.74
  19  -5  -6   17.56    1.03
  19  -5  -7   -0.50    0.52
  19  -5  -8   81.40    3.42
  19  -5  -9    2.91    0.54
  19  -5 -10   28.68    1.34
  19  -5 -11    1.33    0.43
  19  -5 -12    2.41    0.36
  18  -6   4    0.70    0.72
  18  -6   4    1.50    0.57
  18  -6   3    0.74    0.64
  18  -6   3    1.21    0.59
  18  -6   2    8.08    0.77
  18  -6   2    8.23    0.77
  18  -6   1    1.12    0.64
  18  -6   1    1.92    0.52
  18  -6   0   -0.84    0.61
  18  -6   0   -0.16    0.56
  18  -6  -1   15.32    1.01
  18  -6  -1   15.25    0.94
  18  -6  -2    1.10    0.67
  18  -6  -2    0.85    0.56
  18  -6  -3   36.17    1.71
  18  -6  -3   34.06    1.59
  18  -6  -4    5.84    0.71
  18  -6  -4    6.47    0.65
  18  -6  -5   -0.26    0.57
  18  -6  -6   26.00    1.30
  18  -6  -7   14.82    0.89
  18  -6  -8    1.58    0.52
  18  -6  -8    1.27    0.43
  18  -6  -9   58.09    2.45
  18  -6  -9   58.44    2.45
  17  -7   5    7.64    0.81
  17  -7   5    6.35    0.65
  17  -7   4    0.63    0.56
  17  -7   4    1.37    0.69
  17  -7   3   17.41    1.03
  17  -7   3   19.12    1.08
  17  -7   2    0.74    0.68
  17  -7   2   -0.22    0.61
  17  -7   1   16.75    1.05
  17  -7   1   17.57    1.05
  17  -7   0    4.12    0.69
  17  -7   0    4.81    0.65
  17  -7  -2   19.62    1.11
  17  -7  -2   19.19    1.08
  17  -7  -3   53.99    2.38
  17  -7  -3   54.67    2.39
  17  -7  -4    1.37    0.59
  17  -7  -4    1.18    0.53
  17  -7  -5   77.62    3.27
  17  -7  -5   73.54    3.10
  17  -7  -6    6.16    0.61
  17  -7  -6    6.96    0.63
  17  -7  -7   19.60    1.01
  17  -7  -7   19.21    0.98
  17  -7  -8    5.66    0.52
  17  -7  -8    4.60    0.47
  17  -7  -9    2.20    0.37
  17  -7  -9    3.02    0.35
  16  -8   6    0.03    0.72
  16  -8   6    0.26    0.55
  16  -8   5    0.24    0.69
  16  -8   5    2.13    0.56
  16  -8   4   12.31    0.96
  16  -8   4   15.50    0.97
  16  -8   3    4.32    0.74
  16  -8   3    5.94    0.67
  16  -8   2    3.42    0.75
  16  -8   2    3.01    0.67
  16  -8   1    9.15    0.81
  16  -8   1   10.22    0.82
  16  -8   0    7.87    0.78
  16  -8   0    8.04    0.73
  16  -8  -1   12.56    0.88
  16  -8  -1   12.40    0.86
  16  -8  -2   15.75    0.99
  16  -8  -2   17.22    1.01
  16  -8  -3   15.39    0.89
  16  -8  -3   16.02    0.92
  16  -8  -4   23.24    1.17
  16  -8  -4   25.63    1.27
  16  -8  -5   40.20    1.81
  16  -8  -5   39.83    1.78
  16  -8  -6   44.11    1.93
  16  -8  -6   42.81    1.86
  16  -8  -7    9.31    0.60
  16  -8  -7   11.28    0.63
  16  -8  -8    0.24    0.33
  16  -8  -8   -0.08    0.27
  15  -9   6   15.60    0.99
  15  -9   6   16.01    0.96
  15  -9   5    1.16    0.68
  15  -9   5    2.19    0.61
  15  -9   4   10.09    0.88
  15  -9   4    7.67    0.72
  15  -9   3    3.24    0.61
  15  -9   3    4.02    0.71
  15  -9   2    4.86    0.72
  15  -9   2    5.78    0.68
  15  -9   1   -0.11    0.69
  15  -9   1   -0.21    0.58
  15  -9   0   28.21    1.46
  15  -9   0   24.35    1.24
  15  -9  -1    4.31    0.68
  15  -9  -1    3.95    0.60
  15  -9  -2    9.53    0.77
  15  -9  -2    7.01    0.65
  15  -9  -3    2.06    0.54
  15  -9  -3    2.94    0.55
  15  -9  -4   -0.35    0.49
  15  -9  -4    0.60    0.49
  15  -9  -5   16.65    0.92
  15  -9  -5   17.11    0.92
  15  -9  -6   26.19    1.21
  15  -9  -6   25.97    1.17
  15  -9  -7    0.31    0.35
  15  -9  -7    0.19    0.29
  14 -10   7    1.66    0.65
  14 -10   7    1.42    0.58
  14 -10   6    1.39    0.67
  14 -10   6    1.27    0.64
  14 -10   5   -0.10    0.64
  14 -10   5    0.02    0.57
  14 -10   4   44.81    2.05
  14 -10   4   41.51    1.89
  14 -10   3    0.81    0.64
  14 -10   3    1.47    0.61
  14 -10   2   16.26    1.00
  14 -10   2   13.82    0.90
  14 -10   1    1.92    0.64
  14 -10   1    1.65    0.60
  14 -10   0   -0.78    0.59
  14 -10   0    1.13    0.57
  14 -10  -1    1.58    0.60
  14 -10  -1    1.40    0.58
  14 -10  -2   18.13    1.03
  14 -10  -2   20.94    1.09
  14 -10  -3    3.51    0.62
  14 -10  -3    3.56    0.53
  14 -10  -4    7.71    0.65
  14 -10  -4    7.02    0.61
  14 -10  -5   11.52    0.68
  14 -10  -5    9.52    0.62
  14 -10  -6    2.20    0.39
  14 -10  -6    2.46    0.37
  13 -11   7    1.07    0.67
  13 -11   7    1.14    0.60
  13 -11   6    7.68    0.78
  13 -11   6    7.79    0.75
  13 -11   5    8.99    0.82
  13 -11   5    8.09    0.73
  13 -11   4    0.03    0.66
  13 -11   4    1.03    0.58
  13 -11   3   18.92    1.11
  13 -11   3   16.22    0.96
  13 -11   2    9.61    0.80
  13 -11   2    9.29    0.77
  13 -11   1    1.59    0.67
  13 -11   1    1.47    0.58
  13 -11   0   23.74    1.25
  13 -11   0   24.04    1.25
  13 -11  -1    3.55    0.62
  13 -11  -1    4.49    0.63
  13 -11  -2    0.96    0.53
  13 -11  -2    1.15    0.51
  13 -11  -3   61.09    2.61
  13 -11  -3   62.49    2.67
  13 -11  -4    0.53    0.48
  13 -11  -4    1.64    0.48
  13 -11  -5   16.17    0.84
  13 -11  -5   18.90    0.91
  13 -11  -6    0.52    0.30
  13 -11  -6    0.42    0.31
  12 -12   8   -0.12    0.53
  12 -12   8    0.88    0.65
  12 -12   7   16.51    1.05
  12 -12   7   16.69    1.02
  12 -12   6    5.60    0.72
  12 -12   6    6.19    0.72
  12 -12   5   14.05    0.97
  12 -12   5   12.25    0.86
  12 -12   4    3.15    0.65
  12 -12   4    2.30    0.69
  12 -12   3    6.83    0.74
  12 -12   3    6.52    0.69
  12 -12   2   -0.23    0.65
  12 -12   2    0.36    0.55
  12 -12   1   61.51    2.67
  12 -12   1   56.32    2.45
  12 -12   0   -0.90    0.58
  12 -12   0    0.39    0.57
  12 -12  -1   33.76    1.59
  12 -12  -1   37.06    1.69
  12 -12  -2    9.94    0.76
  12 -12  -2   10.54    0.77
  12 -12  -3    1.83    0.54
  12 -12  -3    1.56    0.52
  12 -12  -4   -0.12    0.47
  12 -12  -4    0.60    0.40
  12 -12  -5    3.92    0.44
  12 -12  -5    2.73    0.44
  12 -12  -6    0.01    0.30
  12 -12  -6    0.12    0.32
  11 -13   8    6.86    0.76
  11 -13   8    5.26    0.70
  11 -13   7    2.92    0.70
  11 -13   7    3.34    0.67
  11 -13   6   15.47    0.98
  11 -13   6   14.89    1.03
  11 -13   5    1.95    0.70
  11 -13   5    2.40    0.63
  11 -13   4    3.63    0.71
  11 -13   4    2.95    0.65
  11 -13   3   11.98    0.85
  11 -13   3   10.06    0.81
  11 -13   2   15.68    0.98
  11 -13   2   16.99    1.01
  11 -13   1    0.61    0.59
  11 -13   1    0.45    0.59
  11 -13   0   16.95    1.00
  11 -13   0   14.63    0.93
  11 -13  -1    7.38    0.69
  11 -13  -1    9.11    0.72
  11 -13  -2    9.94    0.76
  11 -13  -2   11.14    0.78
  11 -13  -3   29.84    1.40
  11 -13  -3   29.74    1.41
  11 -13  -4    0.42    0.44
  11 -13  -4    0.23    0.43
  11 -13  -5   18.14    0.90
  11 -13  -5   17.30    0.87
  11 -13  -6   29.90    1.29
  11 -13  -6   31.14    1.34
  10 -14   8    0.21    0.65
  10 -14   8    1.06    0.60
  10 -14   7   -0.01    0.62
  10 -14   7   -1.16    0.64
  10 -14   6   10.09    0.86
  10 -14   6   10.80    0.84
  10 -14   5    0.28    0.70
  10 -14   5    0.15    0.67
  10 -14   4   34.97    1.69
  10 -14   4   32.42    1.59
  10 -14   3    0.00    0.66
  10 -14   3    0.73    0.59
  10 -14   2   19.75    1.14
  10 -14   2   19.73    1.09
  10 -14   1    0.51    0.61
  10 -14   1    1.10    0.62
  10 -14   0    2.29    0.59
  10 -14   0    1.88    0.61
  10 -14  -1   17.04    0.99
  10 -14  -2   37.44    1.72
  10 -14  -3    0.84    0.57
  10 -14  -3   -0.11    0.52
  10 -14  -4   87.31    3.62
  10 -14  -4   82.26    3.42
  10 -14  -5    0.34    0.44
  10 -14  -5    0.30    0.41
  10 -14  -6   10.26    0.59
  10 -14  -6   11.17    0.62
   9 -15   8    7.88    0.81
   9 -15   8    8.14    0.79
   9 -15   7    3.34    0.70
   9 -15   7    3.84    0.66
   9 -15   6   -0.48    0.67
   9 -15   6    0.38    0.73
   9 -15   5   18.03    1.11
   9 -15   4    5.34    0.70
   9 -15   3    0.66    0.63
   9 -15   2    9.70    0.80
   9 -15   1    4.78    0.66
   9 -15   0   15.45    1.00
   9 -15  -1   21.27    1.17
   9 -15  -2    6.16    0.70
   9 -15  -3   17.82    0.99
   9 -15  -4   23.27    1.13
   9 -15  -5    0.77    0.43
   9 -15  -6   40.18    1.73
   9 -15  -7   21.51    0.96
   8 -16   8   -0.29    0.67
   8 -16   8   -0.29    0.63
   8 -16   7    3.45    0.71
   8 -16   6    1.99    0.62
   8 -16   5    1.47    0.64
   8 -16   4    0.45    0.64
   8 -16   3    5.11    0.73
   8 -16   2    1.52    0.69
   8 -16   1   37.97    1.81
   8 -16   0   -0.44    0.62
   8 -16  -1    9.95    0.83
   8 -16  -2    4.25    0.66
   8 -16  -3    2.46    0.55
   8 -16  -4    1.17    0.45
   8 -16  -5   18.45    0.94
   8 -16  -6    3.19    0.47
   8 -16  -7   54.80    2.30
   8 -16  -8    6.98    0.47
   7 -17   8    0.62    0.68
   7 -17   7    1.38    0.65
   7 -17   6   -0.34    0.65
   7 -17   5    9.00    0.81
   7 -17   4    1.18    0.65
   7 -17   3    1.13    0.65
   7 -17   2   25.34    1.37
   7 -17   1    1.35    0.64
   7 -17   0    3.24    0.64
   7 -17  -1   31.17    1.52
   7 -17  -2    2.58    0.59
  -7  17   3    2.90    0.55
   7 -17  -3    3.00    0.54
  -7  17   4    4.55    0.60
   7 -17  -4    3.04    0.57
  -7  17   5    4.11    0.56
   7 -17  -5    2.45    0.50
  -7  17   6   18.59    0.95
   7 -17  -6   20.75    1.06
  -7  17   7    4.21    0.54
   7 -17  -7    3.50    0.53
  -7  17   8    2.77    0.47
   7 -17  -8    3.45    0.50
  -7  17   9   24.74    1.12
   7 -17  -9   25.33    1.16
  -7  17  10    0.05    0.29
   7 -17 -10   -0.38    0.37
   6 -18   7    2.89    0.72
   6 -18   6   13.25    0.97
   6 -18   5   -0.29    0.68
   6 -18   4   10.96    0.87
   6 -18   3    1.13    0.67
   6 -18   2    3.34    0.73
  -6  18  -1    1.38    0.63
   6 -18   1    0.48    0.68
  -6  18   0    3.24    0.61
   6 -18   0    2.58    0.64
  -6  18   1    3.38    0.66
  -6  18   2   15.08    0.92
   6 -18  -2   14.38    0.88
  -6  18   3    2.64    0.61
   6 -18  -3    3.06    0.59
  -6  18   4    5.71    0.66
   6 -18  -4    5.64    0.67
  -6  18   5    0.13    0.54
   6 -18  -5    0.33    0.53
  -6  18   6    0.34    0.56
   6 -18  -6    0.83    0.52
  -6  18   7   -0.52    0.49
   6 -18  -7    0.14    0.52
  -6  18   8   34.81    1.55
   6 -18  -8   33.21    1.53
  -6  18   9    0.13    0.47
   6 -18  -9   -0.04    0.52
  -6  18  10    3.05    0.51
   6 -18 -10    3.67    0.56
  -6  18  11    2.03    0.48
  -6  18  12    0.56    0.45
   5 -19   7    0.94    0.76
   5 -19   6    0.55    0.67
   5 -19   5    2.00    0.78
   5 -19   4    9.22    0.84
  -5  19  -3    2.22    0.59
   5 -19   3    1.59    0.72
  -5  19  -2   13.64    0.93
   5 -19   2   12.98    1.00
  -5  19  -1    1.63    0.63
   5 -19   1    0.44    0.69
  -5  19   0    4.12    0.69
   5 -19   0    3.79    0.69
  -5  19   1    5.46    0.69
   5 -19  -1    4.55    0.64
  -5  19   2    1.87    0.58
   5 -19  -2    1.73    0.57
  -5  19   3   -1.20    0.64
   5 -19  -3    0.40    0.57
  -5  19   4   15.71    0.97
   5 -19  -4   14.07    0.90
  -5  19   5    2.51    0.62
   5 -19  -5    2.75    0.60
  -5  19   6    3.89    0.61
   5 -19  -6    5.37    0.63
  -5  19   7    0.90    0.56
   5 -19  -7    1.07    0.54
  -5  19   8    0.45    0.60
   5 -19  -8    1.35    0.62
  -5  19   9    0.14    0.57
   5 -19  -9    0.63    0.61
  -5  19  10    1.66    0.61
   5 -19 -10    2.47    0.62
  -5  19  11   -0.19    0.62
   5 -19 -11    0.07    0.67
  -5  19  12    4.16    0.75
   4 -20   5    2.75    0.78
  -4  20  -4    4.79    0.71
   4 -20   4    4.68    0.78
  -4  20  -3    2.42    0.66
   4 -20   3    3.40    0.75
  -4  20  -2    0.05    0.64
   4 -20   2    0.39    0.69
  -4  20  -1    2.58    0.73
   4 -20   1    2.55    0.71
  -4  20   0    5.06    0.76
   4 -20   0    5.03    0.74
  -4  20   1    0.97    0.69
   4 -20  -1    0.81    0.63
  -4  20   2    4.78    0.73
   4 -20  -2    4.59    0.71
  -4  20   3    5.75    0.75
   4 -20  -3    3.94    0.69
  -4  20   4   -0.03    0.61
   4 -20  -4   -0.28    0.63
  -4  20   5    8.14    0.77
   4 -20  -5    6.15    0.72
  -4  20   6    5.74    0.72
   4 -20  -6    4.75    0.68
  -4  20   7    0.25    0.60
   4 -20  -7    1.04    0.63
  -4  20   8    3.85    0.67
   4 -20  -8    4.28    0.76
  -4  20   9    0.94    0.69
   4 -20  -9    0.06    0.77
  -3  21  -4   -0.36    0.73
   3 -21   4    0.73    0.77
  -3  21  -3    1.00    0.72
   3 -21   3    0.85    0.67
  -3  21  -2   -1.30    0.75
   3 -21   2    0.39    0.61
  -3  21  -1    5.12    0.81
   3 -21   1    3.90    0.70
  -3  21   0    0.45    0.69
   3 -21   0    0.11    0.70
  -3  21   1   16.48    1.06
   3 -21  -1   15.02    1.03
  -3  21   2   -1.07    0.68
   3 -21  -2    0.47    0.64
  -3  21   3    3.62    0.72
   3 -21  -3    3.13    0.69
  -3  21   4    0.47    0.68
   3 -21  -4    0.31    0.68
  -3  21   5    0.73    0.72
   3 -21  -5    1.80    0.70
  -3  21   6    0.88    0.72
   3 -21  -6    2.33    0.72
  -3  21   7    4.60    0.84
  24  -2  -7    1.72    0.87
  24  -2  -8    1.33    0.87
  24  -2  -9   11.10    1.02
  24  -2 -10    1.48    0.77
  24  -2 -11    6.22    0.84
 -24   2  12    0.76    0.65
  24  -2 -12    0.44    0.70
 -24   2  13    3.47    0.66
  24  -2 -13    2.74    0.72
 -24   2  14    0.66    0.66
  24  -2 -14    0.81    0.67
 -24   2  15    0.09    0.67
  24  -2 -15    0.96    0.72
 -24   2  16    0.77    0.67
  24  -2 -16   -0.01    0.73
 -24   2  17   11.66    0.94
  23  -3  -4    2.19    0.79
  23  -3  -5   14.69    1.04
  23  -3  -6    0.50    0.68
  23  -3  -7    7.24    0.87
  23  -3  -8    2.45    0.81
  23  -3  -9    2.06    0.78
  23  -3 -10    7.40    0.83
  23  -3 -11    1.04    0.74
  23  -3 -12    0.34    0.65
  23  -3 -13   13.13    0.97
  23  -3 -14   -1.44    0.68
  23  -3 -15    4.58    0.69
  23  -3 -16    2.89    0.60
  23  -3 -17    0.69    0.41
  22  -4  -2    0.40    0.75
  22  -4  -3    2.77    0.75
  22  -4  -4    5.63    0.80
  22  -4  -5    0.33    0.80
  22  -4  -6   15.15    1.06
  22  -4  -7   -0.29    0.69
  22  -4  -8    7.54    0.81
  22  -4  -9    2.58    0.76
  22  -4 -10    0.64    0.69
  22  -4 -11    4.72    0.70
  22  -4 -12    8.58    0.74
  22  -4 -13    0.80    0.57
  22  -4 -14    7.36    0.62
  22  -4 -15    0.02    0.34
  21  -5  -1    0.19    0.72
  21  -5  -1   -0.75    0.55
  21  -5  -2   12.39    0.83
  21  -5  -2   11.99    0.97
  21  -5  -3    1.36    0.72
  21  -5  -4   12.54    0.97
  21  -5  -5    3.44    0.77
  21  -5  -6    0.90    0.72
  21  -5  -7    1.03    0.64
  21  -5  -8   33.53    1.62
  21  -5  -9    0.95    0.67
  21  -5 -10   83.08    3.50
  21  -5 -11   -0.60    0.56
  21  -5 -12    3.31    0.51
  21  -5 -13    3.11    0.36
  21  -5 -13    2.52    0.38
  20  -6   1    0.72    0.56
  20  -6   1    1.28    0.72
  20  -6   0    4.81    0.64
  20  -6   0    4.90    0.79
  20  -6  -1    1.61    0.59
  20  -6  -1    0.97    0.71
  20  -6  -2    1.82    0.63
  20  -6  -2    1.73    0.72
  20  -6  -3   19.06    1.16
  20  -6  -3   22.16    1.20
  20  -6  -4   -0.70    0.68
  20  -6  -4   -0.19    0.57
  20  -6  -5    1.36    0.65
  20  -6  -5   -0.17    0.58
  20  -6  -6   19.20    1.03
  20  -6  -6   19.61    1.14
  20  -6  -7    9.50    0.77
  20  -6  -7    9.48    0.70
  20  -6  -8    2.64    0.66
  20  -6  -8    0.79    0.48
  20  -6  -9   20.15    1.07
  20  -6  -9   19.14    1.00
  20  -6 -10   20.91    1.08
  20  -6 -10   18.35    0.95
  20  -6 -11    4.34    0.46
  20  -6 -11    4.28    0.45
  19  -7   2   -0.55    0.58
  19  -7   2    0.41    0.71
  19  -7   1   14.88    1.01
  19  -7   1   14.22    0.92
  19  -7   0    5.07    0.80
  19  -7   0    4.51    0.64
  19  -7  -1    4.65    0.78
  19  -7  -1    3.34    0.70
  19  -7  -2    2.87    0.76
  19  -7  -2    3.71    0.66
  19  -7  -3    1.03    0.64
  19  -7  -3    0.88    0.61
  19  -7  -4    9.11    0.81
  19  -7  -4    9.79    0.75
  19  -7  -5   20.83    1.16
  19  -7  -5   19.97    1.11
  19  -7  -6    1.48    0.63
  19  -7  -6    0.65    0.51
  19  -7  -7    9.96    0.76
  19  -7  -7   10.37    0.72
  19  -7  -8    1.65    0.56
  19  -7  -8    1.42    0.50
  19  -7  -9   -0.08    0.48
  19  -7  -9   -0.37    0.40
  19  -7 -10    6.67    0.47
  19  -7 -10    5.29    0.40
  18  -8   3    2.40    0.74
  18  -8   3    2.17    0.60
  18  -8   2    7.28    0.78
  18  -8   2    8.20    0.70
  18  -8   1    4.93    0.84
  18  -8   1    4.15    0.68
  18  -8   0    0.92    0.63
  18  -8   0    1.02    0.61
  18  -8  -1    9.12    0.82
  18  -8  -1    9.49    0.79
  18  -8  -2    3.69    0.69
  18  -8  -2    2.98    0.63
  18  -8  -3   15.63    1.01
  18  -8  -3   16.59    0.98
  18  -8  -4    4.09    0.68
  18  -8  -4    5.05    0.64
  18  -8  -5    1.00    0.61
  18  -8  -5    0.47    0.51
  18  -8  -6    4.31    0.57
  18  -8  -6    4.07    0.64
  18  -8  -7   20.36    1.05
  18  -8  -7   18.44    0.94
  18  -8  -8   13.74    0.78
  18  -8  -8   14.42    0.77
  18  -8  -9    2.72    0.36
  18  -8  -9    1.79    0.29
  17  -9   4   11.52    0.91
  17  -9   4   13.31    0.87
  17  -9   3   -0.33    0.61
  17  -9   3   -0.56    0.73
  17  -9   2    0.93    0.62
  17  -9   2    0.53    0.76
  17  -9   1    2.84    0.73
  17  -9   1    2.64    0.65
  17  -9   0   16.48    1.04
  17  -9   0   15.50    0.95
  17  -9  -1    1.14    0.63
  17  -9  -1    0.30    0.59
  17  -9  -2    2.37    0.68
  17  -9  -2    2.01    0.60
  17  -9  -3   11.68    0.85
  17  -9  -3   13.63    0.88
  17  -9  -4   12.62    0.86
  17  -9  -4   10.58    0.76
  17  -9  -5   -0.47    0.57
  17  -9  -5    0.53    0.51
  17  -9  -6    7.13    0.61
  17  -9  -6    8.35    0.60
  17  -9  -7    6.73    0.56
  17  -9  -7    8.42    0.56
  17  -9  -8   24.52    1.09
  17  -9  -8   23.42    1.03
  16 -10   3   -0.87    0.78
  16 -10   3   -1.01    0.58
  16 -10   2   30.71    1.57
  16 -10   2   27.21    1.37
  16 -10   1    3.74    0.82
  16 -10   1    4.92    0.65
  16 -10   0    1.62    0.61
  16 -10   0    1.41    0.71
  16 -10  -1    1.44    0.58
  16 -10  -1    2.11    0.66
  16 -10  -2    7.84    0.78
  16 -10  -2    7.38    0.72
  16 -10  -3    3.42    0.65
  16 -10  -3    3.76    0.61
  16 -10  -4    6.88    0.65
  16 -10  -4    8.09    0.65
  16 -10  -5   -0.42    0.51
  16 -10  -5   -0.05    0.46
  16 -10  -6   12.68    0.72
  16 -10  -6   13.73    0.79
  16 -10  -7   22.83    1.05
  16 -10  -7   20.73    0.95
  15 -11   5   15.69    0.96
  15 -11   5   16.27    1.03
  15 -11   4    2.12    0.71
  15 -11   4    1.72    0.63
  15 -11   3   25.95    1.37
  15 -11   3   25.51    1.31
  15 -11   2    0.53    0.69
  15 -11   2   -0.07    0.58
  15 -11   1   13.20    0.97
  15 -11   1   12.01    0.85
  15 -11   0    8.30    0.81
  15 -11   0    9.56    0.78
  15 -11  -1    7.82    0.75
  15 -11  -1    7.15    0.67
  15 -11  -2   10.74    0.80
  15 -11  -2   12.73    0.90
  15 -11  -4    1.19    0.57
  15 -11  -4    0.78    0.50
  15 -11  -5   26.85    1.27
  15 -11  -5   27.17    1.26
  15 -11  -6    0.04    0.39
  15 -11  -6    0.73    0.37
  14 -12   6    0.89    0.72
  14 -12   6    0.16    0.64
  14 -12   5    8.08    0.79
  14 -12   5   10.01    0.80
  14 -12   4    1.19    0.65
  14 -12   4   -0.06    0.59
  14 -12   3    0.10    0.66
  14 -12   3   -0.02    0.69
  14 -12   2    4.13    0.74
  14 -12   2    4.54    0.66
  14 -12   1   31.44    1.54
  14 -12   1   36.71    1.70
  14 -12   0   -0.44    0.58
  14 -12   0    0.06    0.61
  14 -12  -1   46.72    2.09
  14 -12  -1   46.45    2.07
  14 -12  -2    5.25    0.67
  14 -12  -2    5.88    0.63
  14 -12  -3   -0.44    0.60
  14 -12  -3   -0.83    0.53
  14 -12  -4    8.97    0.74
  14 -12  -4    7.80    0.61
  14 -12  -5    1.91    0.50
  14 -12  -5    2.64    0.44
  14 -12  -6    0.76    0.36
  14 -12  -6    0.77    0.35
  13 -13   6    4.16    0.74
  13 -13   6    3.97    0.67
  13 -13   5   10.17    0.88
  13 -13   5   10.32    0.83
  13 -13   4   10.53    0.90
  13 -13   4    8.74    0.77
  13 -13   3    1.86    0.69
  13 -13   3    0.80    0.59
  13 -13   2   12.71    0.96
  13 -13   2   14.71    0.93
  13 -13   1    0.52    0.65
  13 -13   1    1.98    0.63
  13 -13   0   20.30    1.14
  13 -13   0   17.91    1.03
  13 -13  -1    0.35    0.61
  13 -13  -1   -0.11    0.62
  13 -13  -2    9.54    0.77
  13 -13  -2    8.73    0.71
  13 -13  -3    3.17    0.61
  13 -13  -3    1.96    0.53
  13 -13  -4    1.06    0.50
  13 -13  -4   -0.18    0.46
  13 -13  -5    9.72    0.64
  13 -13  -5    8.79    0.64
  13 -13  -6    1.75    0.35
  13 -13  -6    1.89    0.36
  12 -14   6    0.40    0.63
  12 -14   6    0.13    0.69
  12 -14   5    0.71    0.71
  12 -14   5    2.91    0.70
  12 -14   4    7.74    0.84
  12 -14   4    9.15    0.80
  12 -14   3    0.59    0.67
  12 -14   3   -0.10    0.61
  12 -14   2   15.84    1.06
  12 -14   2   14.08    0.94
  12 -14   1    0.57    0.67
  12 -14   1    0.18    0.61
  12 -14   0    0.53    0.62
  12 -14   0    1.11    0.56
  12 -14  -1   -1.26    0.60
  12 -14  -1    0.55    0.57
  12 -14  -2   17.56    1.02
  12 -14  -2   17.66    1.00
  12 -14  -3    1.41    0.57
  12 -14  -3    1.14    0.52
  12 -14  -4   39.01    1.73
  12 -14  -4   41.74    1.83
  12 -14  -5    2.32    0.45
  12 -14  -5    2.18    0.46
  12 -14  -6   14.51    0.72
  12 -14  -6   16.04    0.76
  11 -15   6    3.63    0.69
  11 -15   6    3.19    0.68
  11 -15   5    7.94    0.78
  11 -15   5    8.68    0.82
  11 -15   4   -0.10    0.66
  11 -15   4   -0.60    0.63
  11 -15   3    3.51    0.74
  11 -15   3    3.55    0.70
  11 -15   2    8.40    0.87
  11 -15   2    9.27    0.81
  11 -15   1    5.09    0.76
  11 -15   1    4.87    0.69
  11 -15   0   11.29    0.87
  11 -15   0   13.15    0.89
  11 -15  -1   14.91    0.96
  11 -15  -1   14.04    0.92
  11 -15  -2   10.01    0.81
  11 -15  -2    8.91    0.74
  11 -15  -3   13.96    0.88
  11 -15  -3   16.02    0.96
  11 -15  -4   -0.15    0.47
  11 -15  -4    0.04    0.49
  11 -15  -5    8.96    0.62
  11 -15  -5    8.80    0.64
  11 -15  -6   19.27    0.91
  11 -15  -6   20.34    0.95
  10 -16   6    0.91    0.68
  10 -16   6    0.49    0.63
  10 -16   5   -0.46    0.66
  10 -16   5    0.53    0.73
  10 -16   4    0.96    0.73
  10 -16   4   -0.66    0.62
  10 -16   3    2.34    0.68
  10 -16   3    2.55    0.75
  10 -16   2    0.51    0.62
  10 -16   2   -0.25    0.68
  10 -16   1   16.00    0.99
  10 -16   0    1.31    0.69
  10 -16  -1   24.59    1.30
  10 -16  -2    1.69    0.64
  10 -16  -3    0.45    0.61
  10 -16  -4   14.44    0.85
  10 -16  -5   27.53    1.28
  10 -16  -5   27.76    1.30
  10 -16  -6    0.39    0.40
  10 -16  -6    0.69    0.42
   9 -17   6    0.06    0.67
   9 -17   6    1.66    0.74
   9 -17   5    8.22    0.82
   9 -17   4    0.83    0.67
   9 -17   3    2.77    0.69
   9 -17   2    2.77    0.72
   9 -17   1    0.66    0.68
   9 -17   0    9.35    0.81
   9 -17  -1   12.85    0.93
   9 -17  -2    1.87    0.67
   9 -17  -3   30.66    1.47
   9 -17  -4    0.04    0.50
   9 -17  -5    0.20    0.51
   9 -17  -6    4.19    0.52
   9 -17  -7    0.93    0.41
   8 -18   5   -0.16    0.68
   8 -18   4   10.27    0.91
   8 -18   3    0.84    0.70
   8 -18   2    2.13    0.75
   8 -18   1    1.03    0.73
   8 -18   0    1.01    0.74
   8 -18  -1    2.22    0.71
   8 -18  -2   19.22    1.10
   8 -18  -3   10.27    0.76
   8 -18  -4    0.08    0.54
   8 -18  -5    3.40    0.56
   8 -18  -6    1.00    0.50
   8 -18  -7   -0.05    0.50
   8 -18  -8    2.27    0.44
   7 -19   5    1.62    0.81
   7 -19   4    6.30    0.85
   7 -19   3   -0.48    0.77
   7 -19   2   18.38    1.19
   7 -19   1   -0.44    0.79
   7 -19   0    2.66    0.75
   7 -19  -1   -0.51    0.66
   7 -19  -2   -1.04    0.61
   7 -19  -3    0.91    0.61
  -7  19   4   12.81    0.83
   7 -19  -4   14.10    0.92
  -7  19   5    0.16    0.55
   7 -19  -5    0.29    0.56
  -7  19   6    4.76    0.65
   7 -19  -6    4.45    0.63
  -7  19   7   -0.17    0.49
   7 -19  -7    0.99    0.59
  -7  19   8    0.80    0.47
   7 -19  -8    0.91    0.60
   7 -19  -9    4.01    0.57
   6 -20   4    1.58    0.92
   6 -20   3    4.96    0.82
   6 -20   2    0.64    0.78
   6 -20   1    5.73    0.86
   6 -20   0    5.92    0.82
  -6  20   1    0.30    0.67
   6 -20  -1    1.64    0.67
  -6  20   2   -0.68    0.62
   6 -20  -2    0.15    0.70
  -6  20   3    6.06    0.73
   6 -20  -3    5.48    0.74
  -6  20   4    3.15    0.71
   6 -20  -4    2.43    0.69
  -6  20   5    7.12    0.76
   6 -20  -5    7.51    0.74
  -6  20   6    0.63    0.59
   6 -20  -6    0.47    0.65
  -6  20   7    2.07    0.63
   6 -20  -7    2.05    0.67
  -6  20   8    1.72    0.66
   6 -20  -8    1.58    0.66
  -6  20   9   -0.01    0.65
   6 -20  -9   -0.16    0.65
  -5  21  -1    2.21    0.71
   5 -21   1    1.45    0.70
  -5  21   0    1.81    0.74
   5 -21   0    0.68    0.69
  -5  21   1    6.97    0.87
   5 -21  -1    9.99    0.91
  -5  21   2    1.27    0.74
   5 -21  -2   -0.70    0.70
  -5  21   3    9.60    0.89
   5 -21  -3    8.01    0.81
  -5  21   4    0.22    0.76
   5 -21  -4    0.37    0.69
  -5  21   5   -0.96    0.76
   5 -21  -5    0.80    0.72
  -5  21   6    0.05    0.77
   5 -21  -6    0.86    0.78
  -5  21   7    5.61    0.90
  24  -4  -8    1.74    0.92
  24  -4  -9    0.61    0.87
  24  -4 -10   -1.29    0.87
  24  -4 -11    0.22    0.72
  24  -4 -12    1.60    0.82
  24  -4 -13   -0.01    0.79
  24  -4 -14    3.46    0.74
  23  -5  -5    1.22    0.92
  23  -5  -6    0.70    0.81
  23  -5  -7   -0.65    0.73
  23  -5  -8    4.35    0.85
  23  -5  -9    0.96    0.77
  23  -5 -10    8.04    0.88
  23  -5 -11    0.73    0.85
  23  -5 -12    3.44    0.71
  23  -5 -12    3.66    0.65
  23  -5 -13    0.40    0.54
  23  -5 -13    0.50    0.49
  22  -6  -3   14.01    1.09
  22  -6  -3   14.79    1.01
  22  -6  -4    4.15    0.82
  22  -6  -4    3.28    0.69
  22  -6  -5    5.84    0.90
  22  -6  -5    4.07    0.69
  22  -6  -6    9.45    0.92
  22  -6  -6   10.08    0.82
  22  -6  -7    1.66    0.73
  22  -6  -7    2.84    0.65
  22  -6  -8    2.94    0.78
  22  -6  -8    3.43    0.65
  22  -6  -9   11.85    0.95
  22  -6  -9   14.30    0.90
  22  -6 -10   -0.36    0.70
  22  -6 -10    0.00    0.56
  22  -6 -11   17.34    0.99
  22  -6 -11   15.63    0.89
  22  -6 -12    0.92    0.41
  22  -6 -12    0.10    0.39
  21  -7  -2    0.76    0.75
  21  -7  -2    0.28    0.67
  21  -7  -3    7.82    0.88
  21  -7  -3    8.47    0.78
  21  -7  -4    0.61    0.82
  21  -7  -4    0.46    0.66
  21  -7  -5   18.83    1.15
  21  -7  -5   18.64    1.12
  21  -7  -6   -1.09    0.71
  21  -7  -6   -0.98    0.61
  21  -7  -7   11.48    0.92
  21  -7  -7   11.56    0.86
  21  -7  -8    1.76    0.74
  21  -7  -8    1.27    0.56
  21  -7  -9   -0.36    0.65
  21  -7  -9   -0.39    0.51
  21  -7 -10    0.17    0.53
  21  -7 -10   -0.92    0.46
  20  -8   0    1.65    0.70
  20  -8  -1   12.99    0.99
  20  -8  -1   15.44    0.99
  20  -8  -2    0.75    0.74
  20  -8  -2    0.72    0.64
  20  -8  -3    1.09    0.76
  20  -8  -3    2.09    0.67
  20  -8  -4    1.98    0.77
  20  -8  -4    1.59    0.67
  20  -8  -5    0.25    0.66
  20  -8  -5    1.00    0.60
  20  -8  -6    4.63    0.76
  20  -8  -6    3.93    0.64
  20  -8  -7   10.11    0.83
  20  -8  -7    9.15    0.74
  20  -8  -8    1.93    0.63
  20  -8  -8    0.74    0.49
  19  -9   1    0.51    0.73
  19  -9   1    0.57    0.64
  19  -9   0    6.99    0.83
  19  -9   0    5.19    0.69
  19  -9  -1    0.35    0.72
  19  -9  -1   -0.08    0.67
  19  -9  -2    7.06    0.83
  19  -9  -2    6.26    0.80
  19  -9  -3    1.89    0.72
  19  -9  -3    1.87    0.65
  19  -9  -4   10.79    0.88
  19  -9  -4   12.22    0.86
  19  -9  -5    0.30    0.69
  19  -9  -5    0.71    0.60
  19  -9  -6    5.95    0.75
  19  -9  -6    6.43    0.68
  19  -9  -7   -0.89    0.57
  19  -9  -7    0.73    0.49
  19  -9  -8   17.58    0.94
  19  -9  -8   15.41    0.81
  18 -10   1    0.03    0.69
  18 -10   1    0.79    0.64
  18 -10   0    8.80    0.84
  18 -10   0    6.85    0.78
  18 -10  -1    8.28    0.90
  18 -10  -1    6.52    0.79
  18 -10  -2    3.64    0.72
  18 -10  -2    3.32    0.67
  18 -10  -3    0.15    0.66
  18 -10  -3    0.41    0.64
  18 -10  -4   11.60    0.89
  18 -10  -4   11.84    0.85
  18 -10  -5    1.21    0.64
  18 -10  -5    0.65    0.55
  18 -10  -6    7.20    0.72
  18 -10  -6    8.85    0.66
  18 -10  -7    3.30    0.54
  18 -10  -7    3.98    0.48
  17 -11   2    0.21    0.72
  17 -11   2    0.61    0.60
  17 -11   1   16.78    1.10
  17 -11   1   14.65    0.98
  17 -11   0    0.41    0.80
  17 -11   0   -0.54    0.70
  17 -11  -1   -0.03    0.68
  17 -11  -1   -0.02    0.62
  17 -11  -2    0.20    0.64
  17 -11  -2    1.79    0.61
  17 -11  -3   16.01    1.02
  17 -11  -3   14.50    0.94
  17 -11  -4    0.64    0.63
  17 -11  -4    1.73    0.55
  17 -11  -5   10.06    0.80
  17 -11  -5   10.15    0.68
  17 -11  -6    0.82    0.52
  17 -11  -6    0.51    0.45
  17 -11  -7   16.52    0.82
  17 -11  -7   19.27    0.90
  16 -12   3    3.03    0.75
  16 -12   3    3.57    0.70
  16 -12   2    3.56    0.74
  16 -12   2    2.46    0.66
  16 -12   1    3.07    0.82
  16 -12   1    1.52    0.75
  16 -12   0    0.56    0.73
  16 -12   0    1.21    0.68
  16 -12  -1   16.50    1.11
  16 -12  -1   18.00    1.05
  16 -12  -2    0.87    0.74
  16 -12  -2    2.80    0.64
  16 -12  -3   14.70    0.97
  16 -12  -3   14.13    0.91
  16 -12  -4    0.93    0.61
  16 -12  -4    2.95    0.58
  16 -12  -5    0.95    0.55
  16 -12  -5    0.68    0.47
  16 -12  -6   12.03    0.73
  16 -12  -6   11.70    0.69
  15 -13   3    6.57    0.80
  15 -13   3    7.79    0.80
  15 -13   2    1.57    0.71
  15 -13   2    0.88    0.66
  15 -13   1    0.95    0.74
  15 -13   1    0.13    0.67
  15 -13   0   13.77    1.00
  15 -13   0   13.09    0.93
  15 -13  -1    0.20    0.69
  15 -13  -1    1.02    0.64
  15 -13  -2   15.74    1.02
  15 -13  -2   17.30    1.03
  15 -13  -3    2.17    0.67
  15 -13  -3    1.69    0.62
  15 -13  -4    1.24    0.62
  15 -13  -4    1.12    0.52
  15 -13  -5    0.92    0.54
  15 -13  -5    1.14    0.48
  15 -13  -6   16.38    0.83
  15 -13  -6   14.28    0.77
  14 -14   4    4.69    0.81
  14 -14   4    4.81    0.83
  14 -14   3   -0.06    0.70
  14 -14   3    0.58    0.67
  14 -14   2    6.06    0.78
  14 -14   2    5.84    0.79
  14 -14   1   -0.90    0.73
  14 -14   1    0.89    0.71
  14 -14   0    1.96    0.73
  14 -14   0    0.69    0.69
  14 -14  -1   -0.65    0.68
  14 -14  -1   -0.49    0.61
  14 -14  -2    5.96    0.75
  14 -14  -2    5.47    0.70
  14 -14  -3   -0.32    0.63
  14 -14  -3   -0.33    0.59
  14 -14  -4   34.92    1.64
  14 -14  -4   36.94    1.67
  14 -14  -5    3.61    0.55
  14 -14  -5    3.84    0.57
  14 -14  -6    3.89    0.40
  14 -14  -6    4.04    0.41
  13 -15   4    1.76    0.76
  13 -15   4    0.84    0.70
  13 -15   3    1.08    0.72
  13 -15   3    0.80    0.69
  13 -15   2    0.65    0.69
  13 -15   2    0.09    0.75
  13 -15   1    3.52    0.78
  13 -15   1    4.72    0.77
  13 -15   0   15.64    1.04
  13 -15   0   15.24    1.00
  13 -15  -1    0.29    0.69
  13 -15  -1   -0.44    0.62
  13 -15  -2    9.08    0.84
  13 -15  -2   10.04    0.83
  13 -15  -3   18.67    1.11
  13 -15  -3   15.03    0.95
  13 -15  -4    0.42    0.52
  13 -15  -4    0.12    0.59
  13 -15  -5    0.56    0.49
  13 -15  -5    0.57    0.51
  13 -15  -6   16.30    0.79
  13 -15  -6   18.58    0.85
  12 -16   4    0.98    0.70
  12 -16   4    0.17    0.72
  12 -16   3    0.25    0.67
  12 -16   3    0.18    0.69
  12 -16   2   -0.16    0.71
  12 -16   2    1.53    0.73
  12 -16   1    8.67    0.86
  12 -16   1    7.07    0.85
  12 -16   0    0.91    0.74
  12 -16   0   -0.54    0.69
  12 -16  -1   16.37    1.05
  12 -16  -1   17.48    1.05
  12 -16  -2    1.09    0.67
  12 -16  -2    1.79    0.68
  12 -16  -3    7.24    0.79
  12 -16  -3    6.75    0.81
  12 -16  -4    5.11    0.67
  12 -16  -4    6.89    0.68
  12 -16  -5    1.38    0.53
  12 -16  -5    1.37    0.47
  12 -16  -6    1.28    0.38
  12 -16  -6    1.69    0.38
  11 -17   4    0.89    0.75
  11 -17   4    0.36    0.79
  11 -17   3   11.84    0.92
  11 -17   3   11.70    0.93
  11 -17   2    2.86    0.75
  11 -17   2    3.04    0.76
  11 -17   1    0.03    0.76
  11 -17   1    0.72    0.79
  11 -17   0    1.31    0.76
  11 -17   0    0.36    0.75
  11 -17  -1    1.26    0.73
  11 -17  -1    1.68    0.77
  11 -17  -2    0.23    0.70
  11 -17  -2   -0.71    0.71
  11 -17  -3   43.02    1.99
  11 -17  -3   40.20    1.87
  11 -17  -4   -0.21    0.62
  11 -17  -4    0.43    0.62
  11 -17  -5   18.19    1.00
  11 -17  -5   18.62    0.99
  11 -17  -6    0.24    0.44
  11 -17  -6    0.70    0.42
  10 -18   3    0.04    0.73
  10 -18   3    1.36    0.77
  10 -18   2    0.46    0.63
  10 -18   2    0.79    0.81
  10 -18   1    5.23    0.86
  10 -18   0   -0.68    0.82
  10 -18  -1    3.47    0.81
  10 -18  -2    7.79    0.82
  10 -18  -3    4.14    0.67
  10 -18  -4   10.58    0.80
  10 -18  -5    8.62    0.74
  10 -18  -5    7.66    0.72
  10 -18  -6    0.53    0.53
  10 -18  -6   -0.13    0.49
   9 -19   2   12.71    1.03
   9 -19   1   -0.13    0.77
   9 -19   0    3.54    0.83
   9 -19  -1   -0.61    0.73
   9 -19  -2    1.65    0.70
   9 -19  -3   -0.01    0.65
   9 -19  -4    7.36    0.77
   9 -19  -5    1.60    0.66
   9 -19  -6   13.53    0.88
   9 -19  -7    0.84    0.55
   8 -20   1   12.36    1.06
   8 -20   0    4.53    0.86
   8 -20  -1    2.80    0.75
   8 -20  -2    3.64    0.69
   8 -20  -3    0.92    0.69
   8 -20  -4    0.24    0.66
   8 -20  -5   15.02    0.99
   8 -20  -6    0.57    0.64
   8 -20  -7    3.26    0.71
   8 -20  -8    2.62    0.55
   7 -21  -2    0.94    0.80
   7 -21  -3    2.61    0.85
   7 -21  -4    1.44    0.79
   7 -21  -5    2.13    1.00
  23  -7  -7   11.04    1.15
  23  -7  -7   10.30    0.94
  23  -7  -8    1.05    0.87
  23  -7  -8    0.98    0.76
  23  -7  -9    1.90    0.94
  23  -7  -9    0.80    0.67
  23  -7 -10    0.32    0.81
  23  -7 -10    0.45    0.63
  23  -7 -11    0.35    0.57
  23  -7 -11    0.61    0.53
  22  -8  -5    2.74    0.93
  22  -8  -5    1.86    0.72
  22  -8  -6    8.19    0.97
  22  -8  -6    8.41    0.84
  22  -8  -7    1.37    0.78
  22  -8  -7   -0.33    0.72
  22  -8  -8   -0.35    0.80
  22  -8  -8    0.29    0.62
  22  -8  -9    4.21    0.79
  22  -8  -9    5.62    0.65
  22  -8 -10    1.80    0.50
  22  -8 -10    0.36    0.46
  21  -9  -4    8.83    0.94
  21  -9  -4    9.04    0.86
  21  -9  -5    0.21    0.79
  21  -9  -5   -0.42    0.70
  21  -9  -6    0.20    0.79
  21  -9  -6    0.43    0.70
  21  -9  -7    3.67    0.81
  21  -9  -7    2.65    0.61
  21  -9  -8    5.37    0.78
  21  -9  -8    5.16    0.65
  21  -9  -9    0.14    0.51
  21  -9  -9    0.62    0.43
  20 -10  -2    0.55    0.85
  20 -10  -2   -0.53    0.74
  20 -10  -3    3.91    0.83
  20 -10  -3    3.72    0.75
  20 -10  -4    2.82    0.83
  20 -10  -4    3.48    0.73
  20 -10  -5    0.18    0.81
  20 -10  -5    0.61    0.64
  20 -10  -6   10.53    0.93
  20 -10  -6   13.00    0.86
  20 -10  -7    1.24    0.70
  20 -10  -7    1.15    0.55
  20 -10  -8    2.90    0.55
  20 -10  -8    2.45    0.48
  19 -11  -1    2.68    0.84
  19 -11  -1    3.32    0.75
  19 -11  -2    0.30    0.79
  19 -11  -2   -0.13    0.69
  19 -11  -3    6.11    0.86
  19 -11  -3    5.10    0.72
  19 -11  -4    1.32    0.76
  19 -11  -4    0.54    0.63
  19 -11  -5    4.23    0.78
  19 -11  -5    2.23    0.60
  19 -11  -6   -0.84    0.68
  19 -11  -6    0.10    0.55
  19 -11  -7    6.74    0.67
  19 -11  -7    6.34    0.59
  18 -12  -1    4.60    0.78
  18 -12  -1    3.56    0.77
  18 -12  -2   -0.71    0.76
  18 -12  -2    0.47    0.72
  18 -12  -3    3.74    0.77
  18 -12  -3    4.15    0.72
  18 -12  -4   -0.07    0.70
  18 -12  -4    0.54    0.64
  18 -12  -5    0.14    0.64
  18 -12  -5    0.99    0.56
  18 -12  -6    0.90    0.60
  18 -12  -6    0.63    0.51
  17 -13   0    5.95    0.89
  17 -13   0    6.49    0.82
  17 -13  -1   -0.04    0.83
  17 -13  -1   -0.52    0.73
  17 -13  -2    6.70    0.91
  17 -13  -2    8.55    0.85
  17 -13  -3    4.48    0.82
  17 -13  -3    3.63    0.73
  17 -13  -4    5.09    0.74
  17 -13  -4    4.16    0.66
  17 -13  -5    3.65    0.65
  17 -13  -5    2.90    0.57
  17 -13  -6    2.63    0.53
  17 -13  -6    2.88    0.52
  16 -14   1    0.57    0.93
  16 -14   0    1.46    0.80
  16 -14   0    2.43    0.80
  16 -14  -1   -0.19    0.75
  16 -14  -1    0.89    0.75
  16 -14  -2    4.60    0.86
  16 -14  -2    4.90    0.76
  16 -14  -3   -0.91    0.79
  16 -14  -3    0.53    0.68
  16 -14  -4   17.01    1.09
  16 -14  -4   16.37    0.97
  16 -14  -5    1.45    0.56
  16 -14  -5    0.38    0.55
  16 -14  -6   13.05    0.73
  16 -14  -6   11.86    0.68
  15 -15   1    3.90    0.80
  15 -15   1    3.08    0.79
  15 -15   0    6.78    0.88
  15 -15   0    6.04    0.85
  15 -15  -1    2.77    0.80
  15 -15  -1    1.70    0.73
  15 -15  -2    4.33    0.79
  15 -15  -2    6.61    0.79
  15 -15  -3   10.09    0.94
  15 -15  -3    9.47    0.85
  15 -15  -4    0.66    0.67
  15 -15  -4    0.39    0.62
  15 -15  -5   17.90    1.01
  15 -15  -5   19.82    1.06
  14 -16   1    5.71    0.89
  14 -16   1    6.67    0.89
  14 -16   0    2.17    0.76
  14 -16   0    2.02    0.81
  14 -16  -1   11.39    0.98
  14 -16  -1    8.64    0.89
  14 -16  -2    0.48    0.75
  14 -16  -2    0.80    0.70
  14 -16  -3    0.53    0.76
  14 -16  -3    0.90    0.71
  14 -16  -4    0.61    0.68
  14 -16  -4   -0.15    0.65
  14 -16  -5   12.05    0.82
  14 -16  -5   13.02    0.85
  13 -17   1    1.53    0.84
  13 -17   1    0.49    0.90
  13 -17   0    1.29    0.79
  13 -17   0    0.23    0.83
  13 -17  -1    1.49    0.77
  13 -17  -1    1.81    0.84
  13 -17  -2    0.35    0.77
  13 -17  -2    0.27    0.75
  13 -17  -3    4.95    0.84
  13 -17  -3    4.98    0.76
  13 -17  -4    0.90    0.67
  13 -17  -4    0.57    0.69
  13 -17  -5    2.01    0.60
  13 -17  -5    3.30    0.61
  12 -18   0    0.11    0.79
  12 -18   0   -0.17    0.90
  12 -18  -1    0.74    0.78
  12 -18  -1    1.11    0.88
  12 -18  -2    6.49    0.84
  12 -18  -2    4.30    0.88
  12 -18  -3    1.14    0.76
  12 -18  -3    0.64    0.78
  12 -18  -4    3.41    0.78
  12 -18  -4    3.52    0.64
  12 -18  -5    1.68    0.63
  12 -18  -5    1.59    0.63
  11 -19  -1    1.87    0.84
  11 -19  -1    0.95    0.97
  11 -19  -2    2.72    0.83
  11 -19  -2    3.42    0.85
  11 -19  -3    1.45    0.76
  11 -19  -3    0.84    0.75
  11 -19  -4   -0.44    0.68
  11 -19  -4    0.51    0.71
  11 -19  -5    0.89    0.68
  11 -19  -5    0.84    0.64
  10 -20  -3    0.14    0.85
  10 -20  -4    2.84    0.77
  10 -20  -4    2.98    0.84
  10 -20  -5    3.16    0.84
  10 -20  -5    5.29    0.80
  10 -20  -6   -0.89    0.66
  10 -20  -6    0.02    0.65
  21 -11  -7    3.31    0.83
  21 -11  -7    4.99    0.76
  20 -12  -5    0.40    0.79
  20 -12  -5    1.04    0.80
  20 -12  -6   -0.91    0.87
  20 -12  -6    0.18    0.66
  19 -13  -4    0.04    0.90
  19 -13  -4   -0.41    0.89
  19 -13  -5    2.51    0.87
  19 -13  -5    3.50    0.72
  19 -13  -6   -0.13    0.72
  19 -13  -6   -0.06    0.67
  18 -14  -4    5.80    0.84
  18 -14  -4    5.45    0.84
  18 -14  -5   -0.89    0.78
  18 -14  -5    0.75    0.69
  18 -14  -6    9.89    0.74
  18 -14  -6    7.76    0.72
  17 -15  -3    0.82    0.87
  17 -15  -3    0.97    1.01
  17 -15  -4    3.42    0.84
  17 -15  -4    2.00    0.79
  17 -15  -5    7.18    0.84
  17 -15  -5    5.39    0.83
  16 -16  -3    3.75    0.98
  16 -16  -3    3.29    1.02
  16 -16  -4    1.51    0.83
  16 -16  -4    0.61    0.85
  16 -16  -5    0.34    0.67
  16 -16  -5    0.54    0.71
  15 -17  -4    0.45    0.92
  15 -17  -4    0.51    0.88
  15 -17  -5    6.52    0.72
  15 -17  -5    6.74    0.71
  14 -18  -5    0.75    0.75
  14 -18  -5    0.32    0.65
   0   0   0    0.00    0.00
;
_shelx_hkl_checksum              38602
loop_
_space_group_symop_operation_xyz
'x, y, z'
'-x, y, -z+1/2'
'x+1/2, y+1/2, z'
'-x+1/2, y+1/2, -z+1/2'
'-x, -y, -z'
'x, -y, z-1/2'
'-x+1/2, -y+1/2, -z'
'x+1/2, -y+1/2, z-1/2'
loop_
_atom_site_label
_atom_site_type_symbol
_atom_site_fract_x
_atom_site_fract_y
_atom_site_fract_z
_atom_site_U_iso_or_equiv
_atom_site_adp_type
_atom_site_occupancy
_atom_site_site_symmetry_order
_atom_site_calc_flag
_atom_site_refinement_flags_posn
_atom_site_refinement_flags_adp
_atom_site_refinement_flags_occupancy
_atom_site_disorder_assembly
_atom_site_disorder_group
Li1 Li 0.0719(3) 0.0883(3) 0.2528(3) 0.0348(10) Uani 1 1 d . . . . .
Zn1 Zn 0.23011(2) 0.10760(2) 0.42997(2) 0.03103(16) Uani 1 1 d . . . . .
N1 N 0.33073(15) 0.11789(15) 0.54625(16) 0.0375(5) Uani 1 1 d . U . . .
C11 C 0.37638(17) 0.18268(17) 0.57502(18) 0.0359(6) Uani 1 1 d . U . . .
H11 H 0.362343 0.227450 0.539469 0.043 Uiso 1 1 calc R U . . .
C12 C 0.44367(17) 0.18701(18) 0.65504(19) 0.0380(6) Uani 1 1 d . U . . .
H12 H 0.474965 0.233871 0.673556 0.046 Uiso 1 1 calc R U . . .
C13 C 0.46433(19) 0.12224(19) 0.7072(2) 0.0446(7) Uani 1 1 d . U . . .
C14 C 0.4167(3) 0.0548(2) 0.6764(3) 0.0679(12) Uani 1 1 d . U . . .
H14 H 0.429394 0.009047 0.710400 0.081 Uiso 1 1 calc R U . . .
C15 C 0.3511(2) 0.0549(2) 0.5963(2) 0.0635(11) Uani 1 1 d . U . . .
H15 H 0.319232 0.008509 0.575893 0.076 Uiso 1 1 calc R U . . .
O11 O 0.14864(12) 0.09513(13) 0.46329(13) 0.0366(4) Uani 1 1 d . . . . .
O12 O 0.03892(11) 0.07925(13) 0.33759(12) 0.0349(4) Uani 1 1 d . . . . .
C101 C 0.07623(16) 0.07345(17) 0.41553(17) 0.0316(5) Uani 1 1 d . . . . .
C102 C 0.03514(17) 0.0367(2) 0.45813(17) 0.0385(6) Uani 1 1 d . . . . .
C103 C 0.0353(2) 0.0755(2) 0.5253(2) 0.0489(8) Uani 1 1 d . . . . .
C104 C 0.0004(2) 0.0381(2) 0.56853(19) 0.0479(8) Uani 1 1 d . . . . .
C105 C -0.0071(4) 0.0880(4) 0.6333(4) 0.0387(12) Uani 0.5 1 d . . P . .
H105 H -0.033249 0.065779 0.660586 0.046 Uiso 0.5 1 calc R U P . .
C106 C 0.0226(5) 0.1641(4) 0.6537(5) 0.0560(18) Uani 0.5 1 d . . P . .
H106 H 0.021903 0.191335 0.698200 0.067 Uiso 0.5 1 calc R U P . .
C107 C 0.0539(6) 0.2005(4) 0.6080(6) 0.061(2) Uani 0.5 1 d . . P . .
H107 H 0.071481 0.253746 0.619816 0.073 Uiso 0.5 1 calc R U P . .
C108 C 0.0594(4) 0.1609(4) 0.5470(5) 0.0471(15) Uani 0.5 1 d . . P . .
H108 H 0.079468 0.188355 0.516552 0.056 Uiso 0.5 1 calc R U P . .
O21 O 0.23753(13) 0.20143(13) 0.37578(13) 0.0393(5) Uani 1 1 d . . . . .
O22 O 0.11761(13) 0.18835(13) 0.25860(14) 0.0422(5) Uani 1 1 d . . . . .
O23 O 0.24480(14) 0.50480(14) 0.09824(14) 0.0454(5) Uani 1 1 d . . . . .
O24 O 0.34953(16) 0.51466(16) 0.22600(16) 0.0592(7) Uani 1 1 d . . . . .
C201 C 0.18494(18) 0.21950(17) 0.29975(18) 0.0359(6) Uani 1 1 d . . . . .
C202 C 0.21021(18) 0.28446(18) 0.26276(18) 0.0373(6) Uani 1 1 d . . . . .
C203 C 0.2504(2) 0.3471(2) 0.31210(19) 0.0447(7) Uani 1 1 d . . . . .
H203 H 0.262044 0.348307 0.368483 0.054 Uiso 1 1 calc R U . . .
C204 C 0.2749(2) 0.4099(2) 0.2809(2) 0.0458(7) Uani 1 1 d . . . . .
H204 H 0.302495 0.453270 0.316410 0.055 Uiso 1 1 calc R U . . .
C205 C 0.25986(19) 0.40981(18) 0.19980(19) 0.0387(6) Uani 1 1 d . . . . .
C206 C 0.28765(19) 0.48079(18) 0.1730(2) 0.0402(6) Uani 1 1 d . . . . .
C207 C 0.2210(2) 0.3435(2) 0.1471(2) 0.0465(7) Uani 1 1 d . U . . .
C208 C 0.1948(2) 0.2802(2) 0.1789(2) 0.0449(7) Uani 1 1 d . U . . .
C209 C 0.1683(8) 0.2093(11) 0.1352(9) 0.050(2) Uani 0.5 1 d . U P A 1
H209 H 0.153368 0.166924 0.158104 0.060 Uiso 0.5 1 calc R U P A 1
C210 C 0.1638(7) 0.2004(8) 0.0581(8) 0.060(2) Uani 0.5 1 d . U P A 1
H210 H 0.142555 0.153497 0.026358 0.072 Uiso 0.5 1 calc R U P A 1
C211 C 0.1914(7) 0.2629(8) 0.0275(8) 0.064(2) Uani 0.5 1 d . U P A 1
H211 H 0.189822 0.256910 -0.024359 0.077 Uiso 0.5 1 calc R U P A 1
C212 C 0.2204(9) 0.3320(11) 0.0722(11) 0.056(2) Uani 0.5 1 d . U P A 1
H212 H 0.240290 0.372280 0.051618 0.067 Uiso 0.5 1 calc R U P A 1
C213 C 0.1480(10) 0.2173(12) 0.1196(10) 0.060(3) Uani 0.5 1 d . U P A 2
H213 H 0.127397 0.175547 0.137682 0.072 Uiso 0.5 1 calc R U P A 2
C214 C 0.1337(7) 0.2171(7) 0.0414(8) 0.064(2) Uani 0.5 1 d . U P A 2
H214 H 0.105552 0.173935 0.005835 0.076 Uiso 0.5 1 calc R U P A 2
C215 C 0.1591(7) 0.2787(7) 0.0103(7) 0.062(2) Uani 0.5 1 d . U P A 2
H215 H 0.148955 0.276704 -0.045505 0.074 Uiso 0.5 1 calc R U P A 2
C216 C 0.1985(8) 0.3421(11) 0.0602(11) 0.056(3) Uani 0.5 1 d . U P A 2
H216 H 0.211252 0.385927 0.036940 0.067 Uiso 0.5 1 calc R U P A 2
C1 C -0.0145(10) 0.5023(9) 0.4777(9) 0.110(4) Uani 0.25 1 d D U P B -1
C2 C -0.0057(11) 0.4206(8) 0.4865(9) 0.105(4) Uani 0.25 1 d D U P B -1
H2 H -0.034391 0.387457 0.439010 0.126 Uiso 0.25 1 calc R U P B -1
C3 C 0.0448(10) 0.3880(7) 0.5641(10) 0.104(4) Uani 0.25 1 d D U P B -1
H3 H 0.050497 0.332389 0.569959 0.125 Uiso 0.25 1 calc R U P B -1
C4 C 0.0875(10) 0.4364(9) 0.6341(9) 0.092(3) Uani 0.25 1 d D U P B -1
C5 C 0.0780(11) 0.5179(8) 0.6250(9) 0.101(4) Uani 0.25 1 d D U P B -1
H5 H 0.106586 0.550970 0.672554 0.122 Uiso 0.25 1 calc R U P B -1
C6 C 0.0275(12) 0.5508(7) 0.5479(10) 0.098(4) Uani 0.25 1 d D U P B -1
H6 H 0.021218 0.606412 0.542340 0.117 Uiso 0.25 1 calc R U P B -1
C7 C 0.1419(12) 0.4003(13) 0.7175(10) 0.098(3) Uiso 0.25 1 d D U P B -1
H7A H 0.141051 0.342816 0.711958 0.147 Uiso 0.25 1 calc R U P B -1
H7B H 0.197013 0.419655 0.739052 0.147 Uiso 0.25 1 calc R U P B -1
H7C H 0.123532 0.414796 0.756503 0.147 Uiso 0.25 1 calc R U P B -1
C8 C -0.0682(14) 0.5378(12) 0.3939(11) 0.116(5) Uiso 0.25 1 d D U P B -1
H8A H -0.067410 0.595327 0.398997 0.174 Uiso 0.25 1 calc R U P B -1
H8B H -0.049243 0.522824 0.355562 0.174 Uiso 0.25 1 calc R U P B -1
H8C H -0.123388 0.518503 0.371994 0.174 Uiso 0.25 1 calc R U P B -1
C1' C 0.1364(7) 0.3990(10) 0.7025(9) 0.089(3) Uani 0.25 1 d D U P C -2
H1' H 0.193554 0.398372 0.735969 0.106 Uiso 0.25 1 calc R U P C -2
C2' C 0.0996(8) 0.4290(10) 0.6220(9) 0.095(4) Uani 0.25 1 d D U P C -2
H2' H 0.131697 0.448498 0.600211 0.115 Uiso 0.25 1 calc R U P C -2
C3' C 0.0161(8) 0.4306(8) 0.5729(8) 0.105(3) Uani 0.25 1 d D U P C -2
C4' C -0.0305(7) 0.4026(10) 0.6056(9) 0.096(4) Uani 0.25 1 d D U P C -2
H4' H -0.087667 0.404576 0.572656 0.115 Uiso 0.25 1 calc R U P C -2
C5' C 0.0057(7) 0.3719(8) 0.6855(8) 0.076(3) Uani 0.25 1 d D U P C -2
H5' H -0.026327 0.352111 0.707237 0.091 Uiso 0.25 1 calc R U P C -2
C6' C 0.0897(7) 0.3699(9) 0.7344(7) 0.080(3) Uani 0.25 1 d D U P C -2
C7' C -0.0239(12) 0.4617(13) 0.4852(9) 0.112(4) Uiso 0.25 1 d D U P C -2
H7'A H -0.082588 0.458442 0.460013 0.169 Uiso 0.25 1 calc R U P C -2
H7'B H -0.008124 0.516744 0.485924 0.169 Uiso 0.25 1 calc R U P C -2
H7'C H -0.007202 0.430107 0.452115 0.169 Uiso 0.25 1 calc R U P C -2
C8' C 0.1279(11) 0.3375(12) 0.8210(9) 0.100(5) Uiso 0.25 1 d D U P C -2
H8'A H 0.085837 0.319859 0.832472 0.149 Uiso 0.25 1 calc R U P C -2
H8'B H 0.162482 0.292814 0.826234 0.149 Uiso 0.25 1 calc R U P C -2
H8'C H 0.160462 0.378609 0.861170 0.149 Uiso 0.25 1 calc R U P C -2
loop_
_atom_site_aniso_label
_atom_site_aniso_U_11
_atom_site_aniso_U_22
_atom_site_aniso_U_33
_atom_site_aniso_U_23
_atom_site_aniso_U_13
_atom_site_aniso_U_12
Li1 0.033(2) 0.038(2) 0.033(2) 0.0008(19) 0.016(2) 0.0032(19)
Zn1 0.0270(2) 0.0351(2) 0.0271(2) 0.00018(12) 0.01085(14) 0.00013(11)
N1 0.0303(11) 0.0392(12) 0.0316(12) 0.0025(9) 0.0070(10) -0.0018(9)
C11 0.0328(13) 0.0374(14) 0.0332(13) 0.0002(11) 0.0134(11) -0.0015(11)
C12 0.0308(13) 0.0400(14) 0.0372(14) -0.0029(11) 0.0126(12) -0.0030(11)
C13 0.0366(15) 0.0427(16) 0.0373(16) -0.0001(12) 0.0060(14) 0.0003(12)
C14 0.061(2) 0.0450(18) 0.0482(19) 0.0104(15) -0.0086(18) -0.0127(16)
C15 0.056(2) 0.0460(18) 0.0435(18) 0.0113(14) -0.0088(16) -0.0145(15)
O11 0.0307(10) 0.0486(11) 0.0279(9) -0.0017(8) 0.0129(8) -0.0047(8)
O12 0.0287(9) 0.0458(11) 0.0262(9) 0.0045(8) 0.0108(8) -0.0007(8)
C101 0.0301(12) 0.0357(13) 0.0287(12) 0.0016(10) 0.0146(11) 0.0008(10)
C102 0.0332(13) 0.0522(16) 0.0260(12) 0.0032(12) 0.0119(11) -0.0069(12)
C103 0.0450(17) 0.067(2) 0.0340(15) -0.0008(15) 0.0197(14) -0.0180(16)
C104 0.0433(17) 0.066(2) 0.0319(14) 0.0006(14) 0.0171(13) -0.0171(15)
C105 0.044(3) 0.040(3) 0.036(3) 0.003(2) 0.023(3) 0.000(2)
C106 0.079(5) 0.044(3) 0.069(5) -0.008(3) 0.055(4) -0.004(3)
C107 0.096(6) 0.036(3) 0.081(5) -0.009(3) 0.067(5) -0.011(4)
C108 0.060(4) 0.038(3) 0.053(4) 0.007(3) 0.036(3) -0.001(3)
O21 0.0359(10) 0.0439(11) 0.0363(10) 0.0052(9) 0.0168(9) -0.0021(8)
O22 0.0375(11) 0.0414(11) 0.0432(12) 0.0043(9) 0.0171(9) -0.0076(9)
O23 0.0468(12) 0.0464(12) 0.0370(11) 0.0071(9) 0.0166(10) -0.0078(10)
O24 0.0503(14) 0.0621(15) 0.0465(13) 0.0102(11) 0.0106(11) -0.0244(12)
C201 0.0362(14) 0.0353(13) 0.0369(14) 0.0038(11) 0.0189(12) -0.0001(11)
C202 0.0345(14) 0.0384(14) 0.0351(14) 0.0031(11) 0.0147(12) -0.0040(11)
C203 0.0480(17) 0.0496(17) 0.0310(14) -0.0005(12) 0.0157(13) -0.0139(14)
C204 0.0483(18) 0.0479(17) 0.0346(15) -0.0033(13) 0.0160(14) -0.0158(14)
C205 0.0366(15) 0.0402(14) 0.0357(14) 0.0020(12) 0.0155(12) -0.0084(12)
C206 0.0398(15) 0.0403(15) 0.0405(15) 0.0016(12) 0.0202(13) -0.0063(12)
C207 0.0544(18) 0.0461(16) 0.0395(15) -0.0028(13) 0.0239(14) -0.0119(14)
C208 0.0526(18) 0.0436(16) 0.0410(15) -0.0042(13) 0.0255(14) -0.0118(14)
C209 0.066(5) 0.048(4) 0.041(5) -0.006(3) 0.031(4) -0.017(4)
C210 0.077(5) 0.057(4) 0.045(4) -0.011(3) 0.031(4) -0.021(4)
C211 0.082(5) 0.064(4) 0.045(4) -0.010(3) 0.032(4) -0.015(4)
C212 0.072(5) 0.057(4) 0.045(5) -0.005(4) 0.033(4) -0.017(4)
C213 0.075(6) 0.054(4) 0.047(5) -0.006(4) 0.028(4) -0.025(4)
C214 0.083(5) 0.057(4) 0.046(4) -0.013(3) 0.029(4) -0.024(4)
C215 0.081(5) 0.064(4) 0.040(4) -0.010(3) 0.031(4) -0.023(4)
C216 0.070(5) 0.058(5) 0.039(4) -0.003(3) 0.028(4) -0.022(4)
C1 0.106(5) 0.113(5) 0.118(5) -0.002(5) 0.063(5) -0.001(5)
C2 0.101(5) 0.112(6) 0.118(6) -0.009(5) 0.067(5) 0.004(5)
C3 0.102(5) 0.108(5) 0.117(5) -0.006(4) 0.066(4) 0.009(4)
C4 0.094(5) 0.099(5) 0.110(5) 0.001(4) 0.072(4) 0.011(4)
C5 0.098(5) 0.104(6) 0.118(6) 0.002(5) 0.066(5) 0.008(5)
C6 0.098(6) 0.104(6) 0.113(6) -0.002(6) 0.070(5) -0.001(6)
C1' 0.100(5) 0.096(5) 0.104(5) 0.018(5) 0.076(5) 0.037(5)
C2' 0.096(5) 0.101(5) 0.115(5) 0.019(4) 0.071(4) 0.023(4)
C3' 0.100(4) 0.107(5) 0.117(5) -0.001(4) 0.063(4) 0.009(4)
C4' 0.094(6) 0.093(6) 0.116(6) -0.009(6) 0.065(5) 0.007(6)
C5' 0.090(6) 0.068(6) 0.099(7) -0.020(6) 0.069(5) 0.016(6)
C6' 0.097(5) 0.078(5) 0.095(5) 0.012(5) 0.071(4) 0.031(4)
loop_
_atom_type_symbol
_atom_type_description
_atom_type_scat_dispersion_real
_atom_type_scat_dispersion_imag
_atom_type_scat_source
C C 0.0046 0.0022 'International Tables Vol C Tables 4.2.6.8 and 6.1.1.4'
H H 0.0000 0.0000 'International Tables Vol C Tables 4.2.6.8 and 6.1.1.4'
Li Li 0.0000 0.0001 'International Tables Vol C Tables 4.2.6.8 and 6.1.1.4'
N N 0.0087 0.0044 'International Tables Vol C Tables 4.2.6.8 and 6.1.1.4'
O O 0.0147 0.0080 'International Tables Vol C Tables 4.2.6.8 and 6.1.1.4'
Zn Zn 0.2079 1.7386 'International Tables Vol C Tables 4.2.6.8 and 6.1.1.4'
loop_
_geom_angle_atom_site_label_1
_geom_angle_atom_site_label_2
_geom_angle_atom_site_label_3
_geom_angle
_geom_angle_site_symmetry_1
_geom_angle_site_symmetry_3
_geom_angle_publ_flag
Li1 Li1 Zn1 117.9(3) 2 . ?
O12 Li1 Li1 45.64(16) . 2 ?
O12 Li1 Li1 46.58(16) 2 2 ?
O12 Li1 Zn1 164.5(2) 2 . ?
O12 Li1 Zn1 73.20(16) . . ?
O12 Li1 O12 91.5(2) 2 . ?
O22 Li1 Li1 115.96(16) . 2 ?
O22 Li1 Zn1 70.88(16) . . ?
O22 Li1 O12 110.6(3) . . ?
O22 Li1 O12 113.3(3) . 2 ?
O24 Li1 Li1 135.9(2) 4_545 2 ?
O24 Li1 Zn1 66.08(16) 4_545 . ?
O24 Li1 O12 109.6(3) 4_545 . ?
O24 Li1 O12 123.7(3) 4_545 2 ?
O24 Li1 O22 106.8(3) 4_545 . ?
N1 Zn1 Li1 178.11(12) . . ?
O11 Zn1 Li1 79.18(11) . . ?
O11 Zn1 N1 99.16(10) . . ?
O21 Zn1 Li1 80.29(11) . . ?
O21 Zn1 N1 101.41(10) . . ?
O21 Zn1 O11 122.23(9) . . ?
O21 Zn1 O23 120.50(10) . 4_545 ?
O23 Zn1 Li1 82.44(11) 4_545 . ?
O23 Zn1 N1 97.32(10) 4_545 . ?
O23 Zn1 O11 109.37(10) 4_545 . ?
C11 N1 Zn1 124.7(2) . . ?
C15 N1 Zn1 116.8(2) . . ?
C15 N1 C11 118.5(3) . . ?
N1 C11 H11 118.7 . . ?
N1 C11 C12 122.5(3) . . ?
C12 C11 H11 118.7 . . ?
C11 C12 H12 120.5 . . ?
C13 C12 C11 119.1(3) . . ?
C13 C12 H12 120.5 . . ?
C12 C13 C13 122.1(2) . 2_656 ?
C12 C13 C14 118.0(3) . . ?
C14 C13 C13 119.9(2) . 2_656 ?
C13 C14 H14 120.2 . . ?
C15 C14 C13 119.6(3) . . ?
C15 C14 H14 120.2 . . ?
N1 C15 C14 122.3(3) . . ?
N1 C15 H15 118.8 . . ?
C14 C15 H15 118.8 . . ?
C101 O11 Zn1 125.50(18) . . ?
Li1 O12 Li1 87.8(2) 2 . ?
C101 O12 Li1 134.2(2) . . ?
C101 O12 Li1 138.0(2) . 2 ?
O11 C101 C102 115.9(2) . . ?
O12 C101 O11 124.8(3) . . ?
O12 C101 C102 119.4(2) . . ?
C103 C102 C101 120.1(3) . . ?
C103 C102 C104 121.1(3) . 5_556 ?
C104 C102 C101 118.7(3) 5_556 . ?
C102 C103 C104 119.7(3) . . ?
C102 C103 C108 123.3(4) . . ?
C104 C103 C108 116.4(4) . . ?
C102 C104 C103 119.2(3) 5_556 . ?
C102 C104 C105 123.4(3) 5_556 . ?
C103 C104 C105 116.8(4) . . ?
C104 C105 H105 118.7 . . ?
C106 C105 C104 122.6(5) . . ?
C106 C105 H105 118.7 . . ?
C105 C106 H106 120.3 . . ?
C105 C106 C107 119.3(6) . . ?
C107 C106 H106 120.3 . . ?
C106 C107 H107 119.4 . . ?
C108 C107 C106 121.1(7) . . ?
C108 C107 H107 119.4 . . ?
C103 C108 H108 118.2 . . ?
C107 C108 C103 123.5(6) . . ?
C107 C108 H108 118.2 . . ?
C201 O21 Zn1 122.83(19) . . ?
C201 O22 Li1 136.8(3) . . ?
C206 O23 Zn1 117.9(2) . 4 ?
C206 O24 Li1 147.2(3) . 4 ?
O21 C201 C202 114.6(3) . . ?
O22 C201 O21 124.7(3) . . ?
O22 C201 C202 120.7(3) . . ?
C203 C202 C201 118.2(3) . . ?
C203 C202 C208 120.3(3) . . ?
C208 C202 C201 121.4(3) . . ?
C202 C203 H203 119.6 . . ?
C202 C203 C204 120.9(3) . . ?
C204 C203 H203 119.6 . . ?
C203 C204 H204 119.4 . . ?
C205 C204 C203 121.2(3) . . ?
C205 C204 H204 119.4 . . ?
C204 C205 C206 116.5(3) . . ?
C204 C205 C207 119.6(3) . . ?
C207 C205 C206 123.9(3) . . ?
O23 C206 C205 118.4(3) . . ?
O24 C206 O23 123.5(3) . . ?
O24 C206 C205 118.1(3) . . ?
C205 C207 C208 118.8(3) . . ?
C205 C207 C216 122.3(8) . . ?
C208 C207 C216 118.5(8) . . ?
C212 C207 C205 121.8(9) . . ?
C212 C207 C208 118.4(9) . . ?
C202 C208 C207 119.0(3) . . ?
C202 C208 C213 124.1(9) . . ?
C207 C208 C213 116.7(9) . . ?
C209 C208 C202 119.3(8) . . ?
C209 C208 C207 120.7(8) . . ?
C208 C209 H209 119.9 . . ?
C210 C209 C208 120.2(13) . . ?
C210 C209 H209 119.9 . . ?
C209 C210 H210 120.6 . . ?
C209 C210 C211 118.8(11) . . ?
C211 C210 H210 120.6 . . ?
C210 C211 H211 119.5 . . ?
C212 C211 C210 121.0(11) . . ?
C212 C211 H211 119.5 . . ?
C207 C212 H212 119.6 . . ?
C211 C212 C207 120.8(15) . . ?
C211 C212 H212 119.6 . . ?
C208 C213 H213 119.1 . . ?
C214 C213 C208 121.8(15) . . ?
C214 C213 H213 119.1 . . ?
C213 C214 H214 119.2 . . ?
C213 C214 C215 121.6(11) . . ?
C215 C214 H214 119.2 . . ?
C214 C215 H215 120.0 . . ?
C216 C215 C214 120.1(11) . . ?
C216 C215 H215 120.0 . . ?
C207 C216 H216 119.4 . . ?
C215 C216 C207 121.1(14) . . ?
C215 C216 H216 119.4 . . ?
C2 C1 C6 119.7(4) . . ?
C2 C1 C8 120.1(6) . . ?
C6 C1 C8 120.1(6) . . ?
C1 C2 H2 120.0 . . ?
C3 C2 C1 120.0(5) . . ?
C3 C2 H2 120.0 . . ?
C2 C3 H3 119.8 . . ?
C2 C3 C4 120.4(5) . . ?
C4 C3 H3 119.8 . . ?
C3 C4 C7 119.8(6) . . ?
C5 C4 C3 119.4(4) . . ?
C5 C4 C7 120.8(6) . . ?
C4 C5 H5 119.7 . . ?
C6 C5 C4 120.6(5) . . ?
C6 C5 H5 119.7 . . ?
C1 C6 H6 120.0 . . ?
C5 C6 C1 120.0(5) . . ?
C5 C6 H6 120.0 . . ?
C4 C7 H7A 109.5 . . ?
C4 C7 H7B 109.5 . . ?
C4 C7 H7C 109.5 . . ?
H7A C7 H7B 109.5 . . ?
H7A C7 H7C 109.5 . . ?
H7B C7 H7C 109.5 . . ?
C1 C8 H8A 109.5 . . ?
C1 C8 H8B 109.5 . . ?
C1 C8 H8C 109.5 . . ?
H8A C8 H8B 109.5 . . ?
H8A C8 H8C 109.5 . . ?
H8B C8 H8C 109.5 . . ?
C2' C1' H1' 120.0 . . ?
C2' C1' C6' 119.9(4) . . ?
C6' C1' H1' 120.0 . . ?
C1' C2' H2' 119.8 . . ?
C1' C2' C3' 120.4(5) . . ?
C3' C2' H2' 119.8 . . ?
C2' C3' C4' 119.4(4) . . ?
C2' C3' C7' 120.5(6) . . ?
C4' C3' C7' 120.0(6) . . ?
C3' C4' H4' 119.8 . . ?
C5' C4' C3' 120.4(4) . . ?
C5' C4' H4' 119.8 . . ?
C4' C5' H5' 120.1 . . ?
C4' C5' C6' 119.8(5) . . ?
C6' C5' H5' 120.1 . . ?
C1' C6' C5' 119.9(4) . . ?
C1' C6' C8' 121.0(6) . . ?
C5' C6' C8' 119.1(7) . . ?
C3' C7' H7'A 109.5 . . ?
C3' C7' H7'B 109.5 . . ?
C3' C7' H7'C 109.5 . . ?
H7'A C7' H7'B 109.5 . . ?
H7'A C7' H7'C 109.5 . . ?
H7'B C7' H7'C 109.5 . . ?
C6' C8' H8'A 109.5 . . ?
C6' C8' H8'B 109.5 . . ?
C6' C8' H8'C 109.5 . . ?
H8'A C8' H8'B 109.5 . . ?
H8'A C8' H8'C 109.5 . . ?
H8'B C8' H8'C 109.5 . . ?
loop_
_geom_bond_atom_site_label_1
_geom_bond_atom_site_label_2
_geom_bond_distance
_geom_bond_site_symmetry_2
_geom_bond_publ_flag
Li1 Li1 2.710(10) 2 ?
Li1 Zn1 3.167(5) . ?
Li1 O12 1.939(5) 2 ?
Li1 O12 1.970(5) . ?
Li1 O22 1.889(5) . ?
Li1 O24 1.842(5) 4_545 ?
Zn1 N1 2.049(3) . ?
Zn1 O11 1.960(2) . ?
Zn1 O21 1.924(2) . ?
Zn1 O23 1.949(2) 4_545 ?
N1 C11 1.337(4) . ?
N1 C15 1.336(4) . ?
C11 H11 0.9500 . ?
C11 C12 1.392(4) . ?
C12 H12 0.9500 . ?
C12 C13 1.381(4) . ?
C13 C13 1.483(6) 2_656 ?
C13 C14 1.394(5) . ?
C14 H14 0.9500 . ?
C14 C15 1.378(5) . ?
C15 H15 0.9500 . ?
O11 C101 1.269(3) . ?
O12 C101 1.249(3) . ?
C101 C102 1.503(4) . ?
C102 C103 1.404(5) . ?
C102 C104 1.407(5) 5_556 ?
C103 C104 1.425(4) . ?
C103 C108 1.511(8) . ?
C104 C105 1.532(7) . ?
C105 H105 0.9500 . ?
C105 C106 1.385(9) . ?
C106 H106 0.9500 . ?
C106 C107 1.402(10) . ?
C107 H107 0.9500 . ?
C107 C108 1.362(10) . ?
C108 H108 0.9500 . ?
O21 C201 1.288(4) . ?
O22 C201 1.240(4) . ?
O23 C206 1.267(4) . ?
O24 C206 1.236(4) . ?
C201 C202 1.500(4) . ?
C202 C203 1.359(4) . ?
C202 C208 1.427(4) . ?
C203 H203 0.9500 . ?
C203 C204 1.400(4) . ?
C204 H204 0.9500 . ?
C204 C205 1.377(4) . ?
C205 C206 1.499(4) . ?
C205 C207 1.428(4) . ?
C207 C208 1.430(5) . ?
C207 C212 1.39(2) . ?
C207 C216 1.44(2) . ?
C208 C209 1.394(18) . ?
C208 C213 1.468(19) . ?
C209 H209 0.9500 . ?
C209 C210 1.392(18) . ?
C210 H210 0.9500 . ?
C210 C211 1.423(16) . ?
C211 H211 0.9500 . ?
C211 C212 1.379(19) . ?
C212 H212 0.9500 . ?
C213 H213 0.9500 . ?
C213 C214 1.33(2) . ?
C214 H214 0.9500 . ?
C214 C215 1.392(16) . ?
C215 H215 0.9500 . ?
C215 C216 1.370(18) . ?
C216 H216 0.9500 . ?
C1 C2 1.396(9) . ?
C1 C6 1.399(9) . ?
C1 C8 1.488(8) . ?
C2 H2 0.9500 . ?
C2 C3 1.379(8) . ?
C3 H3 0.9500 . ?
C3 C4 1.396(8) . ?
C4 C5 1.393(8) . ?
C4 C7 1.491(8) . ?
C5 H5 0.9500 . ?
C5 C6 1.375(8) . ?
C6 H6 0.9500 . ?
C7 H7A 0.9800 . ?
C7 H7B 0.9800 . ?
C7 H7C 0.9800 . ?
C8 H8A 0.9800 . ?
C8 H8B 0.9800 . ?
C8 H8C 0.9800 . ?
C1' H1' 0.9500 . ?
C1' C2' 1.382(9) . ?
C1' C6' 1.388(8) . ?
C2' H2' 0.9500 . ?
C2' C3' 1.390(8) . ?
C3' C4' 1.392(8) . ?
C3' C7' 1.497(8) . ?
C4' H4' 0.9500 . ?
C4' C5' 1.379(8) . ?
C5' H5' 0.9500 . ?
C5' C6' 1.396(8) . ?
C6' C8' 1.489(8) . ?
C7' H7'A 0.9800 . ?
C7' H7'B 0.9800 . ?
C7' H7'C 0.9800 . ?
C8' H8'A 0.9800 . ?
C8' H8'B 0.9800 . ?
C8' H8'C 0.9800 . ?
