#------------------------------------------------------------------------------
#$Date: 2021-02-03 21:55:52 +0200 (Wed, 03 Feb 2021) $
#$Revision: 261398 $
#$URL: file:///home/coder/svn-repositories/cod/cif/4/51/84/4518451.cif $
#------------------------------------------------------------------------------
#
# This file is available in the Crystallography Open Database (COD),
# http://www.crystallography.net/
#
# All data on this site have been placed in the public domain by the
# contributors.
#
data_4518451
loop_
_publ_author_name
'Lu, Huangjie'
'Zheng, Zhaofa'
'Li, Zi-Jian'
'Bao, Hongliang'
'Guo, Xiaojing'
'Guo, Xiaofeng'
'Lin, Jian'
'Qian, Yuan'
'Wang, Jian-Qiang'
_publ_section_title
;
 Achieving UV and X-ray Dual Photochromism in a Metal-Organic Hybrid via
 Structural Modulation.
;
_journal_issue                   2
_journal_name_full               'ACS applied materials &amp; interfaces'
_journal_page_first              2745
_journal_page_last               2752
_journal_paper_doi               10.1021/acsami.0c20036
_journal_volume                  13
_journal_year                    2021
_chemical_formula_moiety         'C18 N3 O6 Tm'
_chemical_formula_sum            'C18 N3 O6 Tm'
_chemical_formula_weight         523.14
_chemical_melting_point          ?
_chemical_name_common
'Thulium 2,2':6',2''-terpyridine-4'-carboxyli'
_space_group_crystal_system      monoclinic
_space_group_IT_number           15
_space_group_name_Hall           '-C 2yc'
_space_group_name_H-M_alt        'C 1 2/c 1'
_audit_creation_method           SHELXL-2014
_cell_angle_alpha                90
_cell_angle_beta                 125.156(2)
_cell_angle_gamma                90
_cell_formula_units_Z            4
_cell_length_a                   17.9251(13)
_cell_length_b                   9.4357(6)
_cell_length_c                   11.8884(9)
_cell_measurement_reflns_used    9516
_cell_measurement_temperature    293(2)
_cell_measurement_theta_max      55.008
_cell_measurement_theta_min      5.134
_cell_volume                     1644.0(2)
_computing_cell_refinement       'Bruker SAINT'
_computing_data_collection       'Bruker APEX2'
_computing_data_reduction        'Bruker SAINT'
_computing_molecular_graphics    'Bruker SHELXTL'
_computing_publication_material  'Bruker SHELXTL'
_computing_structure_refinement  'SHELXL-2014 (Sheldrick, 2014)'
_computing_structure_solution    'SHELXS-97 (Sheldrick 2008)'
_diffrn_ambient_temperature      293(2)
_diffrn_measured_fraction_theta_full 0.994
_diffrn_measured_fraction_theta_max 0.995
_diffrn_measurement_device_type  'Bruker APEX-II CCD'
_diffrn_measurement_method       '0.5 wide w/ exposures'
_diffrn_radiation_type           MoK\a
_diffrn_radiation_wavelength     0.71073
_diffrn_reflns_av_R_equivalents  0.0364
_diffrn_reflns_av_unetI/netI     0.0236
_diffrn_reflns_Laue_measured_fraction_full 0.994
_diffrn_reflns_Laue_measured_fraction_max 0.995
_diffrn_reflns_limit_h_max       19
_diffrn_reflns_limit_h_min       -23
_diffrn_reflns_limit_k_max       12
_diffrn_reflns_limit_k_min       -12
_diffrn_reflns_limit_l_max       15
_diffrn_reflns_limit_l_min       -15
_diffrn_reflns_number            11532
_diffrn_reflns_point_group_measured_fraction_full 0.994
_diffrn_reflns_point_group_measured_fraction_max 0.995
_diffrn_reflns_theta_full        25.242
_diffrn_reflns_theta_max         27.504
_diffrn_reflns_theta_min         2.567
_exptl_absorpt_coefficient_mu    5.441
_exptl_absorpt_correction_T_max  0.580
_exptl_absorpt_correction_T_min  0.432
_exptl_absorpt_correction_type   multi-scan
_exptl_absorpt_process_details   SHELTXPREP
_exptl_crystal_colour            colorless
_exptl_crystal_density_diffrn    2.114
_exptl_crystal_description       block
_exptl_crystal_F_000             984
_exptl_crystal_size_max          0.16
_exptl_crystal_size_mid          0.13
_exptl_crystal_size_min          0.10
_refine_diff_density_max         0.901
_refine_diff_density_min         -1.017
_refine_diff_density_rms         0.122
_refine_ls_extinction_method     none
_refine_ls_goodness_of_fit_ref   1.080
_refine_ls_hydrogen_treatment    undef
_refine_ls_matrix_type           full
_refine_ls_number_parameters     129
_refine_ls_number_reflns         1882
_refine_ls_number_restraints     0
_refine_ls_restrained_S_all      1.080
_refine_ls_R_factor_all          0.0213
_refine_ls_R_factor_gt           0.0209
_refine_ls_shift/su_max          0.000
_refine_ls_shift/su_mean         0.000
_refine_ls_structure_factor_coef Fsqd
_refine_ls_weighting_details
'w=1/[\s^2^(Fo^2^)+(0.0368P)^2^+4.1050P] where P=(Fo^2^+2Fc^2^)/3'
_refine_ls_weighting_scheme      calc
_refine_ls_wR_factor_gt          0.0588
_refine_ls_wR_factor_ref         0.0591
_reflns_Friedel_coverage         0.000
_reflns_number_gt                1843
_reflns_number_total             1882
_reflns_threshold_expression     'I > 2\s(I)'
_cod_data_source_file            am0c20036_si_002.cif
_cod_data_source_block           TmTPC-2afterUV
_cod_depositor_comments
;
The following automatic conversions were performed:

data item '_chemical_melting_point' value 'N/a' was changed to '?' --
the value is undefined or not given.

Automatic conversion script
Id: cif_fix_values 7556 2019-12-06 15:28:31Z antanas 
;
_cod_original_sg_symbol_H-M      'C 2/c'
_cod_database_code               4518451
_shelx_space_group_comment
;
The symmetry employed for this shelxl refinement is uniquely defined
by the following loop, which should always be used as a source of
symmetry information in preference to the above space-group names.
They are only intended as comments.
;
_shelxl_version_number           2014-3
_shelx_res_file
;
TITL SAVE_a.res in C2/c
REM Old TITL SAVE in C2/c

REM SHELXT solution in C2/c
REM R1 0.096,  Rweak 0.008,  Alpha 0.027,  Orientation as input
REM Formula found by SHELXT:  C20 N2 O5 Tm

CELL  0.71073  17.9251   9.4357  11.8884   90.000  125.156   90.000
ZERR   4.000   0.0013   0.0006   0.0009    0.000    0.002    0.000
LATT  7
SYMM -X, Y, 1/2-Z
SFAC C N O TM
UNIT 72 12 24 4
L.S. 10
BOND $H
LIST 6
ACTA
FMAP 2
PLAN 20
WGHT    0.036800    4.105000
FVAR       0.29679
TM1   4    0.500000   -0.160009    0.750000    10.50000    0.02648    0.00710 =
         0.02846    0.00000    0.01963    0.00000
N1    2    0.500000    0.576726    0.750000    10.50000    0.02301    0.00800 =
         0.02369    0.00000    0.01490    0.00000
N2    2    0.589802    0.734490    0.677585    11.00000    0.02736    0.01236 =
         0.03440   -0.00050    0.02244   -0.00079
O1    3    0.483724    0.061050    0.826566    11.00000    0.05835    0.01018 =
         0.04864   -0.00190    0.04241   -0.00114
O2    3    0.397096   -0.227401    0.514185    11.00000    0.04295    0.03803 =
         0.04279   -0.00821    0.01732    0.00436
O3    3    0.338311   -0.079217    0.582805    11.00000    0.04621    0.04962 =
         0.05378    0.00030    0.03005    0.01222
C1    1    0.545301    0.505343    0.709245    11.00000    0.02141    0.01112 =
         0.02200    0.00019    0.01220    0.00002
C2    1    0.500000    0.125372    0.750000    10.50000    0.03258    0.01403 =
         0.03246    0.00000    0.01924    0.00000
C3    1    0.500000    0.284832    0.750000    10.50000    0.02829    0.00857 =
         0.02666    0.00000    0.01599    0.00000
C4    1    0.595942    0.592864    0.669311    11.00000    0.02132    0.01360 =
         0.02246    0.00051    0.01277   -0.00045
C5    1    0.544610    0.357323    0.703564    11.00000    0.02789    0.01227 =
         0.02931   -0.00093    0.01920    0.00024
C6    1    0.335222   -0.156397    0.495127    11.00000    0.03713    0.02471 =
         0.03086    0.00185    0.01806    0.00208
C7    1    0.634153    0.819674    0.642680    11.00000    0.03890    0.01428 =
         0.04970    0.00289    0.03295   -0.00320
C8    1    0.647635    0.533504    0.628701    11.00000    0.03378    0.02059 =
         0.03595   -0.00029    0.02531    0.00318
C9    1    0.695173    0.621091    0.596340    11.00000    0.03695    0.03131 =
         0.04276    0.00272    0.03145    0.00495
C10   1    0.687188    0.767539    0.602033    11.00000    0.04083    0.02661 =
         0.04862    0.00334    0.03505   -0.00184

HKLF 4

REM  SAVE_a.res in C2/c
REM R1 =  0.0209 for    1843 Fo > 4sig(Fo)  and  0.0213 for all    1882 data
REM    129 parameters refined using      0 restraints

END

WGHT      0.0298      4.1620

REM Highest difference peak  0.901,  deepest hole -1.017,  1-sigma level  0.122
Q1    1   0.5725  0.3081  0.6677  11.00000  0.05    0.90
Q2    1   0.6480  0.4370  0.6197  11.00000  0.05    0.79
Q3    1   0.2704 -0.1555  0.3966  11.00000  0.05    0.78
Q4    1   0.6192  0.9104  0.6342  11.00000  0.05    0.77
Q5    1   0.7183  0.8313  0.5834  11.00000  0.05    0.76
Q6    1   0.7322  0.5776  0.5634  11.00000  0.05    0.74
Q7    1   0.4984 -0.1611  0.8324  11.00000  0.05    0.57
Q8    1   0.5532 -0.2031  0.7987  11.00000  0.05    0.56
Q9    1   0.5713 -0.1648  0.8542  11.00000  0.05    0.55
Q10   1   0.3844 -0.1613  0.5461  11.00000  0.05    0.46
Q11   1   0.5000  0.2165  0.7500  10.50000  0.05    0.44
Q12   1   0.5035 -0.0377  0.8122  11.00000  0.05    0.44
Q13   1   0.5319  0.4351  0.6818  11.00000  0.05    0.37
Q14   1   0.4316  0.0591  0.7465  11.00000  0.05    0.35
Q15   1   0.5586 -0.0605  0.8558  11.00000  0.05    0.32
Q16   1   0.5697  0.6490  0.6340  11.00000  0.05    0.31
Q17   1   0.7042  0.7063  0.6127  11.00000  0.05    0.30
Q18   1   0.5178  0.3263  0.7167  11.00000  0.05    0.30
Q19   1   0.4921 -0.2820  0.8006  11.00000  0.05    0.30
Q20   1   0.3786 -0.1654  0.6301  11.00000  0.05    0.28
;
_shelx_res_checksum              55180
_shelx_hkl_file
;
  -4   0   0 2477.95  105.69
  -4   0   0 2248.38  106.29
   4   0   0 2358.96  105.59
   4   0   0 2196.88  107.39
   4   0   0 2574.24  106.59
   6   0   0 7338.07  317.67
  -6   0   0 7697.63  319.07
   6   0   0 7282.07  320.77
  -6   0   0 6377.66  319.87
  -8   0   0 2747.03  143.69
  -8   0   0 3193.98  141.59
   8   0   0 3073.19  141.09
   8   0   0 3293.07  142.89
   8   0   0 3330.87  145.49
  -8   0   0 3269.57  142.89
  10   0   0 3005.10  129.59
 -10   0   0 2842.32  131.19
 -10   0   0 2563.04  132.29
  10   0   0 2829.52  131.19
 -10   0   0 2885.11  129.99
  10   0   0 3085.89  134.79
  12   0   0 2275.57  103.59
  12   0   0 2326.07   97.29
 -12   0   0 2031.30   97.89
 -12   0   0 2044.20  100.79
 -12   0   0 2041.10   99.09
  12   0   0 1991.80   98.89
 -14   0   0  740.93   41.50
  14   0   0  854.51   39.40
 -14   0   0  737.53   40.40
 -14   0   0  828.92   43.90
 -16   0   0  459.35   26.50
  16   0   0  426.86   24.10
 -16   0   0  443.26   27.80
 -16   0   0  420.36   28.50
 -18   0   0  442.96   31.20
 -18   0   0  443.36   30.00
 -18   0   0  389.66   26.80
  -1  -1   0  953.00   40.10
   1  -1   0  986.60   41.20
   1  -1   0  769.42   40.80
  -1  -1   0  859.91   40.00
   1  -1   0  760.22   40.30
   1   1   0  952.30   40.10
   1   1   0  952.40   40.00
  -1   1   0  961.10   41.10
   3  -1   0 1066.99   45.50
  -3  -1   0  835.12   45.10
   3  -1   0  986.20   46.50
  -3  -1   0 1075.89   45.60
   3  -1   0  915.41   44.80
  -3  -1   0 1057.69   44.40
   3   1   0  999.30   45.30
  -3   1   0 1089.79   45.50
   3   1   0  960.30   44.20
  -3   1   0  910.61   44.80
  -5  -1   0 2177.18   93.19
  -5  -1   0 2296.37   94.79
   5  -1   0 1988.10   93.49
   5  -1   0 2086.89   96.19
  -5  -1   0 1829.02   94.39
   5  -1   0 2175.88   94.49
   5   1   0 2091.69   94.99
   5   1   0 1992.90   92.69
  -5   1   0 2159.28   94.29
  -5   1   0 2025.50   93.59
   7  -1   0 2206.68  101.89
  -7  -1   0 2295.27  103.79
   7  -1   0 2393.76  105.79
   7  -1   0 2400.16  103.19
  -7  -1   0 2298.67  101.59
  -7  -1   0 2353.06  103.49
   7   1   0 2113.19  100.99
  -7   1   0 2179.38  102.09
   7   1   0 2283.67  104.29
  -7   1   0 2404.86  103.09
  -7   1   0 1918.81  104.09
   9  -1   0  873.61   43.00
   9  -1   0  812.02   38.30
  -9  -1   0  802.32   38.00
   9  -1   0  794.22   39.50
  -9  -1   0  806.62   39.80
  -9  -1   0  716.23   39.80
  -9   1   0  778.02   38.50
   9   1   0  783.92   37.30
  -9   1   0  661.63   40.40
  -9   1   0  847.42   39.50
   9   1   0  879.51   41.70
  11  -1   0  746.33   40.50
 -11  -1   0  683.83   36.70
  11  -1   0  767.12   35.50
 -11  -1   0  689.33   37.30
 -11  -1   0  657.93   35.00
  11  -1   0  693.53   36.60
 -11   1   0  708.83   35.90
 -11   1   0  694.53   38.50
 -11   1   0  700.53   36.60
  11   1   0  748.63   34.40
  11   1   0  733.33   39.20
 -13  -1   0  542.65   31.00
  13  -1   0  595.64   29.00
 -13  -1   0  537.75   31.30
  13  -1   0  531.85   30.50
 -13  -1   0  541.95   29.10
  13   1   0  573.94   33.60
 -13   1   0  559.34   32.50
 -13   1   0  544.45   29.60
 -13   1   0  531.15   30.30
  13   1   0  536.15   27.40
  15  -1   0  209.58   14.40
 -15  -1   0  156.38   15.80
 -15  -1   0  196.68   16.20
  15  -1   0  185.98   15.30
 -15  -1   0  213.08   14.70
 -15   1   0  200.58   15.90
 -15   1   0  207.08   15.10
 -15   1   0  194.18   16.90
  15   1   0  201.98   12.60
  17  -1   0  173.88   15.20
 -17  -1   0  173.68   18.40
 -17  -1   0  190.18   15.30
 -17  -1   0  192.58   16.90
 -17   1   0  190.48   15.90
 -17   1   0  189.28   18.20
  17   1   0  166.78   12.20
 -17   1   0  193.98   18.50
   0  -2   0 1552.14   68.19
   0  -2   0 1707.53   68.59
   0   2   0 1657.03   68.49
   0   2   0 1366.06   67.79
   0   2   0 1338.17   68.09
  -2  -2   0  360.76   16.00
   2  -2   0  321.87   16.50
   2  -2   0  367.16   18.00
   2  -2   0  340.77   17.50
  -2   2   0  296.47   16.30
   2   2   0  342.17   15.80
  -2   2   0  369.66   17.60
   2   2   0  323.37   15.70
  -4  -2   0   57.99    4.10
   4  -2   0   76.09    6.30
  -4  -2   0   62.39    3.90
   4  -2   0   56.79    4.40
   4  -2   0   62.19    5.20
   4   2   0   67.09    4.30
  -4   2   0   54.19    5.30
  -4   2   0   52.59    4.30
   4   2   0   62.99    3.40
  -4   2   0   59.69    5.00
   6  -2   0   41.50    5.40
  -6  -2   0   45.00    4.90
   6  -2   0   36.00    4.30
   6  -2   0   33.00    3.70
  -6  -2   0   40.70    3.30
  -6  -2   0   35.10    3.70
   6   2   0   33.20    2.60
   6   2   0   43.70    4.30
  -6   2   0   32.30    4.60
  -6   2   0   43.00    4.40
  -6   2   0   33.40    3.60
   8  -2   0  390.96   19.60
   8  -2   0  446.36   23.90
  -8  -2   0  325.27   18.50
   8  -2   0  395.16   20.80
  -8  -2   0  365.96   20.00
  -8  -2   0  380.86   21.00
   8   2   0  377.76   20.80
   8   2   0  362.46   17.80
  -8   2   0  385.86   20.40
  -8   2   0  334.37   19.40
  -8   2   0  317.87   21.40
 -10  -2   0 1182.18   55.49
  10  -2   0 1151.08   57.29
 -10  -2   0 1180.38   57.09
  10  -2   0 1322.27   61.69
 -10  -2   0 1146.79   57.79
  10  -2   0 1273.27   56.29
 -10   2   0 1048.90   58.69
 -10   2   0 1229.48   57.29
 -10   2   0 1118.99   56.29
  10   2   0 1179.78   58.19
  10   2   0 1174.68   54.09
  12  -2   0  311.17   20.30
 -12  -2   0  341.87   21.40
 -12  -2   0  337.07   18.80
 -12  -2   0  339.47   20.40
  12  -2   0  356.26   19.30
 -12   2   0  307.17   19.50
  12   2   0  339.67   16.90
 -12   2   0  321.37   20.20
 -12   2   0  320.57   22.00
  12   2   0  317.47   21.60
  14  -2   0   90.69    9.70
  14  -2   0   94.89   10.40
 -14  -2   0  101.19   10.10
 -14  -2   0   86.89    8.60
 -14  -2   0   88.89   12.00
 -14   2   0   68.79    8.70
 -14   2   0   87.79   11.20
 -14   2   0  104.89   11.10
  14   2   0   85.99    6.60
  14   2   0   94.79   13.10
  16  -2   0  115.59   12.90
 -16  -2   0  113.19   15.40
 -16  -2   0  133.49   12.10
  16  -2   0  183.58   20.50
 -16  -2   0  150.18   13.50
 -16   2   0  150.98   15.60
 -16   2   0  138.19   13.20
  16   2   0  124.89    7.90
 -16   2   0  129.59   14.30
 -18  -2   0   42.20    8.30
 -18  -2   0   46.40    9.60
 -18   2   0   37.50    9.00
 -18   2   0   32.50    9.80
   3  -3   0 1818.72   78.19
   3  -3   0 1656.43   76.29
   3  -3   0 1732.13   78.59
  -3  -3   0 1754.72   75.69
   3   3   0 1598.14   74.89
   3   3   0 1750.82   75.19
  -3   3   0 1444.96   76.99
  -3   3   0 1805.72   77.99
  -3   3   0 1564.24   76.19
  -5  -3   0 3233.88  142.49
   5  -3   0 3561.14  146.59
   5  -3   0 3261.57  145.49
  -5  -3   0 3208.38  141.99
   5  -3   0 3152.48  143.49
   5   3   0 3062.79  141.39
  -5   3   0 3159.48  144.49
   5   3   0 3150.98  141.39
  -5   3   0 2887.71  143.29
   5   3   0 3248.38  142.19
  -7  -3   0 4217.88  187.48
  -7  -3   0 4379.76  187.48
  -7  -3   0 4225.38  190.28
   7  -3   0 4367.16  188.58
   7  -3   0 4765.92  192.68
   7  -3   0 4461.85  190.58
  -7   3   0 4272.27  189.38
   7   3   0 4069.09  187.78
   7   3   0 3840.52  185.68
  -7   3   0 3762.52  190.48
  -7   3   0 3854.51  188.38
  -9  -3   0 1810.92   77.89
  -9  -3   0 1758.12   78.29
   9  -3   0 1755.32   78.59
  -9  -3   0 1748.93   80.89
   9  -3   0 1652.23   80.39
  -9   3   0 1559.74   78.69
   9   3   0 1636.74   75.59
  -9   3   0 1589.64   81.29
  -9   3   0 1746.83   79.79
   9   3   0 1644.04   78.79
 -11  -3   0 1144.09   56.39
 -11  -3   0 1113.89   53.69
 -11  -3   0 1116.39   52.99
  11  -3   0 1262.67   59.89
  11  -3   0 1129.79   55.69
  11  -3   0 1189.68   53.79
 -11   3   0 1019.70   56.49
 -11   3   0 1073.49   54.29
  11   3   0 1093.59   49.99
  11   3   0 1022.90   54.29
 -11   3   0 1066.29   54.49
 -13  -3   0 1132.69   55.79
  13  -3   0 1139.19   58.29
 -13  -3   0 1186.88   59.59
 -13  -3   0 1148.69   56.69
  13  -3   0 1246.18   56.69
 -13   3   0 1128.79   57.39
 -13   3   0 1158.78   60.39
  13   3   0 1105.79   58.09
 -13   3   0 1133.29   57.49
 -15  -3   0  700.43   34.80
 -15  -3   0  615.74   37.80
  15  -3   0  624.84   36.20
 -15  -3   0  682.23   35.60
  15   3   0  560.74   36.50
 -15   3   0  648.24   38.70
 -15   3   0  644.14   35.90
 -15   3   0  623.84   35.60
 -17  -3   0  456.65   27.80
  17  -3   0  445.76   29.40
 -17  -3   0  496.25   29.20
 -17   3   0  447.96   29.50
 -17   3   0  420.86   29.60
 -17   3   0  523.95   33.20
   0  -4   0 1569.44   68.29
   0  -4   0 1352.36   67.29
   0  -4   0 1481.75   67.79
   0   4   0 1422.36   67.49
   0   4   0 1395.16   66.99
   0   4   0 1705.03   68.49
  -2  -4   0 1049.40   49.10
   2  -4   0 1180.28   50.79
  -2  -4   0 1084.89   49.30
   2  -4   0 1124.19   52.99
   2  -4   0 1108.99   49.80
   2   4   0  972.60   48.50
  -2   4   0 1084.29   50.29
  -2   4   0  952.50   49.60
  -2   4   0 1036.60   49.40
   2   4   0 1072.99   48.80
  -4  -4   0 2431.66  108.69
   4  -4   0 2371.46  112.49
   4  -4   0 2432.76  109.49
   4  -4   0 2802.82  112.09
   4   4   0 2236.48  107.59
   4   4   0 2218.88  107.49
  -4   4   0 2621.44  111.59
  -4   4   0 2240.28  110.49
  -6  -4   0 2212.08   99.59
   6  -4   0 2231.68  103.59
  -6  -4   0 2211.38   98.29
   6  -4   0 2291.77  100.79
   6   4   0 2202.18   98.49
   6   4   0 2119.99   97.69
  -6   4   0 2349.17  102.49
   6   4   0 2062.49   97.59
  -6   4   0 2247.18  100.99
  -6   4   0 2117.89  102.49
  -8  -4   0  900.31   40.60
   8  -4   0  856.81   41.40
   8  -4   0  902.71   45.40
  -8  -4   0  827.12   43.70
  -8  -4   0  851.41   39.60
   8  -4   0  844.42   44.00
   8   4   0  781.42   39.90
  -8   4   0  862.51   42.70
  -8   4   0  819.22   43.70
  -8   4   0  824.22   41.80
  10  -4   0  670.73   36.80
 -10  -4   0  625.94   34.70
 -10  -4   0  634.94   31.20
  10  -4   0  606.64   31.90
 -10  -4   0  607.64   30.50
  10  -4   0  659.73   34.90
  10   4   0  565.94   31.10
 -10   4   0  608.84   32.90
 -10   4   0  600.74   32.40
  12  -4   0  557.84   28.90
 -12  -4   0  552.84   28.00
  12  -4   0  510.25   30.60
 -12  -4   0  519.45   31.70
 -12  -4   0  542.25   27.60
  12   4   0  454.85   27.90
 -12   4   0  527.15   29.50
 -12   4   0  509.25   29.30
 -12   4   0  528.65   31.70
 -14  -4   0  373.76   29.20
 -14  -4   0  344.87   21.20
 -14  -4   0  354.96   21.10
  14  -4   0  360.86   24.10
  14   4   0  323.67   22.40
 -14   4   0  361.66   25.10
 -14   4   0  353.36   23.00
 -14   4   0  361.86   22.90
 -16  -4   0  252.77   17.90
  16  -4   0  235.38   20.30
 -16  -4   0  259.87   18.10
 -16   4   0  253.87   19.90
 -16   4   0  256.57   21.70
 -16   4   0  265.07   19.60
 -18  -4   0  147.89   15.30
 -18  -4   0  170.38   16.00
 -18   4   0  130.29   25.80
  -1  -5   0  278.57   15.00
  -1  -5   0  276.47   15.20
   1  -5   0  286.17   15.30
  -1  -5   0  279.07   13.70
   1  -5   0  317.67   15.60
   1  -5   0  262.87   17.70
  -1   5   0  302.87   16.00
   1   5   0  268.07   14.40
   1   5   0  275.17   14.90
  -1   5   0  240.18   14.50
  -1   5   0  266.37   14.80
   1   5   0  269.97   13.60
   3  -5   0   28.40    4.60
   3  -5   0   32.10    6.30
   3  -5   0   24.50    3.80
  -3  -5   0   26.20    3.30
   3   5   0   24.70    3.00
   3   5   0   25.00    2.60
  -3   5   0   23.80    4.40
  -3   5   0   28.90    3.90
  -3   5   0   25.80    3.80
  -5  -5   0   90.19    6.60
   5  -5   0   91.69    7.50
   5  -5   0   86.19    9.50
   5  -5   0  115.89    9.40
   5   5   0   90.09    5.20
   5   5   0   87.79    5.20
  -5   5   0   90.59    7.30
  -5   5   0   92.39    8.20
  -7  -5   0   91.29    6.80
  -7  -5   0   83.39    5.00
   7  -5   0   90.99    9.80
   7  -5   0  102.79    8.10
   7  -5   0   98.59   10.10
  -7   5   0   82.79    8.60
  -7   5   0   84.29    7.50
  -7   5   0   78.49    8.60
   9  -5   0  429.86   26.80
  -9  -5   0  406.56   21.00
  -9  -5   0  424.16   22.60
  -9  -5   0  412.96   26.50
   9  -5   0  473.45   27.80
   9  -5   0  466.35   24.10
  -9   5   0  467.95   26.50
  -9   5   0  451.25   24.50
  -9   5   0  410.06   24.80
   9   5   0  387.56   21.30
 -11  -5   0  238.78   14.90
  11  -5   0  224.18   18.20
 -11  -5   0  235.78   19.00
 -11  -5   0  249.18   13.70
  11   5   0  207.08   13.90
 -11   5   0  272.87   17.10
 -11   5   0  249.97   18.40
 -11   5   0  228.48   16.80
 -13  -5   0   26.30    4.80
  13  -5   0   17.60    6.70
 -13  -5   0   24.00    5.10
 -13   5   0   14.80    5.20
  13   5   0   23.90    5.60
 -13   5   0    8.80    6.20
 -13   5   0   19.20    6.60
 -15  -5   0   60.29    8.20
  15  -5   0   74.59   12.40
 -15  -5   0   80.49    9.60
 -15   5   0   48.50    9.90
 -15   5   0   65.19   10.00
  15   5   0   66.19    9.90
 -15   5   0   68.49   11.20
 -17  -5   0   35.40    7.70
  17  -5   0   28.00   10.10
 -17  -5   0   26.80    7.80
 -17   5   0   12.30    8.00
 -17   5   0   22.10    8.10
   0  -6   0 1458.45   67.89
   0  -6   0 1466.45   72.09
   0  -6   0 1479.25   68.39
   0  -6   0 1541.05   66.99
   0   6   0 1455.65   68.19
   0   6   0 1374.96   66.59
   0   6   0 1415.06   66.99
  -2  -6   0 2424.16  111.49
   2  -6   0 2501.35  111.89
  -2  -6   0 2318.67  111.49
   2  -6   0 2668.03  112.49
   2  -6   0 2525.95  116.89
  -2   6   0 2359.56  112.49
   2   6   0 2396.36  110.19
  -2   6   0 2466.35  111.39
   2   6   0 2477.05  110.99
  -2   6   0 2348.36  111.49
   4  -6   0 3110.09  131.99
   4  -6   0 2962.00  130.39
  -4  -6   0 2837.22  129.49
   4  -6   0 2768.12  134.59
  -4   6   0 2974.40  130.29
  -4   6   0 2620.54  130.79
   4   6   0 2758.32  127.89
   4   6   0 2838.12  127.59
  -4   6   0 2856.71  130.99
   6  -6   0 2258.37  112.39
   6  -6   0 2500.05  110.69
  -6  -6   0 2366.56  106.99
   6  -6   0 2365.96  108.09
  -6   6   0 2453.65  108.49
  -6   6   0 2179.68  108.49
  -6   6   0 2279.67  109.29
  -8  -6   0 1343.87   65.69
   8  -6   0 1359.66   66.89
   8  -6   0 1436.76   70.29
   8  -6   0 1340.67   71.19
  -8   6   0 1509.75   67.99
  -8   6   0 1428.06   69.29
 -10  -6   0  330.87   19.00
  10  -6   0  338.77   24.00
 -10  -6   0  313.77   16.50
 -10   6   0  337.57   21.30
 -10   6   0  345.77   20.80
 -10   6   0  331.37   22.20
 -12  -6   0  320.57   18.10
  12  -6   0  324.17   24.60
 -12  -6   0  343.17   20.40
 -12   6   0  359.76   24.30
 -12   6   0  365.36   22.50
 -12   6   0  343.97   22.50
 -14  -6   0  664.53   34.40
  14  -6   0  639.24   39.00
 -14  -6   0  589.84   31.80
  14   6   0  548.95   32.10
 -14   6   0  631.54   36.10
 -14   6   0  707.13   37.40
 -14   6   0  647.24   38.60
 -16  -6   0  451.95   27.80
 -16  -6   0  467.35   26.10
  16  -6   0  412.16   31.50
 -16   6   0  475.15   30.30
 -16   6   0  465.65   32.40
  -1  -7   0  963.00   39.60
   1  -7   0  884.41   41.30
  -1  -7   0  816.32   41.80
   1  -7   0  887.51   42.30
   1  -7   0  840.02   46.70
  -1  -7   0  851.61   42.20
  -1  -7   0  807.32   45.80
   1   7   0  860.41   40.60
  -1   7   0  765.02   40.80
  -1   7   0  834.02   42.50
  -1   7   0  872.31   41.20
   1   7   0  799.92   41.50
  -3  -7   0 1369.56   65.79
   3  -7   0 1453.95   66.89
   3  -7   0 1443.46   66.29
   3  -7   0 1375.56   71.19
   3   7   0 1413.76   63.79
   3   7   0 1314.17   64.19
  -3   7   0 1496.25   65.99
  -3   7   0 1312.17   66.79
  -3   7   0 1359.86   66.19
   5  -7   0  908.31   44.60
  -5  -7   0  891.11   43.60
   5  -7   0  818.32   48.90
   5  -7   0  944.41   46.30
  -5   7   0  945.61   44.60
  -5   7   0  866.01   45.30
  -5   7   0  943.01   45.60
   5   7   0  858.11   41.00
   5   7   0  872.11   40.80
  -7  -7   0 1089.89   55.09
   7  -7   0 1050.69   60.69
   7  -7   0 1189.38   59.09
  -7   7   0 1178.48   57.99
  -7   7   0 1107.09   59.59
  -7   7   0 1304.27   57.29
  -9  -7   0 1183.38   59.49
   9  -7   0 1137.99   65.49
  -9   7   0 1315.57   63.59
  -9   7   0 1345.27   61.99
  11  -7   0  973.10   57.79
 -11  -7   0 1052.99   52.09
 -11   7   0 1103.59   54.59
 -11   7   0 1092.29   56.39
 -13  -7   0  796.02   42.40
  13  -7   0  759.72   47.80
 -13   7   0  881.91   45.50
 -13   7   0  840.52   47.10
  15  -7   0  292.87   26.70
 -15  -7   0  316.77   18.20
 -15  -7   0  306.07   21.50
 -15   7   0  334.47   24.00
 -15   7   0  355.56   26.30
   0  -8   0   55.59    7.50
   0  -8   0   54.19    5.30
   0  -8   0   70.09   11.30
   0   8   0   54.49    5.70
   0   8   0   54.49    5.40
   2  -8   0   98.49    9.50
   2  -8   0   93.89   11.90
  -2  -8   0   94.89   11.40
  -2  -8   0   96.59    9.00
   2  -8   0  110.89    8.90
   2   8   0   89.49    8.30
  -2   8   0   97.39   10.50
  -2   8   0  104.59    8.80
  -2   8   0  109.09    8.50
   2   8   0  113.69    7.70
  -4  -8   0   68.89    7.50
   4  -8   0   89.29   12.00
   4  -8   0   71.59    8.40
   4   8   0   58.19    5.80
  -4   8   0   55.29    8.50
  -4   8   0   71.89    7.80
   4   8   0   75.59    5.50
  -4   8   0   90.29    7.90
  -6  -8   0  260.47   16.70
   6  -8   0  255.27   21.80
   6  -8   0  265.97   18.90
  -6   8   0  283.37   17.60
  -6   8   0  298.17   19.00
   8  -8   0  269.07   23.60
  -8  -8   0  303.67   18.50
  -8   8   0  327.47   21.20
  -8   8   0  313.97   19.80
  10  -8   0    8.70    7.50
 -10  -8   0   20.70    5.20
 -10   8   0   13.00    5.70
 -10   8   0   17.50    5.60
 -12  -8   0   64.89    9.20
  12  -8   0   76.99   14.10
 -12   8   0   85.39   11.80
 -12   8   0   86.19   12.00
 -14  -8   0   93.89   11.70
  14  -8   0   80.89   15.70
 -14   8   0   83.89   12.80
 -14   8   0  109.89   14.70
   1  -9   0 2510.15  115.49
  -1  -9   0 2514.75  123.89
   1  -9   0 2482.05  124.59
  -1   9   0 2443.46  115.69
  -1   9   0 2362.56  117.49
   1   9   0 2747.53  115.49
   1   9   0 2340.27  116.29
  -1   9   0 2804.42  116.39
   3  -9   0 1678.63   81.09
  -3  -9   0 1684.93   81.69
  -3  -9   0 1777.72   88.29
   3  -9   0 1675.33   88.39
  -3   9   0 1679.23   81.39
  -3   9   0 1855.51   81.19
  -3   9   0 1679.73   82.69
   3   9   0 1621.04   79.09
   3   9   0 1776.02   78.49
   5  -9   0 1431.76   72.29
  -5  -9   0 1449.26   71.19
   5  -9   0 1401.06   78.09
  -5   9   0 1601.44   71.69
  -5   9   0 1510.35   72.49
   7  -9   0 1182.08   66.59
  -7  -9   0 1148.69   59.09
  -7   9   0 1234.38   61.69
  -7   9   0 1278.47   60.49
   9  -9   0  786.02   52.29
  -9  -9   0  849.81   45.70
  -9   9   0  959.10   49.60
  -9   9   0 1010.80   48.40
 -11  -9   0  608.54   34.00
  11  -9   0  571.74   40.80
 -11   9   0  633.34   36.30
 -11   9   0  661.73   38.40
   0 -10   0 1298.57   71.39
   0 -10   0 1217.38   59.19
   0  10   0 1233.28   62.99
   0  10   0 1387.16   61.39
  -2 -10   0 1042.70   58.69
   2 -10   0 1016.10   58.79
   2 -10   0  979.20   49.50
  -2  10   0  895.71   51.69
  -2  10   0 1151.08   50.49
  -2  10   0 1013.40   50.19
   2  10   0 1066.59   48.40
   2  10   0  916.21   49.20
   4 -10   0  939.11   55.29
  -4 -10   0  941.11   54.69
  -4 -10   0  935.21   47.80
   4 -10   0  867.41   47.10
   4  10   0  865.51   43.10
   4  10   0  912.41   42.90
  -4  10   0 1006.30   47.20
  -4  10   0  946.61   48.00
  -6 -10   0  973.60   57.79
   6 -10   0  949.31   58.49
  -6 -10   0  945.31   50.79
  -6  10   0 1055.39   52.99
  -6  10   0 1091.59   51.79
   8 -10   0  584.84   41.20
  -8 -10   0  570.34   33.40
  -8  10   0  622.04   36.10
  -8  10   0  650.33   35.00
  10 -10   0  414.06   33.60
 -10 -10   0  410.66   26.30
 -10  10   0  492.35   28.80
 -10  10   0  438.36   29.70
   1 -11   0    8.10    8.80
   1 -11   0    3.60    4.20
  -1 -11   0    2.00    7.50
   1  11   0    8.80    6.90
  -1  11   0    8.00    8.70
   1  11   0    0.10    3.60
  -3 -11   0    6.10    7.10
   3 -11   0    4.80    5.80
   3 -11   0   24.50    9.70
   3  11   0    7.00    3.30
   3  11   0   -2.80    4.60
  -5 -11   0  -12.40    8.00
   5 -11   0   -1.00    7.30
   5 -11   0    5.40    9.20
  -5 -11   0    0.50    4.80
  -5  11   0    3.80    5.00
  -5  11   0   -7.60    5.40
  -7 -11   0    8.60    9.40
  -7 -11   0   15.70    6.50
   7 -11   0   15.40   11.10
  -7  11   0   17.30    7.30
  -7  11   0   14.50    6.40
   0 -12   0  883.51   58.89
   0  12   0 1023.70   48.30
   2 -12   0  736.83   51.89
  -2 -12   0  734.53   52.49
   2  12   0  827.32   39.80
  -2  12   0  902.21   42.70
  18   0  -1    0.70    4.90
 -18   0   1    5.20    5.00
 -18   0   1    6.80    5.70
 -18   0   1   10.20    7.30
 -16   0   1   -1.10    3.30
  16   0  -1   -0.80    3.70
 -16   0   1    3.40    4.10
 -16   0   1    3.40    5.30
  14   0  -1    3.50    6.90
  14   0  -1    0.50    2.90
 -14   0   1    1.40    2.60
 -14   0   1    1.10    3.00
 -14   0   1   -1.00    3.60
  12   0  -1   -0.20    2.20
 -12   0   1   -0.30    2.70
 -12   0   1   -0.30    2.60
 -12   0   1    4.60    2.20
  12   0  -1    0.30    4.60
 -10   0   1    1.20    2.10
  10   0  -1    3.60    1.80
 -10   0   1    3.60    2.00
  10   0  -1    3.80    3.50
 -10   0   1    1.90    1.50
  10   0  -1   -0.10    1.50
   8   0  -1    1.60    1.40
   8   0  -1    8.50    1.90
   8   0  -1    3.30    2.50
  -8   0   1    1.30    1.60
  -8   0   1    3.70    1.30
  -8   0   1    2.60    1.60
   6   0  -1    5.50    1.20
   6   0  -1    2.60    1.50
   6   0  -1    2.80    1.10
  -6   0   1    1.20    1.00
  -6   0   1    4.20    1.00
  -6   0   1    8.40    2.30
  -4   0   1    4.10    0.80
   4   0  -1    3.40    1.30
  -4   0   1    4.60    1.30
   4   0  -1    4.20    0.80
   2   0  -1    6.40    1.00
  -2   0   1    4.50    0.90
   0   0   1    2.80    0.70
   0   0   1    4.60    0.80
   0   0  -1    1.20    0.40
   0   0   1    2.70    0.50
   0   0  -1    1.20    0.50
  -2   0  -1    2.70    0.80
  -2   0  -1    1.60    0.90
   2   0   1    1.80    1.00
   2   0   1    5.10    1.20
  -4   0  -1    2.00    1.00
   4   0   1    8.60    1.50
  -4   0  -1    3.20    1.40
   4   0   1    7.50    2.00
   4   0   1    3.60    1.60
  -4   0  -1    3.50    1.70
  -6   0  -1    5.20    1.70
   6   0   1    2.90    2.30
   6   0   1    3.20    1.70
  -6   0  -1    1.80    1.50
  -6   0  -1    0.90    1.80
   6   0   1    6.20    1.60
  -8   0  -1    3.20    1.90
   8   0   1   12.30    4.20
   8   0   1    2.80    1.50
   8   0   1    1.90    2.50
  -8   0  -1    2.60    2.10
  -8   0  -1   -3.90    2.30
  10   0   1    7.10    4.80
  10   0   1    2.60    2.70
 -10   0  -1   -0.20    2.00
 -10   0  -1    1.20    2.50
 -10   0  -1   -3.50    3.10
  10   0   1   -0.60    2.00
 -12   0  -1    5.60    3.20
  12   0   1    1.50    6.10
  12   0   1    3.80    3.10
 -12   0  -1    1.00    3.30
  12   0   1   -1.90    3.40
 -12   0  -1    6.10    4.40
 -14   0  -1   -3.60    3.20
  14   0   1    4.60    4.40
 -14   0  -1    9.20    6.20
  14   0   1    2.20    4.10
 -14   0  -1   -0.10    3.90
  16   0   1    1.50    5.80
 -16   0  -1   -3.80    4.20
 -16   0  -1    8.00    6.20
 -16   0  -1   -7.50    9.20
 -18   0  -1   -2.70    7.40
 -18   0  -1   -3.90    6.50
 -19  -1   1  300.57   22.90
 -19  -1   1  278.07   20.30
 -19   1   1  269.77   23.10
 -19   1   1  288.47   21.20
 -17  -1   1  130.49   13.10
 -17  -1   1  119.49   13.70
 -17  -1   1   96.99   10.50
  17  -1  -1   92.39   11.00
 -17   1   1  114.29   12.80
 -17   1   1  110.19   13.20
 -17   1   1  113.79   11.30
 -15  -1   1  588.74   31.50
 -15  -1   1  609.14   34.40
 -15  -1   1  626.14   33.20
  15  -1  -1  581.54   31.00
  15   1  -1  567.64   28.70
 -15   1   1  607.64   32.30
 -15   1   1  594.64   32.00
 -15   1   1  607.44   35.40
  13  -1  -1 1368.46   66.79
 -13  -1   1 1235.98   59.59
 -13  -1   1 1224.98   61.09
 -13  -1   1 1314.87   63.49
  13  -1  -1 1149.48   60.29
  13  -1  -1 1302.87   59.99
 -13   1   1 1354.36   60.79
  13   1  -1 1220.48   57.99
 -13   1   1 1249.47   60.39
 -13   1   1 1228.18   63.99
  13   1  -1 1263.27   64.39
 -11  -1   1 1677.03   77.79
 -11  -1   1 1663.13   76.09
 -11  -1   1 1629.14   79.69
  11  -1  -1 1809.82   82.49
  11  -1  -1 1677.23   77.19
  11  -1  -1 1684.73   76.79
 -11   1   1 1612.24   76.69
 -11   1   1 1689.63   77.09
  11   1  -1 1591.44   74.99
 -11   1   1 1543.75   80.19
  11   1  -1 1671.73   80.19
   9  -1  -1 2582.64  124.49
   9  -1  -1 2802.22  124.89
   9  -1  -1 2983.60  129.39
  -9  -1   1 2773.62  123.79
  -9  -1   1 2490.05  126.99
  -9  -1   1 2947.71  125.59
   9   1  -1 3089.59  127.89
  -9   1   1 2912.41  124.99
   9   1  -1 2606.84  123.19
  -9   1   1 2515.25  127.99
  -9   1   1 2696.53  124.59
  -7  -1   1 1828.12   77.49
   7  -1  -1 1820.72   78.39
   7  -1  -1 1494.45   78.19
  -7  -1   1 1875.61   79.09
  -7  -1   1 1662.73   80.09
   7  -1  -1 1868.11   81.99
   7   1  -1 1634.74   76.99
  -7   1   1 1533.75   80.79
   7   1  -1 1833.42   80.19
  -7   1   1 1896.51   78.49
  -7   1   1 1548.05   78.09
  -5  -1   1 1280.67   58.99
  -5  -1   1 1236.78   56.99
   5  -1  -1 1144.59   57.99
   5  -1  -1 1364.96   60.39
   5  -1  -1 1390.16   57.99
  -5   1   1 1386.66   57.89
  -5   1   1 1222.88   59.79
   5   1  -1 1345.17   58.89
  -5   1   1 1147.79   57.89
   3  -1  -1 1037.90   44.10
   3  -1  -1  833.32   44.10
   3  -1  -1 1063.19   45.40
  -3  -1   1 1008.60   44.30
  -3   1   1  898.51   44.00
   3   1  -1 1015.40   44.30
  -3   1   1  978.10   45.00
   3  -1   1  118.29    6.70
  -3  -1  -1  132.09    7.20
  -3  -1  -1  126.99    8.00
   3  -1   1  130.89    8.00
   3  -1   1  117.19    7.70
   3   1   1  119.59    6.60
  -3   1  -1  125.99    7.90
   3   1   1  124.09    7.30
  -3   1  -1  113.29    6.90
   3   1   1  129.39    7.90
  -3   1  -1   95.09    7.40
  -5  -1  -1 1383.36   66.99
   5  -1   1 1358.26   65.99
  -5  -1  -1 1498.15   68.19
  -5  -1  -1 1455.25   66.39
   5  -1   1 1496.85   67.99
   5  -1   1 1505.95   69.19
  -5   1  -1 1586.14   66.99
   5   1   1 1528.35   68.09
   5   1   1 1414.26   65.79
  -5   1  -1 1436.86   67.69
   5   1   1 1369.76   67.99
  -7  -1  -1 1552.24   74.69
  -7  -1  -1 1647.24   75.59
   7  -1   1 1562.64   72.99
  -7  -1  -1 1593.94   73.49
   7  -1   1 1767.02   77.79
   7  -1   1 1599.74   75.29
  -7   1  -1 1681.43   75.29
   7   1   1 1544.85   75.99
   7   1   1 1604.64   75.29
   7   1   1 1518.35   72.49
  -7   1  -1 1555.94   73.79
   9  -1   1 1167.18   57.89
   9  -1   1 1177.38   55.29
  -9  -1  -1 1172.88   57.59
  -9  -1  -1 1242.48   58.29
  -9  -1  -1 1199.48   55.99
   9  -1   1 1293.67   60.79
  -9   1  -1 1075.99   58.39
  -9   1  -1 1160.98   57.59
   9   1   1 1162.08   54.69
   9   1   1 1164.28   57.69
  -9   1  -1 1161.58   56.39
   9   1   1 1231.98   59.29
  11  -1   1 1464.35   74.49
  11  -1   1 1578.94   71.99
 -11  -1  -1 1487.65   72.69
  11  -1   1 1676.63   78.49
 -11  -1  -1 1478.65   74.49
 -11  -1  -1 1518.35   74.89
 -11   1  -1 1440.76   75.69
 -11   1  -1 1526.35   73.39
  11   1   1 1573.84   76.69
  11   1   1 1634.24   71.29
 -11   1  -1 1570.74   74.59
 -13  -1  -1  471.25   28.50
  13  -1   1  494.15   26.00
 -13  -1  -1  451.45   26.40
  13  -1   1  462.75   28.40
 -13  -1  -1  455.85   28.80
 -13   1  -1  487.45   27.40
 -13   1  -1  412.86   28.80
 -13   1  -1  476.45   28.40
  13   1   1  510.25   25.10
  13   1   1  500.25   31.40
 -15  -1  -1  366.46   26.40
 -15  -1  -1  347.27   23.30
  15  -1   1  408.46   22.70
  15  -1   1  358.56   25.00
 -15  -1  -1  394.56   26.10
 -15   1  -1  356.66   25.50
  15   1   1  392.46   21.40
 -15   1  -1  383.46   26.90
 -15   1  -1  384.86   24.50
 -17  -1  -1  278.87   23.20
 -17  -1  -1  300.57   21.50
 -17   1  -1  285.47   24.20
 -17   1  -1  297.17   22.00
 -18  -2   1  340.37   22.90
 -18  -2   1  289.07   20.30
 -18  -2   1  313.87   24.30
  18  -2  -1  307.47   21.80
 -18   2   1  310.97   21.90
 -18   2   1  309.17   21.90
 -18   2   1  347.37   25.20
  16  -2  -1  558.04   30.00
 -16  -2   1  519.55   29.10
  16  -2  -1  521.15   30.00
 -16  -2   1  521.25   31.50
 -16  -2   1  552.14   31.60
 -16   2   1  531.25   33.20
 -16   2   1  513.65   30.20
 -16   2   1  566.54   30.20
 -14  -2   1 1163.58   58.09
 -14  -2   1 1197.88   58.49
 -14  -2   1 1126.69   55.59
  14  -2  -1 1097.49   56.59
  14  -2  -1 1218.88   56.69
  14   2  -1 1151.28   59.69
 -14   2   1 1197.68   56.69
 -14   2   1 1177.68   60.59
 -14   2   1 1121.49   56.79
 -12  -2   1 1031.80   49.30
 -12  -2   1 1006.20   51.49
  12  -2  -1 1027.00   50.69
  12  -2  -1 1073.99   56.09
 -12  -2   1 1023.00   51.99
  12  -2  -1 1128.89   50.79
 -12   2   1 1021.90   53.89
  12   2  -1 1001.00   52.49
 -12   2   1 1104.69   50.59
 -12   2   1  982.80   50.19
 -10  -2   1  360.66   19.50
  10  -2  -1  336.57   18.50
 -10  -2   1  326.57   16.90
  10  -2  -1  336.27   22.00
  10  -2  -1  335.27   18.30
 -10  -2   1  331.97   19.60
 -10   2   1  337.77   18.20
 -10   2   1  302.97   17.90
  10   2  -1  322.87   19.50
 -10   2   1  301.07   20.60
   8  -2  -1 2033.40   92.69
   8  -2  -1 2067.59   96.39
  -8  -2   1 2087.39   91.09
  -8  -2   1 1930.01   93.59
  -8  -2   1 2157.88   93.59
   8  -2  -1 2077.79   92.89
   8   2  -1 2028.80   93.29
  -8   2   1 2090.79   92.59
  -8   2   1 1927.01   92.29
  -8   2   1 1878.81   95.39
   6  -2  -1 3463.75  145.59
  -6  -2   1 3077.09  145.29
  -6  -2   1 3248.48  143.49
   6  -2  -1 2961.00  145.09
  -6   2   1 3622.34  145.39
   6   2  -1 3274.87  145.09
  -6   2   1 3003.50  147.19
   4  -2  -1  826.12   42.50
   4  -2  -1  972.50   44.20
  -4  -2   1  963.50   42.00
   4  -2  -1  946.71   43.10
  -4  -2   1  957.50   40.90
  -4  -2   1  783.32   40.90
  -4   2   1  874.41   42.40
  -4   2   1 1026.20   43.10
  -4   2   1  899.31   43.70
   4   2  -1  949.31   41.90
   0  -2   1 2810.32  123.79
   0  -2   1 2490.55  121.19
   0  -2  -1 2884.81  121.99
   0   2  -1 2778.42  123.39
   0   2  -1 2519.95  121.29
   0   2   1 2827.02  121.09
   0   2   1 2817.02  121.89
   2  -2   1  672.83   32.20
  -2  -2  -1  701.83   30.70
   2  -2   1  677.53   31.10
  -2  -2  -1  731.73   31.50
   2  -2   1  712.03   33.40
   2   2   1  630.14   30.60
   2   2   1  683.93   31.20
  -2   2  -1  581.04   32.10
   4  -2   1 3637.94  157.28
  -4  -2  -1 3404.26  154.58
  -4  -2  -1 3527.65  154.98
   4  -2   1 3493.85  156.98
  -4  -2  -1 3695.53  157.08
   4  -2   1 3341.67  154.68
   4   2   1 3487.05  154.38
  -4   2  -1 3597.14  156.58
   4   2   1 3045.30  155.18
  -6  -2  -1 1825.22   99.19
   6  -2   1 2520.05  103.89
   6  -2   1 2099.09   99.39
  -6  -2  -1 2318.17  102.19
  -6  -2  -1 2170.68   99.89
   6  -2   1 2386.16  102.29
  -6   2  -1 2222.18  101.39
   6   2   1 2204.78   98.69
  -6   2  -1 2122.89  100.29
   6   2   1 2173.48  101.09
  -8  -2  -1 1187.28   55.99
  -8  -2  -1 1176.78   56.59
  -8  -2  -1 1233.68   58.69
   8  -2   1 1204.98   55.79
   8  -2   1 1217.68   58.39
   8  -2   1 1367.36   61.09
  -8   2  -1 1187.08   56.89
   8   2   1 1152.38   54.49
  -8   2  -1 1026.50   58.39
   8   2   1 1105.69   57.59
  -8   2  -1 1270.07   58.09
  10  -2   1  856.11   41.30
 -10  -2  -1  854.21   42.60
 -10  -2  -1  875.71   44.40
 -10  -2  -1  806.52   41.40
  10  -2   1  976.50   47.40
  10  -2   1  845.02   43.90
 -10   2  -1  774.92   44.60
 -10   2  -1  793.22   42.20
  10   2   1  827.72   44.00
 -10   2  -1  866.21   43.60
  10   2   1  841.12   39.80
 -12  -2  -1  398.46   25.70
 -12  -2  -1  417.46   24.50
  12  -2   1  400.96   25.30
 -12  -2  -1  379.36   22.90
  12  -2   1  413.76   22.80
  12   2   1  411.06   26.30
 -12   2  -1  404.26   26.50
  12   2   1  428.46   21.30
 -12   2  -1  424.96   25.10
 -12   2  -1  396.76   24.00
 -14  -2  -1  294.97   22.70
 -14  -2  -1  310.17   20.70
  14  -2   1  311.67   21.50
 -14  -2  -1  281.37   19.10
  14   2   1  314.77   17.00
 -14   2  -1  270.17   21.40
 -14   2  -1  302.57   20.50
 -14   2  -1  299.77   22.70
  16  -2   1  388.76   27.20
 -16  -2  -1  415.56   27.40
 -16  -2  -1  430.26   25.90
 -16   2  -1  382.06   27.60
 -16   2  -1  390.26   26.80
 -16   2  -1  427.36   30.10
 -19  -3   1   34.10    8.10
 -19  -3   1   51.19    9.60
 -19   3   1   31.90    9.70
 -19   3   1   52.59   10.00
  17  -3  -1   32.30    7.60
 -17  -3   1   26.30    6.70
 -17  -3   1   45.00   10.10
 -17  -3   1   27.50    6.20
 -17   3   1   19.10    5.90
 -17   3   1   22.10    7.70
 -17   3   1   28.30    7.40
  15  -3  -1   33.80    6.90
 -15  -3   1   31.60    6.30
 -15  -3   1   30.90    7.90
  15  -3  -1   42.30    7.50
 -15  -3   1   32.60    5.60
 -15   3   1   29.30    6.50
 -15   3   1   33.90    6.30
 -15   3   1   23.10    6.50
  15   3  -1   30.80    7.80
 -13  -3   1  101.39    9.10
  13  -3  -1   95.09    9.30
 -13  -3   1   97.29    7.90
 -13  -3   1   79.39   10.40
  13  -3  -1   95.09    9.40
 -13   3   1  108.49    9.40
  13   3  -1   95.39   10.20
 -13   3   1   92.49   10.70
 -13   3   1  101.89    9.10
  11  -3  -1    0.70    3.10
  11  -3  -1    7.10    5.20
  11  -3  -1    7.80    3.30
 -11  -3   1    3.60    2.60
 -11  -3   1    2.00    1.80
 -11  -3   1    1.90    3.40
  11   3  -1    2.90    3.10
 -11   3   1    5.20    3.10
 -11   3   1    7.30    3.80
 -11   3   1    6.90    2.70
  -9  -3   1  106.09    7.10
   9  -3  -1  132.29   11.80
   9  -3  -1  118.39    8.90
  -9  -3   1  136.69    9.10
   9  -3  -1  106.49    8.90
  -9  -3   1  120.49    9.70
  -9   3   1  118.19    8.70
   9   3  -1  109.69    8.30
  -9   3   1  103.79   10.00
  -9   3   1  112.59    8.40
   7  -3  -1 1028.50   48.90
  -7  -3   1 1032.40   46.10
   7  -3  -1 1022.20   48.10
  -7  -3   1 1025.10   47.70
   7  -3  -1 1056.69   51.19
  -7   3   1  888.91   49.80
   7   3  -1  954.60   46.90
  -7   3   1 1074.79   48.50
  -5  -3   1   12.90    1.60
   5  -3  -1   14.80    3.30
   5  -3  -1   14.80    2.80
   5  -3  -1   18.10    3.50
  -5  -3   1   17.90    2.10
  -5   3   1   16.60    2.90
  -5   3   1   11.90    2.90
   3  -3  -1  143.39    9.00
  -3  -3   1  137.19    7.20
  -3  -3   1  133.09    7.00
   3  -3  -1  127.49    8.20
   3  -3  -1  142.09    9.20
  -3   3   1  124.09    8.60
  -3   3   1  140.39    8.10
  -3   3   1  156.68    9.00
  -1  -3   1   31.20    2.40
  -1  -3   1   27.50    2.40
  -1  -3   1   35.20    2.90
   1  -3  -1   31.80    3.10
   1  -3  -1   29.90    2.70
  -1  -3   1   30.20    4.10
   1  -3  -1   28.50    3.00
  -1   3   1   27.40    2.60
   1   3  -1   32.40    2.70
   1   3  -1   25.50    2.30
   1   3  -1   33.60    2.70
  -1   3   1   29.30    3.10
  -1   3   1   29.50    2.70
   1  -3   1    5.30    1.50
  -1  -3  -1    4.30    1.40
   1  -3   1    3.20    2.00
   1  -3   1    3.70    1.10
  -1   3  -1    6.20    1.70
  -1   3  -1    3.90    1.30
   1   3   1    6.50    1.50
  -1   3  -1   10.20    2.70
   1   3   1    8.70    1.50
  -3  -3  -1    8.90    1.80
   3  -3   1   16.20    3.70
  -3  -3  -1   10.40    1.40
   3  -3   1   20.50    3.50
   3  -3   1   11.20    2.10
   3   3   1   11.60    1.90
  -3   3  -1    6.10    2.10
  -3   3  -1   13.00    2.30
  -3   3  -1   26.20    4.30
   5  -3   1  143.49   11.00
   5  -3   1  138.29    8.70
  -5  -3  -1  134.39    7.90
  -5  -3  -1  148.99    8.80
   5  -3   1  151.18   11.10
  -5  -3  -1  145.59   10.50
  -5   3  -1  159.18   10.70
  -5   3  -1  132.69    9.20
  -5   3  -1  120.69   10.10
   5   3   1  137.39    7.90
   5   3   1  143.99    8.70
   7  -3   1    4.50    3.30
  -7  -3  -1   12.40    2.80
  -7  -3  -1   12.70    2.60
   7  -3   1    7.90    3.80
  -7  -3  -1    9.50    3.80
   7  -3   1   10.50    2.60
  -7   3  -1   17.60    4.30
  -7   3  -1   25.40    4.30
   7   3   1   15.40    3.30
  -7   3  -1   14.20    4.20
   7   3   1   19.00    2.40
   9  -3   1    8.10    4.80
  -9  -3  -1    5.20    2.50
  -9  -3  -1    6.10    2.40
  -9  -3  -1   11.20    4.30
   9  -3   1    5.40    2.70
   9  -3   1    6.30    3.70
  -9   3  -1    6.50    2.90
  -9   3  -1    8.70    4.20
  -9   3  -1    3.60    3.10
   9   3   1    6.80    3.20
   9   3   1   13.80    2.30
  11  -3   1  101.59    9.40
 -11  -3  -1  107.79   12.20
  11  -3   1  109.59   11.40
 -11  -3  -1  108.49    9.00
 -11  -3  -1  110.29    9.20
 -11   3  -1  110.39   11.70
 -11   3  -1   99.59   11.00
  11   3   1   89.09   10.20
 -11   3  -1  105.19    9.90
  11   3   1  105.29    7.10
 -13  -3  -1   19.40    8.10
 -13  -3  -1   28.90    5.90
 -13  -3  -1   20.30    5.20
  13  -3   1   19.90    6.70
 -13   3  -1   29.80    7.70
 -13   3  -1   47.40    7.90
 -13   3  -1   33.30    8.00
  13   3   1   32.20    8.60
  13   3   1   38.30    4.70
  15  -3   1    6.30    6.70
 -15  -3  -1    7.50    5.00
 -15  -3  -1   13.10    5.40
 -15   3  -1   -1.90    5.60
  15   3   1    8.40    2.80
 -15   3  -1   13.50    8.70
 -15   3  -1    4.90    5.40
 -17  -3  -1    0.10    5.90
 -17  -3  -1    5.30    6.20
  17  -3   1   -3.30    8.10
 -17   3  -1    3.50    7.00
 -17   3  -1   11.30    7.30
  18  -4  -1  188.28   18.90
 -18  -4   1  252.37   18.40
 -18  -4   1  243.08   18.00
 -18   4   1  226.98   21.00
 -18   4   1  272.37   20.10
  16  -4  -1  352.16   23.60
 -16  -4   1  369.66   21.90
 -16  -4   1  387.86   22.50
  16   4  -1  335.57   24.00
 -16   4   1  365.16   23.60
 -16   4   1  336.27   22.50
 -16   4   1  377.06   26.20
 -14  -4   1  702.03   39.40
 -14  -4   1  715.03   35.80
 -14  -4   1  700.93   35.20
  14  -4  -1  633.84   37.10
 -14   4   1  666.93   36.30
  14   4  -1  628.84   36.40
 -14   4   1  725.53   40.00
 -14   4   1  744.53   37.50
 -12  -4   1 1013.50   47.00
 -12  -4   1  911.01   49.80
  12  -4  -1  976.60   49.40
  12  -4  -1 1053.19   48.60
 -12  -4   1  995.10   46.50
 -12   4   1  971.70   48.20
 -12   4   1  912.31   47.80
  12   4  -1  893.31   47.20
 -12   4   1  952.80   50.99
  10  -4  -1 1395.86   61.89
  10  -4  -1 1394.56   66.39
 -10  -4   1 1244.08   59.99
 -10  -4   1 1327.17   59.69
 -10  -4   1 1262.17   63.09
  10  -4  -1 1237.98   62.59
 -10   4   1 1268.47   61.49
 -10   4   1 1305.27   61.39
 -10   4   1 1233.98   63.89
  10   4  -1 1179.98   59.99
   8  -4  -1 1755.92   78.79
   8  -4  -1 1864.21   82.69
   8  -4  -1 1581.24   79.89
  -8  -4   1 1689.53   76.49
  -8  -4   1 1780.82   77.09
   8   4  -1 1613.24   76.69
  -8   4   1 1593.64   78.09
  -8   4   1 1571.24   80.49
  -8   4   1 1725.83   79.19
   6  -4  -1 2950.00  131.09
   6  -4  -1 2775.02  132.59
   6  -4  -1 3214.18  133.99
  -6  -4   1 3095.29  128.99
  -6  -4   1 2816.32  128.79
  -6   4   1 2797.72  130.39
  -6   4   1 2544.15  131.99
  -4  -4   1 4370.86  191.48
  -4  -4   1 4237.68  191.28
   4  -4  -1 4645.64  194.58
   4  -4  -1 4358.56  193.08
  -4  -4   1 4505.55  190.38
   4  -4  -1 4388.66  195.18
  -4   4   1 4271.47  192.68
  -4   4   1 3948.30  193.68
  -4   4   1 4024.00  193.38
   2  -4  -1 3925.51  172.68
   2  -4  -1 3945.51  172.88
   2  -4  -1 4088.49  172.58
  -2  -4   1 3763.42  171.28
  -2  -4   1 3793.32  170.48
  -2  -4   1 3809.62  171.68
  -2  -4   1 4166.18  175.78
   2   4  -1 3767.12  171.08
  -2   4   1 3801.92  171.98
  -2   4   1 3772.22  172.88
  -2   4   1 3522.55  172.28
   0  -4   1 7079.99  305.47
   0  -4  -1 7159.98  299.97
   0   4   1 5884.61  299.77
   0   4  -1 7183.28  301.47
   0   4   1 6609.54  301.37
  -2  -4  -1 5872.31  258.07
   2  -4   1 5809.92  262.07
   2  -4   1 5790.82  257.87
   2  -4   1 6399.96  259.47
   2   4   1 5862.71  257.67
  -2   4  -1 4774.72  257.77
  -2   4  -1 6085.19  260.77
   4  -4   1 2315.47  100.69
   4  -4   1 2209.78  104.49
  -4  -4  -1 1910.81  100.09
   4  -4   1 2450.45  103.39
  -4   4  -1 2073.89  101.09
   4   4   1 2280.67   99.39
  -4   4  -1 2002.00  102.19
  -4   4  -1 2374.96  103.49
   4   4   1 2326.07   99.79
   6  -4   1 2403.76  107.99
  -6  -4  -1 2507.75  111.29
  -6  -4  -1 2439.16  107.79
  -6  -4  -1 2453.85  106.39
   6  -4   1 2352.46  111.69
   6   4   1 2356.56  106.19
  -6   4  -1 2438.36  110.29
  -6   4  -1 2147.79  108.49
  -6   4  -1 2288.27  110.59
   6   4   1 2314.07  106.49
   6   4   1 2355.76  106.19
   8  -4   1 2756.62  116.19
   8  -4   1 2375.66  110.89
   8  -4   1 2487.85  114.99
  -8  -4  -1 2408.06  114.39
  -8  -4  -1 2375.16  109.59
  -8  -4  -1 2391.46  110.79
   8   4   1 2347.97  110.19
  -8   4  -1 2372.86  114.39
  -8   4  -1 2369.26  112.29
   8   4   1 2335.07  108.39
  -8   4  -1 2472.55  113.19
 -10  -4  -1 1167.78   59.59
 -10  -4  -1 1171.98   55.79
  10  -4   1 1190.58   55.89
  10  -4   1 1114.29   59.29
 -10  -4  -1 1177.28   54.99
 -10   4  -1 1168.98   57.59
  10   4   1 1067.19   55.49
  10   4   1 1169.98   52.49
 -10   4  -1 1147.59   57.89
 -10   4  -1 1161.78   59.69
 -12  -4  -1  455.25   31.10
 -12  -4  -1  521.95   27.80
 -12  -4  -1  500.85   26.90
  12  -4   1  479.65   30.60
  12   4   1  460.15   27.80
  12   4   1  522.15   23.20
 -12   4  -1  502.25   29.30
 -12   4  -1  507.75   31.60
 -12   4  -1  477.35   29.50
 -14  -4  -1  434.76   25.80
 -14  -4  -1  457.75   26.40
  14  -4   1  422.76   29.10
  14   4   1  431.36   27.90
 -14   4  -1  436.06   28.80
 -14   4  -1  449.76   30.60
 -14   4  -1  460.75   28.50
  16  -4   1  322.17   26.30
 -16  -4  -1  373.56   23.90
 -16  -4  -1  336.07   23.20
 -16   4  -1  382.26   28.80
 -16   4  -1  348.17   25.70
 -17  -5   1  423.96   25.40
 -17  -5   1  429.06   24.70
  17  -5  -1  385.36   27.30
  17   5  -1  366.36   26.90
 -17   5   1  424.76   27.50
 -17   5   1  470.45   30.30
  15  -5  -1  756.12   43.10
 -15  -5   1  784.12   40.20
 -15  -5   1  814.42   39.80
 -15   5   1  834.92   45.30
 -15   5   1  779.22   41.20
  15   5  -1  660.33   40.20
 -15   5   1  869.51   43.00
  13  -5  -1  902.31   49.40
 -13  -5   1  897.51   50.09
 -13  -5   1  974.20   45.10
 -13  -5   1  960.40   45.80
  13   5  -1  837.62   45.60
 -13   5   1  910.31   49.99
 -13   5   1  991.70   48.10
 -13   5   1  979.60   47.60
  11  -5  -1  874.61   43.50
 -11  -5   1  714.03   39.90
  11  -5  -1  886.01   45.60
 -11  -5   1  861.21   45.80
 -11  -5   1  892.51   41.40
 -11   5   1  958.00   43.70
  11   5  -1  797.52   40.90
 -11   5   1  833.72   45.40
 -11   5   1  872.71   43.30
  -9  -5   1 2101.39   97.69
   9  -5  -1 2193.08  100.19
   9  -5  -1 2308.17  104.09
   9  -5  -1 2012.20  102.09
  -9  -5   1 2118.89   96.69
  -9   5   1 2095.69  101.99
  -9   5   1 2238.68   99.89
  -7  -5   1 3450.25  156.88
   7  -5  -1 3336.77  161.38
   7  -5  -1 3428.86  158.98
   7  -5  -1 3831.42  162.38
  -7  -5   1 3392.36  155.28
  -7   5   1 3725.23  158.88
  -7   5   1 3381.66  160.48
  -5  -5   1 3404.06  157.08
   5  -5  -1 3856.41  161.08
   5  -5  -1 3528.65  161.68
   5  -5  -1 3577.94  159.08
  -5   5   1 3478.25  159.58
  -5   5   1 3329.77  159.58
  -5   5   1 3429.66  158.38
  -3  -5   1 3746.03  163.68
  -3  -5   1 3598.74  163.18
  -3  -5   1 3842.72  161.88
   3  -5  -1 3921.81  165.38
   3  -5  -1 3914.21  167.48
   3  -5  -1 3681.53  164.88
  -3   5   1 3696.93  164.18
   3   5  -1 3106.79  162.08
  -3   5   1 3440.26  164.38
   3   5  -1 3561.04  162.38
  -3   5   1 3691.73  165.38
   1  -5  -1 2530.25  110.29
  -1  -5   1 2480.05  110.09
  -1  -5   1 2516.45  110.39
   1  -5  -1 2437.76  111.39
  -1  -5   1 2486.65  115.39
  -1  -5   1 2533.15  111.19
   1  -5  -1 2392.16  111.49
   1   5  -1 2513.65  110.39
  -1   5   1 2503.45  111.69
  -1   5   1 2236.48  109.79
  -1   5   1 2336.97  110.49
   1   5  -1 2398.26  110.59
  -1  -5  -1 1756.42   79.19
   1  -5   1 1884.21   79.69
   1  -5   1 1763.62   83.69
   1  -5   1 1766.72   78.59
   1   5   1 1784.12   78.99
   1   5   1 1587.04   77.89
  -1   5  -1 1530.65   78.49
  -1   5  -1 1610.24   79.29
  -1   5  -1 1793.02   79.49
   3  -5   1 3511.55  164.88
  -3  -5  -1 3575.84  159.88
   3  -5   1 3633.84  159.98
   3  -5   1 3940.51  162.18
   3   5   1 3570.34  159.18
  -3   5  -1 3372.36  160.18
  -3   5  -1 3156.18  161.08
   3   5   1 3520.25  158.58
  -3   5  -1 3706.93  162.78
  -5  -5  -1 2994.10  139.19
   5  -5   1 3064.59  144.49
   5  -5   1 3053.39  139.49
   5  -5   1 3497.75  142.99
   5   5   1 3048.90  137.89
  -5   5  -1 3193.68  142.19
  -5   5  -1 3009.70  141.79
   5   5   1 2882.71  137.39
  -5   5  -1 3006.40  140.39
   7  -5   1 1992.00   85.29
   7  -5   1 1666.13   85.19
  -7  -5  -1 1793.82   80.69
  -7  -5  -1 1757.62   78.39
   7  -5   1 1721.53   80.79
  -7  -5  -1 1724.53   84.49
   7   5   1 1706.23   77.99
  -7   5  -1 1743.23   83.49
  -7   5  -1 1743.73   83.99
  -7   5  -1 1794.02   82.39
   7   5   1 1519.15   77.99
   7   5   1 1712.23   78.19
  -9  -5  -1 1727.03   80.39
   9  -5   1 1787.52   82.69
   9  -5   1 1983.20   87.89
   9  -5   1 1707.43   86.99
  -9  -5  -1 1743.83   82.29
  -9  -5  -1 1864.51   87.29
   9   5   1 1747.33   78.59
  -9   5  -1 1801.92   84.29
  -9   5  -1 1663.93   84.39
   9   5   1 1679.93   78.59
  -9   5  -1 1872.71   86.79
   9   5   1 1589.44   80.29
 -11  -5  -1 1278.87   58.59
  11  -5   1 1138.99   62.49
 -11  -5  -1 1155.48   56.49
 -11   5  -1 1190.68   60.39
 -11   5  -1 1255.57   60.69
 -11   5  -1 1271.27   63.19
  11   5   1 1079.59   56.69
 -13  -5  -1  611.74   31.60
  13  -5   1  513.65   34.60
 -13  -5  -1  539.85   29.70
 -13   5  -1  556.84   33.40
 -13   5  -1  597.94   36.20
 -13   5  -1  610.84   33.80
  13   5   1  491.25   30.00
  15  -5   1  522.95   34.30
 -15  -5  -1  529.95   30.60
 -15  -5  -1  502.65   29.10
 -15   5  -1  567.64   36.10
  15   5   1  434.66   30.20
 -15   5  -1  567.64   33.60
 -16  -6   1    3.30    5.20
 -16  -6   1    5.80    4.20
  16  -6  -1    5.60    8.50
 -16   6   1   12.10    6.60
 -16   6   1    7.50    5.50
  14  -6  -1   -4.80    6.10
 -14  -6   1    4.90    3.10
 -14  -6   1    4.40    4.00
 -14   6   1   10.70    4.90
 -14   6   1    9.00    5.30
  12  -6  -1   57.09   10.40
 -12  -6   1   54.99    5.10
 -12  -6   1   54.69    6.70
 -12   6   1   54.29    9.20
 -12   6   1   72.99    8.20
  10  -6  -1   -1.40    4.10
 -10  -6   1    2.70    2.50
 -10  -6   1    3.00    1.40
  10  -6  -1    5.90    5.90
 -10   6   1    1.20    3.00
 -10   6   1    1.60    2.60
   8  -6  -1   94.19   10.40
   8  -6  -1   77.99   10.10
   8  -6  -1   71.79    8.30
  -8  -6   1   84.39    6.80
  -8   6   1   74.29    8.70
  -8   6   1   87.09    8.80
  -8   6   1   96.19    8.00
  -6  -6   1  201.18   12.30
   6  -6  -1  221.88   15.60
   6  -6  -1  194.38   16.00
   6  -6  -1  211.68   14.10
  -6   6   1  232.68   13.60
  -6   6   1  220.18   14.50
  -4  -6   1   21.10    3.60
   4  -6  -1   19.40    4.40
  -4  -6   1   25.40    3.70
   4  -6  -1   25.30    4.90
   4  -6  -1   38.20    6.90
   4   6  -1   19.90    2.40
  -4   6   1   21.00    4.00
  -4   6   1   25.40    5.00
  -4   6   1   22.00    3.80
   4   6  -1   21.40    2.20
  -2  -6   1  374.86   24.50
   2  -6  -1  379.66   21.10
  -2  -6   1  393.56   20.50
   2  -6  -1  390.86   23.50
   2  -6  -1  391.26   20.40
  -2  -6   1  398.16   19.90
   2   6  -1  384.36   19.60
  -2   6   1  366.76   19.60
  -2   6   1  398.46   21.60
   2   6  -1  331.07   18.90
  -2   6   1  386.66   20.10
   0  -6  -1  325.97   17.60
   0  -6   1  351.96   17.00
   0  -6   1  338.87   17.00
   0  -6   1  323.77   21.70
   0  -6  -1  253.37   14.90
   0   6   1  300.27   17.30
   0   6  -1  309.67   16.60
   0   6  -1  292.87   16.80
   0   6  -1  282.57   16.90
   0   6   1  297.47   16.30
   0   6   1  290.77   15.00
   2  -6   1  660.33   30.30
   2  -6   1  547.55   28.50
   2  -6   1  567.84   33.70
  -2  -6  -1  568.54   29.00
  -2   6  -1  585.64   29.70
   2   6   1  563.74   27.70
  -2   6  -1  521.45   29.40
  -2   6  -1  578.14   29.10
   2   6   1  532.15   28.20
  -4  -6  -1  541.55   27.20
   4  -6   1  521.75   32.20
   4  -6   1  578.54   29.30
   4  -6   1  523.55   27.00
  -4   6  -1  510.25   27.90
  -4   6  -1  515.75   28.90
   4   6   1  497.75   25.20
   4   6   1  503.85   25.80
  -4   6  -1  539.35   27.90
   6  -6   1   37.80    8.20
   6  -6   1   22.60    4.50
  -6  -6  -1   29.00    4.80
   6  -6   1   22.60    5.90
  -6   6  -1   28.40    6.10
  -6   6  -1   29.20    5.50
  -6   6  -1   37.80    7.00
   6   6   1   26.60    2.90
   6   6   1   24.60    3.20
   8  -6   1   67.79   11.30
  -8  -6  -1   78.09    7.50
   8  -6   1   65.59    9.80
  -8  -6  -1   80.99   11.80
  -8   6  -1   69.79    9.90
  -8   6  -1   73.59    8.10
  -8   6  -1   64.49    8.90
  10  -6   1   32.10    8.50
 -10  -6  -1   25.40    3.70
 -10  -6  -1   28.60    5.70
 -10   6  -1   26.80    7.30
 -10   6  -1   25.60    6.50
 -10   6  -1   33.80    6.60
  10   6   1   22.00    3.60
 -12  -6  -1   19.70    5.40
 -12  -6  -1   11.90    3.70
  12  -6   1    5.80    7.00
 -12   6  -1   28.40    7.00
 -12   6  -1   10.30    7.40
  12   6   1   19.70    4.70
 -12   6  -1   18.20    6.10
 -14  -6  -1   38.60    6.40
  14  -6   1   58.39   12.80
 -14  -6  -1   40.80    8.20
 -14   6  -1   51.69   11.10
  14   6   1   19.20    6.90
 -14   6  -1   46.10    9.60
 -15  -7   1  357.86   19.80
  15  -7  -1  328.37   27.40
 -15  -7   1  376.96   23.00
 -15   7   1  425.26   26.00
 -15   7   1  395.06   27.40
 -13  -7   1  610.74   33.00
  13  -7  -1  572.74   37.80
 -13   7   1  627.34   37.20
 -13   7   1  703.43   35.90
 -11  -7   1  225.38   14.90
  11  -7  -1  220.48   19.90
 -11   7   1  250.97   16.90
 -11   7   1  267.37   18.60
  -9  -7   1  279.47   16.90
   9  -7  -1  285.97   22.10
   9  -7  -1  312.07   21.70
  -9   7   1  295.07   18.40
  -9   7   1  303.07   19.80
   7  -7  -1 1677.03   87.89
  -7  -7   1 1739.03   82.19
   7  -7  -1 1934.91   86.69
  -7   7   1 1803.32   84.79
  -7   7   1 1941.31   83.89
  -7   7   1 1563.14   84.29
   5  -7  -1 1504.15   70.69
  -5  -7   1 1421.06   68.19
   5  -7  -1 1487.25   70.09
   5  -7  -1 1364.56   73.19
  -5   7   1 1518.55   68.99
  -5   7   1 1407.86   70.39
  -5   7   1 1495.15   69.49
   3  -7  -1 1033.20   48.40
   3  -7  -1 1061.09   47.90
   3  -7  -1  955.70   51.39
  -3  -7   1  961.50   47.00
  -3  -7   1  955.30   46.60
  -3  -7   1 1036.10   53.19
   3   7  -1  911.81   45.20
  -3   7   1 1031.60   46.90
  -3   7   1 1005.70   46.80
  -3   7   1  907.91   48.30
   3   7  -1  840.52   44.80
   1  -7  -1 1041.30   54.49
   1  -7  -1 1067.49   49.50
   1  -7  -1 1054.19   51.59
  -1  -7   1 1130.09   49.60
   1  -7  -1 1038.40   51.49
  -1  -7   1 1073.69   50.39
  -1  -7   1 1113.59   57.29
   1   7  -1 1007.10   49.60
   1   7  -1  991.70   49.50
  -1   7   1 1017.00   49.90
   1   7  -1 1083.19   50.49
  -1   7   1 1057.09   51.59
  -1   7   1 1030.20   49.10
   1  -7   1  903.61   41.80
   1  -7   1  946.01   42.10
  -1  -7  -1  834.02   42.10
   1  -7   1  832.52   47.50
  -1   7  -1  809.92   42.20
   1   7   1  830.42   40.50
   1   7   1  817.62   41.70
  -1   7  -1  898.61   41.70
  -1   7  -1  763.82   41.80
  -3  -7  -1 1144.79   56.49
   3  -7   1 1166.58   62.79
   3  -7   1 1282.87   57.89
   3  -7   1 1249.38   56.59
   3   7   1 1198.48   54.69
  -3   7  -1 1143.49   57.29
  -3   7  -1 1135.79   57.79
   3   7   1 1095.29   55.19
  -3   7  -1 1187.08   56.89
  -5  -7  -1  745.63   37.90
   5  -7   1  836.12   40.60
   5  -7   1  743.33   38.00
   5  -7   1  745.13   44.00
  -5   7  -1  758.12   40.20
  -5   7  -1  678.63   38.70
   5   7   1  782.22   35.40
  -5   7  -1  801.22   39.20
   5   7   1  698.33   35.70
   7  -7   1  983.90   51.59
   7  -7   1  946.91   54.59
  -7  -7  -1  948.31   48.30
  -7   7  -1 1015.10   51.89
  -7   7  -1 1022.70   50.29
  -9  -7  -1  702.53   37.60
   9  -7   1  691.43   44.00
  -9   7  -1  794.62   40.30
  -9   7  -1  754.42   41.80
  -9   7  -1  706.43   40.20
  11  -7   1  129.69   16.50
 -11  -7  -1  121.49   11.30
 -11   7  -1  135.49   13.40
 -11   7  -1  116.29   14.10
  13  -7   1  189.28   21.50
 -13  -7  -1  206.48   16.80
 -13   7  -1  199.38   18.50
 -13   7  -1  255.07   21.00
  14  -8  -1  411.46   31.70
 -14  -8   1  446.46   25.80
 -14   8   1  430.86   29.70
 -14   8   1  460.25   28.30
  12  -8  -1  665.03   42.30
 -12  -8   1  600.64   35.10
 -12   8   1  731.93   40.10
 -12   8   1  754.02   38.40
 -10  -8   1 1311.97   64.49
  10  -8  -1 1232.08   70.79
 -10   8   1 1383.66   68.19
 -10   8   1 1477.45   66.99
   8  -8  -1 1942.01  100.79
   8  -8  -1 1918.01   97.89
  -8  -8   1 1967.50   94.19
  -8   8   1 2183.18   96.09
  -8   8   1 2151.88   97.29
  -6  -8   1 1287.97   62.39
   6  -8  -1 1306.97   64.89
   6  -8  -1 1217.38   67.99
  -6   8   1 1350.36   63.09
  -6   8   1 1372.06   63.99
  -4  -8   1 1210.88   60.89
   4  -8  -1 1299.77   62.29
   4  -8  -1 1350.86   67.69
  -4  -8   1 1408.66   68.99
  -4  -8   1 1274.47   61.39
   4   8  -1 1219.48   58.29
  -4   8   1 1341.87   61.49
   4   8  -1 1182.18   58.09
  -4   8   1 1391.76   61.49
  -4   8   1 1174.98   62.79
  -2  -8   1 2331.07  107.89
   2  -8  -1 2341.87  109.39
  -2  -8   1 2441.66  115.89
   2  -8  -1 2421.46  113.79
  -2  -8   1 2355.76  105.29
   2  -8  -1 2322.07  107.29
  -2   8   1 2419.56  107.39
   2   8  -1 2240.28  106.89
   2   8  -1 2281.77  106.39
  -2   8   1 2287.57  109.49
   0  -8   1 2299.67  116.19
   0  -8  -1 2384.96  114.19
   0  -8   1 2468.15  108.19
   0  -8   1 2365.66  108.99
   0  -8  -1 2269.87  109.79
   0   8   1 2265.47  109.49
   0   8   1 2408.86  107.79
   0   8   1 2375.26  106.09
   0   8  -1 2305.07  109.29
   0   8  -1 2475.05  108.49
   2  -8   1 2573.94  121.49
   2  -8   1 2505.85  128.59
   2  -8   1 2712.93  121.99
  -2  -8  -1 2609.64  122.19
   2   8   1 2623.04  121.09
  -2   8  -1 2861.81  121.99
   2   8   1 2727.03  119.79
  -2   8  -1 2657.33  122.79
  -2   8  -1 2521.55  122.39
  -4  -8  -1 2223.28  103.29
   4  -8   1 2154.98  110.49
   4  -8   1 2200.88  104.29
   4   8   1 2374.86  100.29
  -4   8  -1 2254.77  105.19
  -4   8  -1 2396.56  104.09
  -4   8  -1 2085.39  103.99
   4   8   1 2040.90  100.79
  -6  -8  -1  747.23   40.80
   6  -8   1  782.62   43.20
   6  -8   1  786.42   47.70
  -6   8  -1  920.51   43.10
   6   8   1  754.42   37.30
   6   8   1  855.91   37.20
  -6   8  -1  819.92   43.90
   8  -8   1  637.74   44.10
  -8  -8  -1  709.83   38.20
  -8   8  -1  772.12   40.50
  -8   8  -1  823.52   42.50
  10  -8   1 1019.50   61.79
 -10  -8  -1  994.20   54.19
 -10   8  -1 1167.08   59.59
 -10   8  -1 1192.28   57.79
 -12  -8  -1  749.33   41.20
  12  -8   1  753.62   48.30
 -12   8  -1  729.23   45.50
 -12   8  -1  852.61   44.80
 -13  -9   1   84.79   10.80
  13  -9  -1   74.99   15.30
 -13   9   1   80.99   11.40
 -13   9   1  106.59   13.60
 -11  -9   1  152.98   12.90
  11  -9  -1  177.58   19.90
 -11   9   1  159.98   15.40
 -11   9   1  174.08   14.50
   9  -9  -1  162.58   18.40
  -9  -9   1  150.98   12.30
  -9   9   1  151.88   13.20
  -9   9   1  159.88   14.00
  -7  -9   1   67.69   12.00
   7  -9  -1   89.69   11.50
   7  -9  -1   54.19   12.00
  -7  -9   1   63.99    8.00
  -7   9   1   78.79    9.10
  -7   9   1   83.09    8.40
  -5  -9   1  260.87   17.50
   5  -9  -1  289.27   22.80
   5  -9  -1  248.68   18.30
  -5  -9   1  266.17   23.30
  -5   9   1  333.97   18.80
   3  -9  -1  262.47   21.30
  -3  -9   1  224.98   20.50
  -3  -9   1  222.08   15.80
   3  -9  -1  240.18   15.40
  -3  -9   1  233.58   15.90
  -3   9   1  242.28   18.20
  -3   9   1  234.78   15.00
   3   9  -1  212.88   13.00
   3   9  -1  215.18   13.50
  -3   9   1  263.37   15.20
  -1  -9   1  128.69   15.30
   1  -9  -1  128.09    9.00
   1  -9  -1  143.49   14.90
  -1  -9   1  117.69    8.70
  -1  -9   1  136.69   11.40
   1   9  -1  110.19   10.80
  -1   9   1  125.39   12.50
  -1   9   1  130.69    9.00
  -1   9   1  135.89    9.70
   1   9  -1  136.19    9.70
   1  -9   1  233.88   21.20
  -1  -9  -1  210.48   15.20
  -1  -9  -1  204.58   18.50
   1  -9   1  210.88   14.00
  -1   9  -1  198.48   14.60
  -1   9  -1  196.68   15.80
  -1   9  -1  225.58   14.40
   1   9   1  229.78   13.20
   1   9   1  226.58   15.40
   3  -9   1  145.59   16.60
  -3  -9  -1  115.79   10.40
   3  -9   1   96.59   10.30
   3   9   1  108.99    7.80
  -3   9  -1  107.49   10.90
  -3   9  -1  121.89   10.30
  -3   9  -1  107.19   12.10
   3   9   1   97.39    9.30
   5  -9   1  155.28   17.80
   5  -9   1  139.99   14.20
  -5  -9  -1  163.18   12.80
   5   9   1  143.89    9.70
  -5   9  -1  165.98   14.40
   5   9   1  159.38    9.10
  -5   9  -1  194.08   13.90
   7  -9   1  180.98   19.90
  -7  -9  -1  178.98   14.00
  -7   9  -1  182.98   16.10
  -7   9  -1  199.48   15.60
  -9  -9  -1   69.59    9.60
   9  -9   1   56.19   13.50
  -9   9  -1   74.79   10.70
  -9   9  -1   81.79   12.30
  11  -9   1   71.89   15.70
 -11  -9  -1   70.79   10.30
 -11   9  -1   71.99   11.30
 -11   9  -1   90.49   13.90
 -10 -10   1  142.79   18.90
  10 -10  -1  134.59   18.50
 -10 -10   1  156.68   13.20
 -10  10   1  115.59   12.50
 -10  10   1  149.99   14.70
   8 -10  -1  493.45   35.20
  -8 -10   1  493.25   35.60
  -8 -10   1  464.95   28.00
  -8  10   1  521.65   29.00
  -8  10   1  491.75   29.50
   6 -10  -1  461.65   30.40
   6 -10  -1  491.35   35.60
  -6 -10   1  502.95   29.40
  -6 -10   1  549.15   36.90
  -6  10   1  576.54   29.50
  -6  10   1  547.55   30.10
   4 -10  -1  155.58   13.40
  -4 -10   1  160.58   18.40
   4 -10  -1  165.78   18.40
  -4 -10   1  173.08   13.70
   2 -10  -1  236.78   15.20
  -2 -10   1  225.88   23.20
   2 -10  -1  263.87   22.80
  -2  10   1  225.58   19.00
  -2  10   1  246.38   15.40
   2  10  -1  245.18   14.60
   2  10  -1  246.58   15.80
  -2  10   1  248.28   15.30
   0 -10   1  566.74   30.10
   0 -10   1  598.44   40.10
   0 -10  -1  538.15   37.70
   0  10   1  647.24   30.80
   0  10  -1  652.43   31.70
   0  10   1  570.44   33.10
   0  10  -1  574.74   32.80
   2 -10   1  428.96   33.40
   2 -10   1  441.36   25.60
  -2 -10  -1  428.06   26.60
  -2 -10  -1  397.96   30.50
  -2  10  -1  404.76   27.40
  -2  10  -1  460.15   26.70
   2  10   1  425.26   25.50
   2  10   1  497.75   23.80
  -2  10  -1  531.15   26.50
   4 -10   1  234.98   18.30
  -4 -10  -1  243.18   17.70
   4 -10   1  277.07   25.20
  -4  10  -1  271.27   18.10
   4  10   1  232.78   15.00
   4  10   1  262.17   14.10
  -4  10  -1  277.67   19.40
  -6 -10  -1  209.78   16.40
   6 -10   1  195.78   22.40
  -6  10  -1  227.48   18.60
  -6  10  -1  242.68   17.60
  -8 -10  -1  183.58   15.60
   8 -10   1  167.18   23.60
  -8  10  -1  210.58   18.60
  -8  10  -1  211.38   17.20
  10 -10   1  163.68   22.50
 -10 -10  -1  175.88   16.20
 -10  10  -1  204.18   19.80
 -10  10  -1  191.78   17.70
  -9 -11   1 1214.78   58.79
   9 -11  -1 1096.39   66.19
  -9 -11   1 1057.09   66.69
  -9  11   1 1174.58   60.69
  -9  11   1 1192.08   59.19
   7 -11  -1 1270.67   73.99
  -7 -11   1 1303.47   74.99
  -7 -11   1 1317.27   65.99
  -7  11   1 1376.16   66.99
  -7  11   1 1328.77   65.59
  -5 -11   1  992.40   58.69
   5 -11  -1  801.12   47.70
   5 -11  -1  893.11   55.79
  -5  11   1 1003.40   47.70
  -5  11   1  962.20   48.40
   3 -11  -1 1181.58   61.39
   3 -11  -1 1259.47   71.49
  -3 -11   1 1296.47   73.79
  -3  11   1 1340.47   62.09
   3  11  -1 1200.88   58.79
  -3  11   1 1397.46   62.49
  -1 -11   1 1429.86   81.29
   1 -11  -1 1459.25   80.59
   1  11  -1 1348.27   70.49
  -1  11   1 1630.44   70.39
   1  11  -1 1478.45   69.59
  -1  11   1 1464.75   75.09
   1 -11   1  871.31   55.39
  -1 -11  -1  954.30   54.69
   1 -11   1  825.32   44.00
   1  11   1  827.22   45.90
   1  11   1  955.60   43.60
  -1  11  -1  958.00   45.50
  -1  11  -1  824.02   46.90
  -3 -11  -1 1052.09   62.59
   3 -11   1 1123.19   65.89
  -3 -11  -1 1125.39   56.69
   3 -11   1  952.10   54.39
  -3  11  -1 1154.98   55.49
  -3  11  -1 1146.39   56.79
   3  11   1 1106.09   51.39
   5 -11   1 1061.39   64.89
  -5 -11  -1 1047.30   56.19
  -5  11  -1 1130.29   56.39
  -5  11  -1 1123.29   58.09
  -7 -11  -1  716.33   39.20
   7 -11   1  567.84   46.00
  -7  11  -1  727.83   41.90
  -7  11  -1  732.63   39.80
   4 -12  -1  258.97   27.00
  -4 -12   1  216.28   29.60
  -4  12   1  277.27   19.30
  -4  12   1  293.37   18.80
   2 -12  -1  306.27   28.10
  -2 -12   1  275.07   29.00
  -2  12   1  289.27   18.40
   2  12  -1  269.47   16.60
   0 -12   1  272.87   28.00
   0 -12  -1  229.88   26.10
   0  12   1  259.67   16.60
  -2 -12  -1  136.89   21.10
   2 -12   1  129.29   21.70
  -2  12  -1  193.58   15.10
   2  12   1  162.98   11.90
 -20   0   2  877.61   46.20
 -20   0   2  835.32   48.90
 -18   0   2  697.73   41.10
 -18   0   2  716.43   37.60
 -18   0   2  704.93   37.30
 -16   0   2  706.23   37.30
 -16   0   2  748.83   37.50
 -16   0   2  739.03   41.60
 -14   0   2 1923.61   90.09
 -14   0   2 1943.61   89.89
  14   0  -2 2038.20   96.39
 -14   0   2 1902.11   94.49
  14   0  -2 1943.21   88.69
  12   0  -2 1214.08   56.89
  12   0  -2 1276.77   62.89
 -12   0   2 1184.58   61.79
 -12   0   2 1207.48   57.49
 -12   0   2 1292.77   57.89
 -10   0   2 2088.69  101.49
 -10   0   2 2202.48  105.39
  10   0  -2 2274.67  101.29
  10   0  -2 2367.86  106.19
 -10   0   2 2339.87  101.89
   8   0  -2 5401.16  236.18
  -8   0   2 5099.49  235.58
  -8   0   2 5651.23  232.68
  -8   0   2 4836.42  232.78
  -6   0   2 2708.33  117.39
  -6   0   2 2439.96  116.79
   6   0  -2 2759.52  119.69
  -6   0   2 2649.24  119.39
   4   0   2 9159.78  406.86
   6   0   2 3691.63  160.08
  -6   0  -2 3551.54  157.88
   6   0   2 3437.06  156.68
  -6   0  -2 3391.46  159.28
   6   0   2 3465.75  159.58
  -6   0  -2 3476.95  159.58
  -8   0  -2 2364.76  112.79
   8   0   2 2259.17  109.09
   8   0   2 2596.94  114.49
   8   0   2 2391.06  112.69
  -8   0  -2 2463.75  112.79
  -8   0  -2 2413.56  110.79
 -10   0  -2 1643.14   80.99
  10   0   2 1713.63   79.09
  10   0   2 1706.73   83.09
 -10   0  -2 1657.73   83.29
 -10   0  -2 1734.23   83.09
  10   0   2 1845.42   85.49
 -12   0  -2 1038.80   54.79
 -12   0  -2 1058.39   55.59
  12   0   2 1034.10   54.79
  12   0   2 1066.09   50.79
 -12   0  -2 1060.79   53.09
 -14   0  -2  648.94   36.90
 -14   0  -2  659.93   39.80
  14   0   2  692.73   34.80
  14   0   2  630.24   38.30
 -16   0  -2  488.95   31.00
 -16   0  -2  483.15   33.60
 -19  -1   2    5.20    5.80
 -19  -1   2   17.00    7.80
 -19  -1   2    6.90    5.00
 -19   1   2   -0.60    4.70
 -19   1   2   11.10    6.30
 -19   1   2   12.80    6.30
 -17  -1   2   70.69   10.90
 -17  -1   2   56.49    7.90
  17  -1  -2   67.49    8.00
 -17  -1   2   64.29    9.00
 -17   1   2   68.69    8.60
 -17   1   2   75.89   11.60
 -17   1   2   68.09    8.20
  15  -1  -2  526.75   27.80
 -15  -1   2  515.75   31.40
 -15  -1   2  523.95   27.50
 -15  -1   2  516.55   28.60
 -15   1   2  535.45   28.30
 -15   1   2  552.74   27.90
  15   1  -2  521.55   32.70
 -15   1   2  552.64   32.60
 -13  -1   2  453.45   27.80
 -13  -1   2  506.55   25.00
  13  -1  -2  453.35   24.20
 -13  -1   2  462.65   23.60
  13  -1  -2  510.45   30.40
 -13   1   2  438.06   24.10
 -13   1   2  441.26   28.20
  13   1  -2  435.26   27.70
 -13   1   2  481.75   24.10
  11  -1  -2  342.87   17.70
 -11  -1   2  314.87   20.60
 -11  -1   2  338.37   18.40
  11  -1  -2  325.37   18.10
  11  -1  -2  403.06   23.40
 -11  -1   2  329.37   17.20
 -11   1   2  375.26   17.90
 -11   1   2  316.07   17.80
  11   1  -2  353.76   21.20
 -11   1   2  321.87   21.40
   9  -1  -2 1248.78   60.19
  -9  -1   2 1241.88   62.29
  -9  -1   2 1231.18   59.09
   9  -1  -2 1350.06   59.49
   9  -1  -2 1441.86   64.69
  -9  -1   2 1367.76   60.49
  -9   1   2 1238.48   60.09
  -9   1   2 1441.16   59.69
  -9   1   2 1174.38   62.79
   9   1  -2 1349.47   62.59
   7  -1  -2 1952.10   86.99
   7  -1  -2 2050.09   89.89
  -7  -1   2 1885.61   88.19
  -7  -1   2 1786.12   85.69
   7  -1  -2 1978.30   85.79
  -7   1   2 2108.49   85.89
   7   1  -2 1843.32   88.09
  -7   1   2 1799.22   86.69
  -5  -1   2  940.41   43.70
   5  -1  -2  967.20   42.00
  -5   1   2  944.71   44.30
   5   1  -2  947.51   43.70
  -5   1   2  893.51   42.80
   3   1  -2 3523.95  157.18
   1  -1  -2 2248.18   97.89
  -1  -1   2 2205.58   97.39
   1  -1  -2 2232.78   98.39
  -1  -1   2 2116.49   98.69
  -1  -1   2 2245.18   98.29
   1   1  -2 2126.59   98.69
   1   1  -2 2191.98   97.49
  -1   1   2 2129.79   97.89
  -1   1   2 2195.18   98.29
   1  -1   2  102.79    7.60
   1  -1   2  119.99    6.60
  -1  -1  -2  119.29    6.90
  -1  -1  -2  115.19    6.90
  -1  -1  -2  111.79    7.60
   1   1   2  120.59    6.90
  -1   1  -2  108.49    7.60
   1   1   2  131.29    7.00
   1   1   2  121.09    7.70
  -1   1  -2  110.39    6.70
   3  -1   2  929.11   42.40
   3  -1   2  790.72   39.90
  -3  -1  -2  896.81   41.00
  -3  -1  -2  896.21   40.70
  -3   1  -2  801.32   41.60
   3   1   2  879.61   40.70
  -3   1  -2  896.41   40.70
   3   1   2  853.61   41.80
  -3   1  -2  876.21   42.00
   3   1   2  840.92   40.20
  -5  -1  -2 1774.32   76.89
   5  -1   2 1613.24   75.19
   5  -1   2 1738.03   77.89
  -5  -1  -2 1655.93   75.99
  -5  -1  -2 1638.04   77.89
   5  -1   2 1591.84   77.79
   5   1   2 1577.64   75.09
   5   1   2 1671.73   77.09
  -5   1  -2 1630.84   76.29
  -5   1  -2 1621.04   77.59
   5   1   2 1694.33   77.89
  -7  -1  -2  548.25   29.40
   7  -1   2  520.25   26.30
  -7  -1  -2  545.45   28.30
  -7  -1  -2  551.94   27.40
   7  -1   2  550.84   29.40
   7  -1   2  573.44   30.50
  -7   1  -2  568.44   29.40
  -7   1  -2  544.65   27.70
   7   1   2  500.15   25.90
   7   1   2  506.45   29.30
   7   1   2  548.85   29.20
  -7   1  -2  453.85   28.90
   9  -1   2  847.02   42.70
  -9  -1  -2  876.81   45.60
  -9  -1  -2  933.41   46.90
   9  -1   2 1021.20   49.10
   9  -1   2  882.31   46.50
  -9  -1  -2  907.81   44.30
   9   1   2  933.51   47.50
  -9   1  -2  911.31   44.90
  -9   1  -2  896.21   46.20
   9   1   2  879.41   46.20
   9   1   2  882.41   42.50
  -9   1  -2  803.52   46.60
  11  -1   2  511.55   30.70
 -11  -1  -2  547.95   29.00
 -11  -1  -2  534.85   31.60
 -11  -1  -2  536.05   30.50
  11  -1   2  530.65   27.30
 -11   1  -2  527.75   29.30
  11   1   2  486.35   30.10
 -11   1  -2  537.45   30.80
 -11   1  -2  459.05   30.90
  11   1   2  535.65   26.60
  11   1   2  528.25   32.20
  13  -1   2  207.68   17.70
 -13  -1  -2  217.68   17.20
 -13  -1  -2  188.68   15.20
  13  -1   2  207.88   14.80
 -13  -1  -2  214.88   19.20
  13   1   2  210.38   13.80
 -13   1  -2  206.88   16.10
 -13   1  -2  208.38   18.10
 -13   1  -2  196.88   18.10
  15  -1   2  205.48   19.10
 -15  -1  -2  202.08   17.10
 -15  -1  -2  243.88   19.90
  15   1   2  257.27   16.40
 -15   1  -2  210.68   17.80
 -15   1  -2  224.88   20.80
 -17  -1  -2  148.59   17.90
 -17  -1  -2  131.19   15.20
 -17   1  -2  105.39   17.20
 -17   1  -2  137.79   15.50
 -20  -2   2   61.89   10.50
 -20  -2   2   48.10    8.90
 -20   2   2   51.19   11.00
 -20   2   2   56.39    9.70
  18  -2  -2   51.79    9.00
 -18  -2   2   25.10    8.20
 -18  -2   2   33.30    6.40
 -18  -2   2   39.10    7.80
 -18   2   2   39.30    8.90
 -18   2   2   37.10    6.60
 -18   2   2   33.90    7.40
  16  -2  -2  148.59   12.60
 -16  -2   2  163.48   13.70
 -16  -2   2  146.89   11.10
 -16  -2   2  168.68   14.10
 -16   2   2  140.29   14.40
 -16   2   2  135.89   11.60
 -16   2   2  151.78   11.40
  16   2  -2  146.49   17.70
  14  -2  -2  483.75   26.30
 -14  -2   2  473.45   28.20
 -14  -2   2  504.25   26.90
 -14  -2   2  472.95   24.70
  14  -2  -2  502.15   25.50
 -14   2   2  474.85   25.90
  14   2  -2  454.45   28.60
 -14   2   2  448.26   29.40
 -14   2   2  501.85   25.20
 -12  -2   2  387.86   19.80
  12  -2  -2  377.16   21.60
 -12  -2   2  415.96   22.30
 -12  -2   2  370.86   23.40
  12  -2  -2  440.66   27.00
  12  -2  -2  390.16   20.70
  12   2  -2  396.66   23.30
 -12   2   2  408.16   20.70
 -12   2   2  389.96   21.20
 -12   2   2  370.26   24.70
  10  -2  -2  928.51   44.80
 -10  -2   2  871.61   40.50
 -10  -2   2  808.92   41.30
 -10  -2   2  819.32   37.80
  10  -2  -2  765.32   39.80
  10  -2  -2  834.62   39.00
 -10   2   2  744.53   42.50
 -10   2   2  884.91   39.00
 -10   2   2  794.12   39.40
  10   2  -2  766.92   40.60
   8  -2  -2 1129.69   49.90
   8  -2  -2 1237.68   54.59
  -8  -2   2 1082.39   51.29
  -8  -2   2 1057.99   48.40
   8  -2  -2 1033.60   50.59
  -8   2   2 1076.39   49.70
  -8   2   2 1010.90   52.59
   8   2  -2 1087.29   50.99
  -8   2   2 1004.90   50.19
   6  -2  -2  749.73   34.60
   6  -2  -2  715.73   35.00
   6  -2  -2  785.42   37.20
  -6  -2   2  743.63   35.00
   6   2  -2  736.83   34.90
  -6   2   2  722.73   36.20
  -6   2   2  694.73   34.50
  -4  -2   2 1796.22   81.49
   4  -2  -2 1853.81   80.89
  -4   2   2 1716.53   79.59
  -4   2   2 1705.53   80.39
  -4   2   2 1752.72   80.29
  -2  -2   2  144.19    7.50
  -2  -2   2  143.29    9.80
   2  -2  -2  155.88    8.60
  -2  -2   2  156.68    8.40
   2   2  -2  155.58    9.70
   2   2  -2  151.38    7.40
   2   2  -2  156.38    7.50
  -2   2   2  149.88    8.40
  -2   2   2  152.38    8.70
   0  -2  -2   74.39    5.00
   0  -2   2   70.09    4.40
   0  -2   2   85.29    6.60
   0  -2   2   82.69    5.20
   0  -2  -2   83.89    6.00
   0   2   2   64.19    4.80
   0   2  -2   62.99    5.20
   0   2  -2   70.19    5.90
   0   2  -2   72.19    4.60
  -2  -2  -2  701.93   35.40
   2  -2   2  728.03   34.50
  -2  -2  -2  712.93   33.60
  -2  -2  -2  742.13   34.10
   2  -2   2  704.03   35.90
   2   2   2  722.23   33.80
   2   2   2  719.83   33.40
  -2   2  -2  727.63   34.10
  -2   2  -2  678.53   35.20
  -2   2  -2  737.33   35.60
   4  -2   2  295.07   17.40
  -4  -2  -2  301.97   15.50
  -4  -2  -2  307.37   15.40
   4  -2   2  283.47   14.80
  -4  -2  -2  309.97   17.40
  -4   2  -2  278.67   16.90
   4   2   2  290.47   14.90
   4   2   2  278.47   15.30
  -4   2  -2  282.97   15.70
  -4   2  -2  228.88   16.40
   6  -2   2  416.36   21.10
   6  -2   2  422.46   24.20
  -6  -2  -2  427.96   22.10
   6  -2   2  456.75   24.70
  -6  -2  -2  430.06   24.30
  -6  -2  -2  400.56   21.80
   6   2   2  432.66   23.30
  -6   2  -2  423.16   22.50
  -6   2  -2  412.66   23.70
   6   2   2  426.16   21.00
  -6   2  -2  354.06   23.70
  -8  -2  -2  182.78   11.40
  -8  -2  -2  176.38   11.70
  -8  -2  -2  159.68   13.30
   8  -2   2  182.48   14.40
   8  -2   2  163.18   10.40
   8  -2   2  147.79   12.80
  -8   2  -2  120.19   12.30
  -8   2  -2  158.98   11.60
  -8   2  -2  177.58   13.10
   8   2   2  158.98    9.70
   8   2   2  172.48   13.10
 -10  -2  -2   96.99   11.70
 -10  -2  -2   86.89    8.70
  10  -2   2   89.79    7.80
  10  -2   2   83.59   11.30
 -10  -2  -2   89.79    8.20
  10  -2   2   90.19   10.00
 -10   2  -2   90.19    9.00
 -10   2  -2   68.79    9.60
 -10   2  -2   89.29   10.60
  10   2   2   81.19    6.80
  10   2   2   88.79   10.80
 -12  -2  -2  278.37   18.30
 -12  -2  -2  227.98   16.50
  12  -2   2  245.18   19.40
 -12  -2  -2  242.78   20.10
 -12   2  -2  234.78   19.50
  12   2   2  272.37   20.60
 -12   2  -2  239.28   17.80
 -12   2  -2  257.07   20.20
  12   2   2  248.38   14.60
 -14  -2  -2  166.58   14.30
  14  -2   2  145.99   16.10
 -14  -2  -2  169.28   15.50
  14   2   2  185.08   12.80
 -14   2  -2  187.58   21.60
 -14   2  -2  187.58   16.00
 -14   2  -2  180.28   18.10
 -16  -2  -2   77.29   12.10
 -16  -2  -2   58.29   10.10
  16  -2   2   60.39   12.50
 -16   2  -2   71.69   13.60
 -16   2  -2   54.69   10.10
 -19  -3   2  418.96   25.30
 -19  -3   2  415.06   26.90
 -19  -3   2  421.06   39.00
 -19   3   2  422.46   27.20
 -19   3   2  424.06   29.80
 -17  -3   2  611.04   31.70
  17  -3  -2  622.94   33.90
  17  -3  -2  532.75   31.40
 -17  -3   2  545.45   34.40
 -17  -3   2  608.54   33.90
 -17   3   2  603.04   31.40
 -17   3   2  648.14   33.80
 -17   3   2  620.74   37.00
  15  -3  -2 1167.08   58.89
  15  -3  -2 1189.48   60.19
 -15  -3   2 1243.88   61.49
 -15  -3   2 1297.47   61.59
 -15  -3   2 1261.07   58.29
 -15   3   2 1287.57   60.19
  15   3  -2 1122.29   61.29
 -15   3   2 1240.68   64.09
 -15   3   2 1240.58   58.69
 -13  -3   2 1836.12   81.19
  13  -3  -2 1752.42   83.59
 -13  -3   2 1777.12   84.49
  13  -3  -2 1709.63   82.39
 -13  -3   2 1811.92   84.49
  13   3  -2 1641.14   83.79
 -13   3   2 1770.12   87.09
 -13   3   2 1826.92   83.09
 -13   3   2 1803.32   82.19
 -11  -3   2 2103.99   92.59
 -11  -3   2 1906.61   92.19
  11  -3  -2 2052.49   96.59
 -11  -3   2 1964.40   88.89
  11  -3  -2 1920.61   91.59
  11  -3  -2 1966.60   90.89
 -11   3   2 2029.70   90.99
  11   3  -2 1879.51   91.29
 -11   3   2 2008.00   90.39
 -11   3   2 1856.31   94.69
   9  -3  -2 1741.43   81.49
   9  -3  -2 1770.62   77.39
   9  -3  -2 1489.05   77.39
  -9  -3   2 1730.73   74.79
  -9  -3   2 1640.94   77.49
  -9   3   2 1659.73   77.09
   9   3  -2 1637.94   76.99
  -7  -3   2 3514.35  157.88
   7  -3  -2 3607.04  158.88
   7  -3  -2 3548.15  158.78
  -7  -3   2 3524.75  155.68
   7  -3  -2 3770.62  161.58
  -7   3   2 3347.47  160.08
  -7   3   2 3340.17  158.08
   5  -3  -2 7130.39  307.47
  -5  -3   2 6793.42  304.97
   5  -3  -2 6789.32  306.17
   5  -3  -2 7044.40  306.27
  -5   3   2 6640.74  306.37
  -3  -3   2 5110.69  245.98
   3  -3  -2 5497.35  243.48
   3  -3  -2 5589.74  243.58
  -3  -3   2 5561.74  241.88
  -3   3   2 5554.54  243.88
  -1  -3   2 1958.90   96.09
   1  -3  -2 2182.68   97.59
  -1  -3   2 2154.18   96.99
  -1  -3   2 2141.39  100.49
  -1   3   2 2095.39   97.59
  -1   3   2 2183.88   97.09
  -1   3   2 2255.57   96.69
   1   3  -2 2225.48   96.89
   1   3  -2 2218.78   97.79
   1   3  -2 2102.99   96.49
   1   3  -2 2198.58   99.39
   1  -3   2 3661.33  170.38
   1  -3   2 3763.52  171.28
  -1  -3  -2 3862.71  171.38
   1  -3   2 4312.47  175.08
  -1   3  -2 3555.14  170.98
   1   3   2 3900.71  170.08
  -1   3  -2 4023.30  173.58
  -1   3  -2 3652.53  172.38
   1   3   2 3768.12  171.18
   3  -3   2 4086.69  183.48
   3  -3   2 3733.83  179.38
  -3  -3  -2 4303.97  180.48
   3  -3   2 4084.79  181.28
  -3  -3  -2 4067.39  182.58
  -3   3  -2 4330.47  182.78
  -3   3  -2 3997.70  180.58
   3   3   2 3944.51  179.08
  -3   3  -2 3439.86  181.58
   3   3   2 4274.47  179.98
   5  -3   2 1903.21   89.69
   5  -3   2 1723.53   85.39
  -5  -3  -2 1879.61   85.69
   5  -3   2 2035.40   88.89
  -5  -3  -2 1926.61   89.09
  -5  -3  -2 1886.41   86.39
  -5   3  -2 1897.01   88.49
   5   3   2 1915.61   85.49
   5   3   2 1856.91   86.49
  -5   3  -2 1797.52   86.99
  -7  -3  -2 1970.70   91.29
   7  -3   2 1806.02   86.89
  -7  -3  -2 1960.60   87.59
   7  -3   2 1808.32   90.89
  -7  -3  -2 1991.70   88.19
   7  -3   2 2070.09   91.99
   7   3   2 1937.71   86.29
  -7   3  -2 1592.74   90.39
  -7   3  -2 1842.92   88.79
  -7   3  -2 1950.60   90.29
   7   3   2 1955.50   88.89
   9  -3   2 2073.09   97.99
   9  -3   2 2275.57   99.89
   9  -3   2 1925.91   93.39
  -9  -3  -2 2111.69   98.29
  -9  -3  -2 2044.50   94.59
  -9  -3  -2 2063.59   94.39
   9   3   2 1874.31   91.89
  -9   3  -2 2007.50   96.69
   9   3   2 2158.08   96.19
  -9   3  -2 1815.62   97.99
  -9   3  -2 1998.20   95.79
  11  -3   2  628.04   35.70
 -11  -3  -2  560.44   32.10
 -11  -3  -2  582.34   32.10
 -11  -3  -2  612.24   36.30
  11   3   2  650.83   34.70
  11   3   2  596.64   29.40
 -11   3  -2  582.64   34.40
 -11   3  -2  598.34   36.60
 -11   3  -2  586.24   33.70
 -13  -3  -2  411.46   25.80
 -13  -3  -2  432.36   25.70
  13  -3   2  413.26   28.60
 -13   3  -2  439.46   28.30
 -13   3  -2  435.06   27.40
  13   3   2  373.36   27.60
 -13   3  -2  483.05   31.00
  13   3   2  432.96   22.40
 -15  -3  -2  542.75   32.20
  15  -3   2  492.55   34.50
 -15  -3  -2  543.55   32.80
 -15   3  -2  556.84   34.20
 -15   3  -2  553.94   37.20
 -18  -4   2  233.58   16.30
 -18  -4   2  240.68   17.40
  18  -4  -2  214.78   17.10
 -18   4   2  229.58   20.10
 -18   4   2  242.98   18.60
  16  -4  -2  359.16   22.60
 -16  -4   2  377.96   26.00
 -16  -4   2  375.56   21.60
 -16  -4   2  412.66   23.20
 -16   4   2  370.76   26.00
 -16   4   2  424.16   23.90
 -16   4   2  371.06   21.80
  16   4  -2  349.57   24.10
  14  -4  -2  627.74   32.40
  14  -4  -2  564.24   31.00
 -14  -4   2  550.34   32.70
 -14  -4   2  587.44   29.10
 -14  -4   2  598.94   31.00
  14   4  -2  490.65   30.60
 -14   4   2  615.54   31.20
 -14   4   2  566.14   29.80
 -14   4   2  541.65   33.80
 -12  -4   2  494.95   25.70
 -12  -4   2  491.05   23.50
  12  -4  -2  500.05   31.00
  12  -4  -2  448.66   25.70
 -12  -4   2  456.55   27.10
  12  -4  -2  483.05   26.60
 -12   4   2  487.25   25.50
  12   4  -2  410.86   24.70
 -12   4   2  419.06   27.70
 -10  -4   2 1025.20   49.70
  10  -4  -2 1150.98   55.09
 -10  -4   2 1043.30   47.50
  10  -4  -2 1038.40   50.79
  10  -4  -2  999.80   50.59
 -10   4   2  923.31   52.39
 -10   4   2 1037.90   49.60
  -8  -4   2 2410.86  104.99
   8  -4  -2 2381.96  108.79
   8  -4  -2 2342.57  108.29
   8  -4  -2 2557.04  111.59
  -8  -4   2 2271.27  106.39
  -8   4   2 2191.48  109.59
  -8   4   2 2304.47  107.29
   6  -4  -2  876.41   45.30
   6  -4  -2  865.41   43.80
  -6  -4   2  898.41   41.80
  -6  -4   2  930.91   41.10
   6  -4  -2  952.20   44.80
  -6  -4   2  951.60   41.00
  -6   4   2  876.01   44.60
  -6   4   2  891.01   44.20
  -6   4   2  877.11   43.10
   4  -4  -2 1496.35   67.49
  -4  -4   2 1500.55   65.09
   4  -4  -2 1385.16   66.89
  -4  -4   2 1499.85   64.99
  -4  -4   2 1481.35   70.29
  -4  -4   2 1361.96   64.49
  -4   4   2 1343.47   66.69
  -4   4   2 1533.55   67.69
  -4   4   2 1343.97   65.99
  -2  -4   2 2795.62  131.99
  -2  -4   2 2894.41  132.39
   2  -4  -2 3082.19  133.29
   2  -4  -2 2970.60  133.99
  -2  -4   2 3032.70  137.89
  -2   4   2 2871.31  132.89
  -2   4   2 3079.29  134.39
  -2   4   2 2835.92  132.99
   2   4  -2 2907.61  132.09
   2   4  -2 3195.88  132.49
   0  -4   2 1507.65   72.29
   0  -4  -2 1475.45   68.09
   0  -4   2 1471.45   67.49
   0  -4   2 1439.56   66.79
   0   4  -2 1534.05   70.39
   0   4   2 1515.35   68.19
   0   4  -2 1440.76   68.69
   0   4   2 1450.45   66.29
   0   4  -2 1416.26   67.39
   0   4  -2 1508.45   67.79
   2  -4   2 1346.37   64.39
  -2  -4  -2 1444.26   65.49
   2  -4   2 1521.05   66.09
   2  -4   2 1481.25   69.69
  -2   4  -2 1449.65   67.89
  -2   4  -2 1342.07   65.49
  -2   4  -2 1268.17   66.69
   2   4   2 1456.85   65.19
   2   4   2 1396.46   63.19
  -4  -4  -2 1150.88   54.89
   4  -4   2 1267.17   56.89
   4  -4   2 1088.19   53.99
   4  -4   2 1206.98   59.09
  -4  -4  -2 1205.68   57.89
   4   4   2 1192.08   54.19
  -4   4  -2 1172.98   55.79
   4   4   2 1183.78   53.59
  -4   4  -2 1167.48   57.29
  -4   4  -2 1014.00   56.69
   6  -4   2  674.63   35.20
   6  -4   2  810.92   39.60
   6  -4   2  776.72   40.50
  -6  -4  -2  720.83   36.10
  -6  -4  -2  728.93   39.30
  -6  -4  -2  740.53   34.90
  -6   4  -2  659.33   38.80
   6   4   2  712.53   34.70
  -6   4  -2  731.93   38.60
   6   4   2  743.83   35.50
  -6   4  -2  701.03   37.10
   8  -4   2  700.93   35.90
   8  -4   2  697.63   40.30
  -8  -4  -2  718.03   36.60
   8  -4   2  820.22   41.30
  -8  -4  -2  722.53   40.20
  -8  -4  -2  693.93   35.40
   8   4   2  730.13   36.40
  -8   4  -2  755.32   39.40
  -8   4  -2  686.43   40.10
  -8   4  -2  707.63   37.90
   8   4   2  712.53   34.30
 -10  -4  -2  796.02   45.80
 -10  -4  -2  830.02   41.80
  10  -4   2  818.62   45.70
 -10  -4  -2  858.41   41.10
 -10   4  -2  804.12   46.10
 -10   4  -2  806.92   44.30
  10   4   2  787.92   41.80
 -10   4  -2  822.62   43.60
  10   4   2  812.82   38.60
 -12  -4  -2  321.37   20.40
 -12  -4  -2  335.57   21.20
  12  -4   2  352.06   25.20
 -12   4  -2  345.77   23.20
 -12   4  -2  324.57   24.10
  12   4   2  301.27   21.80
  12   4   2  340.67   17.60
 -12   4  -2  354.66   25.70
  14  -4   2  146.79   17.20
 -14  -4  -2  166.38   13.90
 -14  -4  -2  141.49   13.60
 -14   4  -2  141.29   15.40
 -14   4  -2  137.89   17.10
  14   4   2  128.79   16.90
 -16  -4  -2  130.69   14.70
  16  -4   2  112.39   17.30
 -16  -4  -2  139.79   15.00
 -16   4  -2   99.99   16.90
 -16   4  -2   92.39   14.50
 -17  -5   2   27.50    5.90
  17  -5  -2   41.80    8.30
 -17  -5   2   37.30    7.00
 -17   5   2   29.60    7.00
  17   5  -2   30.30    8.70
 -17   5   2   24.40    7.20
 -15  -5   2  112.99    9.30
 -15  -5   2  123.99    9.70
 -15  -5   2  105.89   14.10
  15  -5  -2  106.59   11.60
 -15   5   2  105.09   12.30
 -15   5   2  114.49   10.60
  15   5  -2   82.99   10.50
  13  -5  -2  146.39   12.80
 -13  -5   2  136.49   13.80
 -13  -5   2  147.79    9.80
 -13  -5   2  146.59   10.10
 -13   5   2  128.59   10.90
 -13   5   2  116.19   12.50
  11  -5  -2  134.99   11.20
  11  -5  -2   95.29   10.60
 -11  -5   2  114.69    7.80
 -11  -5   2  131.29    8.60
  11  -5  -2  114.69   13.60
 -11   5   2   90.69   10.50
 -11   5   2  127.29    9.70
   9  -5  -2  306.07   18.80
  -9  -5   2  300.87   15.60
  -9  -5   2  304.97   16.30
   9  -5  -2  294.77   19.30
   9  -5  -2  326.17   21.40
  -9   5   2  309.87   19.90
  -9   5   2  286.57   17.30
  -7  -5   2  304.17   15.50
   7  -5  -2  311.47   19.30
   7  -5  -2  295.47   18.20
   7  -5  -2  340.07   20.40
  -7  -5   2  317.67   15.60
  -7   5   2  303.87   18.60
  -7   5   2  294.37   17.20
  -7   5   2  294.97   18.90
   5  -5  -2  756.32   37.70
  -5  -5   2  779.22   40.10
  -5  -5   2  737.33   34.20
  -5  -5   2  664.73   33.30
  -5  -5   2  737.53   33.80
  -5  -5   2  726.03   33.80
   5  -5  -2  752.02   37.30
   5  -5  -2  744.23   36.80
  -5   5   2  721.53   35.50
  -5   5   2  683.33   36.50
  -5   5   2  710.23   36.90
  -3  -5   2  287.17   15.30
   3  -5  -2  289.97   16.00
  -3  -5   2  280.77   14.20
  -3  -5   2  287.97   14.60
  -3  -5   2  282.77   19.80
   3  -5  -2  262.37   16.20
   3   5  -2  295.07   14.00
  -3   5   2  266.17   15.60
   3   5  -2  288.77   14.00
  -3   5   2  299.37   15.60
   1  -5  -2   48.00    4.80
  -1  -5   2   37.00    3.60
  -1  -5   2   38.60    7.50
  -1  -5   2   38.20    3.60
   1   5  -2   38.00    4.10
  -1   5   2   33.50    3.70
  -1   5   2   42.60    3.60
   1   5  -2   34.00    4.30
  -1   5   2   40.30    5.40
   1   5  -2   34.60    3.70
   1  -5   2  333.27   18.30
  -1  -5  -2  365.56   19.40
   1  -5   2  382.46   24.10
   1  -5   2  392.66   19.50
  -1   5  -2  346.17   19.20
   1   5   2  369.86   18.50
  -1   5  -2  313.37   18.90
  -1   5  -2  400.06   22.30
  -1   5  -2  345.27   20.30
   1   5   2  355.36   19.20
   3  -5   2   82.59   10.00
  -3  -5  -2   84.99    7.00
   3  -5   2   73.79    6.30
   3  -5   2   91.79    8.00
  -3   5  -2   91.99    9.30
  -3   5  -2   84.59    7.50
  -3   5  -2   72.99    8.10
   3   5   2   97.79    6.30
   3   5   2   87.89    6.80
   5  -5   2   34.60    6.10
  -5  -5  -2   34.90    5.30
  -5  -5  -2   56.79    8.90
   5  -5   2   28.80    4.30
   5  -5   2   29.30    6.70
   5   5   2   38.60    3.90
  -5   5  -2   37.10    7.20
  -5   5  -2   34.40    5.60
  -5   5  -2   34.90    6.30
   5   5   2   34.50    4.30
   5   5   2   39.40    3.30
  -7  -5  -2  217.28   14.30
   7  -5   2  225.68   14.10
   7  -5   2  265.37   18.10
   7  -5   2  198.58   17.70
  -7  -5  -2  223.98   18.00
  -7   5  -2  236.98   15.90
   7   5   2  208.38   12.50
  -7   5  -2  207.88   16.40
   7   5   2  219.48   12.50
  -7   5  -2  225.08   17.20
   7   5   2  249.08   12.70
  -9  -5  -2   49.60    5.40
  -9  -5  -2   57.39    6.80
   9  -5   2   57.09   10.40
   9   5   2   42.80    4.60
   9   5   2   41.20    5.70
  -9   5  -2   42.20    8.30
  -9   5  -2   51.49    8.10
   9   5   2   48.40    4.60
  -9   5  -2   20.70    6.90
 -11  -5  -2   88.69    8.40
  11  -5   2   94.69   14.60
 -11  -5  -2   79.99    9.40
 -11   5  -2   77.29   11.20
  11   5   2   99.99    9.70
 -11   5  -2   70.69   12.10
  11   5   2   84.69    6.20
 -11   5  -2  113.89   14.00
  11   5   2   84.29    6.10
 -13  -5  -2   98.29   10.30
  13  -5   2   99.49   14.80
 -13  -5  -2  109.19   12.10
 -13   5  -2  110.49   14.80
  13   5   2   87.89   11.60
 -13   5  -2  131.79   14.20
  15  -5   2   17.20   10.20
 -15  -5  -2   24.70    7.00
 -15  -5  -2   22.00    8.10
 -15   5  -2   20.30    8.90
 -15   5  -2   18.90    9.20
  18  -6  -2  367.86   26.60
 -18  -6   2  429.66   25.20
 -18  -6   2  394.66   23.60
 -18   6   2  418.96   27.20
 -18   6   2  421.36   30.10
 -16  -6   2  678.63   35.70
 -16  -6   2  740.03   37.20
  16  -6  -2  686.13   39.90
 -16   6   2  735.63   42.40
 -16   6   2  734.13   39.50
 -14  -6   2  857.01   42.60
  14  -6  -2  865.41   47.10
 -14  -6   2  834.82   41.50
 -14   6   2  906.61   45.20
 -14   6   2  880.21   47.80
  12  -6  -2 1138.19   60.79
 -12  -6   2 1169.28   54.79
 -12  -6   2 1152.98   55.79
 -12   6   2 1295.87   58.79
 -12   6   2 1186.88   61.09
  10  -6  -2  766.72   43.40
  10  -6  -2  899.31   45.80
  10  -6  -2  818.62   42.30
 -10  -6   2  790.22   38.40
 -10  -6   2  801.32   37.20
 -10   6   2  790.72   42.90
 -10   6   2  777.12   40.40
  -8  -6   2  795.02   38.40
  -8  -6   2  807.52   37.00
   8  -6  -2  763.32   43.30
   8  -6  -2  894.51   44.40
   8  -6  -2  836.62   41.90
  -8   6   2  806.22   42.30
  -8   6   2  775.62   41.80
  -8   6   2  817.72   40.30
   6  -6  -2 2439.96  112.69
   6  -6  -2 2395.76  110.59
  -6  -6   2 2353.16  107.59
  -6  -6   2 2520.85  114.89
  -6  -6   2 2284.77  107.29
   6  -6  -2 2492.65  111.59
  -6   6   2 2222.48  110.09
  -6   6   2 2348.36  109.09
   4  -6  -2 3127.79  133.99
  -4  -6   2 3005.60  132.29
   4  -6  -2 2922.11  134.19
  -4  -6   2 2847.11  130.19
   4  -6  -2 2969.80  135.89
  -4  -6   2 2959.50  131.49
  -4  -6   2 2986.10  138.89
  -4   6   2 2797.02  134.29
  -4   6   2 2794.82  133.09
  -4   6   2 2855.41  132.69
  -2  -6   2 2578.94  120.69
   2  -6  -2 2494.85  114.69
  -2  -6   2 2514.85  112.69
   2  -6  -2 2505.25  113.09
  -2  -6   2 2519.35  112.39
   2   6  -2 2653.23  112.89
  -2   6   2 2416.56  112.89
  -2   6   2 2435.66  113.19
   2   6  -2 2284.97  112.29
  -2   6   2 2564.64  115.19
   0  -6  -2 2645.34  116.39
   0  -6   2 2692.03  122.59
   0  -6   2 2760.22  115.59
   0  -6   2 2567.64  114.89
   0   6   2 2524.65  112.99
   0   6   2 2461.35  115.99
   0   6  -2 2487.25  116.59
   0   6   2 2411.66  114.59
   0   6  -2 2564.04  115.69
   0   6  -2 2251.57  114.99
  -2  -6  -2 2313.27  103.19
   2  -6   2 2226.98  102.19
   2  -6   2 2360.46  109.79
   2  -6   2 2438.96  104.19
   2   6   2 2117.19  102.39
   2   6   2 2167.68  101.39
  -2   6  -2 2475.15  106.59
  -2   6  -2 2002.20  102.89
  -2   6  -2 2046.60  104.39
  -2   6  -2 2267.47  103.29
   4  -6   2 1491.35   71.29
  -4  -6  -2 1526.25   71.99
   4  -6   2 1524.75   78.19
   4  -6   2 1620.64   74.19
   4   6   2 1507.75   69.99
  -4   6  -2 1512.85   72.99
   4   6   2 1485.55   70.69
  -4   6  -2 1525.15   74.79
  -4   6  -2 1567.04   74.99
   6  -6   2 1195.48   58.89
   6  -6   2 1197.48   64.69
   6  -6   2 1293.77   62.19
  -6  -6  -2 1241.88   58.99
  -6  -6  -2 1100.59   62.59
  -6   6  -2 1338.67   63.19
  -6   6  -2 1216.48   61.89
   6   6   2 1180.18   56.29
   6   6   2 1181.28   56.79
  -6   6  -2 1301.77   61.09
   8  -6   2 1379.16   75.29
  -8  -6  -2 1540.15   69.89
   8   6   2 1455.25   65.99
   8   6   2 1269.57   65.39
   8   6   2 1455.75   66.09
  -8   6  -2 1563.04   74.49
  -8   6  -2 1547.45   72.09
  -8   6  -2 1410.76   72.59
  10  -6   2  625.54   40.60
 -10  -6  -2  603.54   34.60
  10   6   2  573.64   31.60
  10   6   2  651.93   30.10
 -10   6  -2  726.33   40.40
  10   6   2  669.73   30.10
 -10   6  -2  732.23   38.20
 -12  -6  -2  128.69   12.30
  12  -6   2   98.19   15.90
  12   6   2   99.99   10.40
 -12   6  -2  151.48   14.80
 -14  -6  -2  190.38   14.90
 -14  -6  -2  174.48   16.70
  14  -6   2  153.08   21.50
 -14   6  -2  205.78   21.40
 -14   6  -2  226.78   20.10
 -17  -7   2  341.47   19.20
  17  -7  -2  295.07   25.00
 -17  -7   2  332.17   21.40
 -17   7   2  349.27   25.70
 -17   7   2  339.17   24.00
 -15  -7   2  318.47   19.80
 -15  -7   2  298.57   17.20
  15  -7  -2  321.17   24.60
 -15   7   2  350.96   24.50
 -15   7   2  368.86   22.60
  13  -7  -2  627.84   38.70
 -13  -7   2  656.23   33.50
 -13   7   2  657.53   37.90
 -13   7   2  696.23   36.30
 -11  -7   2 1894.31   90.19
  11  -7  -2 1920.61   96.39
 -11   7   2 1959.50   94.79
 -11   7   2 2072.59   92.89
   9  -7  -2 2233.48  105.39
   9  -7  -2 2035.70  105.09
  -9  -7   2 2091.29   99.39
  -9   7   2 2211.98  103.39
  -9   7   2 2318.17  101.79
   7  -7  -2 2050.89  103.39
   7  -7  -2 2045.90  102.99
  -7  -7   2 2202.98  105.49
   7  -7  -2 2223.38  102.09
  -7  -7   2 2224.88   97.89
  -7   7   2 2210.38   99.09
  -7   7   2 2127.09  100.29
  -7   7   2 2002.40  100.89
   5  -7  -2 1385.46   71.09
   5  -7  -2 1455.05   68.99
  -5  -7   2 1461.55   65.99
   5  -7  -2 1471.75   68.79
  -5  -7   2 1493.95   74.09
  -5  -7   2 1469.15   66.69
  -5   7   2 1363.96   66.89
  -5   7   2 1406.16   67.49
  -5   7   2 1285.47   68.59
  -3  -7   2 1019.40   46.90
   3  -7  -2  952.60   47.60
   3  -7  -2 1041.50   51.59
  -3  -7   2 1013.40   46.00
  -3  -7   2 1015.00   55.09
   3   7  -2  959.70   45.80
  -3   7   2  961.40   47.50
  -3   7   2  958.90   49.40
   3   7  -2  964.30   45.70
  -1  -7   2 1481.55   65.49
  -1  -7   2 1464.15   65.39
  -1  -7   2 1453.85   73.59
   1  -7  -2 1409.56   66.99
  -1   7   2 1356.96   65.29
   1   7  -2 1457.75   65.79
  -1   7   2 1480.75   63.79
   1   7  -2 1177.28   65.59
  -1   7   2 1463.85   67.39
   1   7  -2 1257.97   64.99
   1  -7   2 1432.46   65.69
  -1  -7  -2 1418.56   65.89
   1  -7   2 1446.36   72.89
   1  -7   2 1392.46   64.49
  -1   7  -2 1370.26   65.59
  -1   7  -2 1268.97   66.29
   1   7   2 1371.66   63.79
  -1   7  -2 1370.76   65.39
   1   7   2 1310.07   65.19
   3  -7   2 1061.69   50.99
  -3  -7  -2 1033.70   49.70
   3  -7   2 1001.00   48.80
   3  -7   2 1038.50   56.49
  -3   7  -2  976.30   51.69
  -3   7  -2 1047.90   50.49
   3   7   2  996.90   48.60
   3   7   2  926.71   47.30
  -3   7  -2 1033.80   50.19
  -5  -7  -2  458.35   25.90
   5  -7   2  487.35   28.20
   5  -7   2  503.05   32.80
   5   7   2  468.55   23.50
  -5   7  -2  444.36   26.40
  -5   7  -2  508.75   29.40
  -5   7  -2  494.95   27.70
  -5   7  -2  443.46   28.50
   5   7   2  482.75   24.50
   7  -7   2  447.26   31.00
  -7  -7  -2  427.96   24.70
  -7   7  -2  458.95   27.00
   7   7   2  434.66   21.40
  -7   7  -2  473.65   28.80
   7   7   2  404.06   21.60
   9  -7   2  799.02   50.49
  -9  -7  -2  831.42   44.20
  -9   7  -2  892.41   47.10
  -9   7  -2  923.21   49.60
  11  -7   2  572.94   40.20
 -11  -7  -2  582.04   34.00
 -11   7  -2  668.03   37.70
 -11   7  -2  637.24   39.70
 -13  -7  -2  532.95   31.80
  13  -7   2  476.45   37.40
 -13   7  -2  577.34   37.60
 -13   7  -2  517.15   34.70
 -14  -8   2   20.60    5.50
  14  -8  -2   14.30    9.20
 -14   8   2   11.00    6.10
 -14   8   2   12.40    5.60
  12  -8  -2   73.39   13.00
 -12  -8   2   82.49    8.40
 -12   8   2   89.69    9.60
 -12   8   2   88.09   10.90
 -10  -8   2   41.50    5.90
  10  -8  -2   45.40   10.10
 -10   8   2   32.50    5.80
 -10   8   2   36.10    6.70
  -8  -8   2   98.99   14.90
  -8  -8   2   81.89    8.20
   8  -8  -2  136.99   14.20
   8  -8  -2   99.99   12.00
  -8   8   2  114.59   10.00
  -6  -8   2  334.57   19.90
   6  -8  -2  356.16   24.60
   6  -8  -2  334.57   22.00
  -6  -8   2  317.27   19.50
  -6  -8   2  341.47   26.30
  -6   8   2  421.16   21.00
  -6   8   2  384.46   21.10
   4  -8  -2   52.79    9.20
  -4  -8   2   52.49   11.50
  -4  -8   2   56.69    6.40
   4  -8  -2   59.79    7.40
  -4  -8   2   66.79    4.50
  -4   8   2   58.19    9.00
  -4   8   2   60.29    6.20
  -4   8   2   55.49    6.20
   2  -8  -2   97.09    9.30
  -2  -8   2   81.49    8.00
  -2  -8   2   97.19    7.50
   2  -8  -2  104.59   11.50
  -2  -8   2   97.99   14.90
  -2   8   2  128.59   11.60
   2   8  -2   86.99    7.40
   2   8  -2  113.39    8.40
  -2   8   2   91.49    7.70
  -2   8   2  102.19    7.10
   0  -8   2   64.89    7.10
   0  -8   2   63.89    6.80
   0  -8   2   69.69   12.80
   0  -8  -2   55.39    7.20
   0   8  -2   73.79    7.90
   0   8  -2   71.19    7.80
   0   8   2   64.49    6.10
   0   8   2   56.99    8.00
   0   8  -2   59.39    6.80
   2  -8   2   17.70    6.50
   2  -8   2   21.30    5.00
   2  -8   2   19.90    7.40
  -2  -8  -2   15.30    4.20
   2   8   2   29.60    4.20
  -2   8  -2   14.30    5.10
   2   8   2   20.30    5.00
  -2   8  -2   16.60    4.50
  -2   8  -2   10.90    4.80
  -4  -8  -2   80.69    8.40
   4  -8   2   72.79    9.60
   4  -8   2   81.69   14.70
  -4   8  -2   78.89   10.00
  -4   8  -2   81.59    9.20
   4   8   2   76.69    7.80
   4   8   2   76.19    6.30
  -4   8  -2   82.19   10.20
  -6  -8  -2   18.90    5.00
   6  -8   2    4.20    6.60
  -6   8  -2   25.70    6.90
   6   8   2   27.30    4.20
   6   8   2   28.70    3.70
  -6   8  -2   14.40    5.20
   8  -8   2  122.19   18.50
  -8  -8  -2  127.49   11.50
  -8   8  -2  113.99   12.80
  -8   8  -2  114.79   13.90
 -10  -8  -2  190.78   15.00
  10  -8   2  157.68   20.70
 -10   8  -2  183.18   18.40
 -10   8  -2  188.18   17.60
  12  -8   2   11.50   11.80
 -12  -8  -2   32.20    8.10
 -12   8  -2    4.20    7.60
 -12   8  -2   21.90    9.00
  13  -9  -2  425.96   32.50
 -13  -9   2  449.36   26.10
 -13  -9   2  437.76   33.80
 -13   9   2  468.95   29.80
 -13   9   2  507.65   28.70
 -11  -9   2  714.73   44.90
  11  -9  -2  631.34   42.30
 -11  -9   2  703.53   36.40
 -11   9   2  726.43   38.20
 -11   9   2  728.13   39.60
   9  -9  -2 1292.77   70.59
  -9  -9   2 1321.87   72.99
  -9  -9   2 1334.97   63.79
  -9   9   2 1375.66   65.09
  -9   9   2 1301.77   65.79
  -7  -9   2 1310.67   68.59
  -7  -9   2 1172.78   58.89
   7  -9  -2 1204.58   65.19
   7  -9  -2 1216.98   61.69
  -7   9   2 1191.58   59.19
  -7   9   2 1227.58   59.99
  -5  -9   2  905.01   54.49
   5  -9  -2  880.31   51.09
  -5  -9   2  943.11   45.90
  -5  -9   2  874.01   45.00
   5  -9  -2  908.41   46.60
  -5   9   2  930.91   45.20
  -5   9   2  914.31   45.10
   3  -9  -2 1411.96   72.49
   3  -9  -2 1377.86   66.09
  -3  -9   2 1426.46   63.79
  -3  -9   2 1392.26   66.49
  -3  -9   2 1495.65   76.99
  -3   9   2 1277.57   68.69
   3   9  -2 1279.27   63.99
  -3   9   2 1459.75   66.19
  -3   9   2 1494.15   65.59
   3   9  -2 1336.07   64.19
  -1  -9   2 1917.51   85.69
   1  -9  -2 1851.51   88.49
   1  -9  -2 1880.51   92.59
  -1  -9   2 1920.91   96.99
  -1   9   2 1876.61   83.49
   1   9  -2 1771.12   85.79
  -1   9   2 1764.32   88.29
   1   9  -2 1763.22   86.39
  -1   9   2 1898.51   85.89
   1  -9   2 2300.67  115.19
   1  -9   2 2337.07  105.29
  -1  -9  -2 2104.19  105.99
  -1   9  -2 2383.56  105.59
  -1   9  -2 2151.18  105.49
   1   9   2 2260.37  105.59
   1   9   2 2290.17  103.49
  -1   9  -2 2243.68  106.79
  -3  -9  -2 1949.80   92.39
   3  -9   2 1949.90   92.49
   3  -9   2 2014.70  101.49
   3   9   2 2021.30   89.09
  -3   9  -2 1858.81   92.39
  -3   9  -2 1938.51   94.29
  -3   9  -2 1930.71   92.49
   3   9   2 1880.51   90.39
   5  -9   2  968.70   59.79
  -5  -9  -2  966.10   51.69
   5   9   2 1108.09   48.00
  -5   9  -2 1045.80   55.19
   5   9   2  960.10   48.60
  -5   9  -2 1092.39   53.39
   7  -9   2  592.24   42.40
  -7  -9  -2  592.54   34.60
  -7   9  -2  648.14   39.10
  -7   9  -2  719.23   37.70
   9  -9   2  672.93   47.70
  -9  -9  -2  664.33   39.10
  -9   9  -2  798.12   42.80
  -9   9  -2  767.62   44.80
 -12 -10   2  416.06   34.30
 -12 -10   2  433.96   26.00
  12 -10  -2  438.86   33.10
 -12  10   2  455.55   29.00
 -12  10   2  437.96   27.50
 -10 -10   2  693.93   44.60
 -10 -10   2  641.94   34.60
  10 -10  -2  591.34   41.20
 -10  10   2  625.44   36.40
 -10  10   2  664.03   35.60
   8 -10  -2  566.34   38.70
  -8 -10   2  593.44   32.30
  -8 -10   2  574.24   40.80
  -8  10   2  596.74   33.10
  -8  10   2  599.74   32.50
   6 -10  -2  614.34   40.80
   6 -10  -2  593.84   35.50
  -6 -10   2  634.44   44.10
  -6 -10   2  671.53   35.00
  -6  10   2  643.64   34.60
  -6  10   2  706.13   34.60
   4 -10  -2 1031.60   55.09
  -4 -10   2 1175.98   66.49
   4 -10  -2 1095.79   62.59
  -4  10   2 1137.59   54.69
  -4  10   2 1210.18   55.29
   2 -10  -2 1007.10   56.89
  -2 -10   2 1089.99   61.59
  -2 -10   2  985.20   47.70
   2  10  -2  932.71   48.40
  -2  10   2 1051.69   47.90
  -2  10   2 1073.29   49.60
   2  10  -2  971.60   48.90
   0 -10  -2  786.12   46.90
   0 -10  -2  796.22   42.50
   0 -10   2  808.92   50.99
   0 -10   2  743.03   39.60
   0  10   2  862.71   39.50
   0  10  -2  769.42   41.20
   0  10   2  729.83   42.00
   0  10  -2  836.32   40.70
   2 -10   2  914.31   56.39
  -2 -10  -2  900.61   48.00
   2 -10   2  868.51   46.80
  -2  10  -2  941.71   49.20
   2  10   2  846.92   46.40
  -2  10  -2  895.01   48.00
   2  10   2 1013.20   44.60
  -2  10  -2  977.70   47.60
  -4 -10  -2  769.02   42.60
   4 -10   2  760.82   50.69
  -4  10  -2  843.22   45.30
   4  10   2  717.83   39.40
  -4  10  -2  842.82   43.30
   4  10   2  850.51   38.30
  -6 -10  -2  609.94   35.90
   6 -10   2  569.54   43.80
  -6  10  -2  701.03   40.00
  -6  10  -2  687.43   37.80
  -8 -10  -2  509.85   31.90
   8 -10   2  549.65   41.00
  -8  10  -2  566.94   36.50
  -8  10  -2  587.44   34.70
   9 -11  -2   -0.90    9.80
  -9 -11   2    7.90    5.60
  -9 -11   2    4.00   10.50
  -9  11   2    2.90    5.20
  -9  11   2    4.70    5.40
   7 -11  -2   11.70    9.40
  -7 -11   2    4.00   10.30
  -7  11   2   12.90    5.20
  -7  11   2    9.90    5.40
   5 -11  -2   10.00    8.40
   5 -11  -2    2.10    6.40
  -5 -11   2   13.70    9.60
  -5  11   2   11.90    4.50
  -5  11   2    5.70    4.70
  -3 -11   2   17.40   10.10
   3 -11  -2    1.80    8.60
  -3  11   2    9.30    4.50
  -3  11   2    6.30    4.10
  -1 -11   2   -1.10    4.20
  -1 -11   2   -1.70    9.30
   1 -11  -2    9.00    7.90
  -1  11   2    3.10    3.40
   1  11  -2    2.70    4.50
   1  11  -2   -1.30    6.60
  -1 -11  -2   13.10    7.80
   1 -11   2   12.60    6.20
  -1 -11  -2   16.10    6.30
   1 -11   2   26.60   10.60
   1  11   2   11.80    3.80
   1  11   2    5.00    8.60
  -1  11  -2   19.60    6.10
  -1  11  -2    7.30    8.60
  -3 -11  -2    5.50    5.30
   3 -11   2    9.90   10.10
  -3  11  -2   -1.40    5.30
   3  11   2    7.20    3.50
   3  11   2   -5.80    6.90
  -3  11  -2    4.50    6.50
  -5 -11  -2   16.80    6.50
   5 -11   2    2.30   10.70
  -5  11  -2   14.20    6.80
  -5  11  -2    9.10    7.60
   4 -12  -2  438.16   35.60
  -4 -12   2  450.95   39.60
  -4  12   2  486.55   27.10
  -4  12   2  486.25   26.60
   2 -12  -2  713.33   48.20
  -2 -12   2  719.83   51.59
   2  12  -2  718.63   35.90
  -2  12   2  785.42   38.40
   0 -12   2  737.43   53.39
   0 -12  -2  749.62   50.69
   0  12   2  850.01   40.30
   0  12  -2  812.72   41.50
 -20   0   3   -0.50    6.00
 -20   0   3    1.30    5.70
 -20   0   3    0.90    4.40
 -18   0   3    5.00    3.70
 -18   0   3    5.40    3.90
 -18   0   3   -2.50    4.60
 -16   0   3    1.10    2.80
 -16   0   3   -2.10    2.30
 -16   0   3    3.20    4.00
 -14   0   3    3.50    2.00
  14   0  -3   -2.30    4.70
 -14   0   3    1.80    2.00
 -14   0   3   13.10    4.50
 -12   0   3    1.60    3.00
 -12   0   3    4.50    1.80
  12   0  -3    3.00    3.70
  10   0  -3    2.80    2.50
 -10   0   3   -0.40    1.00
 -10   0   3    1.60    1.00
  -8   0   3    4.10    1.10
   8   0  -3    1.10    1.90
  -8   0   3    0.10    1.40
  -6   0   3    0.60    0.50
  -6   0   3    1.90    1.40
   6   0  -3    3.40    1.50
   4   0  -3    6.10    1.40
   4   0  -3    5.10    1.00
  -4   0   3    6.90    1.30
   2   0  -3    1.30    1.10
  -2   0   3    1.60    1.10
  -2   0   3    5.50    1.30
   2   0  -3    3.90    1.00
   0   0   3    1.50    1.00
   0   0   3    1.70    1.30
   0   0  -3    4.40    1.40
   0   0  -3    0.30    1.20
   0   0   3    2.80    1.10
   2   0   3    6.20    2.10
  -2   0  -3    2.90    1.60
   2   0   3    5.10    1.50
  -2   0  -3    2.70    2.00
  -2   0  -3    6.10    2.00
   2   0   3    7.20    2.00
  -4   0  -3    2.50    1.70
  -4   0  -3    0.80    1.90
   4   0   3    2.60    1.50
  -4   0  -3    1.60    1.70
   4   0   3    2.60    1.80
   4   0   3    2.30    2.30
   6   0   3    3.10    1.80
   6   0   3    4.10    2.90
  -6   0  -3    2.40    2.50
   6   0   3    5.00    3.00
  -6   0  -3    3.00    3.30
  -6   0  -3    0.60    1.90
   8   0   3   -0.40    2.00
  -8   0  -3    1.30    3.00
  -8   0  -3    1.70    2.40
   8   0   3   -1.90    3.70
   8   0   3   -2.70    3.10
  -8   0  -3    0.10    4.00
  10   0   3    3.50    3.80
  10   0   3    2.30    6.00
 -10   0  -3   -0.10    2.80
 -10   0  -3   -1.00    5.20
 -10   0  -3    2.80    3.90
  10   0   3   -0.50    2.80
  12   0   3   -4.50    3.90
 -12   0  -3    4.20    4.00
 -12   0  -3    0.50    4.70
  12   0   3    8.10    5.30
 -14   0  -3   -0.50    5.00
  14   0   3   -1.40    6.60
 -14   0  -3   -2.50    6.20
 -16   0  -3    1.70    8.30
 -16   0  -3    6.30    7.10
 -21  -1   3  181.88   16.00
 -21  -1   3  179.68   18.10
 -21   1   3  197.08   18.90
 -21   1   3  188.78   16.30
 -19  -1   3  521.65   28.30
 -19  -1   3  526.35   28.50
 -19  -1   3  508.95   32.40
 -19   1   3  505.15   29.00
 -19   1   3  498.05   32.90
 -19   1   3  499.65   25.60
 -17  -1   3  578.34   35.40
 -17  -1   3  630.84   31.60
 -17  -1   3  597.04   31.10
 -17   1   3  653.23   29.90
 -17   1   3  579.54   36.10
 -17   1   3  558.64   31.40
 -15  -1   3  547.85   33.10
 -15  -1   3  582.74   29.20
 -15  -1   3  547.15   28.30
 -15   1   3  604.54   27.70
 -15   1   3  546.55   33.90
  15   1  -3  564.04   33.80
 -15   1   3  558.34   29.10
 -13  -1   3  926.01   45.00
 -13  -1   3  890.11   48.60
  13  -1  -3 1068.19   51.99
 -13  -1   3  955.40   44.30
 -13   1   3  832.92   48.90
 -13   1   3  993.70   43.70
  13   1  -3  952.10   49.10
 -13   1   3  968.80   45.30
 -11  -1   3 1199.78   59.99
 -11  -1   3 1399.96   61.09
 -11  -1   3 1285.87   63.99
  11  -1  -3 1431.26   66.49
  11   1  -3 1393.06   64.59
 -11   1   3 1267.27   61.19
 -11   1   3 1310.87   64.79
  -9  -1   3 4187.58  190.98
  -9  -1   3 4448.75  188.58
   9  -1  -3 4407.86  192.58
  -9  -1   3 3992.10  187.68
  -9   1   3 4196.98  191.68
   9   1  -3 4226.98  191.08
  -9   1   3 4182.08  188.78
  -7  -1   3 5292.27  237.28
   7  -1  -3 5580.44  239.28
  -7  -1   3 5394.56  238.18
  -7   1   3 5242.48  236.48
  -7   1   3 5303.27  238.68
   7   1  -3 5160.18  238.08
   5  -1  -3 3718.53  172.78
   5  -1  -3 3849.71  170.78
  -5  -1   3 3897.41  171.98
  -5   1   3 3731.53  171.78
  -5   1   3 3817.22  172.78
   5   1  -3 4090.59  172.08
   3  -1  -3 2549.94  114.49
   3  -1  -3 2623.04  114.29
  -3  -1   3 2556.34  115.09
  -3  -1   3 2583.74  113.39
  -3   1   3 2479.05  114.29
   3   1  -3 2574.14  113.19
   3   1  -3 2482.65  114.99
   1  -1  -3   42.50    3.40
   1  -1  -3   34.70    3.80
  -1  -1   3   35.70    2.90
  -1  -1   3   24.60    3.40
  -1  -1   3   34.90    3.50
  -1   1   3   42.30    3.50
   1   1  -3   27.50    3.60
   1  -1   3 4054.59  179.98
  -1  -1  -3 4218.08  181.28
  -1  -1  -3 3914.61  179.48
   1  -1   3 3944.71  181.18
   1  -1   3 4167.08  179.18
  -1   1  -3 3998.60  179.38
   1   1   3 3910.01  180.78
  -1   1  -3 4064.89  180.78
  -1   1  -3 3846.72  180.88
   1   1   3 4075.79  179.38
   1   1   3 3982.50  179.58
   3  -1   3 5829.42  272.67
  -3  -1  -3 6182.38  273.07
   3  -1   3 6121.79  271.37
  -3  -1  -3 6033.70  270.97
  -3  -1  -3 6096.49  271.47
   3   1   3 5917.01  272.47
  -3   1  -3 6026.30  272.67
   3   1   3 6002.20  270.77
   3   1   3 6300.17  270.47
  -3   1  -3 6222.28  271.07
  -3   1  -3 6115.19  272.77
  -5  -1  -3  413.66   22.80
  -5  -1  -3  478.85   25.40
   5  -1   3  448.26   24.00
   5  -1   3  404.56   24.70
   5  -1   3  424.36   21.90
  -5  -1  -3  444.66   23.70
   5   1   3  447.56   23.40
  -5   1  -3  419.96   24.70
  -5   1  -3  427.86   23.10
  -5   1  -3  428.66   24.70
   5   1   3  429.16   22.00
   5   1   3  437.06   24.70
  -7  -1  -3  497.65   27.70
  -7  -1  -3  546.15   30.40
   7  -1   3  598.74   30.60
   7  -1   3  521.95   26.50
  -7  -1  -3  500.05   28.70
   7  -1   3  523.45   30.10
  -7   1  -3  532.55   28.30
   7   1   3  554.74   29.70
   7   1   3  514.55   26.40
  -7   1  -3  469.45   29.70
  -7   1  -3  540.15   30.10
   7   1   3  541.45   30.10
  -9  -1  -3  574.84   32.60
   9  -1   3  539.25   29.00
   9  -1   3  581.74   33.60
   9  -1   3  640.84   35.20
  -9  -1  -3  614.24   34.30
  -9  -1  -3  567.64   31.00
   9   1   3  534.75   28.80
  -9   1  -3  575.64   31.50
   9   1   3  554.74   33.00
   9   1   3  634.54   34.40
  -9   1  -3  554.94   33.80
  -9   1  -3  589.44   33.50
 -11  -1  -3  516.75   29.60
  11  -1   3  505.75   31.80
 -11  -1  -3  524.95   32.70
 -11  -1  -3  559.14   31.90
  11  -1   3  514.25   27.50
 -11   1  -3  542.35   30.30
 -11   1  -3  501.75   32.10
 -11   1  -3  496.45   32.70
  11   1   3  517.65   27.00
  11   1   3  481.65   31.40
  11   1   3  588.04   38.70
 -13  -1  -3  672.13   39.00
 -13  -1  -3  607.84   35.80
  13  -1   3  610.74   38.40
 -13   1  -3  634.74   40.20
 -13   1  -3  642.14   36.90
  13   1   3  660.43   33.30
  15  -1   3  245.68   22.60
 -15  -1  -3  260.37   20.50
 -15  -1  -3  244.58   22.40
 -15   1  -3  244.88   20.80
 -15   1  -3  265.57   24.10
 -20  -2   3  391.26   23.80
 -20  -2   3  400.06   26.80
 -20   2   3  384.56   25.10
 -20   2   3  385.76   28.30
 -18  -2   3  330.67   19.90
 -18  -2   3  338.57   23.80
 -18  -2   3  317.27   21.60
 -18   2   3  347.87   25.20
 -18   2   3  376.16   18.00
 -18   2   3  327.97   21.10
 -16  -2   3 1112.79   53.49
 -16  -2   3 1100.49   51.69
 -16  -2   3 1140.69   57.09
 -16   2   3 1044.90   57.89
 -16   2   3 1117.09   50.59
  16   2  -3  975.60   56.19
 -16   2   3 1100.99   53.09
 -14  -2   3 1250.17   66.09
 -14  -2   3 1363.16   63.49
  14  -2  -3 1398.26   70.39
  14  -2  -3 1283.27   63.19
 -14  -2   3 1316.17   61.29
 -14   2   3 1311.77   62.89
  14   2  -3 1328.47   66.09
 -14   2   3 1415.06   60.99
 -14   2   3 1303.07   67.79
 -12  -2   3 1410.66   69.99
 -12  -2   3 1445.76   65.69
  12  -2  -3 1469.95   65.69
  12  -2  -3 1592.04   74.09
 -12  -2   3 1521.65   68.09
  12  -2  -3 1410.66   68.09
  12   2  -3 1423.66   69.69
 -12   2   3 1398.86   67.49
 -12   2   3 1400.26   71.49
 -10  -2   3 2119.49   98.49
 -10  -2   3 2146.79  102.19
  10  -2  -3 2331.97   98.79
  10  -2  -3 2556.14  106.19
 -10   2   3 2167.38  100.59
 -10   2   3 2120.29  103.59
  10   2  -3 2067.99  101.89
   8  -2  -3  994.80   47.10
  -8  -2   3  928.41   44.80
   8  -2  -3 1008.30   42.80
  -8  -2   3  905.71   45.50
  -8   2   3  838.12   45.50
  -8   2   3  926.01   43.70
   6  -2  -3 2532.95  111.49
  -6  -2   3 2347.07  111.49
  -6  -2   3 2580.54  110.39
  -6   2   3 2411.56  110.39
  -6   2   3 2293.47  110.69
  -6   2   3 2425.26  109.39
  -4  -2   3 5882.81  264.17
   4  -2  -3 5821.22  262.17
  -4   2   3 6087.39  262.77
   4   2  -3 5816.12  263.47
   2  -2  -3 2278.67  103.29
  -2  -2   3 2252.87  102.79
   2  -2  -3 2214.78  102.49
  -2  -2   3 2254.27  101.49
  -2  -2   3 2279.17  104.49
   2   2  -3 2342.67  104.09
  -2   2   3 2246.68  102.69
   2   2  -3 2308.67  101.49
   0  -2   3 2466.35  118.89
   0  -2   3 2691.33  120.09
   0  -2  -3 2646.24  121.19
   0  -2  -3 2702.43  119.89
   0  -2   3 2589.94  121.89
   0   2   3 2677.63  119.79
   0   2  -3 2665.43  121.39
   0   2  -3 2653.63  119.49
   0   2  -3 2703.03  121.09
   0   2   3 2795.52  119.69
   2  -2   3 2938.71  131.89
   2  -2   3 2735.63  128.39
  -2  -2  -3 2960.40  131.39
  -2  -2  -3 2849.51  129.29
   2  -2   3 2928.11  129.69
   2   2   3 2833.02  130.79
  -2   2  -3 2773.12  130.99
  -2   2  -3 2979.00  131.39
   2   2   3 2878.61  129.09
   2   2   3 2920.11  128.89
  -2   2  -3 2711.73  129.19
  -4  -2  -3 2090.49   95.29
   4  -2   3 2051.79   97.89
  -4  -2  -3 2136.39   97.79
   4  -2   3 1974.50   93.99
   4  -2   3 2133.09   96.09
   4   2   3 2002.00   94.39
  -4   2  -3 2055.19   95.49
   4   2   3 2122.09   94.89
  -4   2  -3 2123.29   97.39
   4   2   3 2068.69   97.19
  -6  -2  -3 1139.49   54.79
  -6  -2  -3 1173.48   57.29
   6  -2   3 1225.88   56.69
   6  -2   3 1178.68   57.39
  -6  -2  -3 1165.88   54.59
   6  -2   3 1070.99   52.99
   6   2   3 1154.48   56.59
   6   2   3 1113.99   53.09
   6   2   3 1188.48   55.39
  -6   2  -3  953.50   56.39
  -6   2  -3 1133.59   56.49
  -6   2  -3 1118.89   54.99
  -8  -2  -3 1165.98   57.69
  -8  -2  -3 1195.18   60.39
  -8  -2  -3 1176.58   57.19
   8  -2   3 1126.49   55.29
   8  -2   3 1186.08   60.19
   8  -2   3 1266.57   61.09
  -8   2  -3 1164.38   57.79
  -8   2  -3  964.40   59.29
   8   2   3 1134.89   54.99
  -8   2  -3 1274.67   59.79
   8   2   3 1227.48   59.59
   8   2   3 1221.68   59.29
  10  -2   3  697.53   40.20
 -10  -2  -3  717.23   37.50
  10  -2   3  672.33   35.50
 -10  -2  -3  757.02   41.10
 -10  -2  -3  777.42   38.90
  10   2   3  706.23   39.90
 -10   2  -3  727.73   40.00
  10   2   3  657.43   34.50
 -10   2  -3  683.63   38.10
 -10   2  -3  671.83   41.00
  12  -2   3  245.58   19.90
 -12  -2  -3  225.78   16.80
 -12  -2  -3  233.28   18.20
  12   2   3  222.38   14.40
 -12   2  -3  247.68   21.30
 -12   2  -3  225.28   17.90
  14  -2   3  217.08   19.70
 -14  -2  -3  206.68   18.90
 -14  -2  -3  213.48   17.30
  14   2   3  234.58   15.70
 -14   2  -3  223.48   21.80
 -14   2  -3  190.28   18.00
 -19  -3   3   10.50    8.10
 -19  -3   3    1.90    5.00
 -19  -3   3   10.90    4.90
 -19   3   3    3.30    5.70
 -19   3   3   13.80    5.60
 -17  -3   3   88.89   10.50
 -17  -3   3   84.09    7.80
 -17  -3   3   68.79   10.00
 -17   3   3   88.29    9.10
  17   3  -3   65.39   12.20
 -17   3   3   79.79   12.40
 -15  -3   3   86.29    6.70
  15  -3  -3   83.09   10.00
 -15  -3   3   70.79    9.20
 -15  -3   3   90.29    9.80
  15  -3  -3   78.49    6.80
 -15   3   3   67.59   10.80
 -15   3   3   82.89    7.90
  15   3  -3   59.69    9.20
  13  -3  -3   64.29    7.90
  13  -3  -3   69.89    6.00
  13  -3  -3   64.19   10.70
 -13  -3   3   74.49    8.20
 -13  -3   3   70.49    8.00
 -13  -3   3   76.19    5.20
 -13   3   3   63.19    8.70
  13   3  -3   55.29    7.60
 -13   3   3   71.59    6.60
  11  -3  -3  391.96   19.50
  11  -3  -3  376.26   24.70
  11  -3  -3  381.46   21.30
 -11  -3   3  377.36   17.70
 -11  -3   3  372.96   21.30
  11   3  -3  354.36   20.80
 -11   3   3  342.87   22.70
 -11   3   3  388.86   20.40
   9  -3  -3  352.96   18.10
   9  -3  -3  353.96   19.30
   9  -3  -3  376.16   22.10
  -9  -3   3  342.17   18.70
  -9   3   3  315.77   18.00
  -9   3   3  303.47   19.80
  -7  -3   3   44.50    6.90
   7  -3  -3   54.39    4.80
   7  -3  -3   57.49    6.30
  -7  -3   3   45.30    4.50
  -7   3   3   56.49    4.70
  -7   3   3   50.49    5.40
  -7   3   3   49.60    5.50
  -5  -3   3  398.06   17.20
   5  -3  -3  385.56   20.50
  -5  -3   3  384.76   17.20
   5  -3  -3  369.96   19.70
  -5  -3   3  350.26   21.90
  -5   3   3  366.96   19.90
  -5   3   3  381.96   20.20
  -5   3   3  364.86   19.10
  -3  -3   3 1403.16   65.69
   3  -3  -3 1414.26   62.69
  -3  -3   3 1311.67   62.09
  -3  -3   3 1309.77   60.59
   3   3  -3 1342.97   60.29
   3   3  -3 1381.06   60.29
  -3   3   3 1307.87   62.09
  -3   3   3 1319.87   62.79
   3   3  -3 1367.96   64.19
   1  -3  -3  149.99   10.10
  -1  -3   3  145.99   11.10
   1  -3  -3  141.09    9.00
  -1  -3   3  134.59    7.80
  -1  -3   3  146.49    8.90
  -1   3   3  142.29    9.10
   1   3  -3  138.09    9.60
   1   3  -3  141.49    8.30
   1   3  -3  154.08   10.60
  -1  -3  -3    4.60    1.70
   1  -3   3   -0.20    1.70
  -1  -3  -3    0.50    1.80
   1  -3   3    5.50    1.90
   1  -3   3    3.20    1.30
  -1   3  -3    3.50    2.50
  -1   3  -3    4.60    1.90
  -1   3  -3    4.40    2.20
   1   3   3    3.70    1.50
   1   3   3    6.70    2.10
   3  -3   3   37.10    4.60
   3  -3   3   38.50    6.50
  -3  -3  -3   48.30    6.50
   3  -3   3   42.10    4.10
  -3  -3  -3   40.90    4.60
  -3   3  -3   49.10    6.20
   3   3   3   42.00    4.00
  -3   3  -3   48.40    5.00
   3   3   3   45.90    4.60
  -3   3  -3   52.39    6.40
  -5  -3  -3    3.70    2.00
  -5  -3  -3    0.20    1.90
   5  -3   3   11.60    3.80
  -5  -3  -3   -0.10    3.30
   5  -3   3    2.50    1.90
   5  -3   3   -1.60    2.80
   5   3   3   -0.50    2.00
  -5   3  -3   -1.20    2.30
   5   3   3    5.00    2.20
  -5   3  -3    0.50    3.30
  -5   3  -3    3.00    2.10
  -7  -3  -3   40.50    5.20
   7  -3   3   39.90    7.70
  -7  -3  -3   47.80    6.50
  -7  -3  -3   45.70    7.80
   7  -3   3   27.20    6.20
   7  -3   3   30.40    4.70
   7   3   3   37.40    6.40
  -7   3  -3   41.30    7.20
  -7   3  -3   29.30    6.90
  -7   3  -3   25.90    5.30
   7   3   3   38.20    4.80
  -9  -3  -3   98.89    9.40
  -9  -3  -3  102.79   13.00
   9  -3   3  112.69   12.30
  -9  -3  -3   93.39    9.10
   9   3   3  107.19   11.00
   9   3   3   83.59    7.30
  -9   3  -3   91.59   10.10
  -9   3  -3   90.59   11.90
  -9   3  -3   76.49   11.10
 -11  -3  -3    7.80    4.10
  11  -3   3    9.20    5.90
 -11  -3  -3   12.20    4.80
 -11   3  -3   -8.60    7.00
 -11   3  -3    3.40    4.90
  11   3   3   12.20    3.50
 -11   3  -3    0.90    4.30
  11   3   3   13.20    7.20
 -13  -3  -3    1.50    4.80
 -13  -3  -3    0.90    4.60
  13  -3   3    6.00    7.50
  13   3   3   10.40    4.70
 -13   3  -3    5.00    7.20
 -13   3  -3    5.20    5.10
 -15  -3  -3    9.90    7.20
  15  -3   3   34.00   11.30
 -15  -3  -3   15.20    7.50
 -15   3  -3    3.80    9.20
 -15   3  -3    8.30    7.10
 -20  -4   3  300.37   19.30
 -20  -4   3  271.27   19.90
 -20   4   3  280.57   20.70
 -20   4   3  243.88   22.00
 -18  -4   3  606.44   35.50
  18  -4  -3  512.45   29.60
 -18  -4   3  595.54   31.30
 -18  -4   3  627.94   33.70
 -18   4   3  630.94   33.50
 -18   4   3  587.74   36.90
  16  -4  -3  396.46   27.10
  16  -4  -3  426.56   24.00
 -16  -4   3  421.56   27.60
 -16  -4   3  489.05   27.10
 -16  -4   3  490.05   24.00
 -16   4   3  478.45   30.00
  16   4  -3  419.86   26.80
 -16   4   3  468.05   26.00
  14  -4  -3  639.04   32.20
  14  -4  -3  583.04   34.20
 -14  -4   3  633.04   34.20
 -14  -4   3  652.83   30.60
 -14  -4   3  651.13   34.80
 -14   4   3  669.93   33.10
  14   4  -3  580.44   33.30
 -14   4   3  608.34   36.80
 -12  -4   3 1275.27   55.29
  12  -4  -3 1256.47   57.89
 -12  -4   3 1174.78   58.49
  12  -4  -3 1296.67   64.39
  12  -4  -3 1161.48   59.29
 -12   4   3 1063.39   60.89
 -12   4   3 1230.48   57.89
  10  -4  -3  923.91   47.90
 -10  -4   3 1035.60   43.80
  10  -4  -3 1012.00   47.40
 -10  -4   3  924.11   46.60
  10  -4  -3 1027.30   51.59
 -10   4   3  919.31   49.30
 -10   4   3  919.81   46.60
   8  -4  -3 1194.18   55.19
   8  -4  -3 1144.29   55.39
   8  -4  -3 1288.67   58.29
  -8  -4   3 1079.29   53.49
  -8  -4   3 1159.28   58.29
  -8   4   3 1095.39   53.89
  -8   4   3 1100.79   55.89
  -8   4   3 1131.69   55.59
   6  -4  -3 3619.64  153.48
  -6  -4   3 3487.15  148.79
  -6  -4   3 3315.07  155.68
  -6  -4   3 3235.58  148.39
  -6   4   3 3187.28  151.98
  -6   4   3 3448.95  152.78
  -6   4   3 3195.28  150.88
  -4  -4   3 2492.85  122.59
  -4  -4   3 2725.43  129.39
  -4  -4   3 2884.61  124.29
   4  -4  -3 2862.71  125.59
   4  -4  -3 2918.11  125.59
  -4   4   3 2949.51  126.19
  -4   4   3 2520.45  124.39
  -4   4   3 2747.93  124.89
  -2  -4   3 1077.79   52.29
  -2  -4   3 1179.78   53.59
  -2  -4   3 1169.28   58.59
   2  -4  -3 1188.88   54.49
   2   4  -3 1208.88   52.99
   2   4  -3 1159.78   52.69
   2   4  -3 1146.69   56.19
  -2   4   3 1182.48   53.79
  -2   4   3 1039.70   54.29
  -2   4   3 1169.28   53.29
   0  -4   3 2668.33  127.09
   0  -4   3 2807.32  131.99
   0  -4  -3 2796.62  129.69
   0  -4  -3 2912.01  127.89
   0  -4   3 2742.13  126.19
   0   4  -3 2718.73  129.09
   0   4  -3 2949.70  130.39
   0   4  -3 2978.30  127.39
   0   4   3 2799.22  127.79
  -2  -4  -3 5003.10  213.78
   2  -4   3 4614.24  214.98
   2  -4   3 4676.73  210.78
  -2  -4  -3 4876.51  210.88
   2  -4   3 4452.35  209.18
  -2   4  -3 4280.57  212.58
   2   4   3 4723.43  210.38
  -2   4  -3 4715.33  210.98
  -2   4  -3 4829.22  213.28
   2   4   3 4770.52  208.78
   4  -4   3 1924.21   96.19
  -4  -4  -3 2177.08   97.89
  -4  -4  -3 2157.98  100.99
   4  -4   3 2273.77   99.29
   4  -4   3 2112.99  102.09
   4   4   3 2122.69   96.99
  -4   4  -3 2119.09   98.69
   4   4   3 2024.70   96.09
  -4   4  -3 2180.48  100.69
  -6  -4  -3 1354.66   60.99
   6  -4   3 1224.08   60.39
  -6  -4  -3 1396.26   66.19
   6  -4   3 1307.67   64.39
   6  -4   3 1294.17   66.49
  -6  -4  -3 1303.77   62.09
  -6   4  -3 1282.57   64.59
  -6   4  -3 1325.97   63.49
   6   4   3 1285.87   60.49
  -6   4  -3 1099.29   64.79
   6   4   3 1344.67   61.79
   8  -4   3 1050.99   57.79
  -8  -4  -3 1049.79   53.39
  -8  -4  -3 1131.29   58.09
  -8  -4  -3 1096.99   52.49
  -8   4  -3 1120.19   55.49
  -8   4  -3 1155.88   56.79
   8   4   3 1122.79   53.69
   8   4   3 1056.49   50.99
  -8   4  -3  960.00   56.99
 -10  -4  -3  604.24   33.20
 -10  -4  -3  665.13   34.50
  10  -4   3  646.74   38.60
 -10   4  -3  642.64   39.30
 -10   4  -3  593.94   35.80
  10   4   3  621.74   30.90
 -10   4  -3  614.34   37.10
  10   4   3  612.14   34.50
  12  -4   3  501.15   34.20
 -12  -4  -3  509.35   29.60
 -12  -4  -3  506.85   30.30
  12   4   3  528.05   26.40
 -12   4  -3  483.05   32.10
  12   4   3  534.45   32.00
 -12   4  -3  531.45   36.00
 -14  -4  -3  275.87   21.10
  14  -4   3  261.27   24.90
 -14  -4  -3  277.87   20.60
 -14   4  -3  291.47   26.40
  19  -5  -3  178.38   14.10
 -19  -5   3  220.28   15.60
 -19  -5   3  183.88   14.70
 -19   5   3  184.18   18.30
 -19   5   3  189.88   16.50
 -17  -5   3  367.66   26.50
 -17  -5   3  350.46   20.50
 -17  -5   3  374.46   21.80
  17  -5  -3  330.17   21.20
 -17   5   3  363.56   25.80
 -17   5   3  363.86   22.80
 -15  -5   3  724.03   36.20
 -15  -5   3  677.43   39.20
  15  -5  -3  648.34   35.90
 -15  -5   3  723.13   34.30
 -15   5   3  660.13   39.90
 -15   5   3  699.23   36.50
  13  -5  -3 1378.36   70.19
  13  -5  -3 1359.86   68.89
 -13  -5   3 1502.55   68.59
 -13  -5   3 1476.65   65.89
 -13   5   3 1366.06   72.19
 -13   5   3 1497.95   68.79
 -11  -5   3 1736.13   77.79
 -11  -5   3 1905.41   80.39
  11  -5  -3 1705.33   82.09
  11  -5  -3 1677.63   82.39
  11  -5  -3 1881.01   86.89
 -11   5   3 1691.63   80.69
 -11   5   3 1538.55   83.39
 -11   5   3 1628.74   81.99
  -9  -5   3  988.80   47.40
  -9  -5   3 1101.39   55.49
  -9  -5   3 1049.09   49.20
   9  -5  -3 1049.79   51.99
   9  -5  -3 1051.29   52.09
   9  -5  -3 1171.48   55.09
  -9   5   3 1021.70   50.39
  -9   5   3  952.80   52.29
  -9   5   3 1038.10   51.99
   7  -5  -3 1899.41   89.89
  -7  -5   3 1900.41   87.19
   7  -5  -3 2064.59   91.39
  -7  -5   3 1973.60   85.69
  -7  -5   3 1905.41   93.69
  -7  -5   3 2045.80   86.09
  -7   5   3 1728.13   89.39
  -7   5   3 1977.70   90.29
  -7   5   3 1742.73   87.89
  -5  -5   3 3088.09  149.19
  -5  -5   3 3495.75  150.38
  -5  -5   3 3295.77  157.78
  -5  -5   3 3671.33  150.48
   5  -5  -3 3461.95  152.98
  -5   5   3 3119.19  151.88
  -5   5   3 3367.96  153.28
  -5   5   3 3360.66  151.48
  -3  -5   3 2809.52  134.79
  -3  -5   3 3031.20  142.99
  -3  -5   3 3053.59  135.79
   3  -5  -3 3180.88  137.79
   3   5  -3 3140.59  134.89
  -3   5   3 2892.01  136.19
  -3   5   3 3242.48  138.39
   3   5  -3 3072.79  134.89
  -3   5   3 2806.82  136.29
  -1  -5   3 2952.20  140.39
  -1  -5   3 3073.49  147.89
  -1  -5   3 3130.99  141.29
   1  -5  -3 3175.28  142.59
   1   5  -3 3144.79  143.29
   1   5  -3 3290.27  141.49
   1   5  -3 3114.39  141.29
  -1   5   3 3116.39  142.69
   1   5  -3 3287.87  145.29
  -1   5   3 3119.49  140.39
  -1   5   3 3126.99  141.49
   1  -5   3 1794.62   86.19
  -1  -5  -3 1933.51   87.99
   1  -5   3 1926.41   87.59
   1  -5   3 1959.00   93.49
  -1   5  -3 2012.40   91.19
  -1   5  -3 1774.12   87.59
  -1   5  -3 1818.02   89.69
   1   5   3 1966.30   87.79
   1   5   3 1792.32   85.29
   1   5   3 2007.20   85.39
   1   5   3 1910.91   86.89
   3  -5   3  668.43   38.20
  -3  -5  -3  653.93   36.10
   3  -5   3  611.84   31.60
  -3  -5  -3  671.03   33.20
   3  -5   3  670.43   33.90
  -3   5  -3  712.73   36.30
  -3   5  -3  590.94   35.30
   3   5   3  643.84   30.40
   3   5   3  667.43   32.60
  -3   5  -3  610.14   33.50
   5  -5   3 1162.68   59.29
   5  -5   3 1310.87   66.59
   5  -5   3 1369.66   63.39
  -5  -5  -3 1268.57   60.99
  -5  -5  -3 1337.47   65.29
  -5   5  -3 1119.09   63.79
   5   5   3 1259.47   59.59
  -5   5  -3 1271.57   62.29
   5   5   3 1267.27   58.89
  -5   5  -3 1326.37   64.09
  -7  -5  -3 1958.30   96.39
  -7  -5  -3 1886.31   86.99
   7  -5   3 1862.61   92.59
  -7   5  -3 1788.92   88.69
  -7   5  -3 1798.92   91.49
  -7   5  -3 1858.31   89.79
   7   5   3 1802.42   84.89
   7   5   3 1778.52   84.39
   9  -5   3  978.60   56.49
  -9  -5  -3 1047.20   51.69
  -9   5  -3 1077.79   57.29
  -9   5  -3 1052.79   57.99
  -9   5  -3 1017.10   53.79
   9   5   3  977.60   48.00
   9   5   3  990.70   49.90
 -11  -5  -3  625.64   34.20
  11  -5   3  590.84   38.40
 -11  -5  -3  585.04   32.10
 -11   5  -3  675.83   40.50
  11   5   3  596.84   29.40
  11   5   3  541.65   32.50
 -11   5  -3  593.74   36.40
  13  -5   3  397.56   31.40
 -13  -5  -3  411.46   25.50
 -13  -5  -3  422.36   27.00
 -13   5  -3  459.45   33.30
 -13   5  -3  418.36   29.90
  13   5   3  396.96   27.50
  18  -6  -3   10.00    7.40
 -18  -6   3   17.80    5.10
 -18  -6   3   17.60    6.10
 -18   6   3   10.20    6.80
 -18   6   3   19.80    6.50
  16  -6  -3   34.80    8.00
 -16  -6   3   47.70    6.40
 -16  -6   3   46.20    6.50
 -16   6   3   36.50    7.10
 -16   6   3   41.30    9.20
 -14  -6   3    2.20    2.80
  14  -6  -3    4.20    4.90
 -14  -6   3    2.20    2.90
 -14   6   3    1.40    3.10
 -14   6   3   -6.70    3.40
 -12  -6   3   46.10    5.40
 -12  -6   3   37.50    4.60
  12  -6  -3   36.50    7.60
 -12   6   3   51.39    6.30
 -12   6   3   45.70    8.40
 -10  -6   3   93.09    6.70
  10  -6  -3  111.19   12.50
  10  -6  -3  104.09   10.90
 -10  -6   3   75.89   11.90
  10  -6  -3  114.09   11.30
 -10  -6   3   97.89    7.10
 -10   6   3  121.09   11.30
   8  -6  -3   83.99    9.00
   8  -6  -3   77.19    8.80
  -8  -6   3   66.89    5.10
   8  -6  -3   63.39    8.90
  -8  -6   3   63.09   11.40
  -8  -6   3   69.99    5.20
  -8  -6   3   75.69    5.60
  -8  -6   3   66.99    5.30
  -8   6   3   69.39    7.80
  -8   6   3   78.39    7.00
  -8   6   3   66.29    8.50
   6  -6  -3   14.30    4.40
   6  -6  -3    9.70    4.00
  -6  -6   3   25.10    3.50
  -6  -6   3   19.70    7.00
  -6  -6   3   19.00    2.70
  -6  -6   3   21.50    2.90
  -6   6   3   16.20    4.00
  -6   6   3   27.60    6.00
  -6   6   3   10.50    2.80
  -4  -6   3   61.49    4.70
  -4  -6   3   53.29    4.60
  -4  -6   3   59.99   10.80
   4  -6  -3   61.39    6.30
   4  -6  -3   51.19    6.20
  -4   6   3   52.39    5.60
  -4   6   3   57.79    7.30
   2  -6  -3   64.39    6.50
  -2  -6   3   58.19    5.00
  -2  -6   3   71.09    5.50
  -2  -6   3   48.70    9.90
  -2   6   3   58.39    5.10
  -2   6   3   78.89    6.10
  -2   6   3   65.89    7.40
   2   6  -3   60.39    5.60
   2   6  -3   55.29    5.10
   0  -6  -3  386.16   21.00
   0  -6   3  379.76   26.10
   0  -6   3  354.56   19.20
   0  -6   3  377.06   20.10
   0   6   3  391.06   21.20
   0   6  -3  409.16   23.70
   0   6   3  345.37   17.90
   0   6  -3  352.66   20.20
   0   6  -3  377.56   20.40
   0   6   3  365.36   19.60
   0   6  -3  359.66   21.90
   2  -6   3   83.99   11.40
   2  -6   3   86.09    6.90
  -2  -6  -3   84.29    7.80
   2  -6   3   79.89    7.80
   2   6   3   85.69    6.70
  -2   6  -3   83.29    8.00
  -2   6  -3   58.49    9.20
   2   6   3   92.59    7.90
  -2   6  -3  102.09   10.40
   4  -6   3  124.09   11.50
   4  -6   3  123.79    9.30
  -4  -6  -3  129.09   13.00
  -4  -6  -3  114.29    9.80
   4  -6   3  133.09   13.90
  -4   6  -3  120.69   12.80
   4   6   3  131.59    8.70
  -4   6  -3  137.69   12.90
  -4   6  -3  112.59   10.60
   4   6   3  124.89    9.50
  -6  -6  -3  129.19   10.70
   6  -6   3  137.99   15.30
  -6   6  -3  137.89   12.50
  -6   6  -3  141.09   14.00
  -6   6  -3  148.49   14.20
   6   6   3  129.99    8.90
   6   6   3  121.69    9.40
   6   6   3  120.29    7.60
   8  -6   3   83.79   14.20
  -8  -6  -3   70.69    8.60
  -8   6  -3   83.39   11.30
   8   6   3   68.39    6.80
   8   6   3   73.99    6.50
   8   6   3   63.49    6.40
  -8   6  -3   87.49   11.90
 -10  -6  -3   32.00    7.40
  10  -6   3   33.40   10.50
 -10   6  -3   46.10   10.50
  10   6   3   49.90    5.60
  10   6   3   49.80    6.60
 -10   6  -3   37.20    9.10
  10   6   3   41.80    5.10
  12  -6   3   -4.20    8.40
 -12  -6  -3   -1.40    5.60
 -12   6  -3   15.00    8.30
 -12   6  -3   10.70    7.20
  12   6   3   -1.60    6.20
  17  -7  -3  250.47   21.70
 -17  -7   3  285.57   18.20
 -17  -7   3  290.67   16.60
 -17   7   3  306.57   20.70
 -17   7   3  266.67   22.10
 -15  -7   3  409.76   20.80
  15  -7  -3  387.46   26.80
 -15  -7   3  415.86   22.50
 -15   7   3  436.36   25.30
 -15   7   3  381.66   27.10
  13  -7  -3  669.43   40.50
 -13  -7   3  739.63   35.70
 -13  -7   3  720.83   34.10
 -13  -7   3  687.73   43.50
 -13   7   3  746.23   41.20
 -13   7   3  790.82   38.80
 -11  -7   3 1448.06   65.49
 -11  -7   3 1358.06   74.19
  11  -7  -3 1400.56   71.29
 -11   7   3 1410.76   70.59
 -11   7   3 1432.06   67.99
   9  -7  -3  306.97   21.80
  -9  -7   3  298.07   24.10
  -9  -7   3  333.17   17.00
  -9  -7   3  280.17   14.90
   9  -7  -3  327.67   21.60
  -9   7   3  328.57   20.40
   7  -7  -3  439.76   26.60
  -7  -7   3  498.75   23.60
  -7  -7   3  436.16   21.30
   7  -7  -3  457.05   27.80
  -7  -7   3  504.65   32.20
  -7  -7   3  474.85   22.90
  -7  -7   3  417.36   21.70
  -7   7   3  413.86   26.70
  -7   7   3  440.16   25.70
  -7   7   3  456.25   24.70
  -5  -7   3 2491.15  118.59
   5  -7  -3 2438.96  110.59
  -5  -7   3 2323.37  106.59
   5  -7  -3 2406.56  112.49
  -5  -7   3 2499.75  107.79
  -5   7   3 2329.37  109.19
  -5   7   3 2251.37  109.69
  -5   7   3 2293.17  111.49
   3  -7  -3 1450.95   68.89
  -3  -7   3 1508.05   76.39
  -3  -7   3 1411.56   65.79
  -3  -7   3 1432.86   66.19
  -3   7   3 1393.26   66.99
  -3   7   3 1421.86   69.49
   3   7  -3 1415.36   65.39
  -3   7   3 1395.86   66.79
   3   7  -3 1461.55   65.49
  -1  -7   3 1196.08   55.79
  -1  -7   3 1231.78   64.99
  -1  -7   3 1085.39   55.09
   1  -7  -3 1182.68   57.39
  -1   7   3 1190.98   53.99
  -1   7   3 1163.88   55.59
  -1   7   3 1230.38   57.89
   1   7  -3 1221.88   56.09
   1   7  -3 1093.39   55.69
   1  -7   3  944.11   47.10
   1  -7   3 1045.70   56.19
  -1  -7  -3 1035.50   49.10
   1  -7   3  997.40   48.50
   1   7   3  975.60   46.90
  -1   7  -3  917.31   48.40
   1   7   3  962.80   48.40
  -1   7  -3  994.10   48.30
  -1   7  -3  980.30   50.59
  -3  -7  -3  494.35   27.30
   3  -7   3  528.05   34.30
   3  -7   3  488.15   26.40
   3  -7   3  527.95   28.90
  -3   7  -3  484.15   27.30
  -3   7  -3  501.75   30.20
  -3   7  -3  482.05   30.20
   3   7   3  499.85   25.30
  -3   7  -3  427.66   27.40
   3   7   3  530.35   26.90
   5  -7   3  579.84   36.10
   5  -7   3  583.44   38.00
  -5  -7  -3  572.04   31.20
  -5   7  -3  596.44   33.20
   5   7   3  567.14   28.50
  -5   7  -3  529.45   34.40
   5   7   3  594.54   29.70
  -7  -7  -3  524.55   31.10
   7  -7   3  551.44   37.80
   7   7   3  559.34   28.70
   7   7   3  538.35   27.90
  -7   7  -3  632.24   34.40
  -7   7  -3  646.64   37.20
   9  -7   3  622.04   41.30
  -9  -7  -3  611.64   34.30
   9   7   3  568.24   29.20
   9   7   3  586.14   29.40
  -9   7  -3  654.53   40.10
  -9   7  -3  671.03   37.70
 -11  -7  -3  236.48   18.20
  11  -7   3  218.18   24.70
 -11   7  -3  235.28   22.50
 -11   7  -3  221.48   21.00
 -16  -8   3  514.95   37.80
 -16  -8   3  580.04   29.60
  16  -8  -3  516.35   34.50
 -16   8   3  539.55   34.30
 -16   8   3  542.35   32.10
  14  -8  -3  551.24   35.80
 -14  -8   3  533.95   37.90
 -14  -8   3  563.74   29.60
 -14   8   3  606.54   32.60
 -14   8   3  575.04   34.40
 -12  -8   3 1108.89   61.09
 -12  -8   3  990.90   50.29
  12  -8  -3  981.10   56.59
 -12   8   3 1077.79   55.19
 -12   8   3 1119.09   53.29
 -10  -8   3 1379.96   76.09
  10  -8  -3 1375.96   72.59
 -10  -8   3 1371.16   66.29
 -10   8   3 1432.86   70.19
 -10   8   3 1508.05   68.59
  -8  -8   3 1650.93   74.29
   8  -8  -3 1452.55   79.09
   8  -8  -3 1557.74   78.19
  -8  -8   3 1569.34   73.69
  -8  -8   3 1762.62   85.79
  -8   8   3 1617.44   76.69
  -8   8   3 1525.85   75.29
   6  -8  -3 2013.80   96.29
  -6  -8   3 2062.99   91.29
   6  -8  -3 1988.70   98.99
  -6  -8   3 2145.79  105.29
  -6  -8   3 2012.10   93.29
  -6  -8   3 2003.30   91.49
  -6   8   3 2036.80   95.09
  -6   8   3 2020.40   94.79
  -4  -8   3 1464.65   74.99
  -4  -8   3 1370.06   62.69
   4  -8  -3 1307.07   68.29
  -4  -8   3 1375.16   63.59
  -4   8   3 1386.76   63.99
  -4   8   3 1312.97   64.39
  -4   8   3 1295.27   66.99
  -2  -8   3 1497.85   68.59
  -2  -8   3 1444.96   68.29
  -2  -8   3 1536.45   79.29
   2  -8  -3 1483.75   70.99
   2   8  -3 1388.36   68.09
  -2   8   3 1514.15   66.99
   2   8  -3 1459.95   68.19
  -2   8   3 1503.15   71.59
  -2   8   3 1344.37   68.49
   0  -8   3 2353.76  118.39
   0  -8   3 2447.66  108.99
   0  -8   3 2322.37  107.69
   0  -8  -3 2342.97  109.79
   0   8  -3 2127.39  108.39
   0   8   3 2317.17  107.29
   0   8  -3 2347.57  110.89
   0   8  -3 2448.66  108.89
   0   8   3 2420.36  109.89
   2  -8   3 1742.73   89.69
   2  -8   3 1759.82   81.59
  -2  -8  -3 1690.53   80.99
   2   8   3 1647.04   80.09
   2   8   3 1680.33   78.39
  -2   8  -3 1708.83   80.69
  -2   8  -3 1672.73   81.29
  -2   8  -3 1665.23   83.49
   4  -8   3 1197.38   69.29
   4  -8   3 1279.07   63.39
  -4  -8  -3 1173.58   60.99
  -4   8  -3 1253.97   65.09
  -4   8  -3 1371.36   63.49
   4   8   3 1256.47   58.29
   4   8   3 1188.28   59.49
   6  -8   3 1109.39   66.29
  -6  -8  -3 1193.28   58.99
   6   8   3 1162.78   54.99
  -6   8  -3 1241.48   63.99
   6   8   3 1078.39   55.59
  -6   8  -3 1319.77   61.99
   8  -8   3  555.84   41.00
  -8  -8  -3  573.14   33.90
   8   8   3  598.34   28.90
  -8   8  -3  656.83   39.70
   8   8   3  582.04   29.20
  -8   8  -3  683.03   37.80
  10  -8   3  411.86   34.20
 -10  -8  -3  391.56   25.80
 -10   8  -3  377.96   30.80
 -10   8  -3  437.86   29.70
 -15  -9   3   12.10    6.00
 -15   9   3   17.10    7.20
  13  -9  -3   96.59   14.90
 -13  -9   3   72.89   15.60
 -13  -9   3   85.39    9.70
 -13   9   3  101.49   12.40
 -13   9   3  102.39   10.90
 -11  -9   3  169.18   12.00
 -11  -9   3  133.59   18.30
  11  -9  -3  157.68   17.20
 -11   9   3  158.38   12.80
 -11   9   3  145.19   13.60
   9  -9  -3  150.38   16.40
  -9  -9   3  156.28   11.80
  -9  -9   3  135.49   18.70
  -9   9   3  170.58   12.70
  -9   9   3  158.78   13.10
  -7  -9   3  152.88   19.40
   7  -9  -3  167.98   16.50
   7  -9  -3  142.89   14.10
  -7  -9   3  129.49   11.40
  -7  -9   3  153.28   11.70
  -7   9   3  159.98   11.80
  -7   9   3  164.28   12.10
  -5  -9   3  183.98   10.00
   5  -9  -3  156.68   13.20
   5  -9  -3  178.28   16.60
  -5  -9   3  157.98   12.20
  -5  -9   3  201.78   21.10
  -5   9   3  169.28   11.90
  -5   9   3  187.38   12.60
  -3  -9   3  217.88   21.70
  -3  -9   3  204.88   12.40
   3  -9  -3  197.78   17.10
  -3  -9   3  215.38   13.30
   3  -9  -3  185.28   14.60
   3   9  -3  180.08   11.40
  -3   9   3  163.88   11.30
  -3   9   3  203.48   13.20
  -3   9   3  172.08   17.70
   3   9  -3  186.18   11.30
  -1  -9   3   85.99   15.60
  -1  -9   3   82.59    8.90
   1  -9  -3   88.39    9.80
  -1   9   3   89.29   11.30
   1   9  -3   89.99    9.50
   1   9  -3   97.89    8.90
  -1   9   3   99.19    8.20
   1  -9   3  171.48   13.20
   1  -9   3  158.28   18.30
  -1  -9  -3  166.18   13.50
  -1   9  -3  147.99   14.20
  -1   9  -3  167.68   13.40
   1   9   3  180.58   11.50
   1   9   3  139.09   13.70
  -1   9  -3  144.79   13.50
   3  -9   3  120.89   18.40
  -3  -9  -3   99.89   10.50
   3  -9   3  120.99   12.30
  -3   9  -3  125.09   13.60
   3   9   3  108.59    8.60
  -3   9  -3  107.89   11.70
   3   9   3  105.49   11.30
   5  -9   3   37.10   12.50
  -5  -9  -3   47.30    8.00
   5   9   3   50.09    5.70
   5   9   3   49.10    7.20
  -5   9  -3   63.79   10.10
  -5   9  -3   51.39   10.10
  -7  -9  -3  124.39   12.80
   7  -9   3   93.79   18.80
  -7   9  -3  149.29   15.90
  -7   9  -3  151.98   17.10
   7   9   3  145.39    8.80
  -9  -9  -3   46.40    9.20
   9  -9   3   50.29   14.50
  -9   9  -3   51.59   11.70
  -9   9  -3   48.30   10.60
 -12 -10   3  409.16   25.20
 -12 -10   3  435.76   36.20
  12 -10  -3  440.06   32.70
 -12  10   3  469.85   28.50
 -12  10   3  444.66   26.90
 -10 -10   3  392.86   34.60
  10 -10  -3  405.76   31.00
 -10 -10   3  425.66   24.70
 -10  10   3  433.46   25.40
 -10  10   3  437.06   26.30
   8 -10  -3  260.77   21.10
   8 -10  -3  270.97   23.60
  -8 -10   3  263.27   27.60
  -8  10   3  275.47   18.00
  -8  10   3  289.37   18.40
  -6 -10   3  429.46   33.30
   6 -10  -3  391.46   24.90
   6 -10  -3  361.66   28.60
  -6  10   3  413.36   23.10
  -6  10   3  407.56   23.20
  -4 -10   3  620.54   31.10
  -4 -10   3  687.73   45.60
   4 -10  -3  596.74   39.30
  -4  10   3  666.63   32.80
  -4  10   3  676.73   34.00
  -2 -10   3  362.26   20.20
   2 -10  -3  363.66   23.20
   2 -10  -3  356.96   26.20
  -2 -10   3  330.27   29.80
   2  10  -3  353.86   20.20
  -2  10   3  354.46   20.40
   2  10  -3  338.67   19.70
   0 -10   3  254.97   26.20
   0 -10   3  245.48   17.60
   0 -10  -3  273.07   19.20
   0  10   3  297.77   16.60
   0  10  -3  271.67   18.00
   0  10  -3  247.18   18.60
   0  10   3  294.97   20.90
   2 -10   3  469.15   28.80
   2 -10   3  503.85   38.00
  -2 -10  -3  465.85   29.00
  -2  10  -3  524.15   29.50
   2  10   3  458.95   28.50
   2  10   3  499.65   25.60
  -2  10  -3  499.55   31.10
  -4 -10  -3  260.47   19.30
   4 -10   3  228.98   25.80
   4  10   3  241.88   17.70
   4  10   3  280.87   15.30
  -4  10  -3  257.17   22.10
  -4  10  -3  291.07   20.80
   6 -10   3  101.79   18.60
  -6 -10  -3  113.19   13.20
   6  10   3  122.89    8.10
  -6  10  -3  113.29   15.80
  -6  10  -3  128.19   15.40
   9 -11  -3 1371.66   79.79
  -9 -11   3 1510.55   85.89
  -9  11   3 1566.94   73.09
  -9  11   3 1487.55   73.19
   7 -11  -3 1374.86   79.29
   7 -11  -3 1445.46   78.59
  -7 -11   3 1555.44   85.49
  -7  11   3 1555.04   72.39
  -7  11   3 1513.05   72.39
  -5 -11   3 1601.14   90.39
   5 -11  -3 1540.55   85.09
  -5  11   3 1638.94   75.89
  -5  11   3 1620.94   76.69
   3 -11  -3 1275.17   71.69
  -3 -11   3 1243.08   61.09
  -3 -11   3 1307.17   77.29
  -3  11   3 1377.56   63.69
  -3  11   3 1377.36   61.09
   1 -11  -3 1170.28   65.39
  -1 -11   3 1222.58   71.09
  -1 -11   3 1146.79   56.59
   1  11  -3 1172.68   56.69
  -1  11   3 1253.77   56.49
   1  11  -3 1040.30   56.59
   1 -11   3 1044.30   54.79
   1 -11   3 1116.79   66.89
  -1 -11  -3 1132.39   57.09
  -1  11  -3 1005.40   54.69
   1  11   3 1090.79   56.29
  -1  11  -3 1082.89   56.09
   1  11   3 1139.09   52.39
   3 -11   3  864.31   58.69
  -3 -11  -3  888.11   49.10
   3  11   3  925.51   44.10
  -3  11  -3  962.60   49.40
  -3  11  -3  926.41   51.69
  -2 -12   3  194.68   31.80
   2 -12  -3  246.28   25.00
  -2  12   3  268.67   16.80
 -20   0   4  697.33   42.50
 -20   0   4  718.03   37.30
 -18   0   4 2282.47  110.29
 -18   0   4 2193.78  103.09
 -16   0   4 1470.75   67.19
 -16   0   4 1402.16   72.79
 -14   0   4  625.34   30.70
 -14   0   4  592.44   34.80
  14   0  -4  680.43   36.90
 -12   0   4 2263.17  107.29
  12   0  -4 2537.15  112.59
 -12   0   4 2353.86  111.49
 -10   0   4 3135.79  148.79
  10   0  -4 3380.06  149.69
 -10   0   4 3268.17  145.59
  -8   0   4 3454.85  148.89
  -8   0   4 3470.55  152.58
   8   0  -4 3151.48  152.38
   6   0  -4 4017.60  178.88
  -6   0   4 3872.71  178.58
  -6   0   4 4038.60  178.78
  -6   0   4 4137.99  180.98
  -4   0   4 2426.66  110.89
   4   0  -4 2510.75  109.99
  -4   0   4 2476.65  110.29
   4   0  -4 2416.16  111.09
   2   0  -4 3365.86  148.99
   2   0  -4 3327.27  150.38
  -2   0   4 3292.27  148.89
   0   0   4 3191.98  142.89
   0   0   4 3085.99  141.89
   0   0   4 3052.69  143.69
   0   0  -4 3313.37  144.19
   2   0   4 9999.00  444.16
   4   0   4 6452.65  289.27
   4   0   4 6406.06  290.47
   4   0   4 6421.06  292.67
  -4   0  -4 6754.72  292.97
  -4   0  -4 6464.55  290.47
  -4   0  -4 6448.75  291.97
   6   0   4 1468.15   71.89
  -6   0  -4 1558.04   75.79
   6   0   4 1501.65   75.89
  -6   0  -4 1690.33   76.99
   6   0   4 1513.35   74.39
  -6   0  -4 1593.14   73.89
   8   0   4 1774.22   81.39
  -8   0  -4 1616.94   81.39
  -8   0  -4 1601.24   78.59
   8   0   4 1588.24   76.09
  -8   0  -4 1629.64   81.09
   8   0   4 1637.74   81.19
 -10   0  -4  906.61   48.50
  10   0   4  945.71   51.29
 -10   0  -4  957.90   51.69
  10   0   4  927.91   47.70
  12   0   4  632.34   39.60
 -12   0  -4  686.23   41.00
 -12   0  -4  642.64   37.50
 -14   0  -4  405.66   30.10
 -14   0  -4  392.86   26.90
  14   0   4  320.37   27.90
 -21  -1   4   92.49   10.30
 -21  -1   4   82.59   13.10
 -21   1   4   80.09   10.40
 -21   1   4   82.19   13.50
 -19  -1   4   63.69    7.50
 -19  -1   4   76.39    8.00
 -19  -1   4   81.49   12.30
 -19   1   4   68.29    8.20
 -19   1   4   75.89   12.60
 -17  -1   4   43.20    5.60
 -17  -1   4   33.40    7.90
 -17  -1   4   40.80    4.90
 -17   1   4   34.30    5.70
 -17   1   4   23.60    7.40
 -15  -1   4  179.38   10.50
 -15  -1   4  167.58   10.30
  15  -1  -4  173.98   16.60
 -15  -1   4  179.78   14.50
 -15   1   4  172.28   11.00
  15   1  -4  146.39   14.50
 -15   1   4  166.38   14.70
 -13  -1   4  435.46   21.30
 -13  -1   4  389.46   22.10
 -13  -1   4  453.25   21.30
 -13  -1   4  414.36   25.00
  13  -1  -4  468.15   27.70
 -13   1   4  422.16   25.80
 -13   1   4  435.56   22.30
  13   1  -4  422.36   25.60
 -11  -1   4  962.90   42.20
 -11  -1   4  983.00   43.30
  11  -1  -4  881.91   46.90
 -11  -1   4  903.41   45.60
 -11  -1   4  890.91   41.80
  11   1  -4  911.01   45.90
 -11   1   4  909.11   46.20
 -11   1   4  839.62   42.60
  -9  -1   4  527.45   27.90
   9  -1  -4  520.65   28.70
  -9  -1   4  570.94   26.10
  -9   1   4  512.95   28.20
  -9   1   4  531.25   25.80
  -7  -1   4  521.05   26.00
  -7  -1   4  575.74   27.80
   7  -1  -4  516.75   24.80
  -7   1   4  538.25   26.50
   7   1  -4  540.85   26.00
  -7   1   4  522.25   27.60
   5  -1  -4 2254.87   99.99
  -5  -1   4 2358.76   99.19
  -5  -1   4 2132.29  100.69
   5  -1  -4 2160.08  100.09
  -5   1   4 2200.88  100.29
  -5   1   4 2286.77  101.69
  -5   1   4 2130.99   99.79
   5   1  -4 2232.78  100.89
   3  -1  -4  794.52   38.30
   3  -1  -4  772.92   37.30
  -3  -1   4  798.42   38.70
  -3  -1   4  795.52   36.80
  -3   1   4  806.22   37.60
   3   1  -4  763.72   36.60
   3   1  -4  806.42   38.70
  -3   1   4  812.82   38.00
  -1  -1   4  654.23   30.20
  -1  -1   4  601.14   32.00
   1  -1  -4  593.24   31.80
   1  -1  -4  653.03   30.80
  -1  -1   4  653.03   31.40
   1   1  -4  616.84   32.00
   1   1  -4  634.14   30.30
  -1   1   4  632.54   31.10
  -1   1   4  628.64   30.60
   1  -1   4  935.01   48.80
   1  -1   4  969.00   46.40
  -1  -1  -4  996.90   47.20
   1  -1   4 1028.10   47.60
  -1  -1  -4  979.40   48.90
  -1   1  -4  986.80   47.00
  -1   1  -4 1015.40   49.00
   1   1   4  981.40   46.80
   1   1   4  994.80   47.30
  -1   1  -4 1019.50   48.70
  -3  -1  -4   48.10    7.10
   3  -1   4   33.40    4.50
  -3  -1  -4   40.40    5.10
  -3  -1  -4   36.60    4.50
   3  -1   4   35.10    5.90
   3  -1   4   38.90    4.20
   3   1   4   43.00    4.60
  -3   1  -4   41.20    5.70
   3   1   4   32.30    4.30
  -3   1  -4   39.40    4.70
   3   1   4   37.00    6.10
  -3   1  -4   37.70    6.50
   5  -1   4  114.39    8.30
  -5  -1  -4  109.59   11.20
   5  -1   4  127.89   11.30
   5  -1   4  118.79    9.80
  -5  -1  -4  122.09   10.10
  -5  -1  -4  122.69    9.40
   5   1   4  116.79    8.60
   5   1   4  117.79   10.60
  -5   1  -4  119.19   10.90
   5   1   4  125.59    9.70
  -5   1  -4  119.29   11.00
   7  -1   4  415.36   23.70
   7  -1   4  467.75   27.30
   7  -1   4  412.66   27.50
  -7  -1  -4  462.65   25.80
  -7  -1  -4  478.75   28.90
  -7  -1  -4  477.75   27.20
  -7   1  -4  457.35   26.00
   7   1   4  500.95   27.20
  -7   1  -4  447.46   28.20
   7   1   4  468.15   28.00
   7   1   4  427.66   23.80
  -7   1  -4  488.85   28.50
  -9  -1  -4  296.57   19.60
   9  -1   4  288.67   21.60
  -9  -1  -4  325.37   21.60
  -9  -1  -4  297.17   22.80
   9  -1   4  284.37   17.70
   9   1   4  345.57   22.90
   9   1   4  290.77   17.50
  -9   1  -4  299.17   20.10
  -9   1  -4  323.67   22.80
   9   1   4  300.87   21.60
  -9   1  -4  306.37   22.70
 -11  -1  -4  221.08   17.20
 -11  -1  -4  260.27   19.60
  11  -1   4  209.58   18.90
  11   1   4  204.58   19.00
 -11   1  -4  251.77   18.20
 -11   1  -4  220.88   20.20
  13  -1   4  152.78   18.20
 -13  -1  -4  153.28   15.40
 -13  -1  -4  135.59   16.80
 -13   1  -4  164.58   15.60
 -13   1  -4  168.28   18.70
 -20  -2   4  190.38   13.60
 -20  -2   4  173.48   14.50
 -20  -2   4  186.18   17.50
 -20   2   4  179.88   18.20
 -20   2   4  187.68   14.60
 -18  -2   4  220.08   15.10
 -18  -2   4  210.88   13.80
 -18  -2   4  242.58   19.40
 -18   2   4  202.88   18.90
 -18   2   4  255.47   15.60
 -16  -2   4   35.30    4.40
 -16  -2   4   51.39    6.50
 -16  -2   4   44.80    8.20
  16   2  -4   48.30    9.00
 -16   2   4   24.40    7.30
 -16   2   4   36.60    5.70
  14  -2  -4  273.17   21.60
 -14  -2   4  278.87   14.20
 -14  -2   4  292.77   16.10
 -14  -2   4  257.67   18.30
 -14   2   4  259.57   19.30
  14   2  -4  250.47   18.40
 -14   2   4  299.97   16.20
 -12  -2   4  771.52   39.00
  12  -2  -4  814.32   42.20
 -12  -2   4  821.02   36.70
 -12  -2   4  732.83   34.50
 -12  -2   4  616.44   37.50
  12   2  -4  767.02   38.90
 -12   2   4  769.22   40.20
 -12   2   4  723.83   36.50
 -10  -2   4  720.53   36.00
  10  -2  -4  818.22   38.90
 -10  -2   4  674.73   36.00
 -10   2   4  673.23   36.60
 -10   2   4  669.43   34.00
  -8  -2   4 3646.04  160.08
   8  -2  -4 3512.25  161.28
  -8  -2   4 3665.83  160.48
   8  -2  -4 3483.75  157.08
  -8   2   4 3432.86  158.38
  -8   2   4 3504.65  159.68
  -8   2   4 3510.15  160.68
  -6  -2   4 2406.76  108.59
   6  -2  -4 2400.16  107.19
  -6  -2   4 2462.35  104.79
   6  -2  -4 2282.87  106.39
  -6   2   4 2297.77  108.09
  -6   2   4 2441.86  107.79
   6   2  -4 2257.57  107.69
  -4  -2   4   49.40    3.50
  -4  -2   4   44.10    5.20
   4  -2  -4   60.79    4.80
   4  -2  -4   53.99    4.80
   4   2  -4   50.89    3.10
  -4   2   4   57.79    5.10
   4   2  -4   47.00    5.30
  -4   2   4   47.40    4.70
  -2  -2   4  992.00   46.60
   2  -2  -4 1020.60   46.20
   2  -2  -4  951.40   47.10
  -2  -2   4  950.70   45.10
  -2   2   4  951.40   46.70
   2   2  -4 1000.60   45.30
   2   2  -4  993.40   47.70
  -2   2   4  957.00   46.20
   0  -2   4 1402.86   64.29
   0  -2   4 1235.18   60.59
   0  -2  -4 1366.46   63.59
   0  -2  -4 1347.47   61.69
   0   2  -4 1338.17   61.29
   0   2   4 1261.17   61.29
   0   2  -4 1381.26   63.69
   0   2   4 1255.37   62.69
   0   2  -4 1328.37   63.29
   0   2   4 1297.37   61.49
  -2  -2  -4  634.44   33.30
  -2  -2  -4  632.94   31.20
   2  -2   4  597.94   30.00
   2  -2   4  618.84   33.50
   2  -2   4  610.84   31.20
  -2   2  -4  632.24   31.20
   2   2   4  634.94   30.70
   2   2   4  533.65   32.00
  -2   2  -4  602.64   33.00
   2   2   4  652.53   30.80
  -2   2  -4  628.74   33.10
  -4  -2  -4  301.87   17.10
   4  -2   4  320.97   17.80
  -4  -2  -4  305.07   19.50
  -4  -2  -4  299.07   17.30
   4  -2   4  269.17   15.70
   4  -2   4  279.17   19.30
   4   2   4  282.37   16.20
  -4   2  -4  286.47   18.80
   4   2   4  301.37   18.90
  -4   2  -4  237.08   18.40
   4   2   4  299.27   16.70
  -4   2  -4  276.07   17.10
  -6  -2  -4  149.99   10.90
   6  -2   4  125.09    9.30
  -6  -2  -4  128.09   10.70
  -6  -2  -4  145.69   13.60
   6  -2   4  141.79   11.80
   6  -2   4  136.69   12.90
  -6   2  -4  152.08   11.40
  -6   2  -4  104.49   11.90
   6   2   4  144.19   11.30
   6   2   4  144.39    9.70
   6   2   4  133.89   12.00
  -6   2  -4  144.39   12.80
   8  -2   4  109.99    9.40
  -8  -2  -4  134.19   11.10
  -8  -2  -4  147.39   15.00
  -8  -2  -4  112.39   11.00
   8  -2   4  137.49   13.60
  -8   2  -4  121.29   13.40
   8   2   4  149.79   13.60
   8   2   4  119.29   12.50
  -8   2  -4  127.89   11.40
  -8   2  -4  111.89   13.00
   8   2   4  127.39    9.50
 -10  -2  -4  127.49   12.50
  10  -2   4  119.29   14.00
 -10  -2  -4  114.29   11.50
  10   2   4  137.99   15.90
  10   2   4  123.99    9.90
 -10   2  -4  136.39   15.30
 -10   2  -4  116.09   11.90
  12  -2   4  143.79   16.50
 -12  -2  -4  144.79   14.80
 -12  -2  -4  137.39   14.10
 -12   2  -4  154.18   15.60
 -12   2  -4  129.79   17.30
  12   2   4  149.99   15.00
 -14  -2  -4   59.39   11.70
  14  -2   4   73.19   13.70
 -14  -2  -4   57.79   10.80
 -14   2  -4   72.29   12.10
 -14   2  -4   56.59   13.30
 -21  -3   4  284.17   22.40
 -21  -3   4  373.86   24.80
 -21  -3   4  341.27   21.00
 -21   3   4  335.77   22.60
 -21   3   4  314.27   25.80
 -19  -3   4  779.22   39.20
 -19  -3   4  753.02   41.20
 -19  -3   4  826.82   44.40
 -19   3   4  798.92   41.40
 -19   3   4  761.62   46.10
 -17  -3   4  904.61   47.50
 -17  -3   4  883.21   44.50
 -17  -3   4  898.41   41.80
 -17   3   4  935.81   44.20
  17   3  -4  789.42   46.50
 -17   3   4  785.52   48.50
 -15  -3   4 1042.80   54.79
 -15  -3   4 1131.79   49.90
 -15  -3   4 1140.09   53.19
  15   3  -4 1055.69   54.59
 -15   3   4  952.10   56.39
 -15   3   4 1121.39   52.39
 -13  -3   4 1933.11   93.09
 -13  -3   4 1946.01   88.29
  13  -3  -4 2172.68   98.59
 -13   3   4 1880.41   94.99
 -13   3   4 1960.30   91.29
 -11  -3   4 3310.27  150.18
 -11  -3   4 2820.82  151.38
  11  -3  -4 3698.63  147.29
  11  -3  -4 3642.34  154.78
 -11   3   4 3241.58  148.79
 -11   3   4 3039.50  151.58
  -9  -3   4 2804.22  125.99
  -9  -3   4 2687.23  128.69
   9  -3  -4 2976.50  124.49
   9  -3  -4 2945.41  128.99
  -9   3   4 2713.63  124.89
  -9   3   4 2647.83  126.39
  -9   3   4 2548.34  126.99
   7  -3  -4 2659.43  116.69
  -7  -3   4 2278.07  117.19
  -7   3   4 2530.95  114.19
  -7   3   4 2598.04  115.79
  -7   3   4 2539.25  115.79
   5  -3  -4 5228.68  233.18
   5  -3  -4 5111.39  233.08
  -5  -3   4 5293.07  230.78
  -5  -3   4 5224.18  236.18
  -5   3   4 5263.17  233.48
   5   3  -4 5154.68  234.48
   3  -3  -4 4684.13  214.68
  -3  -3   4 4808.72  212.18
   3  -3  -4 4742.63  213.78
  -3  -3   4 4658.03  213.78
  -3  -3   4 4635.34  216.78
   3   3  -4 4731.03  211.98
  -3   3   4 4833.22  214.18
   3   3  -4 4829.22  215.78
  -3   3   4 5063.39  214.08
  -1  -3   4 4026.90  183.78
   1  -3  -4 3985.00  180.68
  -1  -3   4 3847.52  179.18
  -1  -3   4 3965.70  180.68
   1  -3  -4 4265.07  182.68
   1   3  -4 4016.90  179.88
  -1   3   4 4099.49  180.78
   1   3  -4 3887.11  182.08
   1   3  -4 4084.69  182.88
   1  -3   4 3304.37  149.29
   1  -3   4 3219.68  152.48
   1  -3   4 3228.48  147.79
  -1  -3  -4 3464.15  149.49
  -1  -3  -4 3423.26  151.68
   1   3   4 3324.77  148.49
  -1   3  -4 3321.97  149.09
  -1   3  -4 3276.27  151.38
   1   3   4 3377.26  149.09
  -1   3  -4 3011.40  150.98
   3  -3   4 2310.87  111.39
  -3  -3  -4 2451.95  107.99
  -3  -3  -4 2483.55  111.09
   3  -3   4 2172.48  106.09
   3  -3   4 2317.17  107.99
   3   3   4 2369.96  106.69
  -3   3  -4 2114.19  110.29
   3   3   4 2397.86  107.19
  -3   3  -4 2373.06  108.19
  -3   3  -4 2435.26  110.39
   5  -3   4 1838.62   81.69
  -5  -3  -4 1736.73   83.59
  -5  -3  -4 1686.13   80.19
  -5  -3  -4 1750.02   79.89
   5  -3   4 1633.34   78.29
   5  -3   4 1639.94   83.89
   5   3   4 1722.23   78.99
  -5   3  -4 1538.85   83.39
  -5   3  -4 1686.43   80.89
  -5   3  -4 1716.33   82.89
   5   3   4 1742.13   79.59
  -7  -3  -4 1029.10   51.09
   7  -3   4  935.81   48.90
  -7  -3  -4 1018.10   50.79
  -7  -3  -4 1094.29   55.39
   7  -3   4 1071.49   55.29
   7   3   4 1041.10   51.79
  -7   3  -4  920.21   54.59
  -7   3  -4 1028.30   52.29
   7   3   4 1065.89   49.30
  -7   3  -4 1030.20   53.99
  -9  -3  -4  844.62   42.90
  -9  -3  -4  840.02   43.00
   9  -3   4  870.61   47.30
   9   3   4  824.52   44.60
   9   3   4  775.02   39.80
  -9   3  -4  870.91   44.70
  -9   3  -4  672.43   46.20
 -11  -3  -4  733.03   40.30
 -11  -3  -4  714.63   40.00
  11  -3   4  730.53   44.30
 -11   3  -4  756.42   42.10
  11   3   4  715.33   36.50
 -11   3  -4  727.53   46.10
 -13  -3  -4  244.88   20.50
  13  -3   4  245.38   24.30
 -13  -3  -4  269.67   20.50
  13   3   4  278.47   17.80
 -13   3  -4  297.97   26.50
 -13   3  -4  259.17   22.00
 -20  -4   4  133.09   11.50
 -20  -4   4   97.69   13.90
 -20  -4   4  134.99   14.10
 -20   4   4  133.19   12.80
 -20   4   4  133.69   15.80
 -18  -4   4  263.17   18.60
 -18  -4   4  255.07   19.60
 -18  -4   4  219.08   14.40
 -18   4   4  217.38   19.90
 -18   4   4  245.08   16.80
 -16  -4   4  570.04   31.80
 -16  -4   4  554.14   27.50
 -16  -4   4  538.05   31.70
 -16   4   4  521.35   34.40
 -16   4   4  591.44   30.20
 -14  -4   4  799.02   40.60
 -14  -4   4  808.72   36.10
 -14  -4   4  838.12   40.80
 -14  -4   4  626.44   41.60
  14  -4  -4  804.42   37.10
 -14   4   4  805.82   39.30
 -14   4   4  713.03   42.80
 -12  -4   4 1218.48   54.09
 -12  -4   4 1191.18   58.39
  12  -4  -4 1272.97   57.09
 -12  -4   4 1022.20   61.09
  12  -4  -4 1287.47   63.89
 -12   4   4 1206.48   61.19
 -12   4   4 1226.78   57.89
 -12   4   4 1220.08   59.39
  10  -4  -4  716.93   37.50
 -10  -4   4  565.34   36.40
  10  -4  -4  736.63   33.40
 -10  -4   4  676.93   33.30
 -10   4   4  609.04   32.50
 -10   4   4  604.04   34.80
 -10   4   4  673.73   34.80
  -8  -4   4  629.14   38.10
  -8  -4   4  701.83   34.20
   8  -4  -4  740.83   37.00
   8  -4  -4  674.73   33.70
  -8   4   4  676.03   35.50
  -8   4   4  684.13   33.70
  -8   4   4  679.73   35.50
  -6  -4   4 2355.96  121.59
   6  -4  -4 2677.83  118.99
  -6  -4   4 2651.33  114.79
   6  -4  -4 2724.93  118.29
  -6   4   4 2642.44  118.89
  -6   4   4 2473.85  117.99
  -6   4   4 2534.05  117.19
  -4  -4   4 2141.89   96.19
   4  -4  -4 2075.99   96.79
  -4  -4   4 2050.49  100.99
  -4  -4   4 2048.79   94.29
   4   4  -4 2133.19   98.69
  -4   4   4 2098.69   96.19
  -4   4   4 2105.79   96.39
  -4   4   4 2181.68   97.49
  -2  -4   4 1532.75   70.79
  -2  -4   4 1626.24   77.29
   2  -4  -4 1523.05   74.29
   2  -4  -4 1566.04   72.79
  -2  -4   4 1572.74   72.29
  -2   4   4 1508.75   72.89
  -2   4   4 1579.64   71.89
   2   4  -4 1571.44   71.29
   0  -4  -4 1104.59   55.99
   0  -4   4 1211.58   60.69
   0  -4  -4 1191.08   58.59
   0  -4   4 1185.28   55.99
   0  -4   4 1114.79   54.39
   0   4   4 1210.68   56.29
   0   4  -4 1178.48   58.49
   0   4   4 1233.78   55.29
   0   4  -4 1172.28   55.69
   0   4  -4 1209.08   58.39
  -2  -4  -4  753.12   37.30
   2  -4   4  736.63   37.20
   2  -4   4  760.72   41.60
  -2  -4  -4  763.92   40.00
   2  -4   4  702.43   35.50
  -2   4  -4  769.92   40.00
  -2   4  -4  747.43   37.50
  -2   4  -4  718.43   39.80
   2   4   4  728.53   35.60
   2   4   4  749.53   36.90
  -4  -4  -4  722.83   35.60
   4  -4   4  729.93   36.30
  -4  -4  -4  691.13   38.70
   4  -4   4  646.44   33.50
   4  -4   4  707.83   39.60
  -4   4  -4  688.43   36.10
   4   4   4  693.13   34.40
  -4   4  -4  579.44   37.70
   4   4   4  671.93   33.60
  -4   4  -4  728.03   38.30
   6  -4   4  768.72   42.40
   6  -4   4  848.92   48.80
   6  -4   4  903.61   46.60
  -6  -4  -4  935.51   48.90
  -6  -4  -4  932.81   45.10
   6   4   4  874.31   43.00
  -6   4  -4  927.11   47.90
   6   4   4  938.91   44.30
  -6   4  -4  751.62   47.90
  -6   4  -4  935.81   46.30
   8  -4   4  518.15   32.50
  -8  -4  -4  494.15   28.00
  -8  -4  -4  489.25   27.00
  -8   4  -4  483.35   29.50
  -8   4  -4  483.35   34.00
   8   4   4  495.85   28.60
   8   4   4  477.45   25.50
  -8   4  -4  432.36   31.80
  10  -4   4  156.78   18.40
 -10  -4  -4  175.58   14.20
 -10  -4  -4  173.28   14.90
  10   4   4  177.18   12.40
 -10   4  -4  193.08   17.10
  10   4   4  209.88   17.10
 -10   4  -4  180.88   19.40
 -12  -4  -4  237.78   18.50
  12  -4   4  243.18   23.10
 -12  -4  -4  254.37   19.20
  12   4   4  225.88   15.40
 -12   4  -4  240.08   23.90
 -12   4  -4  214.68   20.00
 -19  -5   4   63.89   12.20
 -19  -5   4   94.69    9.40
 -19  -5   4   86.39   10.50
 -19   5   4   60.59   11.10
 -19   5   4   75.09   10.30
 -17  -5   4   51.69   10.60
 -17  -5   4   52.09   10.90
 -17  -5   4   56.39    8.70
 -17  -5   4   60.19    6.60
  17  -5  -4   49.40    6.10
 -17   5   4   56.19    7.80
 -17   5   4   50.59    9.80
  15  -5  -4   16.60    4.50
 -15  -5   4   34.40    6.70
 -15  -5   4   12.40    6.70
 -15  -5   4   16.60    7.00
 -15  -5   4   27.00    3.90
 -15   5   4   11.40    5.50
 -15   5   4   28.90    5.30
 -13  -5   4  285.57   17.60
 -13  -5   4  306.17   14.60
 -13  -5   4  236.18   20.80
  13  -5  -4  288.47   17.80
 -13   5   4  273.97   20.40
 -13   5   4  302.37   17.70
 -11  -5   4  148.49   11.10
 -11  -5   4  147.19   15.20
  11  -5  -4  172.28   15.60
 -11  -5   4  155.28    8.50
  11  -5  -4  212.38   13.20
 -11   5   4  181.98   11.90
 -11   5   4  171.08   13.80
  -9  -5   4  232.78   13.60
  -9  -5   4  227.08   11.10
  -9  -5   4  236.28   10.90
  -9  -5   4  208.98   18.70
   9  -5  -4  231.88   17.20
   9  -5  -4  253.67   15.20
  -9   5   4  201.78   13.50
  -9   5   4  213.78   15.60
  -9   5   4  209.28   15.20
  -7  -5   4  959.70   44.70
  -7  -5   4 1067.49   45.70
  -7  -5   4  983.70   53.89
   7  -5  -4 1034.60   50.09
  -7   5   4  942.71   48.60
  -7   5   4  949.11   47.40
  -7   5   4  999.00   49.70
  -5  -5   4  166.08    9.20
  -5  -5   4  179.38   10.90
   5  -5  -4  188.48   12.20
  -5  -5   4  152.08   14.90
  -5   5   4  187.68   11.40
  -5   5   4  192.08   13.00
  -5   5   4  167.38   11.30
  -3  -5   4  182.98   16.50
   3  -5  -4  190.18   12.70
  -3  -5   4  204.48   12.00
  -3  -5   4  185.58   10.60
  -3   5   4  206.08   12.30
   3   5  -4  199.18   14.80
  -3   5   4  195.18   11.80
   3   5  -4  196.98   10.80
  -3   5   4  209.88   13.60
   3   5  -4  210.68   11.00
   1  -5  -4  446.66   25.70
  -1  -5   4  400.26   21.10
  -1  -5   4  396.76   27.30
  -1  -5   4  434.36   22.40
   1  -5  -4  413.06   23.00
  -1   5   4  446.46   22.60
   1   5  -4  422.06   22.20
  -1   5   4  443.06   23.60
  -1   5   4  431.36   21.50
   1   5  -4  428.76   25.70
   1   5  -4  412.96   24.50
   1  -5   4   78.09   11.80
  -1  -5  -4   82.19    7.30
   1  -5   4   94.09    7.50
   1  -5   4   64.09    5.80
  -1  -5  -4   86.29    9.80
   1   5   4   79.29    6.00
  -1   5  -4   70.29    7.10
   1   5   4   71.39    7.20
  -1   5  -4   81.59    9.00
  -1   5  -4   75.49    8.90
   3  -5   4  166.28   11.00
  -3  -5  -4  180.08   15.20
  -3  -5  -4  186.28   12.70
   3  -5   4  185.38   12.90
   3  -5   4  165.68   16.20
   3   5   4  169.88   12.10
   3   5   4  178.68   10.50
  -3   5  -4  185.68   13.30
  -3   5  -4  184.68   14.80
  -3   5  -4  174.68   15.00
   5  -5   4   62.49    9.30
  -5  -5  -4   66.89    7.50
   5  -5   4   61.49   10.60
  -5  -5  -4   46.20    9.90
   5   5   4   64.09    7.00
  -5   5  -4   60.39    9.90
  -5   5  -4   51.29    8.20
  -5   5  -4   60.89   10.40
   5   5   4   70.89    6.70
  -7  -5  -4   14.00    4.40
   7  -5   4   29.50    8.30
  -7   5  -4   16.50    5.60
   7   5   4   24.10    4.70
   7   5   4   23.50    5.50
  -7   5  -4   19.80    6.80
  -9  -5  -4   60.69    9.20
   9  -5   4   48.80   11.20
   9   5   4   57.29    7.10
   9   5   4   48.30    8.20
  -9   5  -4   44.00   10.60
  -9   5  -4   36.60    8.50
  11  -5   4   30.70   11.10
 -11  -5  -4   61.19   10.00
  11   5   4   73.69    8.20
 -11   5  -4   54.49   10.00
 -11   5  -4   62.79   13.80
  11   5   4   61.19   10.90
 -13  -5  -4   65.49   11.30
  13  -5   4   46.10   14.00
 -13   5  -4   38.90   11.70
 -13   5  -4   24.90    8.90
 -18  -6   4  480.85   25.50
 -18  -6   4  487.75   26.60
  18  -6  -4  425.36   25.40
 -18  -6   4  411.86   32.50
 -18   6   4  487.05   32.10
 -18   6   4  524.75   29.00
 -16  -6   4  764.32   37.60
  16  -6  -4  672.73   37.70
 -16  -6   4  763.92   35.40
 -16  -6   4  612.74   42.80
 -16   6   4  700.63   42.10
 -16   6   4  783.32   38.80
 -14  -6   4 1265.97   74.49
 -14  -6   4 1462.05   65.59
 -14  -6   4 1538.95   68.59
  14  -6  -4 1345.87   69.49
 -14   6   4 1436.96   73.39
 -14   6   4 1496.65   69.19
  12  -6  -4 2161.18   96.79
 -12  -6   4 2052.19   93.59
 -12  -6   4 2087.39   91.29
 -12  -6   4 1825.62  100.79
 -12   6   4 1929.01   98.09
 -12   6   4 2077.59   95.09
 -10  -6   4 1180.48   65.49
 -10  -6   4 1229.58   54.79
  10  -6  -4 1223.18   59.99
 -10  -6   4 1209.38   56.79
 -10  -6   4 1205.18   54.99
  10  -6  -4 1354.06   63.39
 -10   6   4 1105.39   57.79
 -10   6   4 1134.79   60.29
  -8  -6   4  753.72   35.60
   8  -6  -4  691.93   37.60
   8  -6  -4  761.82   39.30
  -8  -6   4  705.63   33.40
  -8  -6   4  744.03   34.20
  -8  -6   4  761.32   35.00
  -8  -6   4  714.43   43.80
  -8   6   4  691.23   36.00
  -8   6   4  676.13   37.50
  -8   6   4  690.23   38.50
   6  -6  -4 1894.71   88.89
  -6  -6   4 2029.40   86.29
  -6  -6   4 1795.12   84.79
  -6  -6   4 1868.11   95.29
  -6   6   4 1782.62   87.79
  -6   6   4 1824.02   87.09
  -6   6   4 1994.30   89.99
  -4  -6   4 2469.55  122.19
  -4  -6   4 2340.97  111.69
   4  -6  -4 2566.14  115.39
  -4  -6   4 2569.04  112.99
  -4   6   4 2491.35  113.79
  -4   6   4 2365.46  113.49
  -4   6   4 2645.24  116.39
  -2  -6   4 2616.64  123.59
  -2  -6   4 2699.03  124.59
  -2  -6   4 2747.33  133.59
   2  -6  -4 2670.63  126.29
   2   6  -4 2873.61  124.59
  -2   6   4 2737.43  125.09
  -2   6   4 2694.23  123.99
   2   6  -4 2890.61  124.59
  -2   6   4 2811.02  127.09
   0  -6   4 2565.44  117.99
   0  -6  -4 2584.84  122.49
   0  -6   4 2455.15  116.59
   0  -6   4 2616.24  126.19
   0  -6  -4 2570.14  118.99
   0   6  -4 2606.44  121.89
   0   6   4 2447.35  118.89
   0   6   4 2599.54  115.99
   0   6  -4 2544.15  118.49
   0   6  -4 2767.82  118.09
   0   6   4 2685.53  117.89
   0   6   4 2576.14  116.19
   0   6  -4 2519.35  121.29
  -2  -6  -4 1155.98   54.89
   2  -6   4 1146.99   54.79
  -2  -6  -4 1074.59   58.19
   2  -6   4 1044.40   52.49
   2  -6   4 1136.39   61.39
  -2   6  -4 1092.59   55.19
   2   6   4 1142.19   54.29
   2   6   4 1092.99   50.89
  -2   6  -4 1040.90   57.59
  -2   6  -4 1170.48   58.39
   2   6   4 1137.19   53.29
   2   6   4 1138.09   51.19
   4  -6   4 1276.97   70.19
  -4  -6  -4 1354.06   63.69
   4  -6   4 1357.76   64.89
   4   6   4 1280.37   62.19
  -4   6  -4 1176.68   67.09
  -4   6  -4 1260.27   64.79
  -4   6  -4 1261.07   66.49
   4   6   4 1414.66   60.29
  -6  -6  -4 1502.25   71.69
   6  -6   4 1456.25   78.19
  -6   6  -4 1491.75   73.89
   6   6   4 1413.86   69.29
  -6   6  -4 1422.36   76.59
   6   6   4 1523.35   68.29
   8  -6   4  577.54   40.40
  -8  -6  -4  680.23   35.50
  -8   6  -4  593.34   37.10
  -8   6  -4  669.83   41.10
   8   6   4  605.24   31.80
   8   6   4  620.74   31.70
  10  -6   4  524.65   37.20
 -10  -6  -4  539.75   31.10
  10   6   4  512.55   26.30
  10   6   4  483.05   26.20
 -10   6  -4  563.34   34.20
 -10   6  -4  486.65   36.40
  10   6   4  466.05   27.90
 -12  -6  -4  259.57   20.90
  12  -6   4  238.38   25.80
  12   6   4  235.58   14.70
 -12   6  -4  298.47   27.70
 -17  -7   4  309.87   18.80
  17  -7  -4  323.87   22.30
 -17  -7   4  327.17   18.50
 -17  -7   4  277.37   27.10
 -17   7   4  359.56   25.30
 -17   7   4  344.17   21.90
 -15  -7   4  567.64   41.20
 -15  -7   4  680.33   32.60
 -15  -7   4  649.83   32.10
  15  -7  -4  632.04   36.70
 -15   7   4  658.93   38.80
 -15   7   4  682.03   35.50
 -13  -7   4  969.50   42.40
 -13  -7   4  850.81   51.69
 -13  -7   4  808.52   41.10
  13  -7  -4  859.81   46.70
 -13   7   4  878.71   44.40
 -13   7   4  838.52   47.30
 -11  -7   4 1188.08   67.39
  11  -7  -4 1205.18   61.89
 -11  -7   4 1204.08   56.49
 -11  -7   4 1252.07   56.19
 -11   7   4 1196.18   61.99
 -11   7   4 1212.28   59.19
  -9  -7   4 2143.99   91.19
  -9  -7   4 2132.19  104.19
   9  -7  -4 1974.80   97.19
  -9  -7   4 1998.60   91.49
   9  -7  -4 1981.60   96.49
  -9  -7   4 2043.50   90.89
  -9  -7   4 1957.60   91.49
  -9   7   4 1966.30   93.79
  -9   7   4 1875.31   95.49
   7  -7  -4 3147.98  145.29
  -7  -7   4 3055.59  139.99
   7  -7  -4 3169.28  144.79
  -7  -7   4 3233.88  140.29
  -7  -7   4 3204.58  152.58
  -7   7   4 2900.21  143.39
  -7   7   4 3161.28  142.59
  -5  -7   4 3042.50  142.49
  -5  -7   4 2894.31  130.19
   5  -7  -4 2899.41  133.69
  -5  -7   4 2853.11  129.99
  -5   7   4 3063.19  135.09
  -5   7   4 2734.23  131.89
  -5   7   4 2775.92  131.69
  -3  -7   4 1285.57   70.39
   3  -7  -4 1319.87   62.59
  -3  -7   4 1280.67   59.89
  -3  -7   4 1247.48   59.49
  -3   7   4 1218.08   59.79
  -3   7   4 1315.97   63.49
  -3   7   4 1275.27   60.79
   3   7  -4 1336.87   59.29
   3   7  -4 1265.67   59.19
   1  -7  -4 1406.16   67.89
  -1  -7   4 1377.26   65.39
  -1  -7   4 1416.76   66.39
  -1  -7   4 1424.56   75.79
   1   7  -4 1395.06   66.69
  -1   7   4 1509.35   68.69
   1   7  -4 1442.76   66.49
  -1   7   4 1324.57   64.19
  -1   7   4 1383.36   66.09
  -1  -7  -4 1014.40   50.79
   1  -7   4 1038.60   49.00
   1  -7   4 1066.79   50.69
   1  -7   4 1074.29   59.29
  -1   7  -4  964.30   53.29
  -1   7  -4 1016.00   49.99
  -1   7  -4  981.10   50.89
   1   7   4  983.20   50.59
   1   7   4 1042.10   49.20
   3  -7   4  552.74   37.50
  -3  -7  -4  514.75   30.30
   3  -7   4  585.14   31.70
  -3   7  -4  578.24   32.10
  -3   7  -4  563.04   34.40
   3   7   4  571.44   30.10
   3   7   4  535.45   28.40
  -5  -7  -4  928.01   48.30
   5  -7   4  983.90   56.59
   5   7   4  913.21   46.50
   5   7   4  930.31   45.50
  -5   7  -4  990.40   50.79
  -5   7  -4  932.11   53.19
  -7  -7  -4  422.96   26.50
   7  -7   4  453.65   33.50
   7   7   4  425.66   24.00
  -7   7  -4  456.65   29.40
   7   7   4  438.86   23.30
  -7   7  -4  470.85   32.20
  -9  -7  -4  160.78   15.10
   9  -7   4  138.29   21.10
   9   7   4  161.98   10.80
   9   7   4  152.98   11.50
  -9   7  -4  172.98   17.50
  -9   7  -4  155.08   18.80
  11  -7   4  325.17   30.60
 -11  -7  -4  339.07   24.50
 -11   7  -4  353.06   30.30
  11   7   4  319.37   17.40
 -16  -8   4   -2.80    9.40
  16  -8  -4    0.30    7.70
 -16  -8   4    2.30    4.60
 -16   8   4   -2.20    5.20
 -16   8   4   -2.70    4.60
  14  -8  -4   24.50    8.30
 -14  -8   4   15.00    4.30
 -14  -8   4    5.70    9.10
 -14   8   4   12.90    4.60
 -14   8   4   19.60    6.60
 -12  -8   4   28.20   10.80
 -12  -8   4   38.00    5.30
  12  -8  -4   37.20    8.70
 -12   8   4   22.80    5.10
 -12   8   4   29.70    7.10
 -10  -8   4  119.69    7.40
  10  -8  -4  113.59   14.30
 -10  -8   4  131.39    9.40
 -10  -8   4  110.59   17.60
 -10  -8   4  126.29    7.00
  10  -8  -4  141.69   14.00
 -10   8   4  104.49   11.20
 -10   8   4  128.79   10.70
   8  -8  -4    8.50    5.70
  -8  -8   4    3.60    7.50
  -8  -8   4    8.60    3.00
  -8  -8   4   11.40    2.20
  -8  -8   4   10.40    2.80
   8  -8  -4    8.40    5.40
  -8   8   4    5.80    3.10
  -8   8   4    9.90    4.30
  -6  -8   4   59.29    5.10
   6  -8  -4   65.89    8.70
  -6  -8   4   49.10   12.30
  -6  -8   4   60.59    6.10
  -6   8   4   61.19    6.70
  -4  -8   4  360.26   19.50
  -4  -8   4  379.36   19.80
   4  -8  -4  359.76   22.50
  -4  -8   4  362.86   29.50
  -4   8   4  362.06   20.40
  -4   8   4  359.96   20.70
  -4   8   4  385.46   24.50
  -2  -8   4   19.60    4.20
   2  -8  -4    9.00    4.00
  -2  -8   4   15.00    3.90
  -2  -8   4   12.80    7.00
   2   8  -4   12.30    3.70
  -2   8   4   14.30    2.90
  -2   8   4   19.70    6.40
   2   8  -4    5.70    3.80
  -2   8   4   13.00    3.30
   0  -8  -4    7.00    3.80
   0  -8   4    6.10    3.70
   0  -8   4   12.20    7.60
   0   8  -4    5.60    3.80
   0   8   4    5.00    2.90
   0   8  -4    9.00    4.70
   0   8  -4    9.40    5.10
   0   8   4    7.40    5.60
   2  -8   4   11.90    5.10
  -2  -8  -4    2.40    3.30
   2  -8   4    3.20    6.20
  -2   8  -4    4.00    4.60
   2   8   4   10.10    3.30
   2   8   4   11.20    5.30
  -2   8  -4    6.50    4.90
  -2   8  -4   -0.90    4.70
   4  -8   4   10.50    8.50
  -4  -8  -4    0.40    3.80
   4   8   4    5.60    5.10
   4   8   4    3.40    3.00
  -4   8  -4   -4.40    5.20
  -4   8  -4    4.70    5.20
   6  -8   4    7.20    9.10
  -6  -8  -4   15.00    5.50
   6   8   4    3.90    5.20
   6   8   4   19.20    4.20
  -6   8  -4   27.90    7.40
  -6   8  -4   22.40    8.30
   8  -8   4    2.40    9.40
  -8  -8  -4   18.70    6.60
  -8   8  -4   19.30    8.20
   8   8   4    2.70    4.80
  -8   8  -4   15.20    8.60
   8   8   4   19.70    4.10
  10  -8   4   39.30   15.00
 -10  -8  -4   38.90    9.10
  10   8   4   42.70    5.80
 -10   8  -4   41.60   12.90
 -10   8  -4   40.10   11.20
  15  -9  -4  404.66   29.20
 -15  -9   4  369.86   33.80
 -15  -9   4  421.56   22.90
 -15   9   4  388.86   26.90
 -15   9   4  383.86   25.10
 -13  -9   4  601.64   43.80
 -13  -9   4  592.04   31.00
  13  -9  -4  566.94   36.90
 -13   9   4  587.14   35.10
 -13   9   4  631.54   33.60
 -11  -9   4  800.52   39.10
  11  -9  -4  699.53   44.50
 -11  -9   4  802.12   52.09
 -11   9   4  752.92   42.10
 -11   9   4  826.72   41.00
  -9  -9   4  593.44   29.60
   9  -9  -4  575.74   34.40
   9  -9  -4  550.14   35.00
  -9  -9   4  580.94   41.40
  -9   9   4  549.85   31.60
  -9   9   4  549.74   30.80
   7  -9  -4 1095.59   58.29
  -7  -9   4 1194.18   53.19
  -7  -9   4 1169.98   68.39
   7  -9  -4 1120.29   61.09
  -7  -9   4 1141.69   53.59
  -7  -9   4 1169.98   55.19
  -7   9   4 1168.78   56.89
  -7   9   4 1179.08   56.89
  -5  -9   4 1383.86   63.89
   5  -9  -4 1391.66   70.49
  -5  -9   4 1400.26   77.99
  -5  -9   4 1332.57   64.59
  -5   9   4 1360.66   65.89
  -5   9   4 1367.06   64.99
   3  -9  -4  815.42   42.90
  -3  -9   4  826.02   52.39
  -3  -9   4  776.42   39.90
  -3  -9   4  805.72   40.00
   3   9  -4  782.02   38.20
  -3   9   4  806.52   40.40
   3   9  -4  772.72   38.10
  -3   9   4  838.02   38.40
  -1  -9   4  879.81   44.60
   1  -9  -4  869.31   45.80
  -1  -9   4  910.11   55.49
   1   9  -4  871.51   43.70
   1   9  -4  854.21   43.90
  -1   9   4  885.11   43.30
  -1   9   4  855.81   46.60
  -1  -9  -4 1024.00   53.39
   1  -9   4 1043.20   62.89
   1  -9   4 1061.69   53.39
  -1   9  -4 1098.69   52.79
   1   9   4 1034.40   53.19
  -1   9  -4 1053.09   53.29
   1   9   4  997.60   50.29
  -1   9  -4 1049.49   56.09
   3  -9   4 1169.88   69.09
  -3  -9  -4 1158.48   59.49
   3   9   4 1146.39   58.29
  -3   9  -4 1200.18   63.69
   3   9   4 1140.09   55.89
  -3   9  -4 1255.47   61.29
   5  -9   4  991.50   62.99
  -5  -9  -4  995.80   53.69
  -5   9  -4 1089.39   56.69
  -5   9  -4 1094.39   59.59
   5   9   4 1060.09   49.90
   5   9   4 1030.00   51.59
   7  -9   4  536.25   42.10
  -7  -9  -4  572.24   33.90
  -7   9  -4  578.24   39.40
  -7   9  -4  601.34   37.10
   7   9   4  557.94   28.30
 -12 -10   4  534.85   28.80
  12 -10  -4  489.85   34.60
 -12 -10   4  547.45   41.60
 -12  10   4  542.55   31.40
 -12  10   4  475.55   29.50
 -10 -10   4  541.65   41.30
  10 -10  -4  513.55   35.20
 -10  10   4  523.95   29.70
 -10  10   4  521.75   30.20
   8 -10  -4  614.84   38.60
  -8 -10   4  567.94   31.90
   8 -10  -4  577.74   35.30
  -8 -10   4  609.84   44.70
  -8  10   4  625.64   32.80
  -8  10   4  614.34   32.70
  -6 -10   4  643.44   31.40
  -6 -10   4  662.43   46.50
   6 -10  -4  630.64   39.90
  -6  10   4  674.13   34.90
  -6  10   4  671.53   33.90
  -4 -10   4  543.05   28.80
  -4 -10   4  576.44   42.50
   4 -10  -4  543.75   35.30
  -4  10   4  579.74   28.20
  -4  10   4  544.75   30.00
   2 -10  -4  665.63   38.30
  -2 -10   4  794.42   49.90
  -2 -10   4  657.63   35.70
   2  10  -4  644.44   34.50
   2  10  -4  694.03   34.70
  -2  10   4  715.23   35.80
   0 -10   4  700.13   38.70
   0 -10   4  740.63   50.19
   0 -10  -4  750.72   40.30
   0  10  -4  726.73   38.50
   0  10   4  707.13   36.70
   0  10  -4  724.63   38.50
  -2 -10  -4  499.05   30.70
   2 -10   4  494.25   39.80
  -2  10  -4  513.55   31.00
   2  10   4  554.54   27.60
  -2  10  -4  530.15   33.90
   2  10   4  494.85   30.80
  -4 -10  -4  433.66   28.30
   4 -10   4  498.95   38.80
   4  10   4  450.35   24.30
  -4  10  -4  497.85   33.00
   4  10   4  432.86   27.20
  -4  10  -4  465.05   30.00
   6 -10   4  387.86   36.40
  -6 -10  -4  377.86   26.90
   6  10   4  429.66   22.10
  -6  10  -4  435.66   32.40
  -6  10  -4  487.85   30.70
   9 -11  -4    1.50    8.30
  -9 -11   4    7.10   12.50
  -9  11   4    6.00    4.80
  -9  11   4    0.50    4.80
   7 -11  -4    9.90    8.90
  -7 -11   4   -6.70    9.40
  -7  11   4   10.60    4.70
  -7  11   4    4.00    4.40
  -5 -11   4   44.60   14.30
   5 -11  -4   26.30   10.10
  -5 -11   4   38.00    6.10
  -5  11   4   31.30    5.70
  -5  11   4   30.80    6.00
  -3 -11   4   32.30    7.70
   3 -11  -4   17.60    9.40
  -3 -11   4   14.00   12.50
  -3  11   4   35.00    6.40
  -1 -11   4   14.90   13.00
   1 -11  -4    8.60    5.90
  -1 -11   4   20.50    8.40
   1  11  -4    7.00    5.60
   1  11  -4  -15.20    7.70
  -1  11   4    8.70    3.90
  -1 -11  -4    2.50    6.00
   1 -11   4   -8.30   11.30
   1  11   4    2.00    3.70
  -1  11  -4    4.20    6.50
   3 -11   4    3.40   12.30
  -3 -11  -4    1.00    6.60
  -3  11  -4   16.50    8.20
   3  11   4    7.80    4.30
  -3  11  -4    7.80    8.80
 -22   0   5   15.50    8.20
 -22   0   5   -7.60    4.60
 -20   0   5    2.60    6.30
 -20   0   5    1.80    3.30
 -18   0   5    1.40    2.40
 -18   0   5    0.80    5.10
 -14   0   5    1.80    2.90
 -14   0   5    3.70    1.90
  14   0  -5    4.10    4.40
 -12   0   5    2.20    1.50
 -12   0   5    0.40    2.10
  12   0  -5    1.60    2.90
 -10   0   5    4.40    2.60
  -8   0   5    6.20    1.80
  -8   0   5    9.00    2.70
   8   0  -5   -0.30    1.40
  -6   0   5    4.40    1.50
   6   0  -5    1.00    1.50
   6   0  -5    4.10    1.30
  -6   0   5    1.00    1.20
  -4   0   5   -1.00    1.20
   4   0  -5    0.30    1.70
   4   0  -5    3.30    1.40
  -4   0   5    1.80    1.30
  -2   0   5    2.50    1.70
  -2   0   5   -0.10    1.90
   2   0  -5    0.60    1.90
  -2   0   5    2.20    1.80
   2   0  -5    9.30    2.20
   0   0  -5    5.30    3.00
   0   0   5    2.80    2.30
   0   0   5    2.50    2.00
   0   0  -5    7.10    2.50
   0   0   5    9.00    2.40
  -2   0  -5    1.00    2.80
   2   0   5    0.80    2.50
   2   0   5    1.10    2.00
  -2   0  -5    5.10    2.50
  -2   0  -5    1.80    1.80
   2   0   5    3.30    2.20
   4   0   5    0.50    2.30
  -4   0  -5    0.40    2.10
  -4   0  -5    6.30    4.20
   4   0   5    5.20    2.90
  -4   0  -5    1.30    2.60
   4   0   5    2.00    3.10
   6   0   5    2.10    3.80
  -6   0  -5    1.10    3.20
  -6   0  -5    0.30    5.20
  -6   0  -5    3.70    2.80
   6   0   5    2.50    3.40
   6   0   5    3.30    3.00
  -8   0  -5    0.80    3.40
  -8   0  -5    5.00    4.10
   8   0   5   -0.10    4.40
  10   0   5    5.20    5.60
 -10   0  -5   -1.50    4.20
 -10   0  -5    3.40    5.50
 -12   0  -5    8.40    5.80
 -12   0  -5   -3.60    6.30
  12   0   5    1.50    7.50
 -21  -1   5  233.68   21.50
 -21  -1   5  246.68   16.30
 -21   1   5  256.17   22.00
 -21   1   5  250.47   16.90
 -19  -1   5  547.05   27.60
 -19  -1   5  533.35   33.80
 -19   1   5  503.25   33.90
 -19   1   5  529.55   28.40
 -17  -1   5  939.21   44.00
 -17  -1   5  924.21   49.99
 -17   1   5  983.00   45.20
 -17   1   5  839.12   49.99
 -15  -1   5  398.86   26.10
 -15  -1   5  490.35   21.30
  15  -1  -5  446.56   28.90
 -15  -1   5  466.25   21.00
 -15  -1   5  418.86   21.90
  15   1  -5  428.06   27.30
 -15   1   5  409.16   22.80
 -15   1   5  419.36   27.00
 -13  -1   5 1228.18   53.09
  13  -1  -5 1222.38   60.19
 -13  -1   5 1138.79   57.89
 -13  -1   5 1128.89   53.39
 -13  -1   5 1245.28   53.39
 -13   1   5 1044.50   57.89
 -13   1   5 1134.99   54.39
  13   1  -5 1166.38   58.39
 -11  -1   5 2679.23  118.49
  11  -1  -5 2645.64  123.39
 -11  -1   5 2661.03  122.29
 -11   1   5 2604.74  122.49
 -11   1   5 2611.94  119.09
  -9  -1   5 2041.10   91.29
  -9  -1   5 1995.00   90.59
   9  -1  -5 1990.70   89.69
  -9  -1   5 2026.50   93.89
  -9   1   5 2045.70   94.09
  -9   1   5 1974.10   92.29
  -7  -1   5 4134.09  193.48
   7  -1  -5 4242.78  192.88
  -7  -1   5 4423.06  192.08
   7   1  -5 4295.07  193.88
  -7   1   5 4418.86  195.38
  -7   1   5 4396.46  193.58
  -7   1   5 4340.67  192.48
   5  -1  -5 3426.16  152.08
  -5  -1   5 3293.17  152.28
  -5  -1   5 3404.36  150.48
   5  -1  -5 3439.76  151.08
  -5   1   5 3355.76  151.48
   5   1  -5 3293.77  152.38
   5   1  -5 3317.87  149.88
  -5   1   5 3411.86  151.48
   3  -1  -5 3091.59  137.69
  -3  -1   5 2914.81  137.69
  -3  -1   5 2957.10  135.59
   3  -1  -5 3085.09  136.19
  -3   1   5 3019.60  137.19
   3   1  -5 3106.89  137.99
   3   1  -5 3035.10  135.59
  -3   1   5 2948.30  136.19
  -1  -1   5 2998.20  138.39
   1  -1  -5 3134.59  138.39
   1  -1  -5 2963.80  136.29
  -1  -1   5 3196.58  137.29
  -1  -1   5 2839.32  135.49
  -1   1   5 3059.89  136.19
   1   1  -5 2982.40  138.19
   1   1  -5 2965.90  135.89
  -1   1   5 3025.30  136.89
  -1   1   5 2934.91  137.69
   1  -1   5  613.64   34.20
   1  -1   5  632.64   31.50
   1  -1   5  640.54   32.60
  -1  -1  -5  659.13   32.40
  -1  -1  -5  644.24   34.50
  -1   1  -5  643.24   34.10
   1   1   5  680.63   32.70
   1   1   5  614.84   31.70
   1   1   5  625.44   33.90
  -1   1  -5  628.64   32.20
  -1   1  -5  622.24   34.30
   3  -1   5 1469.85   70.29
  -3  -1  -5 1563.24   73.49
  -3  -1  -5 1457.65   71.29
   3  -1   5 1464.85   69.09
  -3  -1  -5 1457.05   70.29
   3  -1   5 1419.16   72.79
   3   1   5 1478.35   72.49
   3   1   5 1536.25   70.29
  -3   1  -5 1451.05   72.59
  -3   1  -5 1482.25   70.49
  -3   1  -5 1498.05   72.69
   3   1   5 1512.35   69.49
   5  -1   5 1339.97   63.79
  -5  -1  -5 1379.26   66.89
  -5  -1  -5 1360.96   65.59
   5  -1   5 1337.77   68.39
   5  -1   5 1329.87   65.69
  -5  -1  -5 1444.46   69.19
  -5   1  -5 1339.57   65.69
   5   1   5 1392.86   68.09
  -5   1  -5 1340.17   68.39
   5   1   5 1310.07   63.89
   5   1   5 1372.76   65.39
  -5   1  -5 1315.47   67.99
  -7  -1  -5  427.56   24.70
  -7  -1  -5  441.36   26.30
   7  -1   5  393.46   22.70
  -7  -1  -5  396.96   27.20
   7  -1   5  434.16   27.70
  -7   1  -5  399.56   27.00
   7   1   5  415.36   25.40
   7   1   5  454.45   27.50
  -7   1  -5  381.06   24.40
  -7   1  -5  399.36   27.20
   7   1   5  395.46   22.50
  -9  -1  -5  411.96   25.00
  -9  -1  -5  421.96   27.00
   9  -1   5  359.76   26.90
   9   1   5  383.56   26.90
  -9   1  -5  372.16   27.90
  -9   1  -5  409.16   25.40
  11  -1   5  219.18   20.50
 -11  -1  -5  237.18   19.90
 -11  -1  -5  194.38   17.20
 -11   1  -5  212.38   18.10
 -11   1  -5  216.48   21.10
  11   1   5  194.98   19.50
 -13  -1  -5  193.68   19.60
 -13  -1  -5  160.88   16.60
  13  -1   5  121.19   18.50
 -13   1  -5  172.18   21.60
 -13   1  -5  173.08   17.60
 -22  -2   5  230.38   16.30
 -22  -2   5  233.88   21.00
 -22   2   5  187.28   20.80
 -22   2   5  244.48   17.50
 -20  -2   5  581.14   36.30
 -20  -2   5  573.14   28.50
 -20  -2   5  549.95   29.30
 -20  -2   5  562.24   28.90
 -20   2   5  581.94   31.00
 -20   2   5  533.55   36.70
 -18  -2   5  780.22   37.60
 -18  -2   5  813.92   39.00
 -18  -2   5  761.32   37.20
 -18  -2   5  746.03   43.30
 -18   2   5  712.03   44.30
 -18   2   5  788.42   39.10
 -16  -2   5  561.34   26.80
 -16  -2   5  549.35   27.80
 -16  -2   5  568.84   29.40
 -16  -2   5  533.75   32.00
  16   2  -5  540.45   32.70
 -16   2   5  566.44   28.90
 -16   2   5  540.95   33.30
  14  -2  -5 1732.53   80.99
 -14  -2   5 1679.03   73.19
 -14  -2   5 1507.65   71.59
 -14  -2   5 1531.25   76.69
 -14  -2   5 1651.13   74.69
 -14   2   5 1449.15   77.39
 -14   2   5 1541.05   73.69
 -12  -2   5 2751.22  120.69
  12  -2  -5 2812.82  128.39
 -12  -2   5 2631.64  125.49
 -12  -2   5 2882.81  124.29
 -12   2   5 2625.94  126.39
 -12   2   5 2565.44  122.69
 -10  -2   5 2837.72  121.09
 -10  -2   5 2592.44  121.49
  10  -2  -5 2648.94  123.19
 -10   2   5 2605.84  119.39
 -10   2   5 2553.44  122.19
 -10   2   5 2594.54  120.99
  -8  -2   5 1694.53   80.19
  -8  -2   5 1748.93   76.39
  -8  -2   5 1694.03   79.69
   8  -2  -5 1682.13   77.59
  -8   2   5 1666.73   80.29
   8   2  -5 1715.43   79.19
  -8   2   5 1755.12   79.59
   6  -2  -5 1456.75   67.19
  -6  -2   5 1456.45   65.39
  -6  -2   5 1478.35   68.79
   6  -2  -5 1437.76   66.99
  -6   2   5 1416.56   67.49
  -6   2   5 1427.36   68.39
   6   2  -5 1462.25   68.39
   4  -2  -5 3402.26  154.08
   4  -2  -5 3355.96  153.08
  -4  -2   5 3324.37  151.88
  -4  -2   5 3431.66  155.28
   4   2  -5 3359.56  151.48
  -4   2   5 3485.65  153.58
   4   2  -5 3421.56  154.78
  -4   2   5 3418.46  153.58
   2  -2  -5 3334.77  142.19
  -2  -2   5 3046.80  142.39
   2  -2  -5 3086.99  139.99
  -2  -2   5 3086.49  140.69
  -2  -2   5 3113.49  139.09
  -2   2   5 2985.90  140.99
  -2   2   5 3094.99  140.09
   2   2  -5 3062.89  139.29
   2   2  -5 3040.20  141.99
   0  -2  -5 2908.11  131.39
   0  -2  -5 2912.71  129.19
   0  -2   5 2703.53  131.49
   0  -2   5 2781.92  127.89
   0  -2   5 2804.22  129.29
   0   2   5 2840.62  130.59
   0   2   5 2784.42  128.69
   0   2  -5 2815.42  128.69
   0   2  -5 2941.11  131.49
   0   2  -5 2821.62  131.19
   0   2   5 2840.22  128.99
   2  -2   5 1906.01   86.19
   2  -2   5 1787.92   84.49
  -2  -2  -5 1804.12   85.89
  -2  -2  -5 1923.51   88.99
   2  -2   5 1842.92   89.09
  -2   2  -5 1916.31   88.49
   2   2   5 1885.11   85.49
   2   2   5 1743.53   85.09
  -2   2  -5 1794.92   88.39
  -2   2  -5 1799.32   85.89
   2   2   5 1843.12   87.89
   4  -2   5  948.81   50.99
   4  -2   5  937.21   46.30
  -4  -2  -5  975.10   48.10
  -4  -2  -5 1060.79   51.89
  -4  -2  -5 1001.20   48.70
   4   2   5  932.01   46.90
  -4   2  -5  884.61   50.59
  -4   2  -5  974.40   48.30
  -4   2  -5  965.20   50.49
   4   2   5  961.80   50.19
   4   2   5  985.00   47.50
   6  -2   5 1101.89   55.09
   6  -2   5 1023.70   51.59
  -6  -2  -5 1040.60   54.29
  -6  -2  -5 1109.09   53.99
  -6  -2  -5 1161.18   57.99
   6  -2   5 1028.60   57.09
  -6   2  -5 1130.69   57.09
   6   2   5 1100.29   52.19
   6   2   5 1108.59   56.59
   6   2   5 1156.98   54.19
  -6   2  -5 1022.00   57.49
  -6   2  -5  972.80   53.79
  -8  -2  -5  738.73   38.30
   8  -2   5  692.93   41.40
  -8  -2  -5  673.53   38.50
   8   2   5  727.03   39.70
  -8   2  -5  695.43   42.60
   8   2   5  704.83   40.60
  -8   2  -5  717.73   39.10
   8   2   5  650.73   35.30
 -10  -2  -5  484.65   30.50
  10  -2   5  514.25   33.70
 -10  -2  -5  485.55   29.60
 -10   2  -5  460.35   34.40
 -10   2  -5  504.75   30.90
  12  -2   5  234.88   23.70
 -12  -2  -5  271.77   20.60
 -12  -2  -5  247.68   21.20
 -12   2  -5  222.68   24.10
 -12   2  -5  266.47   21.70
 -21  -3   5   -1.20    6.40
 -21  -3   5    0.50    6.70
 -21  -3   5    4.50    4.50
 -21   3   5   -1.50    6.10
 -21   3   5    2.70    5.10
 -19  -3   5   -1.90    2.90
 -19  -3   5    0.40    5.40
 -19  -3   5   -0.40    5.30
 -19  -3   5    4.90    6.20
 -19   3   5    7.20    6.80
 -19   3   5    2.70    3.80
 -17  -3   5   88.19    6.40
 -17  -3   5   76.59   10.70
 -17  -3   5   75.99   10.10
 -17  -3   5  100.49    9.60
 -17   3   5   94.09    8.30
 -17   3   5   66.39   11.20
 -15  -3   5  122.29   12.00
 -15  -3   5  143.39    8.20
 -15  -3   5  179.38   11.80
 -15  -3   5  130.89   13.10
 -15   3   5  185.88   11.50
 -15   3   5  142.19   13.70
 -13  -3   5   60.99    3.90
 -13  -3   5   60.69    7.30
  13  -3  -5   61.29   10.20
 -13  -3   5   68.09    9.70
 -13   3   5   63.39    8.20
 -13   3   5   83.29    6.80
  11  -3  -5  209.38   10.70
 -11  -3   5  215.68   15.60
  11  -3  -5  214.58   16.30
 -11  -3   5  196.78   13.60
  11  -3  -5  203.18   11.00
 -11   3   5  206.88   14.80
 -11   3   5  203.78   12.50
 -11   3   5  199.68   14.30
  -9  -3   5  196.98   13.10
  -9  -3   5  188.18   14.40
   9  -3  -5  188.08   14.00
   9  -3  -5  193.68   11.20
  -9   3   5  193.58   13.50
  -9   3   5  202.58   12.00
  -9   3   5  202.88   13.50
   7  -3  -5  485.75   25.30
   7  -3  -5  489.75   25.00
  -7  -3   5  513.85   22.70
  -7  -3   5  519.05   28.00
  -7   3   5  473.65   26.10
  -7   3   5  490.45   26.10
   7   3  -5  441.46   26.10
  -5  -3   5 1512.15   67.49
  -5  -3   5 1555.84   72.59
   5  -3  -5 1436.56   69.29
   5  -3  -5 1482.35   70.09
   5   3  -5 1506.15   71.29
  -5   3   5 1489.25   70.09
  -5   3   5 1445.76   69.89
  -3  -3   5  239.08   14.10
   3  -3  -5  217.28   13.50
  -3  -3   5  228.28   12.40
  -3  -3   5  231.68   16.10
   3  -3  -5  228.18   14.80
   3   3  -5  228.48   12.40
   3   3  -5  211.98   15.10
  -3   3   5  225.08   13.90
   1  -3  -5   87.89    8.90
  -1  -3   5   83.89    6.30
  -1  -3   5   75.39    9.10
   1  -3  -5   84.69    7.30
  -1  -3   5   88.19    7.40
   1   3  -5   88.59    6.90
   1   3  -5   85.99    8.80
  -1   3   5   79.19    7.20
   1  -3   5  294.97   17.80
  -1  -3  -5  313.37   20.20
   1  -3   5  298.87   16.50
   1  -3   5  283.57   20.20
  -1   3  -5  309.57   20.20
  -1   3  -5  324.87   20.10
   1   3   5  313.87   17.80
   1   3   5  291.07   17.20
  -1   3  -5  309.87   17.80
   3  -3   5  151.48   11.10
   3  -3   5  129.39    9.50
   3  -3   5  150.08   13.50
  -3  -3  -5  150.48   13.30
  -3  -3  -5  133.89   10.70
  -3   3  -5  146.99   13.00
   3   3   5  152.48   10.40
   3   3   5  135.79   10.40
  -3   3  -5  134.79   10.80
  -3   3  -5  138.09   12.90
   5  -3   5   48.90    7.90
   5  -3   5   51.59    9.60
  -5  -3  -5   58.79   10.20
   5  -3   5   56.29    6.00
  -5  -3  -5   54.59    6.90
   5   3   5   50.79    6.40
   5   3   5   48.90    6.70
  -5   3  -5   46.80    7.50
  -5   3  -5   45.50    8.50
  -5   3  -5   46.30    9.00
   7  -3   5   31.40    8.20
  -7  -3  -5   23.30    5.60
  -7  -3  -5   25.00    5.90
  -7   3  -5   22.90    6.10
   7   3   5   24.70    6.60
   7   3   5   21.50    4.90
  -7   3  -5   22.20    7.60
  -9  -3  -5    4.50    4.40
   9  -3   5    3.20    6.20
  -9  -3  -5    5.90    4.50
   9   3   5   -4.20    7.40
   9   3   5    0.20    4.40
  -9   3  -5    6.50    5.30
  -9   3  -5   -3.00    5.70
 -11  -3  -5    9.50    6.00
  11  -3   5    8.10    8.10
 -11  -3  -5   16.70    7.10
 -11   3  -5    6.60    8.50
 -11   3  -5   18.20    7.50
 -13  -3  -5    7.90    7.60
 -13  -3  -5   16.20    7.80
  13  -3   5   33.40   13.30
 -13   3  -5   18.40   10.40
 -13   3  -5   23.00   11.60
 -20  -4   5  357.16   24.70
 -20  -4   5  298.57   25.00
 -20  -4   5  364.76   20.00
 -20   4   5  343.17   26.70
 -20   4   5  348.37   22.10
 -18  -4   5  574.34   28.10
 -18  -4   5  542.75   33.30
 -18  -4   5  550.34   31.90
 -18   4   5  555.64   36.10
 -18   4   5  588.04   31.00
 -16  -4   5  749.33   38.80
 -16  -4   5  732.23   39.60
 -16  -4   5  731.93   34.20
 -16   4   5  682.33   41.90
 -16   4   5  749.33   37.80
 -14  -4   5  993.30   44.10
 -14  -4   5  979.10   49.60
 -14   4   5  960.40   50.39
 -14   4   5  931.01   51.69
 -14   4   5 1019.70   48.40
 -12  -4   5 1014.70   50.29
  12  -4  -5 1041.20   48.10
  12  -4  -5 1074.79   54.99
 -12   4   5  973.30   52.09
 -12   4   5  999.70   51.39
 -12   4   5  994.10   49.10
 -10  -4   5 1054.29   63.19
 -10  -4   5 1294.37   60.39
  10  -4  -5 1279.27   58.79
  10  -4  -5 1394.06   63.99
 -10   4   5 1261.57   61.49
 -10   4   5 1232.28   59.19
 -10   4   5 1240.08   61.59
   8  -4  -5 1592.84   75.29
  -8  -4   5 1689.43   69.59
   8  -4  -5 1506.75   72.79
  -8  -4   5 1504.15   77.49
  -8   4   5 1523.95   73.99
  -8   4   5 1515.25   74.29
  -8   4   5 1551.04   72.59
  -6  -4   5  659.83   37.30
  -6  -4   5  682.03   30.80
   6  -4  -5  654.53   33.90
   6  -4  -5  652.83   33.40
  -6   4   5  675.23   34.40
  -6   4   5  631.64   32.80
   6   4  -5  670.43   35.20
  -6   4   5  641.54   33.60
  -4  -4   5 1479.45   68.69
   4  -4  -5 1530.45   70.49
  -4  -4   5 1412.96   66.49
   4  -4  -5 1375.96   68.59
  -4  -4   5 1429.96   72.99
   4   4  -5 1439.96   71.09
  -4   4   5 1503.45   68.79
   4   4  -5 1516.55   66.09
  -4   4   5 1433.26   69.39
   4   4  -5 1482.85   65.99
  -2  -4   5 3034.20  139.89
   2  -4  -5 2971.10  137.19
  -2  -4   5 2877.81  134.79
  -2  -4   5 2857.51  133.09
   2  -4  -5 3065.59  135.29
  -2   4   5 2868.91  135.19
   2   4  -5 3056.69  133.89
   2   4  -5 2971.40  137.59
   0  -4  -5  846.92   43.60
   0  -4   5  810.32   40.50
   0  -4   5  795.02   44.80
   0  -4  -5  821.02   40.80
   0  -4   5  763.02   38.80
   0   4  -5  814.22   43.30
   0   4   5  826.02   39.90
   0   4  -5  819.42   43.40
   0   4   5  815.62   40.70
   0   4  -5  838.52   40.50
  -2  -4  -5  784.42   38.00
   2  -4   5  658.53   35.50
   2  -4   5  746.73   42.20
   2  -4   5  753.22   37.70
  -2  -4  -5  791.12   41.20
  -2   4  -5  646.04   40.10
   2   4   5  758.12   37.40
  -2   4  -5  762.52   40.70
   2   4   5  738.33   36.20
  -2   4  -5  718.63   37.90
   4  -4   5 1687.13   84.59
  -4  -4  -5 1942.41   91.49
  -4  -4  -5 1867.91   87.29
   4  -4   5 1899.41   87.69
   4  -4   5 1828.72   92.09
  -4   4  -5 1698.73   90.99
   4   4   5 1864.71   85.39
  -4   4  -5 1852.01   87.99
  -4   4  -5 1826.22   89.99
   4   4   5 1902.21   86.09
   6  -4   5  766.42   44.80
  -6  -4  -5  796.82   40.10
  -6   4  -5  779.82   41.30
   6   4   5  775.62   39.10
   6   4   5  722.13   37.80
  -6   4  -5  635.94   43.40
  -8  -4  -5  377.66   23.40
   8  -4   5  379.66   27.80
   8   4   5  379.16   24.40
   8   4   5  338.47   20.70
  -8   4  -5  364.16   24.90
  -8   4  -5  326.37   27.60
  10  -4   5  456.65   34.00
 -10  -4  -5  476.35   29.70
  10   4   5  472.15   27.30
 -10   4  -5  429.66   35.10
 -10   4  -5  511.75   32.40
  10   4   5  528.25   32.40
  12  -4   5  200.28   23.60
 -12  -4  -5  230.18   19.30
 -12   4  -5  208.38   25.50
 -12   4  -5  201.08   21.00
 -19  -5   5  386.26   25.40
 -19  -5   5  374.86   27.40
 -19  -5   5  394.36   21.30
 -19   5   5  383.46   28.40
 -19   5   5  397.66   24.00
 -17  -5   5  342.57   23.30
 -17  -5   5  354.26   18.00
 -17  -5   5  330.77   22.20
 -17   5   5  326.97   25.20
 -17   5   5  336.17   20.80
 -15  -5   5  898.01   46.50
 -15  -5   5  959.60   41.80
  15  -5  -5  913.71   43.30
 -15   5   5  897.51   45.60
 -15   5   5  845.72   49.50
  13  -5  -5 1280.27   59.69
 -13  -5   5 1253.17   60.49
 -13   5   5 1254.97   60.19
 -13   5   5 1183.88   63.29
  11  -5  -5  931.01   53.89
  11  -5  -5 1184.58   59.59
 -11  -5   5 1168.98   54.89
 -11   5   5 1223.38   57.59
 -11   5   5 1140.09   57.19
 -11   5   5 1153.78   54.59
  -9  -5   5 1256.47   76.89
   9  -5  -5 1561.64   74.99
  -9  -5   5 1611.34   72.29
  -9  -5   5 1610.04   67.99
  -9  -5   5 1701.13   68.69
  -9   5   5 1426.86   73.69
  -9   5   5 1470.95   73.29
  -9   5   5 1478.25   71.49
  -7  -5   5 1808.52   93.79
  -7  -5   5 1881.91   86.99
  -7  -5   5 1863.71   84.19
   7  -5  -5 1954.40   88.19
  -7   5   5 1916.61   87.29
  -7   5   5 1837.72   87.99
  -5  -5   5 1769.32   80.49
  -5  -5   5 1654.23   86.69
   5  -5  -5 1773.52   82.89
  -5  -5   5 1698.33   78.09
  -5   5   5 1672.43   80.49
  -5   5   5 1776.12   82.39
  -5   5   5 1698.23   80.39
   5   5  -5 1790.52   83.69
  -3  -5   5 2094.39  102.89
  -3  -5   5 2000.60   94.09
   3  -5  -5 2021.30   96.69
   3  -5  -5 2136.89   99.39
  -3  -5   5 2137.59   96.19
  -3   5   5 2133.19   95.79
  -3   5   5 2038.30   97.39
   3   5  -5 1929.61   99.09
   3   5  -5 2091.19   94.49
   3   5  -5 2232.68   94.59
  -1  -5   5 1843.02   86.89
   1  -5  -5 1921.31   92.29
  -1  -5   5 1863.71   88.59
  -1  -5   5 1902.81   95.19
   1  -5  -5 1988.60   89.49
   1   5  -5 2002.40   92.39
  -1   5   5 2007.30   87.89
   1   5  -5 1794.62   88.09
  -1   5   5 1841.32   89.29
  -1  -5  -5 1010.40   52.09
   1  -5   5 1071.39   58.09
  -1  -5  -5 1172.78   56.19
   1  -5   5 1045.40   50.09
   1  -5   5 1078.79   51.89
  -1   5  -5  959.20   54.89
  -1   5  -5 1042.80   52.29
  -1   5  -5 1088.59   55.29
   1   5   5 1048.40   51.99
   1   5   5 1084.69   50.39
   3  -5   5  825.72   42.30
   3  -5   5  883.41   50.19
   3  -5   5  885.41   44.80
  -3  -5  -5  908.71   44.90
  -3  -5  -5  886.51   49.00
  -3   5  -5  843.82   48.60
   3   5   5  873.31   43.90
  -3   5  -5  892.51   48.00
  -3   5  -5  869.01   45.50
   3   5   5  886.31   42.20
  -5  -5  -5  669.13   36.90
   5  -5   5  714.63   42.90
   5   5   5  702.53   35.70
   5   5   5  732.93   35.40
  -5   5  -5  689.83   38.50
  -5   5  -5  603.74   40.80
   7  -5   5  349.87   28.50
  -7  -5  -5  358.86   23.80
  -7   5  -5  345.77   28.60
   7   5   5  423.66   24.00
   7   5   5  386.96   22.10
  -7   5  -5  390.56   25.90
  -9  -5  -5  473.05   28.30
   9  -5   5  412.36   32.60
  -9   5  -5  423.96   29.90
   9   5   5  478.95   28.50
  -9   5  -5  436.96   34.00
   9   5   5  433.06   24.80
  11  -5   5  369.56   32.90
 -11  -5  -5  451.75   28.40
 -11   5  -5  417.76   30.80
 -11   5  -5  429.46   35.20
  11   5   5  398.16   34.90
 -18  -6   5   33.20    5.30
 -18  -6   5   54.09   12.90
 -18  -6   5   30.30    7.00
 -18   6   5   18.90    7.50
 -18   6   5   36.20    7.10
 -16  -6   5   54.39   13.20
  16  -6  -5   80.99    9.10
 -16  -6   5   78.29    9.30
 -16  -6   5   72.09    6.40
 -16   6   5   85.69    8.70
 -16   6   5   78.19   12.40
 -14  -6   5   56.19   12.20
  14  -6  -5   95.99    9.80
 -14  -6   5   76.69    5.40
 -14  -6   5   74.99    8.20
 -14   6   5   80.59    8.30
 -14   6   5   81.39   11.10
 -12  -6   5   36.00    3.30
  12  -6  -5   34.20    6.70
 -12  -6   5   38.50    5.80
 -12  -6   5   42.10    3.40
 -12  -6   5   20.30    9.00
 -12   6   5   39.10    7.70
 -12   6   5   33.10    5.80
 -10  -6   5   29.60    2.80
 -10  -6   5   31.00    3.50
  10  -6  -5   44.10    7.10
 -10  -6   5   28.90    5.00
 -10  -6   5   18.80    8.20
  10  -6  -5   29.00    7.50
 -10   6   5   32.50    5.40
 -10   6   5   29.60    6.00
  -8  -6   5  108.59   15.80
  -8  -6   5   74.29    5.10
  -8  -6   5   85.79    7.30
   8  -6  -5  105.09   10.10
  -8   6   5   77.79    8.20
  -8   6   5   75.59    7.30
  -8   6   5   81.49    9.90
  -6  -6   5   23.80    4.20
   6  -6  -5   21.60    4.80
  -6  -6   5   26.50    3.10
  -6  -6   5   37.40    8.90
  -6   6   5   27.20    4.90
  -6   6   5   50.29    8.20
  -6   6   5   26.70    4.80
  -4  -6   5   15.30    6.60
  -4  -6   5   12.90    2.50
  -4  -6   5   14.60    3.40
   4  -6  -5   12.70    5.60
   4  -6  -5   11.80    3.60
   4   6  -5   13.80    2.40
  -4   6   5   24.20    4.10
   4   6  -5   14.30    5.10
   4   6  -5   23.60    2.80
  -4   6   5   34.00    6.50
  -4   6   5   15.60    3.60
  -2  -6   5    9.60    5.70
  -2  -6   5   13.70    2.90
  -2  -6   5   12.40    3.30
   2  -6  -5    5.70    3.10
   2  -6  -5    7.80    5.60
   2   6  -5   14.80    3.40
  -2   6   5   11.80    4.60
  -2   6   5   10.40    2.80
   2   6  -5   10.20    2.90
  -2   6   5    9.10    3.00
   2   6  -5   12.60    5.30
   0  -6   5   13.10    3.30
   0  -6  -5    6.80    6.10
   0  -6   5   13.90    6.70
   0  -6   5    9.80    3.50
   0  -6  -5   15.40    4.30
   0   6   5   12.40    2.90
   0   6  -5    9.60    3.80
   0   6  -5    7.60    4.60
   0   6  -5   10.40    5.30
   0   6   5   15.40    4.80
   0   6   5   15.20    3.40
   2  -6   5  110.29   10.10
  -2  -6  -5  127.59   10.50
   2  -6   5  120.19   15.40
   2  -6   5  113.19    9.60
  -2   6  -5  108.09   10.40
   2   6   5  109.09    7.70
  -2   6  -5  100.79   12.40
   2   6   5  107.29   10.60
  -4  -6  -5   90.29    9.20
   4  -6   5  101.19   15.30
  -4   6  -5   90.89   10.60
   4   6   5   75.19    9.50
  -4   6  -5   72.59   12.60
   4   6   5   90.99    7.60
   6  -6   5   57.19   12.40
  -6  -6  -5   82.99    9.60
   6   6   5   72.49    9.20
   6   6   5   70.39    8.70
  -6   6  -5   71.79   13.20
  -6   6  -5   76.09   11.80
  -8  -6  -5    2.00    4.80
   8  -6   5    9.30    9.00
  -8   6  -5    6.10    6.20
  -8   6  -5    4.40    7.90
   8   6   5    0.40    5.10
   8   6   5   -1.60    5.60
 -10  -6  -5   10.50    6.90
  10  -6   5   24.80   10.40
 -10   6  -5   18.30   10.20
 -10   6  -5    0.20    7.00
 -17  -7   5  235.28   15.40
  17  -7  -5  215.78   16.70
 -17  -7   5  217.88   13.40
 -17  -7   5  176.68   23.70
 -17   7   5  232.48   20.10
 -17   7   5  217.88   16.20
 -15  -7   5  591.14   31.40
 -15  -7   5  615.84   29.00
 -15  -7   5  536.55   40.90
  15  -7  -5  600.14   33.80
 -15   7   5  608.84   37.00
 -15   7   5  609.24   32.80
  13  -7  -5  736.33   40.60
 -13  -7   5  777.82   37.50
 -13  -7   5  641.74   46.90
 -13  -7   5  781.22   35.20
 -13   7   5  765.72   39.20
 -13   7   5  714.83   41.90
  11  -7  -5  903.61   49.40
 -11  -7   5  883.01   40.60
 -11  -7   5  927.31   42.60
 -11  -7   5  941.61   41.30
 -11  -7   5  777.32   52.19
  11  -7  -5  838.02   45.80
 -11  -7   5  888.61   42.80
 -11   7   5  857.41   44.20
 -11   7   5  780.52   46.00
   9  -7  -5 1359.76   66.09
  -9  -7   5 1355.86   63.39
  -9  -7   5 1201.68   73.09
  -9  -7   5 1367.06   62.49
   9  -7  -5 1383.66   67.59
  -9  -7   5 1355.46   60.89
  -9   7   5 1367.36   64.19
  -9   7   5 1238.28   65.39
  -7  -7   5  420.86   32.30
  -7  -7   5  466.05   22.60
  -7  -7   5  396.96   21.00
  -7   7   5  416.36   23.60
  -7   7   5  426.96   24.40
  -5  -7   5  648.84   45.90
  -5  -7   5  794.12   37.00
  -5  -7   5  744.73   35.60
   5  -7  -5  760.02   39.40
  -5   7   5  789.72   41.00
  -5   7   5  771.22   38.00
  -5   7   5  706.63   37.40
  -3  -7   5 1974.40   97.19
   3  -7  -5 1898.51   91.79
   3  -7  -5 1639.14   87.09
  -3  -7   5 1778.52   84.29
  -3  -7   5 1884.41   85.59
  -3   7   5 1811.62   84.89
   3   7  -5 1909.41   84.39
  -3   7   5 1864.71   86.19
  -3   7   5 1891.91   88.79
   3   7  -5 1816.42   84.39
   1  -7  -5  961.40   49.20
  -1  -7   5  895.81   46.30
  -1  -7   5  965.90   57.29
  -1  -7   5  997.00   48.00
  -1   7   5  945.31   45.70
   1   7  -5  973.30   48.20
   1   7  -5 1005.80   47.60
  -1   7   5 1041.80   46.70
  -1   7   5  981.80   47.80
  -1   7   5  984.30   49.90
  -1  -7  -5  661.13   35.70
   1  -7   5  672.23   43.30
   1  -7   5  639.84   35.20
   1   7   5  676.23   31.70
   1   7   5  674.13   31.60
   1   7   5  683.43   34.20
  -1   7  -5  657.43   36.10
  -1   7  -5  633.44   38.90
   1   7   5  685.13   36.00
  -3  -7  -5  648.64   35.20
   3  -7   5  630.84   42.60
   3   7   5  661.53   33.10
  -3   7  -5  567.64   38.50
   3   7   5  660.33   30.50
  -3   7  -5  651.83   36.50
   3   7   5  626.24   30.30
   3   7   5  648.24   34.50
  -5  -7  -5  448.26   26.80
   5  -7   5  364.16   31.40
   5   7   5  434.36   25.30
  -5   7  -5  440.56   31.80
   5   7   5  453.55   24.10
   5   7   5  433.96   21.80
  -5   7  -5  445.06   28.50
  -7  -7  -5  238.08   18.60
   7  -7   5  270.57   25.60
   7   7   5  244.98   16.60
  -7   7  -5  250.47   20.80
   7   7   5  227.28   14.10
   7   7   5  230.18   15.10
  -7   7  -5  231.88   23.60
   9  -7   5  212.38   26.20
  -9  -7  -5  254.47   20.00
  -9   7  -5  258.47   26.30
   9   7   5  223.08   15.00
  -9   7  -5  227.88   22.20
  16  -8  -5  687.53   41.70
 -16  -8   5  650.63   49.50
 -16  -8   5  791.52   36.40
 -16  -8   5  788.22   36.70
 -16   8   5  759.52   40.50
 -16   8   5  759.62   44.20
  14  -8  -5 1016.70   55.79
 -14  -8   5 1017.00   64.09
 -14  -8   5 1137.49   50.19
 -14  -8   5 1054.19   50.09
 -14  -8   5 1088.89   50.39
 -14   8   5 1088.69   53.69
 -14   8   5  981.80   56.29
 -12  -8   5  757.72   36.00
  12  -8  -5  745.33   42.10
 -12  -8   5  715.53   49.10
 -12  -8   5  777.82   36.50
 -12  -8   5  751.72   36.40
 -12   8   5  734.93   39.30
 -12   8   5  718.73   41.90
 -10  -8   5  937.51   42.30
 -10  -8   5  951.30   42.40
  10  -8  -5  873.21   48.10
  10  -8  -5  941.31   49.60
 -10  -8   5  818.02   55.19
 -10  -8   5  791.72   42.70
 -10   8   5  883.91   47.30
 -10   8   5  912.81   45.60
  -8  -8   5 2015.10  106.69
  -8  -8   5 2134.19   92.19
  -8  -8   5 2037.70   91.99
   8  -8  -5 2094.49   97.99
  -8   8   5 1966.50   94.49
  -8   8   5 1859.81   95.49
  -6  -8   5 2117.19  110.09
  -6  -8   5 2083.19   95.39
  -6  -8   5 2068.49   95.29
   6  -8  -5 2134.69   99.49
  -6   8   5 1995.30   97.29
  -6   8   5 2138.19   97.49
  -4  -8   5 1362.36   76.39
   4  -8  -5 1316.87   66.29
  -4  -8   5 1318.07   62.79
  -4  -8   5 1361.16   63.29
  -4   8   5 1318.17   63.39
  -4   8   5 1391.76   64.59
  -2  -8   5 1003.00   46.50
  -2  -8   5  926.21   45.30
  -2  -8   5  950.10   57.49
   2  -8  -5  934.41   48.30
   2   8  -5  944.91   45.90
   2   8  -5  971.20   45.60
  -2   8   5  845.12   44.00
  -2   8   5  901.61   49.30
  -2   8   5  947.61   46.30
   0  -8   5  969.30   50.09
   0  -8   5  997.30   59.99
   0  -8  -5 1036.20   51.29
   0   8   5  978.30   51.39
   0   8  -5 1039.50   49.70
   0   8  -5  957.30   50.39
   0   8   5 1010.20   48.90
  -2  -8  -5 1202.68   60.79
   2  -8   5 1314.87   71.09
  -2   8  -5 1169.58   61.49
   2   8   5 1231.38   60.49
   2   8   5 1244.68   58.39
  -2   8  -5 1145.89   59.39
  -2   8  -5 1192.88   65.09
  -4  -8  -5 1373.16   65.39
   4  -8   5 1262.17   73.89
   4   8   5 1256.57   63.39
  -4   8  -5 1295.87   70.39
   4   8   5 1261.97   61.59
  -4   8  -5 1300.67   66.99
  -6  -8  -5  785.12   41.70
   6  -8   5  744.43   49.80
   6   8   5  743.63   38.80
  -6   8  -5  770.02   47.90
   6   8   5  682.23   36.90
  -6   8  -5  744.03   44.10
   8  -8   5  328.27   31.60
  -8  -8  -5  329.47   23.60
  -8   8  -5  327.17   26.20
  -8   8  -5  324.77   29.20
   8   8   5  279.97   17.70
  15  -9  -5   58.79   11.80
 -15  -9   5   51.59   15.70
 -15  -9   5   55.39    7.10
 -15   9   5   52.59   10.00
 -15   9   5   50.49    8.20
  13  -9  -5   50.09   10.40
 -13  -9   5   58.29    7.20
 -13  -9   5   33.10   13.00
 -13   9   5   52.49    8.20
 -13   9   5   52.89    9.70
  11  -9  -5   83.89   12.60
 -11  -9   5   67.19   16.60
 -11   9   5   76.99   10.30
 -11   9   5   81.89    9.20
  -9  -9   5  203.98   11.20
  -9  -9   5  190.78   12.70
  -9  -9   5  190.38   12.20
  -9  -9   5  220.78   23.90
   9  -9  -5  218.98   18.80
  -9   9   5  183.68   14.40
  -9   9   5  200.78   15.40
  -7  -9   5  220.18   24.60
  -7  -9   5  243.18   13.60
   7  -9  -5  220.48   18.60
  -7  -9   5  242.88   14.50
  -7   9   5  231.48   16.20
  -7   9   5  237.28   16.10
  -5  -9   5   35.30    5.30
   5  -9  -5   28.80    6.60
  -5  -9   5   29.20    5.30
  -5  -9   5   24.80   10.60
  -5   9   5   28.40    5.30
  -5   9   5   32.80    5.60
  -3  -9   5  149.49   22.50
  -3  -9   5  135.59   11.20
   3  -9  -5  139.69   12.70
  -3   9   5  138.49   10.70
   3   9  -5  142.49    9.80
   3   9  -5  126.99    9.40
  -3   9   5  133.29    9.20
  -1  -9   5  253.27   17.30
  -1  -9   5  219.08   25.20
   1  -9  -5  258.37   18.30
   1   9  -5  249.08   16.70
   1   9  -5  255.27   16.90
  -1   9   5  225.68   15.50
   1  -9   5   24.70    9.80
  -1  -9  -5   21.90    6.70
  -1   9  -5   29.90    7.40
  -1   9  -5   20.20    6.80
   1   9   5   24.10    4.80
  -3  -9  -5   65.29    9.90
   3  -9   5   52.59   14.40
  -3   9  -5   94.09   14.40
  -3   9  -5   78.39   11.80
   3   9   5   64.09    7.50
   3   9   5   71.29   11.30
   5  -9   5   66.09   16.70
  -5  -9  -5   56.89    9.90
  -5   9  -5   52.59   13.10
   5   9   5   52.09    6.80
   5   9   5   61.29   10.30
  -5   9  -5   63.49   11.20
   7  -9   5   20.00   12.20
  -7  -9  -5   15.20    7.50
   7   9   5    9.20    4.70
  -7   9  -5   21.50   10.90
 -12 -10   5  216.48   27.80
  12 -10  -5  255.47   22.80
 -12  10   5  244.58   17.30
 -12  10   5  228.18   18.30
 -10 -10   5  535.25   42.00
 -10 -10   5  478.35   27.40
  10 -10  -5  489.55   33.20
 -10  10   5  492.75   28.80
 -10  10   5  516.55   29.60
  -8 -10   5  381.86   22.50
  -8 -10   5  378.06   20.40
   8 -10  -5  409.26   28.90
  -8 -10   5  392.16   20.20
  -8 -10   5  411.46   36.60
  -8  10   5  385.16   23.60
  -8  10   5  404.56   23.60
  -6 -10   5  514.55   41.10
  -6 -10   5  482.85   26.00
   6 -10  -5  498.95   32.70
  -6  10   5  488.45   28.00
  -6  10   5  499.65   26.80
   4 -10  -5  498.95   30.50
  -4 -10   5  550.24   42.20
  -4 -10   5  474.25   27.80
  -4  10   5  527.55   25.70
  -4  10   5  504.95   28.20
  -2 -10   5  334.87   21.20
   2 -10  -5  305.57   21.50
  -2 -10   5  262.97   29.20
  -2  10   5  308.67   19.20
   2  10  -5  297.47   18.60
   2  10  -5  332.37   19.00
   0 -10   5  217.48   26.20
   0 -10  -5  215.38   17.50
   0  10  -5  219.88   17.10
   0  10   5  224.18   14.80
   0  10  -5  212.78   17.60
  -2 -10  -5  315.07   22.10
   2 -10   5  274.77   30.60
   2  10   5  316.67   18.50
  -2  10  -5  300.47   22.40
  -4 -10  -5  319.87   23.90
   4 -10   5  332.27   33.30
  -4  10  -5  379.06   26.50
   4  10   5  335.67   19.70
  -4  10  -5  355.06   29.20
   9 -11  -5 1284.17   71.99
  -9 -11   5 1317.67   81.59
  -9  11   5 1307.47   65.19
  -9  11   5 1394.16   65.89
  -7 -11   5 1797.22   99.99
   7 -11  -5 1635.14   89.09
  -7  11   5 1692.73   80.99
  -7  11   5 1770.62   82.79
  -5 -11   5 1564.64   91.29
   5 -11  -5 1482.95   81.69
  -5  11   5 1573.44   75.19
  -5  11   5 1594.14   72.39
  -3 -11   5 1243.18   75.59
   3 -11  -5 1169.38   63.39
  -3  11   5 1263.77   60.39
  -1 -11   5 1156.98   70.59
   1 -11  -5 1140.09   58.49
  -1  11   5 1069.19   54.19
   1  11  -5 1058.39   54.19
  -1 -11  -5  891.01   51.79
   1 -11   5  947.81   63.29
  -1  11  -5  988.50   51.49
   1  11   5 1030.20   48.50
 -22   0   6  538.85   29.00
 -22   0   6  512.05   36.10
 -20   0   6  712.53   42.80
 -20   0   6  702.93   35.70
 -18   0   6 1402.26   75.49
 -18   0   6 1571.74   69.89
 -16   0   6 3354.86  157.98
 -16   0   6 3400.56  152.28
 -14   0   6 2123.89  103.09
 -14   0   6 2203.38   98.29
 -12   0   6 2271.57  104.79
 -12   0   6 2166.48  101.69
 -10   0   6 2390.26  110.69
 -10   0   6 2413.56  114.99
  10   0  -6 2530.05  111.29
 -10   0   6 2548.55  112.39
  -8   0   6 1753.72   83.09
  -8   0   6 1827.42   83.19
  -8   0   6 1876.61   86.19
   8   0  -6 1820.52   83.59
   6   0  -6 4184.48  188.18
  -6   0   6 4035.10  187.68
   6   0  -6 4217.38  186.28
  -6   0   6 4242.88  186.88
   4   0  -6 3129.09  141.19
  -4   0   6 3192.68  141.49
   4   0  -6 3179.78  143.39
  -4   0   6 3028.40  142.99
  -2   0   6 2178.58  105.19
  -2   0   6 2339.17  104.89
   2   0  -6 2225.08  103.39
  -2   0   6 2219.98  103.19
   2   0  -6 2328.77  106.09
   0   0  -6 1534.95   73.59
   0   0   6 1517.95   73.29
   0   0   6 1553.34   71.69
   0   0  -6 1503.55   70.89
   0   0   6 1407.86   70.19
  -2   0  -6  875.31   44.70
   2   0   6  857.51   43.70
  -2   0  -6  965.00   48.10
   2   0   6  888.91   47.20
  -4   0  -6 3582.64  164.98
   4   0   6 3396.16  159.58
   4   0   6 3466.15  164.28
   4   0   6 3501.75  161.08
  -4   0  -6 3565.54  163.88
  -4   0  -6 3598.54  161.58
   6   0   6 2293.67  111.89
  -6   0  -6 2286.67  108.79
  -6   0  -6 2314.17  111.49
  -8   0  -6  643.44   36.90
  -8   0  -6  669.63   39.90
   8   0   6  636.44   39.60
 -10   0  -6  385.86   29.00
 -10   0  -6  392.26   26.00
  10   0   6  341.17   27.90
 -12   0  -6  269.27   24.20
  12   0   6  212.38   23.10
 -12   0  -6  183.38   19.60
 -21  -1   6   94.89    8.80
 -21  -1   6   84.89   14.20
 -21   1   6   90.69   15.00
 -21   1   6  100.99    9.60
 -19  -1   6  255.57   15.20
 -19  -1   6  246.88   20.30
 -19   1   6  290.37   16.50
 -19   1   6  261.27   21.50
 -17  -1   6  124.69    8.70
 -17  -1   6  129.19   13.10
 -17   1   6  149.69   10.00
 -17   1   6  113.89   12.70
 -15  -1   6   29.30    3.80
  15  -1  -6   46.50    8.90
 -15  -1   6   30.60    6.70
 -15   1   6   45.30    8.00
 -15   1   6   42.80    4.70
 -13  -1   6  595.34   27.60
 -13  -1   6  585.14   27.20
  13  -1  -6  567.44   33.20
 -13  -1   6  569.74   32.00
 -13   1   6  577.44   28.60
 -13   1   6  577.34   32.40
 -13   1   6  538.45   30.10
 -11  -1   6  817.22   37.90
 -11  -1   6  812.02   41.20
 -11  -1   6  780.12   37.60
 -11   1   6  763.42   41.20
 -11   1   6  787.82   39.40
  -9  -1   6  474.45   24.50
  -9  -1   6  476.25   23.50
  -9  -1   6  501.55   27.00
  -9   1   6  493.25   25.10
   9   1  -6  460.75   24.70
  -9   1   6  491.45   23.30
  -9   1   6  470.55   26.70
   7  -1  -6  634.94   32.60
  -7  -1   6  675.53   33.20
  -7  -1   6  660.63   31.40
   7  -1  -6  670.63   31.90
   7   1  -6  675.43   30.30
   7   1  -6  663.73   33.30
  -7   1   6  624.74   32.30
  -7   1   6  634.94   32.00
   5  -1  -6  896.61   43.90
   5  -1  -6  833.42   42.00
  -5  -1   6  885.21   41.80
  -5  -1   6  869.11   43.90
  -5   1   6  922.81   43.30
  -5   1   6  892.21   42.70
   5   1  -6  879.61   41.40
   5   1  -6  890.71   44.10
  -3  -1   6  684.43   37.70
   3  -1  -6  734.93   38.00
   3  -1  -6  714.63   35.90
  -3  -1   6  773.92   35.70
  -3  -1   6  714.13   37.10
  -3   1   6  706.63   37.20
   3   1  -6  730.03   35.60
   3   1  -6  765.52   38.30
  -3   1   6  750.72   36.20
  -1  -1   6  511.85   28.20
  -1  -1   6  500.35   25.30
  -1  -1   6  499.25   26.70
   1  -1  -6  465.75   25.70
   1  -1  -6  518.35   28.50
  -1   1   6  449.76   27.00
  -1   1   6  499.95   26.60
   1   1  -6  507.05   28.20
   1   1  -6  500.05   25.80
  -1   1   6  449.36   25.40
  -1  -1  -6  498.65   26.60
  -1  -1  -6  529.25   29.60
   1  -1   6  490.15   25.60
   1  -1   6  469.95   26.50
   1  -1   6  469.65   28.70
   1   1   6  500.05   26.70
  -1   1  -6  508.85   29.20
  -1   1  -6  493.85   26.40
   1   1   6  442.56   27.70
   3  -1   6  133.19    9.70
   3  -1   6  113.29   10.20
  -3  -1  -6  141.59   13.30
  -3  -1  -6  138.19   10.80
   3  -1   6  134.79   12.40
  -3   1  -6  125.69   10.50
  -3   1  -6  140.99   13.20
   3   1   6  137.59   10.80
  -3   1  -6  113.59   11.50
   3   1   6  114.89    9.70
   3   1   6  127.89   11.80
  -5  -1  -6   39.40    9.10
  -5  -1  -6   18.60    5.10
   5  -1   6   21.20    6.70
  -5  -1  -6   21.50    6.10
   5  -1   6   19.30    5.50
   5  -1   6   24.40    5.80
  -5   1  -6   19.10    5.00
   5   1   6   24.80    6.70
   5   1   6   21.70    4.90
   5   1   6   33.60    6.40
  -5   1  -6   26.90    7.60
  -5   1  -6   23.60    6.40
   7  -1   6   90.19   12.20
  -7  -1  -6  106.59   10.90
  -7  -1  -6  105.99   12.20
  -7   1  -6  120.79   14.00
   7   1   6  115.09   13.40
  -7   1  -6  108.39   11.20
   9  -1   6  100.49   15.30
  -9  -1  -6  100.39   13.40
  -9  -1  -6   80.19   11.30
  -9   1  -6  106.29   12.20
  -9   1  -6  102.29   14.70
   9   1   6  102.49   14.00
  11  -1   6   72.69   14.30
 -11  -1  -6   77.69   13.70
 -11  -1  -6   69.69   11.20
 -11   1  -6   55.39   13.20
 -11   1  -6   73.99   11.90
  11   1   6   58.29   12.60
 -22  -2   6   62.29    7.90
 -22  -2   6   72.29   13.40
 -22   2   6   61.69   13.00
 -22   2   6   56.89    8.40
 -20  -2   6   55.49   11.00
 -20  -2   6   72.39    6.80
 -20   2   6   59.39   12.00
 -20   2   6   68.39    8.10
 -18  -2   6  169.98   15.60
 -18  -2   6  183.58   10.60
 -18  -2   6  172.58   10.30
 -18  -2   6  172.68   10.50
 -18   2   6  177.38   12.40
 -18   2   6  160.68   16.20
 -16  -2   6  327.87   16.50
 -16  -2   6  273.07   20.40
 -16  -2   6  328.37   17.00
 -16  -2   6  289.67   15.70
 -16   2   6  275.47   21.10
 -16   2   6  314.77   17.80
 -14  -2   6  149.69   12.70
 -14  -2   6  165.08   10.50
  14  -2  -6  160.98   15.20
 -14  -2   6  157.78    8.60
 -14   2   6  138.19   12.20
 -14   2   6  149.59   13.20
 -14   2   6  148.59   10.20
  12  -2  -6  463.65   28.50
 -12  -2   6  499.15   25.20
 -12  -2   6  498.65   27.20
 -12   2   6  478.55   24.50
 -12   2   6  446.06   27.20
 -12   2   6  452.85   26.30
 -10  -2   6  890.31   39.30
 -10  -2   6  868.11   42.00
  10  -2  -6  749.53   39.50
 -10  -2   6  882.91   43.60
 -10   2   6  880.91   42.70
 -10   2   6  840.62   43.70
   8  -2  -6  580.04   28.90
   8  -2  -6  578.74   28.90
  -8  -2   6  599.14   27.40
  -8  -2   6  536.95   30.00
  -8   2   6  595.44   31.10
  -8   2   6  575.34   29.80
   8   2  -6  561.04   30.10
  -6  -2   6 1982.00   89.69
  -6  -2   6 1909.01   92.79
   6  -2  -6 1966.30   90.99
   6  -2  -6 2043.40   92.19
  -6   2   6 1975.80   91.59
  -6   2   6 1896.41   91.09
   6   2  -6 1996.70   92.99
   6   2  -6 2082.19   88.59
  -4  -2   6 2277.47  103.79
   4  -2  -6 2382.66  104.59
  -4  -2   6 2293.37  101.49
   4  -2  -6 2275.27  102.59
  -4  -2   6 2168.88  104.69
   4   2  -6 2206.98  104.49
   4   2  -6 2246.38  101.29
  -4   2   6 2100.09  102.59
  -4   2   6 2173.28  103.29
  -2  -2   6  765.12   41.20
   2  -2  -6  776.72   40.90
  -2  -2   6  760.22   37.60
  -2  -2   6  798.12   39.50
  -2   2   6  791.02   40.20
   2   2  -6  808.32   41.10
  -2   2   6  779.62   38.70
   2   2  -6  754.42   38.00
   0  -2   6  200.28   13.40
   0  -2  -6  195.48   15.10
   0  -2   6  203.38   12.20
   0  -2   6  165.98   14.50
   0   2  -6  183.08   14.70
   0   2   6  205.98   14.70
   0   2   6  188.18   12.70
   0   2  -6  183.28   12.60
   0   2   6  208.78   13.30
   2  -2   6  292.57   17.50
   2  -2   6  247.48   15.50
  -2  -2  -6  257.57   16.90
   2  -2   6  252.77   19.00
  -2  -2  -6  289.37   20.20
  -2   2  -6  263.77   17.00
   2   2   6  285.07   16.80
   2   2   6  286.87   19.10
  -2   2  -6  284.97   19.80
  -2   2  -6  243.88   18.80
   2   2   6  258.67   16.50
   4  -2   6  433.56   25.70
   4  -2   6  410.36   23.70
   4  -2   6  450.75   28.90
  -4  -2  -6  478.25   26.10
  -4  -2  -6  454.15   29.40
   4   2   6  464.95   24.90
  -4   2  -6  491.65   29.30
   4   2   6  449.56   27.90
   4   2   6  437.06   25.00
  -4   2  -6  423.76   25.90
  -4   2  -6  412.16   28.40
  -6  -2  -6  178.68   14.00
   6  -2   6  174.68   16.80
  -6  -2  -6  169.88   14.50
   6   2   6  179.68   16.10
   6   2   6  148.19   13.70
  -6   2  -6  185.58   17.60
  -6   2  -6  161.58   14.00
   6   2   6  174.98   14.40
  -8  -2  -6  102.79   12.20
  -8  -2  -6   96.39   11.40
   8  -2   6  106.59   14.20
  -8   2  -6  109.79   15.00
   8   2   6  107.49   12.80
  -8   2  -6  121.69   12.70
 -10  -2  -6   55.39   10.70
 -10  -2  -6   63.89   10.60
  10  -2   6   46.00   11.70
 -10   2  -6   48.80   13.30
 -10   2  -6   59.59   11.10
 -12  -2  -6   27.00    8.60
 -12  -2  -6   16.60    9.10
  12  -2   6   40.50   12.20
 -12   2  -6   29.60   11.70
 -12   2  -6    5.20   11.00
 -21  -3   6  454.75   31.40
 -21  -3   6  459.55   24.90
 -21  -3   6  479.45   25.60
 -21   3   6  489.45   27.50
 -21   3   6  461.95   33.40
 -19  -3   6  579.54   29.50
 -19  -3   6  583.14   36.00
 -19  -3   6  641.84   32.70
 -19  -3   6  594.24   31.30
 -19   3   6  634.34   32.50
 -19   3   6  585.74   37.90
 -17  -3   6 1194.38   53.79
 -17  -3   6 1200.28   56.49
 -17  -3   6 1106.59   59.79
 -17  -3   6 1311.27   58.79
 -17   3   6 1048.70   61.29
 -17   3   6 1170.48   57.09
 -15  -3   6 1668.73   75.19
 -15  -3   6 1545.45   75.59
 -15  -3   6 1530.25   69.49
 -15   3   6 1515.95   75.29
 -15   3   6 1484.55   76.99
 -15   3   6 1522.35   72.69
  13  -3  -6 1951.10   88.99
 -13  -3   6 1751.02   84.89
 -13  -3   6 1879.61   85.29
 -13   3   6 1687.73   84.79
 -13   3   6 1658.73   85.69
 -13   3   6 1736.83   82.39
  11  -3  -6 2436.76  116.89
 -11  -3   6 2554.74  115.59
  11  -3  -6 2517.25  111.09
 -11  -3   6 2485.25  114.99
 -11   3   6 2539.45  112.99
 -11   3   6 2391.56  114.89
 -11   3   6 2340.67  115.39
  -9  -3   6 4303.27  188.48
  -9  -3   6 4348.06  182.78
   9  -3  -6 4109.99  184.98
  -9   3   6 4191.38  187.18
  -9   3   6 4099.99  187.68
   9   3  -6 3650.13  186.08
   7  -3  -6 2083.79   95.89
   7  -3  -6 2120.19   95.49
  -7  -3   6 2043.70   93.09
  -7  -3   6 2041.20   98.09
  -7   3   6 2009.30   96.19
  -7   3   6 2075.89   96.79
   7   3  -6 2104.69   97.49
   5  -3  -6 2172.58  104.59
  -5  -3   6 2347.17  105.79
  -5  -3   6 2297.47  103.09
   5  -3  -6 2384.06  106.39
  -5  -3   6 2268.27  107.89
   5   3  -6 2228.28  106.89
  -5   3   6 2232.98  105.39
   5   3  -6 2313.57  102.19
   3  -3  -6 4954.90  221.48
  -3  -3   6 4907.11  224.98
   3  -3  -6 5045.90  223.68
  -3  -3   6 4967.00  222.08
  -3  -3   6 4910.31  219.88
  -3   3   6 4736.43  221.58
   3   3  -6 4903.21  220.08
   3   3  -6 4950.90  223.98
  -1  -3   6 2705.83  123.19
  -1  -3   6 2672.13  124.89
  -1  -3   6 2751.52  128.59
   1  -3  -6 2676.03  124.69
   1  -3  -6 2938.91  127.99
   1   3  -6 2630.64  123.99
  -1   3   6 2797.32  124.89
   1   3  -6 2689.03  127.29
  -1   3   6 2682.13  124.59
  -1   3   6 2623.94  125.99
   1  -3   6 1420.86   68.19
   1  -3   6 1445.76   73.79
  -1  -3  -6 1527.85   73.29
  -1  -3  -6 1403.46   69.79
   1  -3   6 1488.45   70.09
   1   3   6 1470.05   69.59
  -1   3  -6 1528.55   73.09
  -1   3  -6 1422.26   73.09
   1   3   6 1393.56   71.49
  -1   3  -6 1446.86   69.89
   1   3   6 1511.85   69.49
  -3  -3  -6 1815.12   83.99
   3  -3   6 1704.93   87.89
   3  -3   6 1665.83   81.49
   3  -3   6 1736.53   83.59
  -3  -3  -6 1782.92   87.59
   3   3   6 1799.52   82.79
  -3   3  -6 1720.43   86.69
   3   3   6 1735.33   85.79
   3   3   6 1850.11   82.89
  -3   3  -6 1724.53   87.89
  -3   3  -6 1771.72   84.19
  -5  -3  -6 1252.37   60.19
   5  -3   6 1199.18   64.29
   5   3   6 1158.98   61.99
   5   3   6 1186.58   58.19
   5   3   6 1261.57   59.09
  -5   3  -6 1208.08   60.79
  -5   3  -6 1087.49   63.79
   7  -3   6  625.24   40.70
  -7  -3  -6  651.33   36.60
  -7   3  -6  662.73   37.90
   7   3   6  711.03   37.50
  -7   3  -6  593.04   41.10
   9  -3   6  469.25   33.30
  -9  -3  -6  435.06   28.50
  -9   3  -6  411.26   33.70
  -9   3  -6  482.35   30.70
  11  -3   6  321.87   28.30
 -11  -3  -6  267.77   22.40
 -11   3  -6  273.47   24.00
 -11   3  -6  288.37   28.40
 -20  -4   6  261.67   21.30
 -20  -4   6  278.47   21.50
 -20  -4   6  277.77   16.00
 -20  -4   6  279.57   20.10
 -20   4   6  277.87   23.90
 -20   4   6  292.57   18.90
 -18  -4   6  300.07   20.40
 -18  -4   6  322.67   23.10
 -18  -4   6  312.27   16.10
 -18  -4   6  296.57   21.60
 -18   4   6  343.97   19.90
 -18   4   6  298.27   24.00
 -16  -4   6  445.66   20.20
 -16  -4   6  418.26   26.10
 -16  -4   6  405.46   27.70
 -16   4   6  386.26   27.50
 -16   4   6  466.45   24.70
 -14  -4   6  635.84   37.30
 -14  -4   6  661.03   34.90
 -14   4   6  668.83   33.20
 -14   4   6  597.14   35.50
 -14   4   6  619.34   36.40
  12  -4  -6  909.71   43.70
  12  -4  -6  976.40   44.10
  12  -4  -6  967.70   50.59
 -12  -4   6  951.70   50.29
 -12  -4   6  918.31   46.80
 -12   4   6  922.51   45.30
 -12   4   6  885.21   47.80
 -12   4   6  860.11   47.80
  10  -4  -6 1455.45   69.39
 -10  -4   6 1591.64   66.29
 -10  -4   6 1510.55   71.49
 -10  -4   6 1451.95   74.39
 -10   4   6 1493.25   69.89
 -10   4   6 1373.26   71.59
 -10   4   6 1488.35   72.09
   8  -4  -6 1035.20   50.59
  -8  -4   6 1049.00   47.30
  -8  -4   6 1094.29   54.89
   8  -4  -6 1025.80   50.39
  -8   4   6 1032.60   51.69
   8   4  -6 1028.30   51.89
  -8   4   6  987.30   51.19
  -8   4   6 1025.00   49.99
   6  -4  -6 1118.79   54.19
   6  -4  -6 1127.29   53.19
  -6  -4   6 1127.39   50.59
  -6  -4   6 1091.19   53.29
  -6  -4   6 1092.39   57.19
  -6   4   6 1083.09   53.49
  -6   4   6 1030.00   53.69
   6   4  -6 1085.39   55.39
   4  -4  -6 1171.98   58.69
  -4  -4   6 1171.88   62.79
  -4  -4   6 1222.48   59.09
  -4  -4   6 1230.28   56.89
   4  -4  -6 1214.28   60.79
  -4   4   6 1280.97   59.19
   4   4  -6 1277.77   61.69
   4   4  -6 1228.58   56.49
   2  -4  -6  853.31   45.10
  -2  -4   6  865.91   47.30
  -2  -4   6  853.91   40.70
   2  -4  -6  838.52   42.50
  -2  -4   6  821.02   42.50
   2   4  -6  867.31   45.40
   2   4  -6  838.62   41.40
  -2   4   6  868.01   43.00
   0  -4   6 1106.69   52.49
   0  -4  -6 1090.19   54.39
   0  -4  -6 1067.99   57.19
   0  -4   6 1049.70   58.69
   0  -4   6 1127.59   54.39
   0   4  -6 1153.98   57.69
   0   4   6 1088.39   54.19
   0   4  -6 1136.69   57.99
   0   4   6 1126.79   53.69
   0   4  -6 1113.69   54.19
   2  -4   6  803.62   40.30
   2  -4   6  799.52   42.20
  -2  -4  -6  858.41   42.80
  -2  -4  -6  838.32   46.20
   2  -4   6  826.12   47.10
  -2   4  -6  773.22   46.00
  -2   4  -6  816.92   45.40
  -2   4  -6  830.02   42.90
   2   4   6  841.92   42.10
   2   4   6  848.42   41.20
  -4  -4  -6  376.76   23.10
   4  -4   6  370.86   27.40
   4   4   6  359.56   21.90
  -4   4  -6  364.16   23.60
   4   4   6  394.36   21.70
  -4   4  -6  349.47   26.50
  -6  -4  -6  218.18   16.30
   6  -4   6  193.28   19.10
  -6   4  -6  191.28   19.90
  -6   4  -6  210.58   17.50
   6   4   6  214.38   16.20
  -8  -4  -6  268.37   20.10
   8  -4   6  288.07   25.70
  -8   4  -6  299.77   22.50
  -8   4  -6  256.67   25.30
   8   4   6  274.97   22.40
  10  -4   6  186.38   22.50
 -10  -4  -6  196.58   18.10
 -10   4  -6  193.48   19.70
 -10   4  -6  193.78   24.00
 -19  -5   6    5.80    3.40
 -19  -5   6   16.50    9.10
 -19  -5   6    9.80    8.10
 -19  -5   6    7.30    5.70
 -19   5   6   -0.20    3.80
 -19   5   6   -3.50    5.90
 -17  -5   6   83.99   10.40
 -17  -5   6   73.29   13.50
 -17  -5   6   96.09    6.10
 -17   5   6   94.29    9.40
 -17   5   6   76.19   12.30
 -15  -5   6  122.29   15.80
 -15  -5   6  153.38   12.40
  15  -5  -6  155.58    9.30
  15  -5  -6  139.69    9.00
 -15   5   6  128.89   13.80
 -15   5   6  157.88   11.80
  13  -5  -6   76.19    7.70
  13  -5  -6   85.89    7.90
 -13  -5   6   70.49   12.90
 -13  -5   6   81.49    8.50
 -13   5   6   83.59   10.00
 -13   5   6   66.29    7.30
 -11  -5   6  262.27   16.90
  11  -5  -6  261.77   16.50
  11  -5  -6  262.27   15.80
 -11  -5   6  224.68   20.70
  11  -5  -6  287.87   20.50
 -11   5   6  241.38   18.50
 -11   5   6  269.47   16.20
 -11   5   6  262.87   18.20
   9  -5  -6  174.38   13.30
  -9  -5   6  189.88    9.50
  -9  -5   6  155.78   16.40
  -9   5   6  177.78   12.20
  -9   5   6  176.18   13.20
  -7  -5   6  154.38   11.20
   7  -5  -6  166.98   12.80
  -7  -5   6  147.39   15.20
  -7  -5   6  157.98    8.80
   7  -5  -6  157.28   11.60
  -7   5   6  150.88   12.80
  -7   5   6  148.89   10.90
   7   5  -6  158.48   13.30
  -7   5   6  137.09   11.10
   5  -5  -6  655.23   34.20
  -5  -5   6  663.93   39.60
  -5  -5   6  636.74   31.40
  -5  -5   6  669.63   33.90
   5  -5  -6  634.84   36.00
  -5   5   6  649.34   33.80
  -5   5   6  677.53   35.40
   5   5  -6  660.03   36.70
   3  -5  -6  514.35   30.30
  -3  -5   6  498.35   25.40
  -3  -5   6  488.75   32.40
  -3  -5   6  523.55   27.50
   3  -5  -6  467.75   27.30
  -3   5   6  507.45   28.30
   3   5  -6  503.65   30.20
   3   5  -6  513.25   25.80
  -3   5   6  539.45   27.10
   1  -5  -6  163.08   15.10
   1  -5  -6  155.78   12.00
  -1  -5   6  168.98   12.00
  -1  -5   6  141.79   15.70
  -1  -5   6  156.68   10.30
   1   5  -6  149.39   14.20
   1   5  -6  151.58   11.40
  -1   5   6  166.78   12.70
  -1   5   6  166.28   11.80
   1  -5   6   20.80    4.20
   1  -5   6   20.40    4.80
   1  -5   6   24.80    7.70
  -1  -5  -6   18.60    7.20
  -1  -5  -6   17.80    4.80
   1   5   6   28.80    5.00
  -1   5  -6   22.90    5.40
  -1   5  -6   24.20    6.90
   1   5   6   27.30    5.90
  -1   5  -6   12.50    5.40
   3  -5   6   94.79   12.80
  -3  -5  -6   93.09    9.80
   3   5   6  121.69   11.00
  -3   5  -6   82.19   10.10
   3   5   6  100.19    8.70
  -3   5  -6  110.69   13.70
  -5  -5  -6  110.69   11.50
   5  -5   6  120.99   15.60
  -5   5  -6   94.89   12.40
  -5   5  -6  100.89   14.60
   5   5   6  135.29   11.40
   5   5   6  120.99   11.60
  -7  -5  -6   26.60    6.80
   7  -5   6   20.10    9.40
   7   5   6   15.20    7.90
  -7   5  -6   18.40    7.00
  -7   5  -6   26.90    9.80
   9  -5   6   19.60   10.60
  -9  -5  -6   26.90    8.00
   9   5   6   18.60   11.10
  -9   5  -6    9.30   10.50
  -9   5  -6   13.20    9.10
 -20  -6   6  506.35   25.60
 -20  -6   6  383.56   34.70
 -20  -6   6  528.95   30.90
 -20   6   6  547.95   30.00
 -20   6   6  460.85   33.90
 -18  -6   6  616.94   34.90
 -18  -6   6  609.84   29.70
 -18   6   6  627.54   39.40
 -18   6   6  620.64   34.10
  16  -6  -6  864.41   42.50
  16  -6  -6  874.31   42.70
 -16  -6   6  871.41   45.40
 -16   6   6  858.21   49.70
 -16   6   6  918.51   45.50
 -14  -6   6 1176.78   58.79
  14  -6  -6 1196.98   58.19
  14  -6  -6 1247.78   58.59
 -14   6   6 1181.68   62.29
 -14   6   6 1174.78   58.79
 -12  -6   6 1152.18   56.19
 -12  -6   6 1125.79   51.29
  12  -6  -6 1178.48   56.49
 -12   6   6 1087.49   55.69
 -12   6   6 1180.98   59.09
  10  -6  -6 2815.32  123.19
 -10  -6   6 2755.62  121.69
 -10  -6   6 2640.84  116.69
 -10  -6   6 2203.88  128.39
 -10   6   6 2562.44  122.69
 -10   6   6 2702.33  120.99
  -8  -6   6 1830.72   81.59
  -8  -6   6 1905.21   84.89
   8  -6  -6 1968.30   88.39
  -8  -6   6 1613.84   92.69
  -8   6   6 1736.43   87.59
  -8   6   6 1810.62   84.99
  -8   6   6 1780.32   85.89
   6  -6  -6  375.96   21.90
  -6  -6   6  365.36   18.40
  -6  -6   6  371.96   20.80
   6  -6  -6  384.66   24.30
  -6  -6   6  328.77   26.50
  -6   6   6  348.27   20.90
  -6   6   6  368.36   20.80
  -6   6   6  354.56   22.90
  -4  -6   6 1523.05   71.59
   4  -6  -6 1541.35   72.89
  -4  -6   6 1443.66   69.39
   4  -6  -6 1589.94   76.29
  -4  -6   6 1373.86   79.19
   4   6  -6 1530.65   75.49
  -4   6   6 1520.85   71.79
  -4   6   6 1553.54   71.39
  -4   6   6 1477.35   73.59
   4   6  -6 1507.45   68.99
   4   6  -6 1543.35   69.09
  -2  -6   6 2122.69   97.99
   2  -6  -6 2161.78   99.09
  -2  -6   6 2000.30  106.09
   2  -6  -6 2156.98  103.09
  -2  -6   6 2120.29   96.09
  -2   6   6 2126.99   99.59
   2   6  -6 2053.59   97.19
   2   6  -6 2086.59  102.49
  -2   6   6 2081.89   96.89
   0  -6   6 1242.28   69.89
   0  -6  -6 1251.67   62.99
   0  -6   6 1325.17   62.49
   0  -6   6 1189.88   60.19
   0   6   6 1270.97   63.09
   0   6  -6 1260.87   62.79
   0   6   6 1412.86   61.29
   2  -6   6 1567.04   83.69
  -2  -6  -6 1572.64   76.39
  -2   6  -6 1507.15   81.09
  -2   6  -6 1529.95   76.99
   2   6   6 1635.64   73.09
   2   6   6 1575.94   75.79
  -4  -6  -6  888.41   46.40
   4  -6   6  802.32   52.19
  -4   6  -6  769.52   50.89
   4   6   6  862.81   45.20
   4   6   6  988.90   43.70
  -4   6  -6  876.11   48.00
   6  -6   6  376.66   31.60
  -6  -6  -6  405.96   26.20
  -6   6  -6  373.76   30.90
   6   6   6  428.16   24.50
  -6   6  -6  397.76   28.30
  -8  -6  -6  510.35   33.00
   8  -6   6  519.05   40.10
  -8   6  -6  554.34   40.90
  -8   6  -6  592.54   37.40
 -17  -7   6  392.46   19.10
 -17  -7   6  377.36   23.20
  17  -7  -6  335.97   22.00
 -17   7   6  399.56   23.70
 -17   7   6  390.36   28.20
  15  -7  -6  604.74   32.90
 -15  -7   6  557.64   31.20
 -15   7   6  613.24   32.60
 -15   7   6  547.85   35.60
 -13  -7   6  552.64   30.50
  13  -7  -6  525.65   32.00
 -13  -7   6  579.94   26.90
 -13  -7   6  618.14   27.60
 -13   7   6  531.15   33.60
 -13   7   6  596.14   31.70
 -11  -7   6  576.14   45.30
 -11  -7   6  776.12   36.90
 -11  -7   6  717.73   33.50
 -11  -7   6  731.23   37.30
  11  -7  -6  796.92   39.40
  11  -7  -6  732.83   42.30
 -11   7   6  649.34   38.90
 -11   7   6  730.93   37.60
  -9  -7   6 2186.68   98.29
  -9  -7   6 2315.47  101.19
  -9  -7   6 1955.40  112.29
  -9   7   6 2283.97  102.29
  -9   7   6 2143.09  103.29
   7  -7  -6 2011.50   94.09
  -7  -7   6 1928.21   89.39
  -7  -7   6 2076.59   91.89
  -7  -7   6 1744.43  102.09
   7  -7  -6 2055.19   97.39
  -7   7   6 1925.41   92.89
  -7   7   6 2045.30   92.59
   5  -7  -6 2090.09   97.39
  -5  -7   6 1830.62  101.09
  -5  -7   6 1826.12   88.59
  -5  -7   6 1974.20   90.69
   5  -7  -6 2012.10   92.89
  -5   7   6 1948.91   91.39
  -5   7   6 1967.20   90.89
   3  -7  -6 2206.48  104.39
  -3  -7   6 2077.99  100.69
  -3  -7   6 2203.78  102.49
  -3  -7   6 2180.38  113.49
   3   7  -6 2287.87  101.09
  -3   7   6 2220.88  102.89
  -3   7   6 2371.06  109.19
  -3   7   6 2136.99  101.49
   3   7  -6 2234.78  101.29
  -1  -7   6  857.81   52.69
   1  -7  -6  843.82   44.30
  -1  -7   6  831.32   43.00
  -1   7   6  866.51   41.80
   1   7  -6  853.41   42.20
  -1   7   6  911.21   43.20
   1   7  -6  833.12   43.30
  -1   7   6  774.62   44.70
  -1   7   6  865.01   41.10
   1  -7   6  763.12   51.29
  -1  -7  -6  770.62   43.60
  -1   7  -6  861.31   44.60
   1   7   6  830.42   40.10
   1   7   6  882.41   42.50
  -1   7  -6  817.92   48.30
   1   7   6  824.92   47.00
   1   7   6  884.31   40.20
  -3  -7  -6  893.01   45.90
   3  -7   6  799.72   52.69
   3   7   6  922.91   41.30
  -3   7  -6  746.83   49.80
   3   7   6  842.92   43.20
  -3   7  -6  880.91   47.50
   5  -7   6  309.77   28.40
  -5  -7  -6  302.57   21.30
  -5   7  -6  262.47   22.90
   5   7   6  296.57   17.70
  -5   7  -6  287.37   26.50
  -7  -7  -6  255.07   20.20
   7  -7   6  252.57   27.30
   7   7   6  244.98   16.70
  -7   7  -6  262.77   26.90
  -7   7  -6  260.47   23.40
 -16  -8   6   11.00    3.80
  16  -8  -6   17.20    8.00
 -16  -8   6   11.90    4.80
 -16  -8   6    3.90   12.00
 -16   8   6    6.50    4.80
 -16   8   6   16.30    7.40
 -14  -8   6    9.60    3.70
  14  -8  -6   13.70    7.20
 -14  -8   6   10.50   11.10
 -14  -8   6   10.20    5.00
 -14  -8   6   11.50    4.40
 -14   8   6    5.30    4.00
 -14   8   6    9.80    6.00
 -12  -8   6   22.50    4.90
  12  -8  -6   29.70    7.60
 -12  -8   6   28.20    5.10
 -12  -8   6   21.30    3.90
 -12  -8   6   30.80   11.30
 -12   8   6   30.20    5.80
 -12   8   6   21.40    6.70
 -10  -8   6   43.40    4.90
  10  -8  -6   38.00    7.70
 -10  -8   6   37.30    6.40
 -10  -8   6   44.50    6.20
 -10  -8   6   19.00   10.20
 -10   8   6   29.00    6.80
 -10   8   6   46.50    7.10
  -8  -8   6  117.59    9.30
  -8  -8   6  125.59    8.50
  -8  -8   6   98.69   18.00
  -8   8   6  108.59   10.70
  -8   8   6  118.99   10.20
   6  -8  -6    4.20    4.00
  -6  -8   6    7.60    3.40
  -6  -8   6    1.10    7.40
  -6  -8   6    4.50    3.00
  -6   8   6    2.90    3.30
  -6   8   6    6.60    3.60
  -4  -8   6   51.39    6.40
  -4  -8   6   80.59   16.20
  -4  -8   6   51.29    7.00
   4  -8  -6   57.39    8.60
   4   8  -6   55.09    4.80
  -4   8   6   67.39    6.80
  -4   8   6   53.99    6.70
  -2  -8   6   64.49   14.50
  -2  -8   6   99.49    9.50
   2  -8  -6   93.39   10.30
   2   8  -6  101.19    9.50
  -2   8   6  112.59    9.30
   2   8  -6   97.29    9.20
  -2   8   6   90.09    8.70
  -2   8   6   72.99    6.90
   0  -8   6   -1.10    6.70
   0  -8  -6   14.30    5.40
   0   8   6   16.30    3.30
   0   8   6   17.10    4.80
   0   8   6   16.00    3.10
   0   8  -6   18.60    5.70
   0   8  -6   17.40    5.70
  -2  -8  -6   13.30    5.80
   2  -8   6   14.00   10.10
   2   8   6   11.10    4.30
  -2   8  -6   10.90    7.50
  -2   8  -6   15.10    6.70
   4  -8   6    4.20   10.10
  -4  -8  -6    6.70    5.30
  -4   8  -6   12.90    8.30
  -4   8  -6    7.30    6.90
   4   8   6    1.90    3.80
  -6  -8  -6   -0.40    5.70
   6  -8   6   -5.30    9.30
  -6   8  -6    3.20    9.10
   6   8   6    2.30    4.30
  -6   8  -6    5.80    8.60
 -15  -9   6  641.14   50.79
 -15  -9   6  732.83   34.50
  15  -9  -6  694.73   41.40
 -15   9   6  681.03   38.60
 -15   9   6  780.82   43.10
  13  -9  -6  469.75   32.50
 -13  -9   6  454.05   40.90
 -13  -9   6  548.75   26.20
 -13  -9   6  536.45   26.90
 -13   9   6  520.95   32.80
 -13   9   6  563.34   30.70
 -11  -9   6  676.33   33.70
 -11  -9   6  695.43   35.00
 -11  -9   6  649.24   49.90
 -11  -9   6  724.43   34.40
  11  -9  -6  705.73   40.70
 -11   9   6  659.63   38.90
 -11   9   6  732.43   37.90
   9  -9  -6  957.90   51.79
  -9  -9   6 1014.80   45.80
  -9  -9   6  913.21   61.19
  -9  -9   6  982.30   47.60
  -9  -9   6  965.10   45.60
  -9   9   6  903.41   49.30
  -9   9   6  908.91   48.30
  -7  -9   6  746.83   51.59
  -7  -9   6  753.12   36.40
  -7  -9   6  763.92   36.60
  -7   9   6  672.63   38.20
  -7   9   6  731.33   38.50
  -5  -9   6  833.72   40.90
  -5  -9   6  842.12   55.39
   5  -9  -6  822.52   44.20
  -5   9   6  784.72   40.90
  -5   9   6  813.82   42.00
   3  -9  -6  718.33   40.00
  -3  -9   6  720.43   50.69
  -3  -9   6  770.12   38.20
   3   9  -6  738.43   35.80
  -3   9   6  716.83   35.70
  -3   9   6  707.53   37.70
   3   9  -6  720.23   35.60
   1  -9  -6  532.05   30.40
  -1  -9   6  468.75   39.20
   1   9  -6  454.35   28.10
  -1   9   6  502.35   27.50
   1   9  -6  519.65   28.10
   1  -9   6  546.95   42.70
  -1  -9  -6  593.34   33.90
  -1   9  -6  533.55   33.40
   1   9   6  602.64   30.90
  -3  -9  -6  676.63   38.90
   3  -9   6  653.13   48.80
   3   9   6  695.33   35.30
  -3   9  -6  680.33   40.60
  -3   9  -6  673.43   44.60
  -5  -9  -6  506.55   31.50
  -5   9  -6  478.05   33.80
   5   9   6  468.05   26.60
  -5   9  -6  519.75   38.30
  12 -10  -6  409.96   29.10
 -12 -10   6  434.76   39.90
 -12  10   6  393.56   25.00
 -12  10   6  398.16   26.40
 -10 -10   6  620.84   31.10
 -10 -10   6  524.15   29.20
  10 -10  -6  570.84   36.90
 -10 -10   6  545.05   46.60
 -10  10   6  614.54   33.30
 -10  10   6  627.94   33.90
   8 -10  -6  628.84   38.30
  -8 -10   6  604.14   31.10
  -8 -10   6  599.44   48.60
  -8  10   6  613.94   34.00
  -8  10   6  635.64   33.90
  -6 -10   6  438.36   39.60
  -6 -10   6  451.05   24.70
  -6  10   6  445.76   25.80
  -6  10   6  429.36   24.60
  -4 -10   6  472.35   40.30
  -4 -10   6  480.25   27.20
   4 -10  -6  469.05   29.20
  -4  10   6  451.35   26.50
  -4  10   6  467.15   24.20
   2 -10  -6  474.85   30.00
  -2 -10   6  548.75   42.40
   2  10  -6  446.36   26.20
  -2  10   6  504.75   27.40
   0 -10   6  389.86   36.20
   0 -10  -6  397.86   25.50
   0  10   6  357.16   21.70
   0  10  -6  342.77   23.80
   0  10  -6  344.77   24.30
   2 -10   6  376.56   33.80
  -2 -10  -6  313.57   24.00
  -2  10  -6  370.76   25.70
   2  10   6  331.27   20.50
   9 -11  -6   48.40   12.40
  -9 -11   6   31.30   17.50
  -9  11   6   60.69    8.80
  -9  11   6   63.29    9.30
   7 -11  -6   -2.20    7.50
  -7 -11   6   12.60   13.30
  -7  11   6    0.90    4.60
  -7  11   6    6.40    4.50
  -5 -11   6   -7.10   12.80
  -5  11   6    5.60    3.80
  -5  11   6    3.30    4.80
  -3 -11   6   13.60   13.60
   3 -11  -6    5.60    6.00
  -3  11   6    5.40    5.00
 -22   0   7   -0.90    3.80
 -22   0   7   -9.40    6.20
 -20   0   7    2.30    5.10
 -20   0   7    4.10    3.00
 -18   0   7    8.70    5.00
 -16   0   7   -0.40    1.90
 -16   0   7    2.20    3.60
 -14   0   7    0.40    2.90
 -14   0   7    2.10    3.30
 -14   0   7    1.50    2.00
 -12   0   7    0.10    2.40
 -12   0   7    1.80    1.30
 -12   0   7    5.10    2.90
 -10   0   7    3.50    2.30
 -10   0   7   24.40    4.10
  10   0  -7    2.30    2.40
 -10   0   7    2.00    1.70
   8   0  -7    6.70    2.00
  -8   0   7    1.60    1.80
  -8   0   7    2.70    2.10
   8   0  -7    2.20    2.30
  -6   0   7   -1.50    1.80
  -6   0   7    1.20    1.90
   6   0  -7    2.90    1.90
   6   0  -7    4.50    2.70
   4   0  -7    2.10    3.20
  -4   0   7    2.70    2.20
   4   0  -7   -1.90    1.50
  -4   0   7   -0.30    2.00
   2   0  -7    1.70    3.70
  -2   0   7    1.80    2.40
   2   0  -7    0.50    1.90
  -2   0   7    9.10    3.60
  -2   0   7    1.40    2.70
   0   0  -7    2.40    5.00
   0   0  -7    3.70    2.70
   0   0   7    3.00    3.30
   0   0   7    3.60    2.60
   0   0   7    4.40    3.10
   2   0   7   -0.90    3.10
  -2   0  -7    0.30    2.50
   2   0   7   -1.70    2.80
   2   0   7    0.30    3.10
  -2   0  -7    2.50    5.70
   4   0   7   -4.30    3.50
  -4   0  -7    1.50    3.60
  -6   0  -7   -2.20    4.90
   6   0   7   -1.80    5.20
  -6   0  -7   -2.60    3.80
  -8   0  -7   -4.60    5.00
   8   0   7    3.70    6.90
  -8   0  -7    6.20    6.50
 -10   0  -7    2.30    6.80
  10   0   7    1.90    7.80
 -10   0  -7   -7.20    7.20
 -21  -1   7  224.78   21.20
 -21  -1   7  263.47   15.30
 -21   1   7  248.58   16.10
 -21   1   7  246.28   22.00
 -19  -1   7  357.56   19.20
 -19  -1   7  361.06   25.20
 -19   1   7  358.46   20.30
 -19   1   7  328.97   25.00
 -17  -1   7 1023.70   47.80
 -17  -1   7 1040.50   54.09
 -17   1   7 1042.80   48.90
 -17   1   7 1025.70   54.69
 -17   1   7  937.61   51.19
 -15  -1   7 1538.55   68.09
 -15  -1   7 1494.95   73.69
 -15   1   7 1392.76   71.39
 -15   1   7 1542.15   69.19
 -15   1   7 1427.36   73.79
 -13  -1   7  509.85   29.60
 -13  -1   7  522.05   25.20
 -13  -1   7  519.45   26.40
 -13   1   7  487.25   27.90
 -13   1   7  521.45   26.30
 -13   1   7  509.95   29.90
 -11  -1   7 1124.89   55.39
 -11  -1   7 1090.99   51.69
 -11  -1   7 1101.69   51.29
  11  -1  -7 1122.19   50.89
 -11   1   7 1044.90   54.99
 -11   1   7 1095.59   52.99
  11   1  -7 1066.99   51.89
  -9  -1   7 1643.54   74.19
  -9  -1   7 1626.64   75.69
   9  -1  -7 1581.14   75.19
  -9   1   7 1549.94   74.29
  -9   1   7 1645.44   75.59
   9   1  -7 1625.44   76.09
  -9   1   7 1633.94   77.99
  -7  -1   7 2458.95  111.69
   7  -1  -7 2610.14  113.89
   7  -1  -7 2423.86  111.89
  -7  -1   7 2450.05  113.89
   7   1  -7 2467.05  110.69
  -7   1   7 2358.56  112.69
  -7   1   7 2455.95  112.69
   7   1  -7 2470.65  114.19
  -5  -1   7 4097.59  186.08
   5  -1  -7 4093.19  186.58
  -5  -1   7 3832.22  188.48
   5  -1  -7 4398.66  189.18
   5   1  -7 4351.36  189.18
  -5   1   7 4178.28  187.08
   5   1  -7 4163.08  185.88
  -5   1   7 4045.70  187.88
   3  -1  -7 1600.34   76.29
  -3  -1   7 1529.05   72.89
  -3  -1   7 1549.74   74.79
   3  -1  -7 1601.04   73.69
  -3  -1   7 1505.45   75.69
  -3   1   7 1528.25   73.39
   3   1  -7 1548.45   73.09
   3   1  -7 1625.04   76.49
  -3   1   7 1582.04   74.99
   1  -1  -7 1122.59   55.39
   1  -1  -7 1095.99   52.19
  -1  -1   7 1045.20   52.59
  -1  -1   7 1085.29   51.19
  -1  -1   7 1014.20   54.39
   1   1  -7 1005.20   51.49
  -1   1   7 1039.90   51.59
  -1   1   7 1040.40   52.49
  -1   1   7 1049.79   53.99
   1   1  -7 1100.29   54.99
   1  -1   7  895.21   47.30
   1  -1   7  932.51   46.20
  -1  -1  -7  939.51   50.79
   1  -1   7  912.91   49.99
  -1  -1  -7  970.00   47.60
   1   1   7  912.61   46.50
   1   1   7  966.90   47.50
   1   1   7  943.81   49.80
  -1   1  -7  968.60   50.69
  -1   1  -7  953.50   47.40
   3  -1   7  611.24   35.90
  -3  -1  -7  604.34   32.70
   3   1   7  556.84   31.20
  -3   1  -7  589.44   32.50
   3   1   7  606.94   32.20
   3   1   7  559.64   34.50
  -3   1  -7  670.73   48.30
  -3   1  -7  538.85   34.70
   5  -1   7  886.91   51.09
  -5  -1  -7  926.01   47.90
  -5   1  -7  911.81   51.49
   5   1   7  902.61   50.59
  -5   1  -7  905.01   48.00
  -7  -1  -7  390.16   27.00
  -7  -1  -7  391.26   25.30
   7  -1   7  386.36   28.40
  -7   1  -7  377.86   25.30
  -7   1  -7  357.86   28.20
   7   1   7  362.76   27.10
  -9  -1  -7  112.09   15.30
  -9  -1  -7  108.89   13.30
   9  -1   7   94.79   16.00
   9   1   7  102.39   15.30
  -9   1  -7   84.59   15.20
  -9   1  -7   74.49   12.30
 -22  -2   7  326.97   18.90
 -22  -2   7  338.17   26.50
 -22   2   7  335.37   20.70
 -22   2   7  316.27   27.20
 -20  -2   7  383.16   20.40
 -20  -2   7  377.76   27.00
 -20   2   7  402.46   22.70
 -20   2   7  390.26   28.40
 -18  -2   7  995.70   45.90
 -18  -2   7  931.91   52.19
 -18   2   7 1004.10   48.30
 -18   2   7  967.70   53.59
 -16  -2   7  915.51   41.60
 -16  -2   7  904.21   41.20
 -16  -2   7  867.41   40.70
 -16  -2   7  833.22   46.40
 -16   2   7  864.81   46.00
 -16   2   7  853.41   47.60
 -16   2   7  845.02   42.70
 -14  -2   7  826.92   41.00
 -14  -2   7  870.41   45.60
 -14  -2   7  915.31   41.90
 -14   2   7  895.81   42.30
 -14   2   7  831.52   44.50
 -14   2   7  809.42   45.60
  12  -2  -7 2023.30   92.99
 -12  -2   7 2219.68   94.09
 -12  -2   7 2047.80   98.69
 -12   2   7 2036.60   97.49
 -12   2   7 2019.10   98.99
 -12   2   7 2103.39   95.69
  10  -2  -7 2118.29   96.29
 -10  -2   7 2034.00   97.69
 -10  -2   7 2183.58   95.09
  10   2  -7 2067.79   97.89
 -10   2   7 2090.99   97.99
 -10   2   7 2110.39   99.69
  -8  -2   7 2263.77  109.89
   8  -2  -7 2321.27  108.09
   8  -2  -7 2358.16  108.99
  -8  -2   7 2450.25  106.89
  -8   2   7 2322.97  109.09
  -8   2   7 2364.06  110.79
  -8   2   7 2392.06  107.99
   8   2  -7 2429.56  110.29
   6  -2  -7 1577.44   75.59
  -6  -2   7 1604.74   76.69
  -6  -2   7 1594.24   73.09
   6  -2  -7 1570.54   74.09
   6   2  -7 1607.24   72.19
  -6   2   7 1531.05   74.59
   6   2  -7 1614.34   76.39
  -6   2   7 1584.34   74.79
   4  -2  -7  969.80   49.70
  -4  -2   7  999.90   46.70
  -4  -2   7  942.91   50.09
   4  -2  -7  980.10   47.60
  -4  -2   7  981.30   49.00
  -4   2   7  967.00   48.90
   4   2  -7  989.30   46.60
  -4   2   7  956.30   47.90
   4   2  -7  986.90   50.19
   2  -2  -7 1726.53   82.89
   2  -2  -7 1793.52   80.39
  -2  -2   7 1672.63   83.29
  -2  -2   7 1686.13   78.89
  -2  -2   7 1705.03   80.99
   2   2  -7 1662.73   82.69
  -2   2   7 1708.23   81.89
  -2   2   7 1654.13   80.79
   2   2  -7 1627.94   79.29
  -2   2   7 1750.02   80.19
   0  -2  -7 1485.65   71.49
   0  -2  -7 1595.04   75.09
   0  -2   7 1424.76   71.49
   0  -2   7 1499.45   70.09
   0  -2   7 1423.86   74.39
   0   2   7 1485.95   71.49
   0   2  -7 1520.15   74.39
   0   2   7 1537.95   71.09
   0   2  -7 1454.15   70.99
   0   2   7 1436.36   73.29
   2  -2   7 1107.59   57.29
  -2  -2  -7 1302.47   63.99
   2  -2   7 1220.68   59.49
  -2  -2  -7 1219.08   59.59
   2  -2   7 1207.08   63.19
  -2   2  -7 1179.98   62.29
   2   2   7 1198.68   61.89
  -2   2  -7 1191.78   62.99
  -2   2  -7 1178.18   59.49
   2   2   7 1242.38   58.69
   2   2   7 1162.08   58.69
  -4  -2  -7  693.43   39.20
   4  -2   7  721.53   43.00
   4   2   7  750.92   38.90
  -4   2  -7  711.03   39.80
  -4   2  -7  738.43   43.70
   4   2   7  764.22   42.30
  -6  -2  -7  502.25   29.20
   6  -2   7  448.56   32.20
  -6   2  -7  456.05   33.00
   6   2   7  434.76   30.40
  -6   2  -7  500.95   29.80
   8  -2   7  341.17   28.40
  -8  -2  -7  339.97   24.30
   8   2   7  326.27   26.50
  -8   2  -7  362.26   29.50
  -8   2  -7  370.46   25.50
 -10  -2  -7  205.38   19.20
  10  -2   7  220.48   23.80
 -10   2  -7  225.78   25.00
 -10   2  -7  190.18   19.70
 -21  -3   7   23.50    4.40
 -21  -3   7   23.00    8.50
 -21   3   7   21.80    5.70
 -21   3   7   15.60    8.60
 -19  -3   7   22.80    3.40
 -19  -3   7   19.30    5.10
 -19  -3   7   24.90    5.00
 -19  -3   7   20.70    6.70
 -19   3   7   29.40    5.80
 -19   3   7   16.20    7.40
 -17  -3   7   30.10    5.50
 -17  -3   7   25.10    5.50
 -17  -3   7   17.10    3.00
 -17  -3   7   25.60    6.90
 -17   3   7   19.10    6.60
 -17   3   7   30.40    5.40
 -15  -3   7   27.40    6.20
 -15  -3   7   29.80    5.80
 -15   3   7   27.00    4.80
 -15   3   7   31.80    7.30
 -15   3   7   23.60    6.70
 -13  -3   7  270.47   17.90
 -13  -3   7  271.47   13.20
 -13  -3   7  253.27   17.20
 -13   3   7  262.57   15.60
 -13   3   7  226.88   17.80
 -13   3   7  230.98   17.70
 -11  -3   7   63.59    7.80
 -11  -3   7   68.99    4.80
 -11  -3   7   64.89    7.90
  11  -3  -7   69.29    6.30
 -11   3   7   78.89    6.90
 -11   3   7   47.20    7.60
 -11   3   7   64.19    7.90
  -9  -3   7  167.18   13.10
   9  -3  -7  164.68   11.30
  -9  -3   7  146.19    9.20
   9  -3  -7  146.99   11.30
  -9   3   7  184.18   13.20
  -9   3   7  155.48   12.30
   9   3  -7  187.28   13.30
  -7  -3   7  179.98   14.50
   7  -3  -7  191.28   13.40
  -7  -3   7  189.38   10.90
   7  -3  -7  185.38   12.40
   7   3  -7  181.28   14.10
  -7   3   7  193.38   13.60
  -7   3   7  177.48   13.10
  -5  -3   7   38.80    4.70
  -5  -3   7   45.20    7.90
   5  -3  -7   42.20    5.40
  -5  -3   7   45.20    7.00
   5  -3  -7   47.60    7.40
  -5   3   7   36.30    5.80
   5   3  -7   53.79    4.60
   5   3  -7   51.99    8.30
  -3  -3   7  335.37   20.40
  -3  -3   7  339.27   18.40
   3  -3  -7  323.57   19.50
   3  -3  -7  338.77   21.80
  -3  -3   7  323.57   22.40
   3   3  -7  343.87   18.80
   3   3  -7  345.17   22.10
  -3   3   7  315.67   19.80
  -3   3   7  344.57   20.80
  -1  -3   7  512.35   28.20
  -1  -3   7  514.45   31.60
   1  -3  -7  489.55   27.80
  -1  -3   7  493.65   26.40
   1  -3  -7  534.15   31.10
   1   3  -7  490.15   27.30
  -1   3   7  511.85   29.50
  -1   3   7  495.95   27.80
  -1   3   7  493.65   27.90
   1   3  -7  539.75   31.00
   1  -3   7   93.29    9.40
   1  -3   7   92.99    8.30
  -1  -3  -7   98.99    9.30
   1  -3   7   91.89   11.70
  -1  -3  -7  117.69   13.70
   1   3   7   92.79    9.30
  -1   3  -7   78.99    9.00
  -1   3  -7   77.89   11.80
   1   3   7   90.79   10.30
   1   3   7  102.89    9.80
  -3  -3  -7    8.80    4.00
   3  -3   7    8.30    5.60
  -3   3  -7    5.60    5.00
   3   3   7    6.20    4.10
   3   3   7    8.80    4.40
  -3   3  -7    2.40    3.60
  -5  -3  -7   51.29    8.30
   5  -3   7   41.00    9.90
   5   3   7   52.89    8.10
  -5   3  -7   51.49    8.70
  -5   3  -7   35.20   10.40
   5   3   7   23.30    7.00
  -7  -3  -7   31.90    8.00
   7  -3   7   45.40   11.60
  -7   3  -7   39.60   10.90
  -7   3  -7   20.00    7.20
   9  -3   7   18.60   10.40
  -9  -3  -7   16.40    7.30
  -9   3  -7   25.50    9.00
  -9   3  -7    6.60   10.50
 -20  -4   7  333.97   16.50
 -20  -4   7  319.57   20.50
 -20  -4   7  307.87   21.30
 -20  -4   7  294.47   22.90
 -20   4   7  295.67   19.50
 -20   4   7  277.37   24.40
 -18  -4   7  629.24   36.80
 -18  -4   7  658.73   36.30
 -18  -4   7  621.54   29.60
 -18  -4   7  666.13   34.30
 -18   4   7  637.14   34.20
 -18   4   7  600.74   38.60
 -16  -4   7 1521.75   72.59
 -16  -4   7 1426.56   64.49
 -16  -4   7 1434.16   71.59
 -16   4   7 1366.16   73.29
 -16   4   7 1458.55   69.09
 -14  -4   7  923.01   47.50
 -14  -4   7  975.10   49.40
 -14   4   7  863.61   45.00
 -14   4   7  888.01   48.80
 -12  -4   7 1069.39   53.79
 -12  -4   7 1097.09   55.89
  12  -4  -7 1056.09   50.59
 -12   4   7 1012.30   54.19
 -12   4   7 1068.79   51.79
  10  -4  -7 1748.13   83.89
 -10  -4   7 1834.32   88.49
 -10  -4   7 1803.62   80.59
 -10   4   7 1849.91   84.09
 -10   4   7 1762.92   85.89
 -10   4   7 1742.13   85.89
  -8  -4   7 1192.48   52.79
  -8  -4   7 1125.49   59.39
   8  -4  -7 1133.19   56.29
   8  -4  -7 1082.79   55.29
  -8   4   7 1182.88   56.99
   8   4  -7 1123.69   57.69
  -8   4   7 1140.59   56.79
  -6  -4   7 1134.99   56.69
  -6  -4   7 1120.89   60.19
  -6  -4   7 1156.18   53.89
   6  -4  -7 1164.08   57.89
   6  -4  -7 1122.59   55.99
  -6   4   7 1220.68   57.19
  -6   4   7 1191.78   57.29
   6   4  -7 1119.49   58.49
   4  -4  -7 1290.47   64.59
  -4  -4   7 1375.16   69.69
  -4  -4   7 1329.77   62.79
   4  -4  -7 1407.46   67.69
  -4  -4   7 1375.36   65.39
   4   4  -7 1362.26   67.79
   4   4  -7 1324.07   62.69
  -4   4   7 1314.47   65.39
  -2  -4   7  732.53   38.40
   2  -4  -7  738.53   38.30
  -2  -4   7  717.33   36.30
  -2  -4   7  751.92   43.00
   2  -4  -7  747.33   41.40
  -2   4   7  727.53   38.50
  -2   4   7  754.82   38.60
   2   4  -7  709.13   41.00
   2   4  -7  758.12   37.40
   0  -4   7  753.62   39.10
   0  -4   7  703.13   36.90
   0  -4   7  733.13   43.60
   0  -4  -7  706.83   38.90
   0  -4  -7  754.22   42.90
   0   4  -7  759.92   39.00
   0   4   7  764.92   38.70
   0   4   7  769.52   39.20
   0   4  -7  749.92   42.20
   2  -4   7  650.83   39.90
  -2  -4  -7  630.74   34.70
  -2   4  -7  619.44   35.10
   2   4   7  637.94   34.30
   2   4   7  627.64   33.20
  -2   4  -7  599.24   38.70
  -4  -4  -7  490.45   29.40
   4  -4   7  517.45   34.60
   4   4   7  521.25   28.20
  -4   4  -7  461.95   30.10
  -4   4  -7  472.05   34.10
  -6  -4  -7  539.35   32.00
   6  -4   7  516.35   36.80
  -6   4  -7  488.55   37.40
  -6   4  -7  526.65   33.30
   6   4   7  551.54   31.70
   8  -4   7  278.37   26.30
  -8  -4  -7  261.77   20.50
  -8   4  -7  199.98   25.60
  -8   4  -7  280.97   23.00
 -21  -5   7  424.46   20.90
 -21  -5   7  375.06   27.10
 -21  -5   7  421.16   28.40
 -21   5   7  379.16   24.30
 -21   5   7  321.87   29.10
 -19  -5   7  598.34   38.30
 -19  -5   7  651.33   29.60
 -19  -5   7  612.44   35.50
 -19  -5   7  625.14   36.50
 -19   5   7  626.34   34.30
 -19   5   7  609.74   39.70
 -17  -5   7  684.73   42.80
 -17  -5   7  757.92   40.00
 -17   5   7  689.73   42.10
 -17   5   7  724.53   38.00
  15  -5  -7  514.95   25.40
 -15  -5   7  532.85   30.40
  15  -5  -7  520.95   25.70
 -15  -5   7  493.85   34.00
 -15   5   7  537.85   28.90
 -15   5   7  529.15   32.40
  13  -5  -7  936.21   46.20
 -13  -5   7  967.90   48.80
 -13  -5   7  926.91   53.19
  13  -5  -7  949.90   46.00
 -13   5   7  947.01   47.10
 -13   5   7  931.21   50.09
 -11  -5   7 2291.37  108.49
 -11  -5   7 2440.56  102.99
 -11  -5   7 2274.37  113.39
  11  -5  -7 2271.67  107.19
 -11   5   7 2396.16  112.99
 -11   5   7 2279.77  109.19
 -11   5   7 2158.68  106.69
   9  -5  -7 1881.61   87.99
   9  -5  -7 1874.01   87.19
  -9  -5   7 1744.23   92.49
  -9  -5   7 1914.01   83.29
  -9   5   7 1812.22   86.39
  -9   5   7 1774.22   87.79
  -9   5   7 1864.11   89.09
   7  -5  -7  774.22   41.10
   7  -5  -7  717.13   38.90
  -7  -5   7  768.82   36.30
  -7  -5   7  753.12   44.60
  -7  -5   7  765.02   39.20
  -7   5   7  790.22   39.70
  -7   5   7  718.13   40.30
   7   5  -7  784.32   41.80
  -5  -5   7 1511.95   77.19
   5  -5  -7 1425.06   70.89
  -5  -5   7 1449.15   68.19
   5  -5  -7 1539.95   73.89
  -5  -5   7 1486.05   70.99
  -5   5   7 1443.46   71.99
  -5   5   7 1482.25   70.89
   5   5  -7 1488.75   67.29
   5   5  -7 1520.45   67.19
   5   5  -7 1418.86   73.69
   3  -5  -7 1662.63   79.19
  -3  -5   7 1688.23   76.69
  -3  -5   7 1615.14   85.19
  -3  -5   7 1677.43   78.89
   3  -5  -7 1721.83   82.79
   3   5  -7 1640.94   77.19
  -3   5   7 1592.24   79.49
   3   5  -7 1623.34   82.19
   1  -5  -7 1121.49   60.39
  -1  -5   7 1137.69   53.69
  -1  -5   7 1163.38   62.59
  -1  -5   7 1123.99   55.79
   1  -5  -7 1120.89   56.09
  -1   5   7 1062.89   55.99
  -1   5   7 1136.59   55.29
   1   5  -7 1121.09   55.39
   1  -5   7 1148.29   65.09
  -1  -5  -7 1229.78   59.39
  -1   5  -7 1147.49   59.09
   1   5   7 1173.18   57.19
   3  -5   7  537.25   36.40
  -3  -5  -7  507.45   30.20
  -3   5  -7  467.35   34.60
  -3   5  -7  522.65   31.40
   3   5   7  531.25   28.30
  -5  -5  -7  164.28   15.40
   5  -5   7  209.48   21.50
   5   5   7  205.58   15.50
  -5   5  -7  179.18   17.50
  -5   5  -7  154.58   19.50
   7  -5   7  293.07   26.80
  -7  -5  -7  278.67   21.10
   7   5   7  276.97   22.90
  -7   5  -7  252.57   22.80
  -7   5  -7  196.38   25.10
  -9  -5  -7  260.37   21.50
  -9   5  -7  252.87   24.20
 -20  -6   7   31.30   12.60
 -20  -6   7   21.40    7.70
 -20  -6   7   25.70    7.20
 -20   6   7   31.20   10.00
 -20   6   7   33.20    7.10
 -18  -6   7   88.89   11.00
 -18  -6   7   51.89   13.50
 -18   6   7   86.69    9.60
 -18   6   7   72.29   13.10
  16  -6  -7   36.30    5.70
  16  -6  -7   48.30    6.10
 -16  -6   7   35.10   10.80
 -16  -6   7   39.40    7.50
 -16   6   7   47.30    9.70
 -16   6   7   42.80    7.20
  14  -6  -7  106.09   10.00
 -14  -6   7  105.99   10.50
 -14  -6   7   73.79   15.40
  14  -6  -7  105.59   10.60
 -14   6   7   97.09    9.50
 -14   6   7  103.79   11.80
  12  -6  -7  119.69   10.50
 -12  -6   7  135.69   11.60
 -12  -6   7  105.69   16.40
  12  -6  -7  138.39   12.80
 -12  -6   7  127.99    7.00
 -12   6   7  129.69   10.70
 -12   6   7  133.89   12.50
 -10  -6   7   15.90    2.50
  10  -6  -7    6.50    5.40
 -10  -6   7    8.20    6.50
 -10  -6   7   12.30    4.30
 -10   6   7    7.60    3.30
 -10   6   7    8.00    3.90
   8  -6  -7   61.69    8.30
   8  -6  -7   48.30    9.00
  -8  -6   7   60.29    7.30
  -8  -6   7   54.09   12.10
  -8  -6   7   50.29    4.80
  -8   6   7   50.09    7.10
  -8   6   7   45.90    6.80
   6  -6  -7    4.30    3.20
  -6  -6   7    6.40    2.40
  -6  -6   7    6.20    3.70
   6  -6  -7   12.00    6.50
  -6  -6   7   11.20    6.60
   6   6  -7    5.00    5.60
  -6   6   7    6.70    3.40
  -6   6   7    2.70    2.60
  -4  -6   7    7.00    3.60
   4  -6  -7    0.10    3.20
  -4  -6   7    2.50    5.70
  -4  -6   7   -0.50    2.40
   4  -6  -7    9.60    6.70
  -4   6   7   11.60    3.50
   4   6  -7    5.70    2.80
   4   6  -7    3.10    2.60
  -2  -6   7   33.50    6.60
  -2  -6   7   44.70   10.80
  -2  -6   7   33.30    4.90
   2  -6  -7   33.90    6.40
  -2   6   7   36.60    5.80
  -2   6   7   34.30    6.30
   2   6  -7   36.80    6.20
   0  -6   7    4.50    5.80
   0  -6  -7    3.40    3.40
   0   6   7    9.50    4.20
   0   6  -7    2.60    3.70
   2  -6   7    9.40    8.50
  -2  -6  -7   11.80    5.40
  -2   6  -7   12.80    5.60
  -2   6  -7   25.40    8.70
   2   6   7   22.30    5.10
  -4  -6  -7   16.70    6.00
   4  -6   7   15.80    8.50
   4   6   7   13.00    5.30
  -4   6  -7   13.30    7.20
  -4   6  -7   12.70    8.10
  -6  -6  -7   27.30    7.80
   6  -6   7   27.80   12.00
  -6   6  -7   23.30   10.30
   6   6   7   22.70    8.70
  -6   6  -7   15.50    8.60
  -8  -6  -7   34.50    9.50
   8  -6   7   40.40   14.50
  -8   6  -7    8.70    9.90
  -8   6  -7   23.40   13.50
 -19  -7   7  171.38   25.10
 -19  -7   7  236.08   18.50
 -19   7   7  230.18   22.60
 -19   7   7  263.47   18.10
 -17  -7   7  351.96   21.90
  17  -7  -7  334.27   20.00
 -17   7   7  294.07   25.40
 -17   7   7  344.57   21.90
 -15  -7   7  213.58   26.40
  15  -7  -7  323.07   20.10
 -15  -7   7  316.67   19.70
  15  -7  -7  290.17   20.80
 -15   7   7  292.17   19.40
 -15   7   7  280.57   22.30
  13  -7  -7  612.34   35.30
 -13  -7   7  609.14   28.00
 -13  -7   7  609.84   33.00
  13  -7  -7  590.44   33.20
 -13   7   7  590.54   32.70
 -13   7   7  582.14   35.10
  11  -7  -7  890.31   44.20
 -11  -7   7  849.81   43.00
 -11  -7   7  682.33   51.59
  11  -7  -7  895.31   47.20
 -11  -7   7  843.82   39.10
 -11  -7   7  858.51   44.10
 -11   7   7  865.61   43.60
 -11   7   7  852.81   45.40
  -9  -7   7 1251.17   58.39
  -9  -7   7  976.80   66.89
   9  -7  -7 1274.27   63.49
  -9  -7   7 1204.78   54.99
  -9   7   7 1179.68   59.69
  -9   7   7 1234.38   58.79
  -7  -7   7  733.53   35.20
   7  -7  -7  810.72   43.90
  -7  -7   7  715.63   37.60
  -7  -7   7  612.34   45.80
   7  -7  -7  719.73   39.20
  -7   7   7  776.72   38.40
  -7   7   7  735.23   38.40
  -5  -7   7  209.38   22.40
  -5  -7   7  209.28   14.50
  -5  -7   7  205.78   12.70
   5  -7  -7  217.78   15.80
  -5   7   7  228.48   15.00
  -5   7   7  218.18   14.50
   3  -7  -7  716.93   39.90
  -3  -7   7  760.42   38.80
  -3  -7   7  678.63   47.30
  -3  -7   7  738.03   36.80
   3   7  -7  759.92   36.90
   3   7  -7  756.72   37.40
  -3   7   7  775.22   39.00
  -3   7   7  748.83   37.70
   1  -7  -7  991.20   51.49
  -1  -7   7  942.21   59.59
  -1   7   7 1089.29   49.50
  -1   7   7  978.80   48.30
  -1   7   7 1006.70   50.09
   1   7  -7  950.70   50.39
   1  -7   7  565.14   40.70
  -1  -7  -7  571.34   33.30
   1   7   7  599.44   30.00
   1   7   7  566.34   29.80
  -1   7  -7  580.44   34.20
  -3  -7  -7  345.07   23.60
   3  -7   7  302.87   30.10
   3   7   7  368.56   20.10
  -3   7  -7  368.56   25.60
  -3   7  -7  310.57   28.70
   5  -7   7  171.08   21.60
  -5  -7  -7  180.78   16.70
  -5   7  -7  166.88   21.40
  -5   7  -7  181.88   19.40
  16  -8  -7  885.41   48.10
 -16  -8   7  891.81   46.20
 -16   8   7 1000.50   48.60
 -16   8   7  867.91   51.69
 -14  -8   7  867.71   40.20
  14  -8  -7  870.51   46.40
 -14  -8   7  861.51   44.10
 -14  -8   7  873.91   43.70
  14  -8  -7  869.81   48.90
 -14   8   7  843.22   45.20
 -14   8   7  830.52   48.10
 -12  -8   7 1142.29   55.49
 -12  -8   7 1110.39   56.49
  12  -8  -7 1162.68   58.89
  12  -8  -7 1193.78   62.29
 -12  -8   7 1172.88   52.69
 -12   8   7 1068.09   58.89
 -12   8   7 1138.59   56.99
 -10  -8   7  936.91   66.69
  10  -8  -7 1245.78   62.89
 -10  -8   7 1130.39   52.39
 -10  -8   7 1179.48   55.09
 -10   8   7 1169.18   56.39
 -10   8   7 1060.09   57.09
  -8  -8   7  680.53   51.39
  -8  -8   7  851.01   40.80
  -8  -8   7  780.82   38.30
  -8   8   7  804.62   42.00
  -8   8   7  848.12   41.90
  -6  -8   7 1109.49   53.99
  -6  -8   7 1227.48   56.29
   6  -8  -7 1135.49   58.39
  -6  -8   7 1090.19   68.59
  -6   8   7 1167.58   56.69
  -6   8   7 1126.39   56.19
   4  -8  -7 1724.53   83.89
  -4  -8   7 1687.23   81.39
  -4  -8   7 1645.04   94.19
   4   8  -7 1740.53   78.19
  -4   8   7 1677.43   80.39
   4   8  -7 1745.63   78.39
  -4   8   7 1787.42   82.19
   2  -8  -7  843.92   46.20
  -2  -8   7  853.41   55.59
  -2   8   7  922.21   43.60
   2   8  -7  819.62   43.80
   2   8  -7  888.51   43.20
  -2   8   7  842.62   42.10
  -2   8   7  877.81   44.30
   0  -8   7  520.35   40.00
   0  -8  -7  496.25   30.40
   0   8   7  507.35   26.00
   0   8  -7  504.15   28.70
   0   8   7  507.35   25.90
   0   8  -7  506.75   30.50
   0   8   7  521.35   28.60
  -2  -8  -7  667.33   38.30
   2  -8   7  611.14   46.30
  -2   8  -7  644.64   39.10
   2   8   7  678.73   35.70
   2   8   7  687.03   32.40
   4  -8   7  449.76   38.30
  -4  -8  -7  459.25   29.50
  -4   8  -7  460.75   36.10
   4   8   7  437.96   22.60
  -4   8  -7  434.76   31.50
   4   8   7  443.66   25.90
 -15  -9   7   88.49    9.60
 -15  -9   7   49.20   18.10
  15  -9  -7   85.09   13.10
 -15   9   7   98.19   11.50
 -15   9   7   79.49   13.00
  13  -9  -7   30.60    8.50
 -13  -9   7   22.50    6.00
 -13  -9   7   20.90   13.80
 -13   9   7   27.70    6.50
 -13   9   7   24.00    7.80
  11  -9  -7   82.79   11.90
 -11  -9   7   60.19    7.40
 -11  -9   7   81.09   19.40
 -11  -9   7   69.99    8.40
 -11  -9   7   76.99    9.40
 -11   9   7   59.59    8.70
 -11   9   7   85.89   11.10
  -9  -9   7  101.49    9.10
  -9  -9   7  101.59   20.80
  -9  -9   7  113.39   10.10
  -9   9   7  103.39   10.60
  -9   9   7  108.49   11.30
  -7  -9   7  117.59    9.70
  -7  -9   7   99.89   20.40
   7  -9  -7   99.79   11.90
  -7  -9   7  117.09   10.00
  -7   9   7  111.79   10.50
  -7   9   7   99.69   10.40
  -5  -9   7  220.28   25.80
  -5  -9   7  224.58   15.30
   5  -9  -7  215.68   17.10
  -5   9   7  196.88   14.10
  -5   9   7  204.68   15.00
  -3  -9   7   62.99   16.40
   3  -9  -7   63.09   10.30
   3   9  -7   62.29    7.70
   3   9  -7   54.59    6.80
  -3   9   7   54.69    8.00
  -3   9   7   55.39    6.70
  -3   9   7   56.99    8.00
  -1  -9   7   55.89   15.30
   1  -9  -7   51.19    9.30
  -1   9   7   48.90    7.50
  -1   9   7   46.90    5.60
   1   9  -7   66.99    9.50
   1   9  -7   60.19    9.10
   1  -9   7  139.99   23.60
  -1  -9  -7  111.09   13.30
  -1   9  -7   99.79   13.80
   1   9   7  112.89   11.00
   3  -9   7   36.50   15.10
  -3  -9  -7   41.90    9.40
  -3   9  -7   24.60    9.80
   3   9   7   36.90    6.80
  12 -10  -7  116.29   16.00
 -12 -10   7  127.89   11.10
 -12 -10   7  136.09   26.70
 -12  10   7  118.39   14.30
 -12  10   7  137.49   13.10
 -10 -10   7  352.66   36.40
 -10 -10   7  300.67   19.50
  10 -10  -7  310.07   23.90
 -10  10   7  284.67   20.20
 -10  10   7  292.17   21.20
  -8 -10   7  383.26   39.30
  -8 -10   7  405.26   25.00
  -8  10   7  405.46   25.20
  -8  10   7  447.96   25.60
  -6 -10   7  235.18   16.70
   6 -10  -7  233.18   18.80
  -6 -10   7  220.48   29.00
  -6  10   7  219.88   15.80
  -6  10   7  234.68   16.70
   4 -10  -7  244.78   19.50
  -4 -10   7  230.48   29.90
  -4  10   7  258.07   15.60
  -4  10   7  250.37   17.60
  -2 -10   7  355.56   36.40
   2 -10  -7  346.97   25.10
  -2  10   7  391.16   22.80
   2  10  -7  356.26   21.90
   0 -10  -7  236.58   20.60
   0 -10   7  266.47   31.20
   0  10   7  277.67   18.20
   0  10  -7  265.67   20.70
 -22   0   8  381.26   21.50
 -22   0   8  363.16   28.10
 -20   0   8 1095.79   48.90
 -20   0   8  897.61   51.89
 -20   0   8  975.80   55.09
 -18   0   8 1103.49   60.49
 -18   0   8 1281.47   57.69
 -18   0   8 1253.77   64.29
 -16   0   8 2766.42  130.99
 -16   0   8 2836.72  134.49
 -16   0   8 2885.31  128.49
 -14   0   8 4738.03  216.98
 -14   0   8 4705.93  213.38
 -12   0   8 1970.90   93.19
 -12   0   8 1986.20   89.49
  12   0  -8 1907.61   88.59
 -12   0   8 1841.52   87.79
 -10   0   8 2545.15  112.79
 -10   0   8 2514.15  116.39
  10   0  -8 2501.85  113.59
 -10   0   8 2279.07  112.39
  -8   0   8 3872.81  181.18
  -8   0   8 4065.69  180.48
   8   0  -8 4033.80  182.18
   8   0  -8 4006.50  179.28
  -6   0   8 2146.89  100.59
   6   0  -8 2224.18  103.29
   6   0  -8 2217.58  100.19
  -6   0   8 2133.79  102.29
   4   0  -8 1776.02   81.99
   4   0  -8 1649.63   78.29
  -4   0   8 1630.94   78.19
  -4   0   8 1678.83   80.39
  -4   0   8 1602.14   80.59
  -2   0   8 1360.76   69.89
   2   0  -8 1413.16   67.49
  -2   0   8 1337.17   66.79
   2   0  -8 1480.05   71.19
  -2   0   8 1423.86   68.79
   0   0   8 1515.85   78.09
   0   0   8 1547.65   74.29
   0   0  -8 1528.85   75.19
   0   0   8 1596.24   75.89
   0   0  -8 1615.74   79.19
  -2   0  -8  673.63   36.60
   2   0   8  658.83   39.30
   4   0   8  640.64   39.60
  -4   0  -8  652.93   36.70
  -6   0  -8 1118.39   57.19
   6   0   8 1020.90   59.59
  -8   0  -8  454.55   31.00
   8   0   8  492.65   35.00
 -23  -1   8  161.58   19.20
 -23  -1   8  169.98   12.80
 -23   1   8  180.28   19.70
 -23   1   8  199.48   14.20
 -21  -1   8  246.58   14.80
 -21  -1   8  222.68   20.60
 -21   1   8  264.57   16.00
 -21   1   8  211.58   20.60
 -19  -1   8  213.78   18.70
 -19  -1   8  175.78   16.40
 -19  -1   8  232.78   13.50
 -19   1   8  212.18   19.10
 -19   1   8  242.88   19.90
 -19   1   8  243.98   14.60
 -17  -1   8  411.16   20.60
 -17  -1   8  393.96   26.00
 -17  -1   8  402.16   23.50
 -17   1   8  322.77   24.30
 -17   1   8  407.06   26.60
 -17   1   8  407.16   21.70
 -15  -1   8  177.88   12.90
 -15  -1   8  188.78   10.30
 -15  -1   8  189.08   15.60
 -15   1   8  181.08   14.50
 -15   1   8  205.08   16.20
 -15   1   8  182.78   12.10
  13  -1  -8  183.58   10.40
 -13  -1   8  198.88   12.20
 -13  -1   8  177.28   14.70
 -13  -1   8  175.88   11.40
 -13   1   8  198.78   13.80
 -13   1   8  195.08   15.30
  11  -1  -8  578.14   29.70
 -11  -1   8  582.24   29.10
 -11  -1   8  582.44   32.90
 -11  -1   8  617.54   30.30
 -11   1   8  561.04   30.50
  11   1  -8  603.84   30.70
 -11   1   8  552.74   32.60
 -11   1   8  544.15   28.50
  -9  -1   8 1008.10   47.90
   9  -1  -8  972.70   49.40
   9  -1  -8 1005.40   47.80
  -9  -1   8 1004.40   49.70
   9   1  -8 1059.09   50.39
  -9   1   8 1026.70   49.10
  -9   1   8  938.91   48.30
  -7  -1   8  865.61   43.90
   7  -1  -8  876.81   41.70
  -7  -1   8  863.91   41.60
   7  -1  -8  861.61   44.00
   7   1  -8  810.32   40.40
  -7   1   8  816.72   42.70
  -7   1   8  822.12   42.30
   7   1  -8  894.01   44.50
  -5  -1   8  354.96   21.90
  -5  -1   8  339.07   21.80
   5  -1  -8  365.06   20.10
  -5  -1   8  349.17   19.70
   5  -1  -8  369.36   22.70
  -5   1   8  325.87   21.10
  -5   1   8  336.67   20.20
   5   1  -8  350.56   19.30
   5   1  -8  359.26   22.60
   3  -1  -8  572.04   33.30
  -3  -1   8  581.14   30.00
  -3  -1   8  599.44   32.20
   3  -1  -8  551.74   30.40
  -3  -1   8  578.04   33.20
  -3   1   8  561.64   31.90
  -3   1   8  563.74   30.50
   3   1  -8  590.14   30.50
   3   1  -8  609.64   34.00
  -3   1   8  542.75   32.20
  -1  -1   8  600.34   36.00
   1  -1  -8  598.54   33.40
   1  -1  -8  709.93   37.60
  -1  -1   8  640.84   34.50
  -1  -1   8  621.64   32.60
  -1   1   8  633.64   33.20
   1   1  -8  676.03   37.50
   1   1  -8  608.74   33.30
  -1   1   8  579.84   35.20
  -1   1   8  582.44   33.90
   1  -1   8  205.58   17.90
  -1  -1  -8  213.18   15.60
  -1   1  -8  212.38   15.60
   1   1   8  220.48   17.50
   1   1   8  224.78   16.00
  -3  -1  -8  189.28   15.20
   3  -1   8  184.88   17.50
   3   1   8  189.78   17.00
  -3   1  -8  213.58   15.90
   5  -1   8   63.39   11.60
  -5  -1  -8   65.29    9.90
  -5   1  -8   65.19   10.20
   5   1   8   65.39   11.90
   7  -1   8    7.10    7.90
  -7  -1  -8   10.00    6.30
  -7   1  -8   13.50    6.60
   7   1   8    4.60    7.20
  -7   1  -8   12.40    8.00
  -9  -1  -8   21.00    8.80
   9  -1   8   26.30   11.00
  -9   1  -8   23.60    8.80
  -9   1  -8   20.00   11.10
   9   1   8   25.90   10.50
 -22  -2   8   39.00   10.20
 -22  -2   8   39.00    5.60
 -22   2   8   34.80    7.00
 -22   2   8   30.80    9.90
 -20  -2   8   49.70   10.30
 -20  -2   8   75.29    6.60
 -20   2   8   71.59    8.40
 -20   2   8   46.40   10.00
 -18  -2   8  220.88   17.90
 -18  -2   8  212.58   12.10
 -18  -2   8  173.68   14.60
 -18   2   8  221.98   14.00
 -18   2   8  207.68   18.20
 -16  -2   8  318.77   17.30
 -16  -2   8  328.17   18.60
 -16  -2   8  315.17   21.90
 -16   2   8  314.67   18.40
 -16   2   8  301.97   21.70
 -16   2   8  311.57   22.50
 -14  -2   8   55.29    8.80
 -14  -2   8   63.69    6.70
 -14  -2   8   79.69    6.50
 -14   2   8   67.89    9.60
 -14   2   8   65.19    8.90
 -14   2   8   68.09    6.90
  12  -2  -8   87.69    7.30
 -12  -2   8   81.59    6.50
 -12  -2   8   91.39    9.80
 -12  -2   8   81.79    8.00
 -12   2   8   80.29    9.30
 -12   2   8   82.69    9.00
  12   2  -8   76.59    8.20
 -10  -2   8  567.34   32.10
  10  -2  -8  632.04   31.70
  10  -2  -8  632.44   30.80
 -10  -2   8  604.04   29.70
 -10   2   8  591.84   33.70
 -10   2   8  586.74   32.00
  10   2  -8  589.44   32.60
  -8  -2   8  498.35   28.80
  -8  -2   8  501.75   25.70
   8  -2  -8  496.65   28.10
   8  -2  -8  512.95   26.70
   8   2  -8  523.15   29.10
  -8   2   8  511.15   27.70
   8   2  -8  521.85   23.90
  -8   2   8  467.45   26.70
   6  -2  -8  690.33   34.50
  -6  -2   8  661.93   36.80
   6  -2  -8  697.03   36.80
  -6  -2   8  666.63   33.50
  -6   2   8  649.14   35.30
   6   2  -8  652.23   36.70
   6   2  -8  673.13   32.80
  -6   2   8  674.83   35.00
   4  -2  -8  742.23   37.80
  -4  -2   8  727.23   36.80
  -4  -2   8  767.52   39.30
   4  -2  -8  738.33   40.50
  -4  -2   8  753.52   41.10
   4   2  -8  718.33   36.80
   4   2  -8  695.43   40.00
  -4   2   8  759.62   39.40
  -4   2   8  721.33   37.90
   2  -2  -8  290.07   17.80
  -2  -2   8  290.97   18.60
  -2  -2   8  258.37   16.50
   2  -2  -8  266.37   20.10
  -2  -2   8  277.17   20.30
  -2   2   8  287.27   18.50
  -2   2   8  253.27   18.70
   2   2  -8  279.67   17.40
   2   2  -8  259.37   20.10
  -2   2   8  277.07   17.80
   0  -2   8  386.76   26.60
   0  -2  -8  431.86   28.40
   0  -2   8  384.46   26.80
   0  -2   8  394.36   22.50
   0  -2  -8  374.36   23.50
   0   2  -8  399.56   23.70
   0   2   8  375.26   23.20
   0   2   8  362.76   25.20
   0   2   8  428.56   24.30
  -2  -2  -8  281.57   18.60
   2  -2   8  256.37   21.00
   2   2   8  226.48   19.30
  -2   2  -8  265.87   18.50
   2   2   8  257.77   18.10
  -4  -2  -8   88.49   10.50
   4  -2   8   73.69   12.20
   4   2   8   63.99   11.10
  -4   2  -8   62.49    9.90
   6  -2   8   92.39   15.00
  -6  -2  -8   71.59   10.90
   6   2   8   76.69   12.90
  -6   2  -8   74.99   15.10
  -6   2  -8   98.59   12.40
  -8  -2  -8   39.40    9.40
   8  -2   8   32.60   11.70
  -8   2  -8   38.90    9.90
   8   2   8   30.60    9.50
  -8   2  -8   42.80   12.80
 -21  -3   8  577.04   37.60
 -21  -3   8  613.74   29.80
 -21   3   8  631.14   33.40
 -21   3   8  602.34   39.60
 -19  -3   8  721.93   35.00
 -19  -3   8  756.12   36.50
 -19  -3   8  702.53   42.10
 -19  -3   8  734.43   36.10
 -19   3   8  719.83   43.80
 -19   3   8  781.42   38.70
 -17  -3   8 1083.19   56.99
 -17  -3   8 1087.59   52.79
 -17  -3   8 1094.29   49.90
 -17  -3   8 1041.20   51.49
 -17   3   8 1112.39   58.69
 -17   3   8 1091.49   53.19
 -15  -3   8 1115.69   59.09
 -15  -3   8 1144.09   56.59
 -15  -3   8 1268.77   53.79
 -15   3   8 1192.18   56.19
 -15   3   8 1133.49   60.09
 -15   3   8 1038.50   58.79
 -13  -3   8 1601.94   80.59
  13  -3  -8 1631.44   75.59
 -13  -3   8 1619.54   79.09
 -13  -3   8 1751.12   75.09
 -13   3   8 1713.43   77.89
 -13   3   8 1610.84   81.09
 -13   3   8 1582.14   80.09
 -11  -3   8 1949.51   93.19
  11  -3  -8 1951.70   90.69
 -11  -3   8 1955.50   88.29
 -11   3   8 1900.51   93.49
 -11   3   8 1913.61   92.69
  11   3  -8 1999.70   92.49
  -9  -3   8 2010.70   97.79
   9  -3  -8 2054.39   96.09
   9  -3  -8 2066.39   95.09
  -9  -3   8 1997.40   92.89
  -9   3   8 2016.80   97.49
  -9   3   8 2094.89   96.69
   9   3  -8 2056.69   97.49
   7  -3  -8 2886.11  134.19
  -7  -3   8 2865.91  137.59
  -7  -3   8 2918.51  132.49
   7  -3  -8 3018.70  136.49
   7   3  -8 3040.10  130.79
   7   3  -8 2868.81  136.99
  -7   3   8 2884.31  135.19
  -5  -3   8 1377.06   65.99
   5  -3  -8 1367.96   64.69
   5  -3  -8 1383.66   67.49
  -5  -3   8 1370.76   63.09
  -5  -3   8 1312.17   68.19
   5   3  -8 1327.07   62.69
  -5   3   8 1279.27   65.29
  -5   3   8 1298.97   65.09
   5   3  -8 1338.37   67.49
  -3  -3   8 1053.79   55.39
   3  -3  -8 1018.20   51.19
  -3  -3   8 1034.90   52.09
  -3  -3   8  992.30   49.50
   3  -3  -8 1116.49   55.19
  -3   3   8 1006.20   52.59
   3   3  -8  996.40   50.09
  -3   3   8 1010.30   51.39
   3   3  -8 1010.50   54.19
  -3   3   8 1030.00   52.19
  -1  -3   8 1807.22   99.49
   1  -3  -8 1897.21   95.49
  -1  -3   8 2035.50   96.59
   1  -3  -8 2130.39  100.19
  -1  -3   8 1975.00   93.89
  -1   3   8 1992.00   97.89
   1   3  -8 2048.59   95.49
  -1   3   8 2042.50   95.79
  -1   3   8 2215.88   96.59
   1   3  -8 2068.89  100.19
  -1  -3  -8 1438.56   68.89
   1  -3   8 1342.27   72.89
  -1   3  -8 1402.16   68.69
   1   3   8 1365.16   70.89
   1   3   8 1386.06   67.99
  -3  -3  -8  609.84   34.20
   3  -3   8  615.94   38.70
  -3   3  -8  574.64   34.30
   3   3   8  573.24   32.80
   3   3   8  574.94   36.00
  -5  -3  -8  545.85   34.20
   5  -3   8  599.74   39.70
   5   3   8  566.44   37.10
  -5   3  -8  632.14   36.40
  -5   3  -8  602.44   41.00
   7  -3   8  413.86   33.10
  -7  -3  -8  433.96   28.70
  -7   3  -8  455.35   30.40
  -7   3  -8  359.06   33.50
 -22  -4   8  167.38   18.40
 -20  -4   8  212.28   18.70
 -20  -4   8  225.68   12.00
 -20  -4   8  221.18   16.30
 -20  -4   8  210.28   16.20
 -20   4   8  234.88   16.50
 -20   4   8  225.78   20.90
 -18  -4   8  333.77   24.10
 -18  -4   8  360.76   23.30
 -18  -4   8  359.86   17.50
 -18   4   8  379.16   21.90
 -18   4   8  357.86   26.30
 -16  -4   8  308.57   15.10
 -16  -4   8  291.27   20.70
 -16  -4   8  277.87   20.60
 -16   4   8  291.17   22.00
 -16   4   8  297.47   18.50
 -14  -4   8  834.12   36.50
 -14  -4   8  789.42   42.70
  14  -4  -8  777.52   37.30
  14  -4  -8  753.22   37.60
 -14  -4   8  792.22   43.10
 -14   4   8  769.72   43.40
 -14   4   8  777.72   40.10
  12  -4  -8 1055.79   51.59
 -12  -4   8 1079.99   54.59
 -12  -4   8 1082.69   55.69
 -12  -4   8 1063.99   48.60
 -12   4   8 1069.89   52.09
 -12   4   8  962.50   54.09
 -12   4   8 1069.69   54.89
  10  -4  -8  799.22   40.70
 -10  -4   8  776.82   43.90
 -10  -4   8  786.72   37.70
  10  -4  -8  806.82   41.30
 -10   4   8  851.51   43.00
  10   4  -8  822.92   43.00
 -10   4   8  732.23   42.10
   8  -4  -8  802.42   43.20
  -8  -4   8  837.92   46.10
   8  -4  -8  797.22   41.60
  -8  -4   8  850.91   39.40
  -8   4   8  821.32   43.20
  -8   4   8  805.42   43.10
   8   4  -8  819.32   44.40
  -6  -4   8  607.54   33.80
   6  -4  -8  615.94   33.00
  -6  -4   8  637.54   31.10
  -6  -4   8  621.14   37.20
   6  -4  -8  565.94   34.90
  -6   4   8  629.94   34.30
   6   4  -8  623.54   29.70
   6   4  -8  623.34   35.90
  -6   4   8  655.63   34.30
   4  -4  -8  867.61   45.10
   4  -4  -8  851.91   47.80
  -4  -4   8  906.01   43.40
  -4  -4   8  911.31   46.00
  -4  -4   8  927.41   50.29
  -4   4   8  875.51   45.90
   4   4  -8  877.71   48.40
   4   4  -8  886.51   43.50
  -2  -4   8  807.32   48.10
   2  -4  -8  819.42   46.90
  -2  -4   8  853.61   44.00
   2  -4  -8  844.42   43.40
  -2  -4   8  821.82   41.20
   2   4  -8  826.82   42.50
  -2   4   8  813.02   45.90
  -2   4   8  871.31   43.80
   0  -4   8  403.36   29.70
   0  -4  -8  411.26   25.20
   0   4  -8  417.76   25.10
   0   4   8  419.36   24.70
  -2  -4  -8  260.17   18.50
   2  -4   8  253.47   22.90
  -2   4  -8  265.17   19.10
   2   4   8  240.48   17.50
  -4  -4  -8  248.68   18.80
   4  -4   8  259.97   23.80
  -4   4  -8  207.18   22.80
  -4   4  -8  255.07   20.00
   4   4   8  254.17   18.40
  -6  -4  -8  213.18   17.90
   6  -4   8  195.28   22.60
  -6   4  -8  207.48   19.60
  -6   4  -8  163.98   22.40
   8  -4   8   82.59   16.20
  -8  -4  -8   59.09   11.70
  -8   4  -8   72.39   20.00
  -8   4  -8   84.49   14.20
 -21  -5   8   27.80    8.90
 -21  -5   8   12.30    4.00
 -21  -5   8   17.40    7.90
 -21   5   8   25.20   10.10
 -21   5   8   14.70    5.90
 -19  -5   8   30.00    9.00
 -19  -5   8   20.30    6.90
 -19   5   8   18.90    5.80
 -19   5   8   28.70    9.30
 -17  -5   8   45.70    8.70
 -17  -5   8   48.00   10.10
 -17   5   8   49.10    7.30
 -17   5   8   35.70    8.80
 -15  -5   8   83.49   12.80
  15  -5  -8   79.09    7.20
 -15  -5   8   70.29    9.80
  15  -5  -8   73.69    7.40
 -15   5   8   64.19   11.00
 -15   5   8   82.49    8.70
  13  -5  -8   32.00    6.10
 -13  -5   8   36.30    3.60
 -13  -5   8   33.80    9.30
 -13  -5   8   33.10    6.90
 -13   5   8   37.90    7.70
 -13   5   8   32.10    5.70
 -11  -5   8  205.88   18.30
 -11  -5   8  197.68   10.80
  11  -5  -8  165.78   14.40
 -11   5   8  187.18   15.00
 -11   5   8  184.28   13.30
  -9  -5   8  237.48   16.80
   9  -5  -8  220.98   15.80
  -9  -5   8  216.18   20.00
   9  -5  -8  239.28   18.00
  -9  -5   8  244.48   13.30
  -9   5   8  225.68   15.50
  -9   5   8  240.68   16.90
   9   5  -8  251.97   19.00
  -7  -5   8   78.49    6.90
   7  -5  -8   87.09   11.40
   7  -5  -8   79.79    8.30
  -7  -5   8   67.49   12.40
  -7  -5   8   81.79    9.10
   7   5  -8   86.29   11.60
  -7   5   8   80.19    8.60
   5  -5  -8  232.08   15.90
  -5  -5   8  216.08   20.00
   5  -5  -8  240.78   19.40
  -5  -5   8  229.18   16.40
  -5  -5   8  231.08   13.80
   5   5  -8  226.28   13.10
  -5   5   8  228.98   15.80
   5   5  -8  209.68   19.00
  -3  -5   8  178.18   12.30
  -3  -5   8  178.58   16.10
  -3  -5   8  176.88   18.20
   3  -5  -8  215.38   26.50
   3  -5  -8  184.58   14.10
   3   5  -8  172.98   12.80
  -3   5   8  205.08   15.00
   1  -5  -8  129.89   11.80
  -1  -5   8  140.29   16.50
  -1   5   8  134.69   12.10
   1   5  -8  110.79   11.30
   1  -5   8  133.49   16.80
  -1  -5  -8  185.98   14.90
  -1   5  -8  171.38   14.90
   1   5   8  170.18   13.40
  -3  -5  -8   11.10    5.60
   3  -5   8   24.50   10.40
  -3   5  -8   10.30    6.10
  -3   5  -8    9.70    7.80
   3   5   8   20.50    6.40
   5  -5   8   19.10   10.30
  -5  -5  -8   19.70    6.90
   5   5   8   16.10    8.30
  -5   5  -8   19.80   10.00
  -5   5  -8   12.50    8.00
  -7  -5  -8   24.90    8.70
   7  -5   8   27.10   13.20
  -7   5  -8   27.90   10.60
  -7   5  -8   13.40   11.30
 -20  -6   8  356.36   29.40
 -20  -6   8  359.66   25.20
 -20   6   8  324.87   28.00
 -20   6   8  392.76   24.00
 -18  -6   8  733.23   47.60
 -18  -6   8  773.42   43.10
 -18   6   8  786.42   46.60
 -18   6   8  821.52   42.20
 -16  -6   8  683.53   38.40
  16  -6  -8  675.33   34.20
  16  -6  -8  708.73   34.50
 -16  -6   8  654.13   43.70
 -16   6   8  709.63   37.10
 -16   6   8  681.63   40.80
  14  -6  -8  806.62   40.80
 -14  -6   8  685.93   48.00
 -14  -6   8  830.22   43.40
 -14  -6   8  845.72   36.60
  14  -6  -8  804.22   41.90
 -14   6   8  779.62   44.70
 -14   6   8  818.72   41.90
 -12  -6   8 1721.63   74.29
  12  -6  -8 1671.13   80.19
 -12  -6   8 1679.43   80.49
 -12  -6   8 1492.95   86.19
 -12   6   8 1611.14   78.49
 -12   6   8 1642.14   81.09
 -10  -6   8 1328.47   65.29
 -10  -6   8 1342.17   60.99
  10  -6  -8 1338.57   67.39
 -10   6   8 1324.77   64.69
 -10   6   8 1298.87   66.09
   8  -6  -8 1296.37   66.69
   8  -6  -8 1274.77   63.79
  -8  -6   8 1291.37   71.79
  -8  -6   8 1285.77   59.99
  -8  -6   8 1311.07   63.59
  -8   6   8 1280.47   63.89
  -8   6   8 1294.07   63.09
  -6  -6   8  998.90   60.89
  -6  -6   8 1107.69   50.99
  -6  -6   8 1050.19   53.69
   6  -6  -8 1102.79   54.39
   6  -6  -8 1092.49   57.99
  -6   6   8 1057.69   53.49
  -4  -6   8  449.46   23.50
  -4  -6   8  443.76   33.20
   4  -6  -8  418.76   25.80
   4   6  -8  422.96   23.30
  -4   6   8  449.95   25.30
  -2  -6   8  710.43   46.80
   2  -6  -8  705.03   39.40
   2   6  -8  716.93   38.30
  -2   6   8  773.52   39.10
   0  -6  -8 1079.19   54.29
   0  -6   8 1058.79   62.09
   0   6   8 1068.59   52.19
   0   6  -8  959.90   53.49
   2  -6   8  615.44   43.40
  -2  -6  -8  603.14   36.00
   2   6   8  632.74   33.50
  -2   6  -8  637.34   37.40
  -4  -6  -8  456.95   28.80
  -4   6  -8  389.46   29.80
   4   6   8  463.85   26.60
  -4   6  -8  381.46   34.00
  -6  -6  -8  411.66   28.40
   6  -6   8  389.06   35.10
  -6   6  -8  416.76   31.50
 -19  -7   8  248.88   18.70
 -19  -7   8  208.48   26.20
 -19   7   8  197.48   22.00
 -19   7   8  235.48   18.20
 -17  -7   8  496.75   28.20
  17  -7  -8  452.55   24.90
 -17  -7   8  373.26   35.10
 -17   7   8  463.95   27.50
 -17   7   8  418.26   30.80
  15  -7  -8  308.67   20.00
  15  -7  -8  301.57   21.70
 -15  -7   8  240.98   27.70
 -15  -7   8  316.47   21.00
 -15   7   8  283.37   22.80
 -15   7   8  345.47   20.50
  13  -7  -8  670.93   35.90
 -13  -7   8  666.63   36.30
 -13  -7   8  659.83   30.90
  13  -7  -8  710.33   38.80
 -13  -7   8  692.13   37.20
 -13  -7   8  551.64   44.30
 -13   7   8  701.63   36.30
 -13   7   8  630.64   38.00
 -11  -7   8  661.43   31.00
 -11  -7   8  635.64   35.10
  11  -7  -8  695.73   39.30
 -11  -7   8  566.64   43.70
 -11   7   8  680.93   35.30
 -11   7   8  630.74   36.50
  -9  -7   8  378.06   18.80
  -9  -7   8  281.67   29.20
   9  -7  -8  348.37   22.50
  -9  -7   8  362.76   22.10
   9  -7  -8  363.96   26.90
  -9   7   8  350.26   22.60
  -9   7   8  365.46   22.00
  -7  -7   8 1276.47   62.49
   7  -7  -8 1279.27   63.79
  -7  -7   8 1282.27   59.59
  -7  -7   8 1200.78   72.69
  -7   7   8 1247.98   62.59
  -7   7   8 1328.97   62.79
   5  -7  -8 1727.43   80.99
  -5  -7   8 1585.54   76.69
  -5  -7   8 1528.65   89.29
   5   7  -8 1654.23   74.69
   5   7  -8 1656.33   74.59
  -5   7   8 1702.23   79.59
  -5   7   8 1690.53   78.99
  -3  -7   8 1181.58   71.99
   3  -7  -8 1233.18   63.09
   3   7  -8 1242.28   59.49
  -3   7   8 1331.57   62.49
  -3   7   8 1259.17   60.79
   3   7  -8 1235.28   60.39
  -1  -7   8  924.41   57.39
   1  -7  -8  907.81   48.60
  -1   7   8  934.71   46.50
   1   7  -8  894.51   47.70
  -1   7   8  904.01   45.60
   1  -7   8  436.36   35.80
  -1  -7  -8  431.66   27.80
   1   7   8  435.46   24.50
  -1   7  -8  406.96   28.10
   3  -7   8  289.87   29.10
  -3  -7  -8  338.67   23.60
  -3   7  -8  333.37   26.00
  -5  -7  -8  297.87   23.10
  -5   7  -8  285.37   26.30
  -5   7  -8  273.77   29.90
 -16  -8   8   16.30   14.00
 -16  -8   8   16.10    6.50
  16  -8  -8   18.20    8.00
 -16   8   8   17.90    6.30
 -16   8   8   22.90    8.40
 -14  -8   8   10.80   11.80
 -14  -8   8    1.90    6.30
 -14  -8   8    4.60    5.20
  14  -8  -8   10.30   11.10
 -14  -8   8    3.50    2.80
  14  -8  -8    2.50    5.90
 -14   8   8   -0.10    3.90
 -14   8   8    6.80    6.00
 -12  -8   8   41.20    4.80
  12  -8  -8   62.39   13.50
 -12  -8   8   38.00    7.10
 -12  -8   8   37.00    7.60
 -12  -8   8   22.20   12.90
  12  -8  -8   20.30    6.80
 -12   8   8   34.20    6.90
 -12   8   8   40.30    8.30
 -10  -8   8   45.30   14.70
 -10  -8   8   36.70    4.70
 -10  -8   8   40.80    7.10
 -10   8   8   42.40    7.30
 -10   8   8   27.00    6.60
   8  -8  -8   69.09   10.30
  -8  -8   8  101.29    8.10
  -8  -8   8   81.29   18.30
  -8  -8   8   90.29   10.40
  -8   8   8  111.19   10.30
  -8   8   8  104.49   10.30
   6  -8  -8   56.09    9.10
  -6  -8   8   52.59   14.10
  -6   8   8   48.90    7.50
  -6   8   8   53.19    8.00
   4  -8  -8    6.40    5.00
  -4  -8   8   11.40    9.90
   4   8  -8    7.50    3.70
   4   8  -8    9.90    4.10
  -4   8   8   14.50    4.70
  -4   8   8    7.70    4.60
  -2  -8   8  110.99   20.20
   2  -8  -8  148.69   14.00
   2   8  -8  137.19   12.90
  -2   8   8  160.08   12.80
   2   8  -8  157.88   13.10
  -2   8   8  152.88   13.60
  -2   8   8  144.39   11.20
   0  -8  -8   41.00    8.20
   0  -8   8   41.40   12.90
   0   8   8   32.90    6.90
   0   8  -8   44.20    8.90
   0   8   8   47.80    6.40
  -2  -8  -8    5.30    6.70
   2  -8   8    8.40   11.60
  -2   8  -8   14.50    8.40
   2   8   8   -1.20    4.70
   2   8   8    3.70    4.20
 -15  -9   8  957.80   47.50
  15  -9  -8  896.31   50.09
 -15   9   8  901.91   51.99
 -13  -9   8  748.63   60.69
  13  -9  -8  928.31   50.39
 -13  -9   8  980.70   47.80
 -13   9   8  865.21   50.09
 -13   9   8  987.50   48.60
  11  -9  -8  597.44   36.30
 -11  -9   8  648.54   35.50
 -11  -9   8  638.24   31.40
 -11  -9   8  558.34   48.80
 -11  -9   8  627.54   33.60
 -11   9   8  669.13   35.30
 -11   9   8  609.44   36.10
  -9  -9   8  558.64   48.60
  -9  -9   8  637.34   32.50
  -9  -9   8  676.13   34.70
  -9   9   8  640.14   35.90
  -9   9   8  680.93   36.00
   7  -9  -8  690.93   39.40
  -7  -9   8  681.23   51.69
  -7   9   8  676.93   36.90
  -7   9   8  716.13   37.70
   5  -9  -8  707.93   39.00
  -5  -9   8  662.23   50.79
  -5   9   8  675.33   36.50
  -5   9   8  656.23   35.20
  -3  -9   8  645.34   50.59
   3  -9  -8  764.02   40.30
  -3   9   8  664.43   37.00
  -3   9   8  657.63   34.50
   3   9  -8  690.03   35.00
   1  -9  -8  439.06   28.40
  -1  -9   8  401.46   37.20
   1   9  -8  411.66   27.10
  -1   9   8  422.56   22.50
   1   9  -8  461.65   27.40
  -1   9   8  439.46   25.90
   1  -9   8  170.28   26.70
  -1  -9  -8  218.48   19.10
  -1   9  -8  220.48   21.00
   1   9   8  256.57   17.10
  10 -10  -8  439.16   30.10
 -10 -10   8  466.45   44.00
 -10  10   8  448.36   28.20
 -10  10   8  440.86   27.10
  -8 -10   8  485.25   45.70
  -8  10   8  502.35   29.40
  -8  10   8  498.25   29.20
  -6 -10   8  541.75   47.50
   6 -10  -8  571.44   34.40
  -6  10   8  571.44   31.80
  -6  10   8  531.15   30.20
  -4 -10   8  302.27   33.50
   4 -10  -8  328.37   23.90
  -4  10   8  320.57   19.00
  -4  10   8  327.77   21.20
 -22   0   9   -2.10    3.90
 -22   0   9    0.50    6.40
 -20   0   9    3.90    3.20
 -20   0   9   11.20    6.50
 -20   0   9   -1.50    8.80
 -18   0   9    2.30    2.80
 -18   0   9  -13.00    6.30
 -18   0   9    2.80    5.00
 -16   0   9    0.70    4.10
 -16   0   9    1.10    4.60
  14   0  -9    1.60    2.70
 -14   0   9    0.50    1.90
 -14   0   9    2.40    3.90
 -14   0   9    8.30    4.10
 -12   0   9    2.50    3.20
  12   0  -9   10.40    4.30
 -12   0   9   -0.10    2.30
 -12   0   9    6.20    3.90
 -10   0   9    1.00    2.80
 -10   0   9    0.60    2.90
  10   0  -9    2.40    3.70
  10   0  -9    5.70    2.30
   8   0  -9    3.50    2.30
  -8   0   9    0.80    2.90
   8   0  -9   -3.40    3.90
  -8   0   9    1.60    3.10
   6   0  -9   -2.80    2.10
   6   0  -9    7.70    4.60
  -6   0   9   -2.70    2.90
  -6   0   9    2.70    3.20
   4   0  -9    3.90    2.90
  -4   0   9   -1.80    3.00
  -4   0   9    4.50    4.50
   4   0  -9   -4.90    4.80
  -4   0   9    0.60    3.40
  -2   0   9    7.50    4.80
   2   0  -9  -10.20    6.30
   2   0  -9    3.30    3.50
  -2   0   9   -0.60    3.60
  -2   0   9   -2.40    3.90
   0   0   9   -0.40    4.20
   0   0  -9    1.40    3.20
   2   0   9    0.30    4.80
  -2   0  -9    0.40    4.10
  -4   0  -9    1.30    5.10
   4   0   9    3.60    6.20
  -6   0  -9    5.40    6.10
   6   0   9  -15.70    7.40
 -23  -1   9  339.67   19.40
 -23  -1   9  308.27   26.70
 -23   1   9  363.06   20.90
 -23   1   9  268.67   25.70
 -21  -1   9  326.77   25.70
 -21  -1   9  349.67   19.30
 -21  -1   9  281.47   24.40
 -21   1   9  348.17   20.30
 -21   1   9  346.67   26.40
 -19  -1   9  443.46   29.60
 -19  -1   9  478.45   23.50
 -19  -1   9  418.56   27.10
 -19   1   9  484.95   24.70
 -19   1   9  439.16   29.90
 -19   1   9  362.06   28.20
 -17  -1   9  340.47   24.40
 -17  -1   9  379.06   19.50
 -17  -1   9  341.77   21.70
 -17   1   9  362.26   25.10
 -17   1   9  361.06   20.20
 -17   1   9  321.07   23.30
 -15  -1   9 1229.38   64.39
 -15  -1   9 1230.58   58.29
 -15  -1   9 1307.77   60.29
 -15   1   9 1299.97   62.49
 -15   1   9 1193.98   64.49
  13  -1  -9 1241.78   58.99
 -13  -1   9 1323.77   64.29
 -13  -1   9 1216.18   59.19
 -13  -1   9 1273.47   59.29
 -13   1   9 1245.88   57.79
 -13   1   9 1225.38   63.69
  13   1  -9 1196.68   59.89
 -13   1   9 1221.88   60.79
 -11  -1   9  476.15   25.90
  11  -1  -9  464.75   26.00
 -11  -1   9  454.15   24.60
 -11   1   9  432.46   24.50
 -11   1   9  483.15   28.60
 -11   1   9  469.65   25.90
  11   1  -9  462.95   26.80
  -9  -1   9 1426.06   66.79
   9  -1  -9 1386.46   66.39
  -9  -1   9 1367.96   68.59
   9  -1  -9 1415.06   69.09
  -9   1   9 1311.07   67.49
   9   1  -9 1474.85   69.79
   9   1  -9 1448.36   64.99
  -9   1   9 1459.65   67.99
   7  -1  -9  879.81   42.40
   7  -1  -9  863.41   45.40
  -7  -1   9  849.81   45.00
  -7  -1   9  859.61   42.40
  -7   1   9  877.61   43.40
   7   1  -9  822.12   45.20
  -7   1   9  795.22   43.80
   7   1  -9  862.01   41.50
   5  -1  -9  795.52   38.90
  -5  -1   9  759.42   40.90
  -5  -1   9  767.72   38.50
  -5  -1   9  743.13   41.50
   5  -1  -9  803.42   42.40
  -5   1   9  745.83   40.70
   5   1  -9  729.03   41.70
  -5   1   9  707.33   38.70
   5   1  -9  724.63   37.90
   3  -1  -9 1820.42   87.09
  -3  -1   9 1738.23   84.29
  -3  -1   9 1637.44   85.69
   3  -1  -9 1742.73   82.89
  -3  -1   9 1702.03   81.99
  -3   1   9 1671.63   82.59
   3   1  -9 1721.33   82.49
   3   1  -9 1805.22   86.89
  -3   1   9 1786.52   84.49
  -3   1   9 1723.93   85.39
   1  -1  -9  957.50   50.29
  -1  -1   9 1004.40   53.99
   1   1  -9  993.60   50.39
  -1   1   9  985.80   51.09
  -1   1   9  969.50   52.99
   1  -1   9  465.95   30.80
  -1  -1  -9  466.35   27.70
   1   1   9  445.96   29.90
  -1   1  -9  443.66   27.50
  -3  -1  -9  232.98   18.40
   3  -1   9  258.57   22.50
   3   1   9  233.38   20.90
  -3   1  -9  244.18   18.80
  -5  -1  -9  188.18   17.30
   5  -1   9  197.98   20.40
  -5   1  -9  199.88   18.10
   5   1   9  194.78   19.90
  -7  -1  -9  251.97   21.30
   7  -1   9  206.58   22.80
  -7   1  -9  228.98   21.10
   7   1   9  229.78   22.80
 -22  -2   9  388.76   20.10
 -22  -2   9  367.56   27.50
 -22   2   9  329.97   27.70
 -22   2   9  356.56   22.30
 -20  -2   9  466.65   24.50
 -20  -2   9  481.05   28.90
 -20  -2   9  476.45   31.80
 -20   2   9  500.45   26.90
 -20   2   9  493.65   33.10
 -18  -2   9  408.56   28.70
 -18  -2   9  464.75   25.70
 -18  -2   9  423.76   22.80
 -18   2   9  469.65   25.20
 -18   2   9  492.05   30.80
 -16  -2   9 1277.67   57.39
 -16  -2   9 1218.98   62.69
 -16  -2   9 1192.78   56.99
 -16   2   9 1093.89   60.99
 -16   2   9 1186.48   63.09
 -16   2   9 1220.58   58.19
 -14  -2   9  965.10   43.50
 -14  -2   9  900.91   44.80
  14  -2  -9  858.81   42.30
 -14  -2   9  846.22   48.10
 -14   2   9  893.21   47.10
 -14   2   9  915.51   48.90
  12  -2  -9  690.83   36.70
 -12  -2   9  737.83   40.30
 -12  -2   9  722.83   37.80
 -12  -2   9  745.53   35.50
 -12   2   9  736.53   40.30
 -12   2   9  675.13   37.90
  12   2  -9  717.33   38.40
  10  -2  -9 1656.33   78.49
 -10  -2   9 1683.53   77.79
  10  -2  -9 1680.93   80.39
 -10  -2   9 1647.44   80.79
 -10   2   9 1638.34   78.59
  10   2  -9 1774.82   81.79
 -10   2   9 1627.54   79.99
 -10   2   9 1683.33   82.29
  -8  -2   9 1606.04   83.49
   8  -2  -9 1749.92   83.49
  -8  -2   9 1732.73   80.09
   8  -2  -9 1699.73   80.89
   8   2  -9 1731.53   78.49
   8   2  -9 1742.73   83.99
  -8   2   9 1716.13   81.89
  -8   2   9 1778.52   82.29
  -6  -2   9  824.92   45.20
  -6  -2   9  865.81   42.60
  -6  -2   9  846.82   46.40
   6  -2  -9  927.31   47.00
   6  -2  -9  838.62   43.20
   6   2  -9  825.32   41.80
  -6   2   9  871.81   44.10
  -6   2   9  828.12   44.60
   6   2  -9  907.11   47.10
  -4  -2   9  529.75   31.50
   4  -2  -9  534.55   30.10
  -4  -2   9  538.35   33.10
   4  -2  -9  533.95   33.50
  -4  -2   9  553.54   29.20
   4   2  -9  562.54   29.50
  -4   2   9  543.65   31.80
  -4   2   9  567.64   32.00
  -4   2   9  559.14   30.60
   4   2  -9  548.45   33.60
   2  -2  -9  838.32   43.00
  -2  -2   9  811.92   46.40
  -2   2   9  820.72   43.80
   2   2  -9  800.62   42.40
  -2   2   9  812.62   45.00
   0  -2   9  609.04   37.50
   0  -2  -9  579.14   33.20
   0   2   9  564.64   35.30
   0   2  -9  584.04   33.20
  -2  -2  -9  400.06   26.50
   2  -2   9  437.16   30.80
   2   2   9  434.46   29.40
  -2   2  -9  429.76   27.20
  -4  -2  -9  488.05   29.90
   4  -2   9  450.95   33.10
  -4   2  -9  453.85   30.00
   4   2   9  437.96   31.80
   6  -2   9  177.78   21.80
  -6  -2  -9  201.28   18.60
   6   2   9  176.68   19.40
  -6   2  -9  183.28   18.80
 -21  -3   9   21.90    3.90
 -21  -3   9    2.20    6.90
 -21   3   9   18.60    5.70
 -21   3   9   19.80    8.70
 -19  -3   9    2.00    3.70
 -19  -3   9    0.90    2.50
 -19  -3   9    2.50    5.00
 -19  -3   9   -0.30    5.00
 -19   3   9    5.70    3.90
 -19   3   9    1.50    5.60
 -17  -3   9   -2.40    3.40
 -17  -3   9   -1.20    4.50
 -17  -3   9    3.30    3.90
 -17   3   9   -1.60    4.00
 -17   3   9    5.30    3.40
 -15  -3   9    5.20    4.10
 -15  -3   9    2.10    2.80
 -15  -3   9    8.70    4.20
 -15   3   9    5.90    4.60
 -15   3   9    8.10    3.50
 -13  -3   9   21.30    6.10
  13  -3  -9   16.70    4.70
 -13  -3   9   19.80    3.80
 -13  -3   9   15.00    5.00
 -13   3   9   25.90    6.40
 -13   3   9   16.50    6.70
  11  -3  -9   10.90    3.60
 -11  -3   9    8.10    3.10
 -11  -3   9    2.70    4.00
  11  -3  -9    4.30    4.40
 -11   3   9    6.20    5.00
 -11   3   9   13.90    4.80
  11   3  -9   10.60    5.70
   9  -3  -9   24.20    6.30
  -9  -3   9   23.40    6.40
  -9  -3   9   34.10    4.90
   9  -3  -9   20.90    4.70
  -9   3   9   24.40    6.20
   9   3  -9   24.80    7.00
  -9   3   9   22.10    5.60
  -7  -3   9   66.09    9.40
   7  -3  -9   53.09    6.80
   7  -3  -9   47.10    8.50
  -7  -3   9   58.59    6.30
  -7  -3   9   44.60    8.60
  -7   3   9   39.30    6.70
  -7   3   9   37.00    7.20
   7   3  -9   45.00    4.90
   7   3  -9   49.70    9.20
  -5  -3   9   42.70    6.40
   5  -3  -9   42.10    8.90
  -5  -3   9   49.20    8.10
  -5  -3   9   47.50    9.40
   5  -3  -9   51.29    7.40
   5   3  -9   50.59    9.50
   5   3  -9   52.89    6.10
  -5   3   9   40.70    7.30
  -5   3   9   51.69    7.90
  -3  -3   9   78.79    8.60
   3  -3  -9   67.69   11.90
   3  -3  -9   76.59    8.80
  -3  -3   9  105.99   12.90
  -3   3   9   80.59   10.60
   3   3  -9   82.79    8.60
  -3   3   9   75.89    9.40
   1  -3  -9   20.20    5.60
  -1  -3   9   28.60    8.40
  -1   3   9   26.30    6.80
  -1   3   9   39.30    7.80
   1   3  -9   27.90    6.40
   1  -3   9   23.20    8.60
  -1  -3  -9   29.90    6.50
   1   3   9   23.00    7.40
  -1   3  -9   19.50    6.20
   3  -3   9   44.40   11.50
  -3  -3  -9   68.69   10.60
  -3   3  -9   72.49   11.10
   3   3   9   49.20   10.80
  -5  -3  -9   15.20    7.00
   5  -3   9   43.50   11.50
  -5   3  -9    8.40    7.30
 -20  -4   9  630.64   29.70
 -20  -4   9  653.43   33.30
 -20  -4   9  613.54   31.80
 -20  -4   9  586.64   37.60
 -20   4   9  635.44   34.60
 -20   4   9  622.94   40.30
 -18  -4   9  601.24   33.60
 -18  -4   9  635.44   29.50
 -18  -4   9  594.24   36.20
 -18  -4   9  572.24   28.30
 -18   4   9  638.04   33.10
 -18   4   9  560.74   37.30
 -16  -4   9  718.43   39.10
 -16  -4   9  737.33   33.60
 -16  -4   9  673.93   39.90
 -16   4   9  691.53   37.00
 -16   4   9  695.53   41.10
 -14  -4   9 1646.04   79.89
 -14  -4   9 1663.03   73.39
  14  -4  -9 1624.44   75.29
 -14  -4   9 1449.55   79.19
 -14   4   9 1670.93   77.09
 -14   4   9 1572.24   80.49
 -12  -4   9 1546.85   76.19
  12  -4  -9 1499.45   72.49
 -12  -4   9 1525.25   69.19
  12   4  -9 1496.35   74.09
 -12   4   9 1444.96   74.89
  10  -4  -9 1027.60   54.69
  10  -4  -9 1083.59   53.49
 -10  -4   9 1058.89   50.79
 -10  -4   9 1087.19   57.49
  10   4  -9 1101.39   56.79
 -10   4   9 1096.39   55.79
  -8  -4   9 1359.56   67.49
   8  -4  -9 1292.17   65.79
   8  -4  -9 1340.57   68.39
  -8  -4   9 1325.27   70.39
  -8  -4   9 1376.36   63.69
   8   4  -9 1404.86   69.59
  -8   4   9 1389.76   67.79
   6  -4  -9 1013.70   53.69
  -6  -4   9 1107.09   51.99
   6  -4  -9 1086.29   57.29
  -6  -4   9 1049.89   54.99
  -6  -4   9 1144.09   59.39
   6   4  -9 1097.09   57.69
   6   4  -9 1065.09   50.89
   4  -4  -9  661.13   40.20
   4  -4  -9  585.94   32.70
  -4  -4   9  576.54   30.80
  -4  -4   9  573.54   37.30
   4   4  -9  598.24   31.30
  -4   4   9  564.54   33.70
   2  -4  -9  753.72   41.10
  -2  -4   9  804.82   47.10
  -2   4   9  757.72   41.50
   2   4  -9  750.42   40.20
   0  -4  -9  717.03   39.30
   0  -4   9  717.73   45.00
   0   4   9  702.03   38.60
   0   4  -9  690.63   39.10
   2  -4   9  271.77   24.40
  -2  -4  -9  260.67   19.60
  -2   4  -9  231.18   19.60
  -4  -4  -9  150.18   15.30
   4  -4   9  163.78   21.20
  -4   4  -9  147.99   17.10
  -6  -4  -9  207.48   20.40
   6  -4   9  280.07   27.80
  -6   4  -9  243.18   23.50
 -21  -5   9  550.74   31.90
 -21  -5   9  489.95   33.50
 -21   5   9  472.15   35.80
 -21   5   9  546.55   30.90
 -19  -5   9  636.84   38.90
 -19  -5   9  684.53   39.00
 -19   5   9  680.33   36.40
 -19   5   9  661.03   41.60
 -17  -5   9  910.01   49.60
 -17  -5   9  888.71   48.50
 -17   5   9  840.32   49.90
 -17   5   9  894.81   45.80
  15  -5  -9  820.02   42.30
 -15  -5   9  892.41   49.00
 -15  -5   9  865.31   39.70
 -15  -5   9  865.41   46.90
  15  -5  -9  836.42   41.40
 -15   5   9  826.42   47.50
 -15   5   9  898.71   44.30
 -13  -5   9 1035.20   46.80
 -13  -5   9 1065.49   56.39
  13  -5  -9  994.60   50.89
 -13  -5   9 1005.00   52.99
 -13   5   9  966.90   53.19
 -13   5   9  953.30   50.29
 -11  -5   9  967.10   45.60
  11  -5  -9  956.70   49.00
 -11  -5   9 1045.90   55.19
  11  -5  -9  926.41   50.19
 -11   5   9  980.70   51.09
 -11   5   9  934.61   48.70
  11   5  -9  955.20   51.49
  -9  -5   9 1589.74   79.09
  -9  -5   9 1525.75   69.09
   9  -5  -9 1410.26   74.09
   9  -5  -9 1450.85   72.09
  -9  -5   9 1433.56   72.99
  -9   5   9 1498.25   73.49
   9   5  -9 1485.35   75.59
  -7  -5   9 1719.13   79.69
  -7  -5   9 1780.72   89.39
  -7  -5   9 1705.93   85.49
   7  -5  -9 1653.33   82.29
   7  -5  -9 1738.33   85.79
  -7   5   9 1690.13   83.09
   5  -5  -9  872.41   45.80
  -5  -5   9  866.51   43.20
  -5  -5   9  937.51   52.79
  -5   5   9  820.42   45.50
   5   5  -9  906.41   43.00
   3  -5  -9  856.11   45.40
  -3  -5   9  864.01   51.99
  -3   5   9  846.22   45.60
   3   5  -9  859.51   43.90
   1  -5  -9  838.52   47.00
  -1  -5   9  885.91   53.99
  -1   5   9  953.10   47.30
   1   5  -9  869.11   46.90
  -1  -5  -9  534.75   31.60
   1  -5   9  499.55   37.70
  -1   5  -9  516.15   31.90
   1   5   9  507.65   30.10
  -3  -5  -9  490.15   29.60
   3  -5   9  395.06   33.40
  -3   5  -9  398.56   29.50
  -5  -5  -9  252.77   21.60
   5  -5   9  259.27   29.00
  -5   5  -9  292.27   25.40
 -20  -6   9   40.50    9.60
 -20  -6   9   30.60   11.60
 -20   6   9   38.20   10.90
 -20   6   9   46.50    8.80
 -18  -6   9   56.49   13.80
 -18  -6   9   71.19   11.10
 -18   6   9   49.70    8.20
 -18   6   9   51.29   10.90
  16  -6  -9  101.09   11.00
 -16  -6   9   99.49   16.40
 -16  -6   9  119.89   12.60
  16  -6  -9  104.09   10.00
 -16   6   9   89.29   12.80
 -16   6   9  114.59   11.00
 -14  -6   9   94.09   11.40
 -14  -6   9  103.89    7.00
  14  -6  -9   97.59   12.80
 -14  -6   9   97.09   16.60
 -14   6   9  105.29   10.30
 -14   6   9  112.59   12.40
 -12  -6   9  139.89   14.10
 -12  -6   9  162.58    9.80
 -12  -6   9  156.58   18.80
  12  -6  -9  142.19   15.90
 -12   6   9  142.39   13.80
 -12   6   9  154.28   12.80
  10  -6  -9   34.30    9.40
 -10  -6   9   33.60    4.80
 -10  -6   9   27.20    7.00
 -10  -6   9   36.80   10.50
  10  -6  -9   41.20    7.50
 -10   6   9   29.20    6.60
 -10   6   9   33.10    6.30
  -8  -6   9   46.00   12.40
  -8  -6   9   41.20    5.40
   8  -6  -9   28.50    6.30
   8  -6  -9   25.20    9.60
  -8   6   9   32.00    6.50
  -6  -6   9  187.18   20.60
   6  -6  -9  180.78   14.60
  -6  -6   9  175.08   12.40
   6   6  -9  190.18   10.10
   6   6  -9  175.88   10.00
  -6   6   9  184.98   14.40
  -4  -6   9    4.70    6.70
   4  -6  -9    9.20    4.50
   4   6  -9    5.30    4.10
  -4   6   9   12.70    6.50
  -4   6   9    2.50    3.90
  -2  -6   9    0.90    7.50
   2  -6  -9    1.20    4.60
   2   6  -9    9.70    5.10
  -2   6   9    8.20    6.10
   0  -6   9   13.10    9.30
   0  -6  -9    5.00    4.90
   0   6   9   21.80    6.60
   0   6  -9   12.00    6.60
  -2  -6  -9    3.10    5.60
   2  -6   9    9.90    9.70
   2   6   9    6.50    7.20
  -2   6  -9    9.50    7.30
   4  -6   9   35.10   13.40
  -4  -6  -9   31.20    8.40
  -4   6  -9   14.00    9.70
 -17  -7   9  342.47   23.50
  17  -7  -9  323.87   20.20
 -17  -7   9  342.57   31.40
 -17   7   9  311.47   21.80
 -17   7   9  349.67   26.10
  15  -7  -9  302.27   23.70
 -15  -7   9  337.57   15.80
  15  -7  -9  305.67   20.50
 -15  -7   9  332.07   22.60
 -15  -7   9  230.18   27.80
 -15   7   9  327.27   24.10
 -15   7   9  354.86   21.70
 -13  -7   9  351.46   24.10
  13  -7  -9  362.06   26.90
 -13  -7   9  381.46   18.60
 -13  -7   9  348.97   31.90
 -13  -7   9  379.06   26.80
 -13   7   9  370.96   23.10
 -13   7   9  360.76   25.10
  11  -7  -9  527.75   33.70
 -11  -7   9  505.15   34.20
 -11  -7   9  498.75   24.90
 -11  -7   9  430.56   37.00
 -11   7   9  492.45   30.10
 -11   7   9  503.95   28.90
  -9  -7   9  472.85   37.00
  -9  -7   9  471.95   24.20
   9  -7  -9  451.95   28.10
  -9   7   9  468.05   28.10
  -9   7   9  460.55   27.20
  -7  -7   9  863.71   43.40
  -7  -7   9  863.01   56.79
   7  -7  -9  911.21   47.60
  -7   7   9  914.61   46.70
  -7   7   9  908.41   46.60
  -5  -7   9  417.46   34.90
   5  -7  -9  401.26   25.80
   5   7  -9  422.36   21.20
  -5   7   9  414.66   24.60
   5   7  -9  401.66   21.30
   3  -7  -9  120.09   12.20
  -3  -7   9  115.69   19.20
  -3   7   9  110.49   10.30
  -3   7   9   98.99   13.60
   3   7  -9   97.19   10.60
  -1  -7   9  389.06   34.30
   1  -7  -9  395.96   26.20
   1   7  -9  372.46   25.40
  -1   7   9  390.46   23.50
  -1   7   9  413.26   25.10
  -1  -7  -9  343.27   24.70
   1  -7   9  313.27   31.00
   1   7   9  334.57   22.10
  -1   7  -9  362.36   25.70
  -3  -7  -9  217.88   19.70
  -3   7  -9  193.08   21.40
 -16  -8   9  894.61   45.90
  16  -8  -9  886.81   44.90
 -16  -8   9  656.43   54.19
 -16   8   9  827.32   48.50
 -16   8   9  848.32   45.00
 -14  -8   9  936.11   50.99
  14  -8  -9  947.41   50.29
 -14  -8   9  971.80   47.80
  14  -8  -9 1009.40   55.79
 -14   8   9  914.51   52.79
 -14   8   9 1024.90   50.89
 -12  -8   9  730.33   56.39
 -12  -8   9  857.51   40.00
 -12   8   9  833.02   46.30
 -12   8   9  905.71   45.10
 -10  -8   9  680.63   33.10
 -10  -8   9  549.15   47.50
 -10   8   9  690.73   37.80
 -10   8   9  709.43   37.00
  -8  -8   9  701.63   53.49
   8  -8  -9  805.12   44.10
  -8   8   9  871.21   43.00
  -8   8   9  784.92   42.40
   6  -8  -9  788.52   43.30
  -6  -8   9  768.62   54.49
  -6   8   9  757.22   41.00
  -6   8   9  809.62   41.90
   4  -8  -9  715.73   41.30
  -4  -8   9  706.33   51.99
   4   8  -9  717.13   36.20
  -4   8   9  744.93   39.70
  -4   8   9  700.33   38.20
  -4   8   9  816.82   41.50
   4   8  -9  726.53   36.60
  -2  -8   9  734.03   53.19
   2  -8  -9  747.93   42.80
  -2   8   9  746.93   38.90
  -2   8   9  726.83   40.50
   2   8  -9  774.82   39.70
   2   8  -9  797.52   41.20
  -2   8   9  757.42   40.40
   0  -8  -9  359.26   25.50
   0  -8   9  359.56   34.80
   0   8   9  348.47   21.20
   0   8   9  352.86   23.20
   0   8  -9  359.96   25.60
 -13  -9   9   77.89   22.00
 -13  -9   9  105.49   13.20
  13  -9  -9  100.09   13.70
 -13   9   9   90.49   11.10
 -13   9   9   92.49   13.10
 -11  -9   9   21.90   15.30
 -11   9   9   27.80    6.90
 -11   9   9   18.20    6.70
  -9  -9   9   36.30   16.80
   9  -9  -9   52.59    9.80
  -9   9   9   43.00    7.70
  -9   9   9   39.40    7.70
  -7  -9   9  124.69   24.30
   7  -9  -9  121.09   13.70
  -7   9   9  123.69   12.00
  -7   9   9  105.09   11.50
  -5  -9   9   75.59   18.50
   5  -9  -9   94.49   13.40
  -5   9   9   93.29   10.80
  -5   9   9   81.89    9.70
   3  -9  -9   47.10    9.70
  -3  -9   9   45.60   16.00
  -3   9   9   62.39    9.30
   3   9  -9   58.19    8.70
  -3   9   9   62.79    8.50
 -22   0  10  694.13   35.70
 -22   0  10  683.93   43.40
 -20   0  10  602.04   36.90
 -20   0  10  529.95   34.30
 -20   0  10  548.15   29.30
 -18   0  10 1127.19   58.19
 -18   0  10 1123.69   61.49
 -18   0  10 1167.88   55.19
 -16   0  10 1743.73   89.79
 -16   0  10 1859.91   86.39
  14   0 -10 3576.54  166.88
 -14   0  10 3681.03  165.78
 -14   0  10 3760.62  167.88
 -14   0  10 3659.03  172.08
 -12   0  10 3716.73  169.38
  12   0 -10 3658.83  170.48
 -12   0  10 3800.62  173.88
 -12   0  10 3687.83  169.38
 -10   0  10 2151.38   99.99
  10   0 -10 2161.08   98.09
 -10   0  10 2052.89  100.69
  10   0 -10 2182.68  102.39
   8   0 -10 1699.43   82.59
  -8   0  10 1703.93   79.59
   8   0 -10 1687.13   78.29
  -8   0  10 1580.14   80.99
  -6   0  10 1371.06   66.79
   6   0 -10 1430.26   70.89
  -6   0  10 1325.47   69.09
   6   0 -10 1369.36   66.19
  -4   0  10 2007.70   98.79
   4   0 -10 2011.90   95.29
  -2   0  10 1243.98   66.49
   2   0 -10 1276.47   63.29
   0   0  10  404.56   28.60
   0   0 -10  400.56   25.70
   2   0  10  568.04   37.70
  -2   0 -10  565.04   34.30
   4   0  10  268.97   24.90
  -4   0 -10  256.97   21.40
 -23  -1  10  203.98   13.90
 -23  -1  10  166.38   19.50
 -23   1  10  160.18   19.70
 -23   1  10  188.98   14.70
 -21  -1  10  295.07   24.70
 -21  -1  10  338.57   25.80
 -21  -1  10  315.77   18.60
 -21   1  10  307.17   25.50
 -21   1  10  339.27   19.70
 -19  -1  10  188.98   16.60
 -19  -1  10  202.98   13.00
 -19  -1  10  172.18   17.80
 -19   1  10  203.88   13.70
 -19   1  10  203.88   18.60
 -17  -1  10  392.06   19.60
 -17  -1  10  377.36   26.80
 -17  -1  10  415.96   23.70
 -17   1  10  418.46   22.80
 -17   1  10  381.86   27.20
 -17   1  10  374.46   25.80
 -15  -1  10  602.94   36.50
  15  -1 -10  600.64   30.40
 -15  -1  10  614.84   32.30
 -15  -1  10  606.44   31.20
 -15   1  10  590.24   34.20
  15   1 -10  655.63   31.80
 -15   1  10  594.14   36.40
 -13  -1  10   77.19    8.20
 -13  -1  10   78.09    8.50
  13  -1 -10   81.69    9.40
 -13  -1  10   90.59   10.70
 -13   1  10   95.19   10.10
 -13   1  10   66.19   10.60
  13   1 -10   75.79    9.90
 -13   1  10   64.49    6.90
  11  -1 -10  301.07   17.30
  11  -1 -10  312.97   20.40
 -11  -1  10  299.47   18.10
 -11  -1  10  288.97   19.40
 -11   1  10  284.17   18.10
  11   1 -10  329.77   21.20
 -11   1  10  306.37   19.40
 -11   1  10  262.07   20.40
   9  -1 -10  742.13   37.90
  -9  -1  10  750.42   40.90
   9  -1 -10  738.13   41.40
  -9  -1  10  766.82   38.50
  -9   1  10  709.33   39.50
   9   1 -10  741.13   36.70
  -9   1  10  750.52   39.50
   9   1 -10  824.92   42.40
  -7  -1  10  441.86   27.50
   7  -1 -10  413.96   24.30
   7  -1 -10  484.45   28.90
  -7  -1  10  399.96   24.30
  -7   1  10  447.46   25.60
   7   1 -10  417.66   27.90
   7   1 -10  448.86   24.00
  -7   1  10  424.46   26.30
   5  -1 -10  559.14   30.40
  -5  -1  10  585.64   33.80
   5  -1 -10  551.84   34.30
  -5  -1  10  515.65   29.70
   5   1 -10  526.35   29.50
  -5   1  10  522.05   32.20
   5   1 -10  562.44   34.30
   3  -1 -10  405.76   25.80
  -3  -1  10  435.86   29.30
  -3   1  10  434.96   28.70
   3   1 -10  479.25   26.40
  -1  -1  10  223.78   20.00
   1  -1 -10  215.88   16.90
  -1   1  10  229.88   19.50
   1   1 -10  238.78   17.30
  -1  -1 -10  207.08   17.30
   1  -1  10  234.68   21.30
   1   1  10  219.08   19.70
  -1   1 -10  221.88   18.00
   3  -1  10  171.58   19.50
  -3  -1 -10  173.08   16.30
  -3   1 -10  167.18   16.40
   3   1  10  168.58   18.10
  -5  -1 -10   58.69   11.70
   5  -1  10   51.19   13.10
   5   1  10   46.30   12.00
  -5   1 -10   62.69   11.90
 -22  -2  10  114.79   16.00
 -22  -2  10  110.39    9.70
 -22   2  10  115.59   16.00
 -22   2  10  134.59   11.90
 -20  -2  10   81.09   10.80
 -20  -2  10   70.29   12.40
 -20  -2  10   82.49    7.30
 -20   2  10   69.69   12.60
 -20   2  10   65.19    8.50
 -18  -2  10   50.39    9.60
 -18  -2  10   35.70    7.10
 -18  -2  10   42.20    5.80
 -18   2  10   51.19    7.20
 -18   2  10   37.80    8.60
 -16  -2  10  146.09   11.30
 -16  -2  10  139.29   11.00
 -16  -2  10  141.59   14.40
 -16   2  10  135.39   11.30
 -16   2  10  152.68   15.00
 -14  -2  10  417.56   25.30
  14  -2 -10  453.85   24.60
 -14  -2  10  426.06   23.80
 -14  -2  10  458.45   28.90
 -14   2  10  435.96   28.50
 -14   2  10  449.26   27.50
  14   2 -10  456.65   26.10
  12  -2 -10   63.49    8.80
 -12  -2  10   71.19    8.90
 -12  -2  10   84.19    7.90
 -12   2  10   77.49   11.40
  12   2 -10   69.59   10.60
 -12   2  10   57.39    8.70
  10  -2 -10   30.00    7.70
 -10  -2  10   49.30    8.20
  10  -2 -10   26.70    5.10
 -10  -2  10   35.80    5.70
 -10   2  10   31.80    6.00
  10   2 -10   43.50    8.70
 -10   2  10   31.60    6.90
 -10   2  10   38.50    7.70
  -8  -2  10  206.48   17.60
   8  -2 -10  237.28   19.00
  -8  -2  10  259.67   15.80
   8  -2 -10  236.08   15.60
  -8   2  10  224.98   17.00
   8   2 -10  250.17   14.10
   8   2 -10  237.08   18.90
  -8   2  10  222.58   16.60
   6  -2 -10  157.98   15.70
  -6  -2  10  137.79   11.40
  -6  -2  10  138.19   14.00
   6  -2 -10  143.39   11.80
   6   2 -10  136.89   15.30
   6   2 -10  146.69   11.00
  -6   2  10  129.19   12.60
  -4  -2  10  277.57   22.30
   4  -2 -10  300.17   19.80
  -4   2  10  314.27   22.00
   4   2 -10  321.07   19.60
  -2  -2  10  358.86   27.90
   2  -2 -10  394.26   25.00
   2   2 -10  414.46   24.80
  -2   2  10  422.56   27.70
   0  -2  10  107.39   15.60
   0  -2 -10  106.29   11.70
   0   2 -10   86.69   10.90
   0   2  10   70.39   11.70
   2  -2  10   28.60    9.10
  -2  -2 -10   51.19    9.50
  -2   2 -10   40.10    8.70
   2   2  10   47.10   11.00
   4  -2  10   51.59   13.10
  -4  -2 -10   46.50   10.10
   4   2  10   58.69   12.70
  -4   2 -10   46.90   11.00
 -21  -3  10  671.73   32.30
 -21  -3  10  631.84   40.40
 -21   3  10  619.24   41.50
 -21   3  10  696.93   35.90
 -19  -3  10  781.92   38.40
 -19  -3  10  800.02   38.50
 -19  -3  10  745.83   44.60
 -19  -3  10  769.92   36.90
 -19   3  10  738.83   39.80
 -19   3  10  744.13   45.30
 -17  -3  10  731.03   43.10
 -17  -3  10  768.72   37.20
 -17  -3  10  748.03   39.10
 -17   3  10  734.63   43.70
 -17   3  10  758.82   39.30
 -15  -3  10 1342.07   68.59
  15  -3 -10 1394.56   65.59
 -15  -3  10 1444.36   65.59
 -15  -3  10 1364.96   71.69
 -15   3  10 1401.96   72.39
 -15   3  10 1450.15   68.19
 -13  -3  10 1122.99   58.29
 -13  -3  10 1118.29   59.99
  13  -3 -10 1166.18   56.89
 -13  -3  10 1150.68   54.39
 -13   3  10 1176.08   60.39
  13   3 -10 1128.19   58.29
  11  -3 -10 1132.69   56.29
 -11  -3  10 1100.89   59.19
  11  -3 -10 1161.58   58.39
 -11  -3  10 1200.18   54.99
 -11   3  10 1155.88   59.99
  11   3 -10 1123.99   59.49
   9  -3 -10 1300.77   63.99
   9  -3 -10 1353.06   67.29
  -9  -3  10 1306.17   62.59
  -9  -3  10 1301.57   67.59
   9   3 -10 1322.77   67.79
  -9   3  10 1300.77   66.79
  -7  -3  10 1166.78   56.19
   7  -3 -10 1180.18   61.29
   7  -3 -10 1146.79   57.49
  -7  -3  10 1230.78   62.39
   7   3 -10 1153.78   54.89
  -7   3  10 1081.39   58.19
   7   3 -10 1148.99   61.39
  -5  -3  10 1150.88   62.69
   5  -3 -10 1203.78   58.39
  -5   3  10 1131.29   59.69
  -5   3  10 1206.58   60.59
   5   3 -10 1097.89   56.29
  -3  -3  10  736.83   45.50
   3  -3 -10  787.42   41.50
  -3   3  10  788.72   43.60
   3   3 -10  734.53   40.30
   1  -3 -10  539.55   31.00
  -1  -3  10  480.45   34.60
   1   3 -10  503.95   30.60
  -1   3  10  522.85   33.30
   1  -3  10  570.34   39.70
  -1  -3 -10  582.64   34.80
   1   3  10  581.14   37.30
  -1   3 -10  597.54   35.20
  -3  -3 -10  416.16   28.10
   3   3  10  408.16   30.30
  -3   3 -10  416.86   28.90
  -5  -3 -10  213.88   31.00
   5  -3  10  210.48   25.00
  -5   3 -10  213.08   21.80
 -20  -4  10  223.78   16.50
 -20  -4  10  214.78   12.30
 -20  -4  10  229.88   20.40
 -20   4  10  223.58   16.60
 -20   4  10  224.68   21.20
 -18  -4  10  300.17   22.80
 -18  -4  10  313.07   16.60
 -18  -4  10  284.67   20.30
 -18   4  10  282.67   19.20
 -18   4  10  287.67   23.20
 -16  -4  10  530.05   26.00
 -16  -4  10  515.35   31.00
  16  -4 -10  500.05   25.50
 -16  -4  10  500.75   32.30
 -16   4  10  509.95   33.00
 -16   4  10  540.05   29.40
 -14  -4  10  275.67   16.00
 -14  -4  10  263.37   20.60
 -14  -4  10  314.37   21.90
  14  -4 -10  275.17   18.80
 -14   4  10  307.77   19.10
 -14   4  10  279.77   21.30
 -12  -4  10  459.65   23.40
  12  -4 -10  463.15   27.40
 -12  -4  10  447.36   29.10
 -12   4  10  390.96   27.40
  12   4 -10  433.86   28.40
  10  -4 -10  847.42   46.60
 -10  -4  10  853.41   42.00
 -10  -4  10  822.62   48.00
  10  -4 -10  849.12   44.20
 -10   4  10  908.41   47.10
  10   4 -10  858.11   47.80
  -8  -4  10  776.32   39.40
   8  -4 -10  811.92   44.80
   8  -4 -10  799.62   41.60
  -8  -4  10  747.33   45.60
   8   4 -10  806.72   36.30
  -8   4  10  772.22   43.00
  -6  -4  10  375.66   22.40
  -6  -4  10  433.56   29.60
   6  -4 -10  382.86   24.00
   6   4 -10  397.16   21.70
  -4  -4  10  334.87   26.40
   4  -4 -10  318.77   21.40
  -4   4  10  324.07   23.50
   4   4 -10  322.47   20.30
  -2  -4  10  369.36   29.20
   2  -4 -10  373.66   24.10
   2   4 -10  365.76   23.70
   0  -4  10  226.58   22.40
   0  -4 -10  237.38   18.90
   0   4 -10  257.17   19.70
  -2  -4 -10  262.07   20.10
   2  -4  10  226.28   24.40
  -2   4 -10  202.28   19.80
  -4  -4 -10  126.59   14.60
   4  -4  10   77.19   17.00
  -4   4 -10  117.39   16.60
 -19  -5  10   29.90    8.50
 -19  -5  10   38.00    9.40
 -19   5  10   34.00    7.30
 -19   5  10   28.70    8.90
 -17  -5  10   12.10    3.40
 -17  -5  10    8.00    6.10
 -17  -5  10   11.00    7.20
 -17   5  10   13.00    6.30
 -17   5  10   15.00    5.20
 -15  -5  10   55.79   10.50
 -15  -5  10   47.00    5.50
 -15  -5  10   49.20    9.30
  15  -5 -10   47.30    8.20
 -15   5  10   42.50    7.20
 -15   5  10   65.49   11.10
 -13  -5  10  176.98   17.70
  13  -5 -10  166.98   15.70
 -13  -5  10  171.58   11.20
 -13   5  10  163.28   15.40
 -13   5  10  173.18   13.70
  11  -5 -10    8.00    4.60
 -11  -5  10   11.90    4.00
 -11  -5  10   19.60    8.20
  11  -5 -10    5.80    7.10
 -11   5  10   20.90    5.80
   9  -5 -10   71.99    9.00
  -9  -5  10   57.79    7.30
   9  -5 -10   62.69   11.70
  -9  -5  10   49.30   11.50
  -9   5  10   66.09    9.20
  -7  -5  10  120.39   10.30
   7  -5 -10  131.79   11.80
  -7  -5  10  111.09   15.10
   7   5 -10  118.99    7.80
  -7   5  10  118.79   12.00
   5  -5 -10   37.90    6.90
  -5  -5  10   38.30   10.90
  -5   5  10   27.90    9.00
   5   5 -10   39.10    6.20
   3  -5 -10  143.99   13.80
  -3  -5  10  137.09   18.40
   3   5 -10  149.79   13.20
  -3   5  10  152.38   16.40
  -1  -5  10   90.39   16.00
   1  -5 -10  111.39   12.90
   1   5 -10  128.29   13.40
  -1  -5 -10   32.30    8.30
   1  -5  10   16.20    9.90
  -1   5 -10   29.50    8.80
   3  -5  10   18.70   11.90
  -3  -5 -10    4.40    6.90
  -3   5 -10   16.10    9.40
 -18  -6  10  517.45   32.90
 -18  -6  10  552.24   36.20
 -18   6  10  518.25   30.40
 -18   6  10  479.55   34.10
  16  -6 -10  761.42   42.10
 -16  -6  10  853.71   37.90
 -16  -6  10  793.12   45.40
  16  -6 -10  804.82   40.60
 -16  -6  10  828.12   49.50
 -16   6  10  794.32   46.50
 -16   6  10  811.32   43.10
  14  -6 -10  710.33   41.00
 -14  -6  10  741.33   46.50
 -14  -6  10  728.63   41.80
 -14  -6  10  760.62   35.20
 -14   6  10  712.73   42.00
 -14   6  10  711.73   39.30
  12  -6 -10  647.84   39.70
 -12  -6  10  679.03   33.20
 -12  -6  10  704.23   44.60
 -12   6  10  693.13   36.90
 -12   6  10  635.74   38.30
  10  -6 -10  924.81   49.90
 -10  -6  10  988.90   46.40
 -10  -6  10  899.81   57.09
  10  -6 -10  924.41   53.49
 -10   6  10  977.60   49.60
 -10   6  10 1007.30   51.29
  -8  -6  10 1206.88   66.89
   8  -6 -10 1096.49   57.49
  -8  -6  10 1079.69   54.09
  -8   6  10 1157.98   58.29
  -6  -6  10  857.21   53.59
   6  -6 -10  823.52   45.40
   6   6 -10  841.62   40.40
  -6   6  10  833.32   45.10
   6   6 -10  867.11   40.10
  -4  -6  10  288.37   27.90
   4  -6 -10  293.97   20.90
  -4   6  10  294.27   20.20
  -4   6  10  311.27   22.90
   4   6 -10  296.17   19.10
  -2  -6  10  185.48   23.00
   2  -6 -10  211.28   17.10
  -2   6  10  176.18   18.10
   2   6 -10  173.78   15.60
   0  -6  10  321.47   30.30
   0  -6 -10  309.57   23.30
   0   6 -10  323.87   24.10
   2  -6  10  309.57   32.10
  -2  -6 -10  298.07   23.90
  -2   6 -10  380.06   27.60
 -17  -7  10  283.47   22.30
  17  -7 -10  297.17   19.10
 -17  -7  10  293.97   29.10
 -17   7  10  295.27   20.40
 -17   7  10  265.17   23.00
  15  -7 -10  451.35   26.20
  15  -7 -10  447.26   30.60
 -15  -7  10  445.16   22.10
 -15  -7  10  452.55   36.90
 -15  -7  10  424.16   28.80
 -15   7  10  453.25   27.20
 -15   7  10  451.85   30.40
 -13  -7  10  274.57   15.40
 -13  -7  10  264.07   28.20
  13  -7 -10  222.78   24.40
 -13   7  10  299.67   21.60
 -13   7  10  273.67   18.90
  11  -7 -10  367.56   24.70
 -11  -7  10  352.06   32.90
 -11  -7  10  399.86   21.10
 -11   7  10  385.46   25.50
 -11   7  10  413.56   24.60
   9  -7 -10  400.96   26.20
  -9  -7  10  426.56   23.00
  -9  -7  10  437.16   36.10
  -9   7  10  427.96   25.70
  -9   7  10  402.06   26.10
  -7  -7  10  392.76   34.10
   7  -7 -10  375.96   25.20
  -7   7  10  392.26   24.30
  -7   7  10  385.66   24.40
  -5  -7  10  533.65   42.20
   5  -7 -10  565.04   33.20
   5   7 -10  560.94   28.00
  -5   7  10  529.65   31.20
   5   7 -10  552.24   28.30
  -5   7  10  535.15   34.50
   3  -7 -10  580.44   35.10
  -3  -7  10  651.33   46.40
  -3   7  10  556.54   32.80
  -3   7  10  622.04   35.90
   3   7 -10  566.14   33.00
   1  -7 -10  589.44   36.00
  -1   7  10  574.14   33.40
   1   7 -10  598.94   35.60
  -1   7  10  609.54   35.30
  16  -8 -10   61.39   10.30
 -16  -8  10   49.10   17.40
 -16  -8  10   43.40   10.00
 -16   8  10   46.50    9.70
 -16   8  10   57.59   11.50
 -14  -8  10    1.30    6.40
  14  -8 -10    8.00    5.90
 -14  -8  10    6.60   13.90
 -14   8  10    2.00    6.20
 -14   8  10   11.10    5.70
 -12  -8  10    6.50    4.20
 -12  -8  10   -6.80   11.70
 -12   8  10    3.60    4.60
 -12   8  10   -0.20    5.30
 -10  -8  10   37.70   15.00
  10  -8 -10   70.39   10.60
 -10   8  10   50.29    8.40
 -10   8  10   62.29    9.50
  -8  -8  10   41.70   15.50
   8  -8 -10   26.10    7.80
  -8   8  10   37.10    7.40
  -8   8  10   29.80    7.30
  -6  -8  10   90.69   20.50
   6  -8 -10  114.09   12.70
  -6   8  10   86.79   11.10
  -6   8  10   90.19   11.00
   4  -8 -10   56.59   10.00
  -4  -8  10   39.10   14.60
  -4   8  10   41.00    8.20
  -4   8  10   53.69    8.40
   4   8 -10   51.29    7.40
  -4   8  10   47.90   12.70
  -2  -8  10    2.30   13.00
   2  -8 -10    8.90    6.40
   2   8 -10   14.00    7.50
  -2   8  10   11.40    6.20
  -2   8  10    4.50    5.30
 -11  -9  10  597.84   52.89
 -11   9  10  727.13   39.80
 -11   9  10  699.63   38.70
   9  -9 -10  617.84   36.70
  -9  -9  10  484.75   47.80
  -9   9  10  645.94   35.00
  -9   9  10  627.14   35.20
  -7  -9  10  436.06   43.80
   7  -9 -10  552.64   34.10
  -7   9  10  562.94   31.30
  -7   9  10  563.34   32.20
   5  -9 -10  402.66   32.40
  -5   9  10  400.36   24.40
  -5   9  10  415.46   26.10
 -22   0  11    5.80    4.40
 -22   0  11   -7.60    6.30
 -20   0  11    2.90    3.90
 -20   0  11   -3.40    5.60
 -18   0  11    1.60    5.10
 -18   0  11    3.40    7.00
 -16   0  11    2.20    3.00
  16   0 -11    2.80    4.20
 -16   0  11    3.20    6.00
 -16   0  11   -1.10    4.40
 -14   0  11    7.20    3.60
  14   0 -11   -5.00    5.50
 -14   0  11    0.60    4.60
 -14   0  11    1.00    4.10
 -12   0  11    5.60    4.60
 -12   0  11   -3.50    3.30
  12   0 -11    6.50    6.10
 -10   0  11    3.70    3.90
  10   0 -11    3.20    3.00
  10   0 -11   -0.50    6.40
 -10   0  11    5.50    5.00
   8   0 -11   -8.40    6.50
   8   0 -11    2.30    2.90
  -8   0  11    0.40    4.10
   6   0 -11    4.10    3.70
  -6   0  11    1.00    4.50
  -4   0  11    2.20    5.00
   4   0 -11    9.40    4.40
  -2   0  11    4.10    6.10
   2   0 -11    3.40    4.40
   0   0  11   -1.10    6.50
   0   0 -11   -0.50    4.90
  -2   0 -11   -3.20    6.20
   2   0  11    9.20    7.50
 -21  -1  11  359.26   27.70
 -21  -1  11  354.96   20.60
 -21  -1  11  369.06   26.50
 -21   1  11  391.16   28.90
 -21   1  11  344.57   21.60
 -19  -1  11  307.87   25.20
 -19  -1  11  372.56   23.20
 -19   1  11  317.97   25.80
 -19   1  11  346.37   20.60
 -17  -1  11  647.84   34.70
 -17  -1  11  584.44   38.10
 -17  -1  11  655.43   31.80
 -17   1  11  639.14   39.20
 -15  -1  11  500.25   27.60
 -15  -1  11  492.65   27.10
 -15  -1  11  476.45   31.50
  15  -1 -11  498.55   27.70
  15   1 -11  489.45   28.60
 -15   1  11  454.25   29.00
 -15   1  11  510.95   32.10
 -13  -1  11 1073.09   52.09
 -13  -1  11 1054.09   52.99
  13  -1 -11 1070.69   53.89
 -13  -1  11 1035.90   56.59
  13   1 -11 1064.79   54.59
 -13   1  11  989.10   51.49
 -13   1  11 1027.10   53.29
 -13   1  11 1060.29   56.69
 -11  -1  11  756.02   40.40
  11  -1 -11  732.53   37.40
  11  -1 -11  726.03   41.20
 -11  -1  11  744.93   38.50
  11   1 -11  757.72   35.60
  11   1 -11  759.02   41.70
 -11   1  11  732.43   39.20
 -11   1  11  680.73   39.30
   9  -1 -11  222.28   19.20
  -9  -1  11  223.68   16.10
   9  -1 -11  217.88   15.00
  -9  -1  11  216.28   17.50
   9   1 -11  233.78   14.30
  -9   1  11  225.38   16.80
   9   1 -11  212.28   19.00
  -7  -1  11  603.04   35.20
   7  -1 -11  574.64   38.00
   7  -1 -11  621.34   32.00
   7   1 -11  571.54   30.90
  -7   1  11  501.55   33.20
   5  -1 -11  649.64   36.20
  -5  -1  11  646.14   39.60
  -5   1  11  664.43   39.10
   5   1 -11  682.13   36.10
   3  -1 -11  480.55   28.40
  -3  -1  11  480.45   31.90
   3   1 -11  411.46   27.20
  -3   1  11  463.55   30.70
   1  -1 -11  387.06   25.00
  -1  -1  11  365.86   27.90
   1   1 -11  348.07   24.30
  -1   1  11  355.06   27.10
   1  -1  11  249.68   23.50
  -1  -1 -11  263.37   21.00
  -1   1 -11  267.67   21.10
   1   1  11  272.37   24.20
   3  -1  11  167.38   21.20
  -3  -1 -11  159.88   16.70
  -3   1 -11  156.28   17.50
   3   1  11  164.08   20.00
 -22  -2  11  217.68   21.20
 -22  -2  11  216.28   14.20
 -22   2  11  201.48   22.10
 -22   2  11  238.28   16.50
 -20  -2  11  423.26   25.00
 -20  -2  11  382.66   21.80
 -20  -2  11  368.86   28.40
 -20   2  11  413.66   23.80
 -20   2  11  406.06   29.60
 -18  -2  11  611.44   31.90
 -18  -2  11  560.24   36.40
 -18  -2  11  597.84   30.20
 -18   2  11  584.44   32.10
 -18   2  11  561.14   36.90
 -16  -2  11  680.43   41.90
 -16  -2  11  715.93   37.60
 -16  -2  11  748.33   37.10
  16  -2 -11  692.03   35.50
 -16   2  11  749.03   42.90
 -14  -2  11  828.72   46.00
 -14  -2  11  771.22   42.10
 -14  -2  11  823.52   40.60
  14  -2 -11  796.02   42.10
 -14   2  11  789.32   45.50
  14   2 -11  782.12   43.60
  12  -2 -11  633.14   35.30
 -12  -2  11  613.14   32.10
  12  -2 -11  608.24   31.90
 -12  -2  11  616.04   34.80
  12   2 -11  602.84   36.10
 -12   2  11  594.94   36.30
 -12   2  11  566.14   32.10
 -10  -2  11  746.13   38.40
  10  -2 -11  755.62   42.10
 -10  -2  11  713.93   41.30
  10  -2 -11  756.32   38.60
 -10   2  11  713.33   39.60
  10   2 -11  744.23   43.00
  10   2 -11  755.92   35.50
  -8  -2  11  629.04   39.50
   8  -2 -11  746.33   41.90
  -8  -2  11  696.83   36.50
   8  -2 -11  679.13   36.60
  -8   2  11  663.43   38.30
   8   2 -11  712.53   35.00
   6  -2 -11  862.61   45.60
  -6  -2  11  890.61   49.99
   6   2 -11  900.01   44.70
  -6   2  11  837.62   47.60
   4  -2 -11  557.74   32.70
  -4  -2  11  577.54   37.10
   4   2 -11  611.44   32.60
  -4   2  11  519.55   34.50
  -2  -2  11  116.39   15.70
   2  -2 -11  128.09   12.90
  -2   2  11  106.19   14.10
   2   2 -11  113.09   12.50
   0  -2 -11  244.68   19.50
   0  -2  11  251.17   23.10
   0   2  11  219.88   21.30
   0   2 -11  235.88   19.80
   2  -2  11  261.07   25.50
  -2  -2 -11  241.38   20.70
  -2   2 -11  227.38   21.10
   2   2  11  270.37   24.40
 -21  -3  11   49.20    6.00
 -21  -3  11   50.39   11.00
 -21   3  11   42.70   10.60
 -21   3  11   44.40    7.70
 -19  -3  11   26.00    6.10
 -19  -3  11   22.50    6.20
 -19  -3  11   16.80    7.70
 -19   3  11   20.00    8.00
 -19   3  11   22.40    5.70
 -17  -3  11   41.00    6.40
 -17  -3  11   35.10    7.30
 -17  -3  11   33.70    8.80
 -17   3  11   25.00    5.90
 -17   3  11   31.00    8.50
  15  -3 -11   14.80    6.00
 -15  -3  11   18.80    5.10
 -15  -3  11    4.00    5.10
 -15  -3  11   13.00    6.00
 -15   3  11   23.20    7.20
  15   3 -11   17.60    7.00
 -13  -3  11    1.80    4.70
  13  -3 -11    3.30    6.30
 -13  -3  11    6.30    4.20
 -13   3  11    5.00    4.60
  13   3 -11   -0.80    7.30
  11  -3 -11  115.59   10.80
  11  -3 -11  111.89   14.80
 -11  -3  11  117.29   10.80
 -11  -3  11  148.79   14.30
  11   3 -11  137.89   16.20
 -11   3  11  125.89   13.50
   9  -3 -11    3.80    7.70
  -9  -3  11    8.00    4.20
   9  -3 -11    9.80    4.60
  -9  -3  11    1.70    5.30
   9   3 -11    4.00    2.40
  -7  -3  11    9.10    6.20
   7  -3 -11    2.20    3.80
  -7   3  11    0.90    4.00
   7   3 -11    1.80    3.40
  -5  -3  11    9.60    6.40
   5  -3 -11   16.50    5.60
  -5   3  11   15.30    6.20
   5   3 -11   10.70    5.10
  -3  -3  11    0.30    6.50
   3  -3 -11    2.30    4.70
  -3   3  11    0.90    5.40
   3   3 -11    6.80    5.10
   1  -3 -11   16.60    6.50
  -1  -3  11   34.70   10.80
   1   3 -11   22.20    7.30
  -1   3  11   21.30    8.30
   1  -3  11   27.30    9.70
  -1  -3 -11   33.50    8.50
   1   3  11   33.00    9.30
  -1   3 -11   34.50    9.50
 -20  -4  11  452.45   31.90
 -20  -4  11  455.05   27.40
 -20   4  11  465.65   33.40
 -20   4  11  483.35   27.80
 -18  -4  11  551.84   35.90
 -18  -4  11  595.64   29.30
 -18  -4  11  542.15   32.90
 -18   4  11  563.14   36.60
 -18   4  11  585.04   32.40
 -16  -4  11  578.84   37.80
  16  -4 -11  631.04   33.40
 -16  -4  11  655.83   37.20
 -16  -4  11  633.44   32.00
 -16   4  11  653.83   35.20
 -16   4  11  644.64   39.00
 -14  -4  11  937.01   45.00
 -14  -4  11  873.81   50.89
 -14  -4  11  928.81   50.79
  14  -4 -11  896.21   48.40
  14   4 -11  993.50   50.79
 -14   4  11  904.11   51.09
 -12  -4  11 1069.79   52.69
  12  -4 -11 1031.40   54.49
  12  -4 -11 1044.30   57.19
 -12  -4  11 1171.98   59.89
 -12   4  11 1143.09   58.69
  12   4 -11 1099.79   63.09
  10  -4 -11  937.31   51.79
 -10  -4  11  898.11   45.80
 -10  -4  11  955.00   53.09
  10  -4 -11  898.01   47.50
 -10   4  11  941.31   50.59
   8  -4 -11  839.52   45.50
  -8  -4  11  910.11   51.39
   8   4 -11  864.11   41.20
   6  -4 -11  799.32   42.00
  -6  -4  11  714.23   46.90
   6   4 -11  775.72   39.30
  -4  -4  11  539.05   38.50
   4  -4 -11  624.54   34.40
   4   4 -11  559.84   32.40
   2  -4 -11  338.67   23.60
  -2  -4  11  332.07   28.80
   2   4 -11  343.57   23.50
   0  -4  11  309.27   27.90
   0  -4 -11  284.17   21.90
   0   4 -11  252.77   22.10
  -2  -4 -11  207.78   19.30
   2  -4  11  185.68   25.10
  -2   4 -11  218.08   21.20
 -19  -5  11  573.64   35.10
 -19  -5  11  550.04   36.00
 -19   5  11  575.44   32.80
 -19   5  11  570.04   37.70
 -17  -5  11  760.92   42.60
  17  -5 -11  700.93   34.40
 -17  -5  11  709.93   34.60
 -17  -5  11  686.63   41.90
 -17   5  11  676.23   42.40
 -17   5  11  710.93   38.70
 -15  -5  11  854.11   48.00
  15  -5 -11  795.42   44.90
 -15  -5  11  856.01   41.00
 -15  -5  11  851.81   49.00
 -15   5  11  824.62   48.00
 -15   5  11  874.21   44.90
 -13  -5  11  572.94   29.50
 -13  -5  11  531.35   36.70
  13  -5 -11  581.64   35.40
 -13   5  11  582.94   32.60
 -13   5  11  569.84   35.00
 -11  -5  11  791.62   40.00
  11  -5 -11  822.12   42.90
 -11  -5  11  814.02   48.50
  11  -5 -11  781.52   46.10
 -11   5  11  786.62   44.80
  -9  -5  11  907.61   46.80
  -9  -5  11  959.50   55.99
   9  -5 -11  966.40   49.60
  -9   5  11  943.91   50.99
  -7  -5  11  871.31   53.69
   7  -5 -11  873.21   47.00
   7   5 -11  886.31   42.30
  -7   5  11  881.21   47.90
   5  -5 -11  701.33   39.20
  -5  -5  11  724.53   46.70
   5   5 -11  667.33   36.40
   3  -5 -11  423.86   28.40
  -3  -5  11  470.35   35.30
   3   5 -11  441.76   27.60
   1  -5 -11  485.05   30.90
  -1  -5  11  483.55   37.90
   1   5 -11  457.55   30.60
  -1  -5 -11  336.27   25.60
  -1   5 -11  355.26   27.40
 -18  -6  11   21.40   10.80
 -18  -6  11   11.00    7.70
 -18   6  11   28.40    8.90
 -18   6  11   12.20    5.90
 -16  -6  11   54.29   13.10
 -16  -6  11   69.79    7.40
 -16  -6  11   59.19   10.70
 -16   6  11   35.40    9.50
 -16   6  11   61.29    9.40
 -14  -6  11   69.49    7.90
 -14  -6  11   67.79   14.70
 -14  -6  11   58.59   10.80
  14  -6 -11   59.79   12.90
 -14   6  11   72.49   11.60
 -14   6  11   71.39    9.80
 -12  -6  11   74.89   15.10
  12  -6 -11   84.49   15.80
  12  -6 -11   89.79   11.10
 -12  -6  11   91.59    9.00
 -12   6  11   75.29   11.60
 -12   6  11   72.29   10.00
  10  -6 -11  179.78   15.60
 -10  -6  11  188.78   13.80
 -10  -6  11  205.68   22.50
 -10   6  11  185.48   16.30
   8  -6 -11   16.80    6.00
  -8  -6  11   16.40   10.20
  -8   6  11   18.00    6.30
   6  -6 -11   12.20    6.40
  -6  -6  11   21.50   11.20
  -6   6  11   17.50    6.20
   6   6 -11   21.10    5.00
   4  -6 -11   72.29   11.20
  -4  -6  11   75.39   16.80
   4   6 -11   75.49   10.30
   2  -6 -11    7.00    6.40
  -2  -6  11   -9.60   10.50
   2   6 -11    6.30    7.40
   0  -6 -11    4.50   11.00
   0  -6  11    4.30   20.40
   0   6 -11    8.70    8.50
  17  -7 -11  212.08   17.40
 -17  -7  11  256.77   21.70
 -17  -7  11  304.87   29.10
 -17   7  11  239.28   18.70
 -17   7  11  258.17   22.40
 -15  -7  11  307.77   23.40
 -15  -7  11  275.57   28.90
 -15   7  11  271.37   22.20
 -15   7  11  300.07   20.70
 -13  -7  11  236.38   27.50
 -13  -7  11  219.58   14.70
 -13   7  11  228.58   19.30
 -13   7  11  258.37   18.30
  11  -7 -11  330.67   22.70
 -11  -7  11  291.87   30.40
 -11  -7  11  355.46   20.00
 -11   7  11  302.57   21.50
 -11   7  11  298.07   22.70
  -9  -7  11  374.16   33.70
   9  -7 -11  363.66   25.00
  -9   7  11  376.16   24.00
  -9   7  11  355.76   24.30
  -7  -7  11  327.67   31.70
   7  -7 -11  309.67   22.10
  -7   7  11  277.47   20.90
  -5  -7  11  329.87   34.10
   5  -7 -11  402.36   26.70
   5   7 -11  362.66   21.80
  -5   7  11  386.86   24.60
   3  -7 -11  136.49   14.70
  -3  -7  11  103.29   20.20
   3   7 -11  118.89   14.20
  -3   7  11  106.89   12.80
 -14  -8  11  712.43   42.20
 -14  -8  11  670.63   53.09
 -14   8  11  705.53   42.10
 -14   8  11  725.33   42.30
 -12  -8  11  687.33   53.99
 -12   8  11  782.12   42.80
 -12   8  11  719.03   40.90
  10  -8 -11  680.03   39.90
 -10  -8  11  695.03   53.09
 -10   8  11  692.33   39.30
 -10   8  11  673.53   38.40
   8  -8 -11  423.86   28.50
  -8  -8  11  398.86   38.00
  -8   8  11  438.16   27.60
  -8   8  11  464.85   28.00
  -6  -8  11  339.97   36.20
   6  -8 -11  340.57   25.70
  -6   8  11  366.16   24.20
  -6   8  11  390.06   24.40
 -22   0  12  562.94   29.70
 -22   0  12  497.85   36.70
 -20   0  12  509.45   35.90
 -20   0  12  560.14   29.90
 -18   0  12  840.62   49.20
 -16   0  12  879.51   50.29
  16   0 -12  896.11   45.40
 -16   0  12  845.42   43.40
 -14   0  12 1111.49   59.79
 -14   0  12 1058.59   54.59
  14   0 -12 1105.29   57.29
 -12   0  12 2767.52  133.99
  12   0 -12 2826.52  136.19
  12   0 -12 2980.50  130.39
  10   0 -12 1805.92   89.69
 -10   0  12 1738.53   87.39
  10   0 -12 1777.52   83.59
   8   0 -12 1054.29   53.69
  -8   0  12 1098.39   57.89
  -6   0  12 1294.87   68.19
   6   0 -12 1270.37   63.99
  -4   0  12  547.05   35.20
   4   0 -12  489.95   30.70
  -2   0  12  522.25   36.60
   2   0 -12  555.04   33.40
   0   0  12  484.45   35.50
   0   0 -12  521.55   32.90
 -21  -1  12  172.78   12.90
 -21  -1  12  180.68   18.90
 -21   1  12  138.19   17.70
 -21   1  12  149.59   13.50
 -19  -1  12  394.26   29.70
 -19  -1  12  394.36   26.50
 -19   1  12  408.46   24.30
 -19   1  12  425.96   30.20
  17  -1 -12  201.58   14.00
 -17  -1  12  191.78   18.80
 -17  -1  12  181.88   13.60
 -17  -1  12  173.68   16.10
  17   1 -12  199.28   14.80
 -17   1  12  213.08   19.10
 -15  -1  12  203.58   16.90
 -15  -1  12  240.58   16.50
  15  -1 -12  214.78   17.70
 -15  -1  12  219.18   19.50
 -15   1  12  217.98   15.00
  15   1 -12  218.88   18.70
 -15   1  12  227.08   19.80
  13  -1 -12  423.96   27.70
 -13  -1  12  421.56   26.00
 -13  -1  12  426.36   25.30
  13   1 -12  408.06   28.10
 -13   1  12  412.06   24.80
 -13   1  12  380.96   27.80
 -11  -1  12   78.49   11.20
  11  -1 -12   74.09    8.30
  11  -1 -12   62.69   11.80
 -11   1  12   63.79    9.70
  11   1 -12   76.09   12.70
  11   1 -12   74.49    7.20
  -9  -1  12  105.69   13.00
   9  -1 -12  128.19   11.10
   9   1 -12  102.59    9.90
  -9   1  12  117.09   12.40
  -7  -1  12  369.46   27.50
   7  -1 -12  426.36   25.10
  -7   1  12  398.46   27.10
   7   1 -12  409.86   24.40
  -5  -1  12  257.47   22.60
   5  -1 -12  295.77   20.20
   5   1 -12  290.07   20.10
  -5   1  12  290.97   22.80
  -3  -1  12  145.49   17.80
   3  -1 -12  169.28   15.00
   3   1 -12  135.09   14.00
  -3   1  12  144.59   16.70
  -1  -1  12  154.78   19.70
   1  -1 -12  150.58   15.90
  -1   1  12  171.48   18.50
   1   1 -12  162.38   16.50
  -1  -1 -12   88.89   14.10
   1  -1  12  110.69   18.30
  -1   1 -12  136.69   16.20
   1   1  12  162.68   19.60
 -22  -2  12  171.88   19.80
 -22   2  12  171.78   31.20
 -20  -2  12  158.48   15.50
 -20  -2  12  123.09   16.20
 -20   2  12  125.39   16.40
 -20   2  12  142.39   12.70
 -18  -2  12  103.29   10.40
 -18  -2  12   98.29   12.40
 -18  -2  12  113.49   14.50
 -18   2  12  109.79   14.40
 -18   2  12  104.89   11.20
 -16  -2  12   89.79   11.20
  16  -2 -12  101.69   12.30
 -16  -2  12  110.89   11.40
 -16  -2  12  114.99   14.10
  16   2 -12   86.79   12.00
 -16   2  12  106.89   13.50
 -14  -2  12  169.08   13.40
 -14  -2  12  137.39   13.90
  14  -2 -12  129.49   15.40
 -14  -2  12  128.99   15.10
 -14   2  12  142.59   15.40
  14   2 -12  149.99   16.70
 -12  -2  12  164.58   13.90
 -12  -2  12  179.68   15.70
  12  -2 -12  153.48   17.30
  12  -2 -12  149.09   12.50
 -12   2  12  155.38   13.50
 -12   2  12  153.68   15.70
  12   2 -12  145.89   18.00
 -10  -2  12   39.60    8.80
  10  -2 -12   32.90    6.40
  10  -2 -12   18.00   10.10
 -10   2  12   33.20    7.40
  10   2 -12   28.00    4.90
   8  -2 -12  106.79   10.90
  -8  -2  12   99.79   13.10
   8   2 -12   92.39    9.30
  -8   2  12   98.49   11.90
  -6  -2  12  145.59   16.40
   6  -2 -12  128.79   13.10
   6   2 -12  139.19   12.50
  -6   2  12  138.09   15.00
  -4  -2  12   38.70   10.60
   4  -2 -12   48.30    8.80
  -4   2  12   46.80   10.20
   4   2 -12   56.09    9.40
  -2  -2  12   77.69   14.80
   2  -2 -12  102.69   12.40
  -2   2  12   89.79   14.70
   2   2 -12   83.59   12.50
   0  -2  12   87.59   16.60
   0  -2 -12  118.19   14.40
   0   2 -12   93.19   14.00
   0   2  12   72.79   14.20
 -21  -3  12  367.16   20.50
 -21  -3  12  386.56   29.00
 -21   3  12  341.97   28.80
 -21   3  12  341.57   22.80
 -19  -3  12  882.51   42.90
 -19  -3  12  841.12   43.20
 -19  -3  12  780.02   48.50
 -19   3  12  826.42   49.90
 -19   3  12  833.42   44.20
 -17  -3  12  808.12   41.00
  17  -3 -12  746.93   39.90
 -17  -3  12  762.62   42.80
 -17  -3  12  813.52   47.30
 -17   3  12  829.22   47.90
 -17   3  12  875.71   43.30
 -15  -3  12  635.34   37.40
  15  -3 -12  662.13   37.00
 -15  -3  12  643.84   34.20
 -15  -3  12  655.83   39.90
  15   3 -12  655.53   38.30
 -15   3  12  630.14   39.60
  13  -3 -12 1047.20   50.09
  13  -3 -12  982.50   53.49
 -13  -3  12  968.30   49.10
 -13  -3  12  917.71   52.89
  13   3 -12 1007.40   55.19
 -13   3  12  982.50   54.59
 -11  -3  12  776.12   47.40
  11  -3 -12  838.42   43.80
 -11  -3  12  907.31   48.10
  11  -3 -12  825.42   48.30
 -11   3  12  854.01   47.90
  -9  -3  12  696.63   41.90
   9  -3 -12  687.93   37.50
   9   3 -12  679.33   33.90
  -9   3  12  668.13   38.50
   7  -3 -12  722.13   38.40
  -7  -3  12  638.44   42.10
   7   3 -12  699.13   36.20
  -7   3  12  672.23   39.90
  -5  -3  12  585.04   39.70
   5  -3 -12  566.34   34.40
  -5   3  12  620.64   37.30
   5   3 -12  584.04   33.40
  -3  -3  12  330.37   29.20
   3  -3 -12  400.46   25.60
   3   3 -12  351.26   24.50
  -3   3  12  354.96   27.20
   1  -3 -12  302.17   22.10
  -1  -3  12  234.28   25.20
   1   3 -12  265.57   22.10
  -1   3  12  247.58   23.20
 -20  -4  12  398.46   25.60
 -20  -4  12  412.86   30.30
 -20   4  12  377.66   30.10
 -20   4  12  410.96   25.50
 -18  -4  12  190.88   19.60
 -18  -4  12  215.78   16.00
 -18  -4  12  238.58   18.80
 -18   4  12  220.68   20.80
 -18   4  12  215.28   16.90
 -16  -4  12  251.37   20.60
 -16  -4  12  265.77   17.10
  16  -4 -12  245.48   20.20
 -16  -4  12  258.57   21.90
 -16   4  12  253.77   18.50
 -16   4  12  279.37   22.40
 -14  -4  12  324.17   20.20
 -14  -4  12  332.67   24.80
  14  -4 -12  325.77   25.10
 -14   4  12  337.07   24.90
  12  -4 -12  383.16   23.70
 -12  -4  12  364.96   27.40
  12  -4 -12  363.06   28.70
 -12  -4  12  376.76   22.40
 -12   4  12  370.06   26.20
 -10  -4  12  324.97   26.00
  10  -4 -12  312.17   21.10
 -10   4  12  307.07   23.30
   8  -4 -12  296.67   20.50
  -8  -4  12  284.87   25.00
   8   4 -12  286.07   16.80
   6  -4 -12  358.76   24.50
  -6  -4  12  366.96   29.80
   6   4 -12  374.86   22.70
  -4  -4  12  160.38   21.00
   4  -4 -12  171.28   16.20
   4   4 -12  188.38   16.10
   2  -4 -12  168.88   16.50
  -2  -4  12  131.29   21.20
   2   4 -12  160.18   17.00
 -19  -5  12   65.69   12.90
 -19  -5  12   72.49   12.10
 -19   5  12   52.49   11.90
 -19   5  12   62.69    9.70
 -17  -5  12   33.50   10.10
 -17  -5  12   45.10   10.20
 -17   5  12   41.30    8.10
 -17   5  12   34.40    9.60
  15  -5 -12    3.00   10.30
 -15  -5  12   11.30    7.10
 -15  -5  12   11.30    5.80
 -15  -5  12   26.00    9.80
 -15   5  12   16.20    7.80
 -15   5  12   18.50    6.30
 -13  -5  12   20.00    8.90
  13  -5 -12   28.50   12.70
 -13  -5  12   27.60    6.60
  13  -5 -12   22.60    6.70
 -13   5  12   27.20    8.10
  11  -5 -12   49.20    8.70
 -11  -5  12   38.60   11.90
 -11   5  12   67.59   11.10
  -9  -5  12   29.40    9.80
   9  -5 -12   25.40    7.40
  -9   5  12   22.90    7.30
   7  -5 -12   66.59   10.90
  -7  -5  12   51.59   13.40
  -7   5  12   73.79   11.60
   7   5 -12   68.79    8.40
   5  -5 -12   26.20    7.20
  -5  -5  12   29.50   11.40
   5   5 -12   29.90    7.40
  -3  -5  12    9.80   10.80
   3  -5 -12   19.30    7.90
   3   5 -12   17.60    8.10
 -16  -6  12  506.55   37.00
 -16  -6  12  522.85   34.30
 -16   6  12  479.15   33.40
 -16   6  12  532.85   31.00
 -14  -6  12  741.93   36.20
 -14  -6  12  674.83   46.20
  14  -6 -12  702.23   44.70
 -14   6  12  668.83   41.60
 -14   6  12  708.13   39.40
 -12  -6  12  575.54   39.90
  12  -6 -12  521.35   31.70
 -12   6  12  507.95   31.20
 -12   6  12  515.45   33.20
  10  -6 -12  516.55   31.80
 -10  -6  12  498.35   39.20
 -10   6  12  536.35   32.90
  -8  -6  12  503.25   39.80
   8  -6 -12  502.15   31.90
  -8   6  12  537.25   32.60
  -6  -6  12  502.95   39.20
   6  -6 -12  505.65   31.20
   6   6 -12  485.35   26.90
  -6   6  12  464.55   30.60
   4  -6 -12  364.26   25.80
  -4  -6  12  370.26   34.60
   4   6 -12  355.16   24.40
 -15  -7  12  358.26   26.60
 -15  -7  12  346.57   33.40
 -15   7  12  306.07   23.10
 -15   7  12  347.37   26.20
 -13  -7  12  369.86   34.40
 -13   7  12  341.77   23.10
 -13   7  12  315.97   24.90
 -11  -7  12  237.48   27.80
  11  -7 -12  233.08   19.20
 -11   7  12  211.18   19.20
 -11   7  12  213.78   17.50
   9  -7 -12  209.78   19.00
  -9  -7  12  247.78   29.30
  -9   7  12  243.48   19.40
  -7  -7  12  146.09   25.50
   7  -7 -12  157.58   15.70
  -7   7  12  136.09   14.80
 -20   0  13   -1.90    6.70
  18   0 -13    0.90    6.00
 -18   0  13   -0.50    4.00
 -18   0  13   -5.40    5.90
 -16   0  13    1.20    4.40
  16   0 -13    3.60    8.40
 -16   0  13   -0.20    6.10
  14   0 -13   10.90    9.50
 -14   0  13   -3.40    5.10
 -14   0  13   -5.10    4.60
  12   0 -13   -2.50    3.90
 -12   0  13   -2.40    4.90
  10   0 -13    5.50    4.10
 -10   0  13   -6.70    5.10
   8   0 -13   -0.10    4.70
  -8   0  13   -2.60    5.70
   6   0 -13   -5.70    4.90
  -6   0  13    5.20    6.70
   4   0 -13    3.20    6.00
  -4   0  13   -4.90    7.00
   2   0 -13   -4.80    6.70
  -2   0  13    7.80    8.10
 -21  -1  13  658.13   33.90
 -21  -1  13  598.54   41.20
 -21   1  13  655.93   34.90
 -21   1  13  556.34   40.90
 -19  -1  13  428.16   31.60
 -19  -1  13  440.76   23.70
 -19   1  13  440.96   32.50
 -17  -1  13  298.27   19.50
  17  -1 -13  300.77   21.20
 -17  -1  13  310.57   24.50
 -17   1  13  269.07   23.90
  17   1 -13  281.07   21.80
  15  -1 -13  359.86   26.50
 -15  -1  13  393.46   24.20
 -15  -1  13  309.77   26.10
 -15   1  13  370.16   22.50
  15   1 -13  345.07   26.80
 -15   1  13  374.56   27.50
 -13  -1  13  530.65   31.10
  13  -1 -13  505.35   34.10
  13  -1 -13  462.75   26.70
  13   1 -13  487.25   38.00
 -13   1  13  473.15   29.40
 -13   1  13  488.45   32.80
 -11  -1  13  646.94   39.40
  11  -1 -13  703.93   36.00
  11   1 -13  668.63   34.10
 -11   1  13  643.44   38.40
  -9  -1  13  336.87   25.70
   9  -1 -13  344.97   22.20
  -9   1  13  340.87   24.60
   9   1 -13  342.07   21.20
   7  -1 -13  201.58   16.80
  -7  -1  13  193.78   20.10
  -7   1  13  215.08   19.60
   7   1 -13  226.68   17.00
  -5  -1  13  182.38   19.60
   5  -1 -13  164.48   15.90
   5   1 -13  197.88   16.70
  -5   1  13  144.89   17.50
   3  -1 -13  189.38   18.10
  -3   1  13  194.58   21.00
   3   1 -13  192.48   18.30
 -20  -2  13  338.57   27.40
 -20  -2  13  348.27   20.00
 -20   2  13  349.17   22.70
 -20   2  13  325.97   27.40
 -18  -2  13  496.75   33.50
 -18  -2  13  444.96   27.40
 -18   2  13  487.15   33.60
  16  -2 -13  339.67   24.50
 -16  -2  13  318.97   22.60
 -16  -2  13  316.47   25.70
 -16   2  13  368.86   27.00
  16   2 -13  330.97   26.10
 -14  -2  13  735.73   41.00
  14  -2 -13  692.63   42.30
 -14   2  13  698.43   43.30
 -12  -2  13  562.74   36.90
  12  -2 -13  661.13   34.10
 -12   2  13  595.94   35.20
 -12   2  13  634.14   38.80
 -10  -2  13  250.77   21.70
  10  -2 -13  269.07   18.40
 -10   2  13  260.87   20.30
  10   2 -13  245.18   15.90
   8  -2 -13  514.85   30.30
  -8  -2  13  460.35   33.30
   8   2 -13  530.05   28.70
  -8   2  13  490.35   32.40
  -6  -2  13  435.16   32.20
   6  -2 -13  431.56   27.60
   6   2 -13  407.76   26.40
  -6   2  13  427.16   30.20
   4  -2 -13  280.07   21.30
  -4  -2  13  231.98   24.50
  -4   2  13  241.38   22.70
   4   2 -13  269.47   20.70
  -2  -2  13  216.48   24.70
   2  -2 -13  211.08   19.70
   2   2 -13  210.08   20.10
  -2   2  13  191.98   22.00
 -19  -3  13   61.09   12.60
 -19  -3  13   71.49   10.50
 -19   3  13   90.69   11.20
 -19   3  13   63.09   12.60
 -17  -3  13   21.70    8.10
 -17  -3  13   22.60    7.90
  17  -3 -13    3.60    8.70
 -17  -3  13    9.80    6.70
 -17   3  13   24.10    8.40
  15  -3 -13   39.80   11.80
 -15  -3  13   48.30   10.00
 -15  -3  13   41.50   10.00
 -15   3  13   46.00   10.50
  13  -3 -13    5.00   10.90
 -13  -3  13    9.90    6.60
  13  -3 -13    2.60    4.60
 -13   3  13   12.00    6.50
 -11  -3  13    4.20    6.50
  11  -3 -13    3.70    4.80
 -11   3  13   -0.80    5.30
   9  -3 -13   23.20    6.60
  -9  -3  13   28.30    9.20
  -9   3  13   26.40    7.50
   9   3 -13   34.90    5.90
  -7  -3  13    8.70    7.70
   7  -3 -13   16.10    6.50
  -7   3  13   24.50    7.90
   7   3 -13   15.50    6.30
  -5  -3  13   -0.20    8.30
   5  -3 -13    2.50    6.50
   5   3 -13   -7.80    5.70
  -5   3  13    6.60    6.90
   3  -3 -13    4.20    7.00
  -3  -3  13   15.30   10.60
  -3   3  13   -5.20    6.80
   3   3 -13   -0.50    6.70
 -18  -4  13  365.26   26.10
 -18  -4  13  352.76   28.10
 -18   4  13  361.36   28.30
 -18   4  13  374.46   24.50
 -16  -4  13  384.66   28.10
 -16  -4  13  402.66   29.80
 -16  -4  13  421.66   24.80
 -16   4  13  396.56   29.40
  14  -4 -13  377.46   30.30
 -14  -4  13  341.07   26.80
 -14   4  13  356.26   27.00
 -12  -4  13  569.14   38.50
  12  -4 -13  592.34   34.00
 -12   4  13  597.94   37.40
 -10  -4  13  712.33   44.00
  10  -4 -13  621.94   37.50
 -10   4  13  681.43   41.00
   8  -4 -13  437.56   27.90
  -8  -4  13  412.46   32.60
   8   4 -13  421.26   23.90
   6  -4 -13  301.87   22.50
  -6  -4  13  313.87   28.30
   6   4 -13  286.97   20.60
  -4  -4  13  296.07   29.60
   4  -4 -13  281.87   22.40
   4   4 -13  279.87   22.20
 -17  -5  13  435.86   31.50
 -17  -5  13  412.66   31.10
 -17   5  13  421.26   31.30
 -17   5  13  451.45   28.00
 -15  -5  13  585.64   39.50
  15  -5 -13  698.93   53.59
 -15   5  13  573.84   34.80
 -15   5  13  586.54   38.30
  13  -5 -13  515.35   30.60
 -13  -5  13  513.75   36.60
 -13   5  13  467.65   32.90
  11  -5 -13  269.97   20.90
 -11  -5  13  300.07   27.40
 -11   5  13  287.17   23.20
   9  -5 -13  346.57   24.20
  -9  -5  13  320.17   30.20
  -9   5  13  345.47   25.60
   7  -5 -13  475.75   29.60
  -7  -5  13  476.25   37.10
   7   5 -13  412.06   25.30
   5  -5 -13  381.86   26.90
  -5  -5  13  378.56   34.20
   5   5 -13  384.36   25.50
 -14  -6  13   37.10   13.00
 -14   6  13   54.69    9.30
 -14   6  13   25.50    9.40
  12  -6 -13   25.40    7.70
 -12  -6  13   24.20   12.70
 -12   6  13   23.70    8.00
 -10  -6  13   39.40   14.70
  10  -6 -13   25.10    7.70
 -10   6  13   30.90    8.70
   8  -6 -13   68.49   11.40
  -8  -6  13   50.49   15.80
  -8   6  13   74.59   12.30
 -20   0  14  483.85   35.90
 -18   0  14  240.88   16.90
 -18   0  14  245.08   23.20
 -16   0  14  514.75   36.40
 -16   0  14  544.95   31.60
  16   0 -14  551.44   36.50
 -14   0  14  660.43   38.40
 -14   0  14  666.23   42.10
 -12   0  14  650.03   39.20
  12   0 -14  660.33   34.90
 -10   0  14 1223.78   67.69
  10   0 -14 1302.67   63.09
  -8   0  14  706.53   43.50
   8   0 -14  679.33   38.70
  -6   0  14  366.46   28.90
   6   0 -14  338.67   24.70
 -19  -1  14  145.89   13.00
 -19  -1  14  119.69   17.50
 -19   1  14  152.28   18.70
 -17  -1  14  172.48   15.30
 -17  -1  14  176.38   19.20
  17   1 -14  141.89   18.80
 -17   1  14  187.18   19.40
  15  -1 -14  108.59   18.50
 -15  -1  14  113.99   15.60
 -15  -1  14  148.19   15.00
 -15   1  14  139.89   13.80
 -15   1  14  161.28   17.60
  13  -1 -14  171.68   13.60
 -13  -1  14  151.68   16.30
 -13   1  14  198.18   19.20
 -13   1  14  153.98   16.00
 -11  -1  14   92.69   14.50
  11  -1 -14   83.79   10.70
 -11   1  14   88.19   13.20
  11   1 -14  101.99   10.30
  -9  -1  14   37.30   10.80
   9  -1 -14   35.90    8.30
  -9   1  14   30.50    9.10
   9   1 -14   37.10    7.60
   7  -1 -14   63.79   10.70
  -7  -1  14   72.29   14.30
   7   1 -14   64.09   10.60
  -7   1  14   51.39   11.70
   5  -1 -14   73.29   11.90
  -5  -1  14   95.79   16.60
   5   1 -14   72.39   12.10
  -5   1  14   81.29   15.20
 -18  -2  14   96.59   15.40
 -18  -2  14   96.79   13.30
 -18   2  14  101.79   15.80
  16  -2 -14   71.29   14.90
 -16  -2  14   66.09   12.90
 -16  -2  14   84.89   11.90
 -16   2  14   72.49   13.20
 -14  -2  14   81.59   12.80
 -14   2  14   69.29   12.90
 -12  -2  14  187.38   19.00
  12  -2 -14  156.78   14.50
 -12   2  14  184.28   18.70
 -12   2  14  168.48   16.60
  10  -2 -14  110.79   12.50
 -10  -2  14   91.09   15.20
 -10   2  14   89.89   13.70
  10   2 -14  102.59   10.60
  -8  -2  14    7.50    8.20
   8  -2 -14    1.80    6.10
   8   2 -14    2.60    6.10
  -8   2  14   13.50    7.40
   6  -2 -14   32.60    9.30
  -6  -2  14   52.09   12.90
  -6   2  14   40.70   10.40
   6   2 -14   45.60    9.50
 -17  -3  14  608.34   41.20
 -17  -3  14  648.64   38.70
 -17   3  14  675.73   42.10
  15  -3 -14  609.24   41.70
 -15  -3  14  623.54   38.90
 -15   3  14  627.14   40.30
  13  -3 -14  485.45   29.40
 -13  -3  14  520.75   34.40
 -13   3  14  485.65   34.00
 -11  -3  14  506.65   37.50
  11  -3 -14  578.74   33.20
 -11   3  14  585.24   37.40
   9  -3 -14  449.36   28.80
  -9  -3  14  451.85   33.70
  -9   3  14  437.36   30.30
   9   3 -14  434.56   25.40
   7  -3 -14  287.97   22.20
  -7  -3  14  293.77   27.10
  -7   3  14  305.17   24.70
   7   3 -14  262.77   20.50
 -16  -4  14  175.58   19.40
 -16  -4  14  147.49   18.60
 -16   4  14  155.78   18.30
  14  -4 -14  217.28   17.50
 -14  -4  14  202.58   21.30
 -14   4  14  203.08   20.20
  12  -4 -14  125.89   13.80
 -12  -4  14   87.89   15.80
 -12   4  14  116.09   15.30
  10  -4 -14  167.28   16.60
 -10  -4  14  170.78   21.20
 -10   4  14  172.68   18.70
  -8  -4  14  219.68   25.00
   8  -4 -14  205.68   18.90
   8   4 -14  196.88   15.80
 -13  -5  14    8.60   10.60
  13  -5 -14    3.90    6.80
 -13   5  14   13.10    8.00
 -11  -5  14   34.00   12.50
  11  -5 -14   40.80    9.30
 -11   5  14   39.90   10.70
 -16   0  15   -0.30    7.50
 -16   0  15   -0.60    6.50
 -14   0  15    1.40    6.90
 -12   0  15   -1.20    7.10
  12   0 -15   -1.70    5.70
 -10   0  15   -9.20    7.60
  10   0 -15    1.40    6.60
 -17  -1  15  331.17   23.50
 -17  -1  15  262.87   27.40
 -17   1  15  309.77   30.00
 -15  -1  15  283.77   25.40
 -15  -1  15  293.77   23.50
 -15   1  15  278.07   26.00
 -15   1  15  325.77   23.00
  13  -1 -15  195.58   16.60
 -13  -1  15  241.48   21.70
 -13   1  15  236.58   20.50
 -11  -1  15  273.47   24.30
  11  -1 -15  273.27   20.20
 -11   1  15  261.77   23.50
  11   1 -15  258.27   18.70
  -9  -1  15  289.87   27.00
   9  -1 -15  283.17   22.00
   9   1 -15  291.57   21.60
  -9   1  15  310.47   26.00
 -16  -2  15  383.26   27.60
 -16  -2  15  373.16   30.60
 -16   2  15  365.36   29.50
 -14  -2  15  249.08   22.30
  14  -2 -15  245.98   18.20
 -14   2  15  202.88   21.60
  12  -2 -15  356.96   24.20
 -12  -2  15  367.36   29.40
  12   2 -15  364.06   20.40
 -12   2  15  382.56   27.60
 -10  -2  15  338.37   28.60
  10  -2 -15  307.07   23.10
 -10   2  15  305.37   26.10
  10   2 -15  297.27   20.60
   0   0   0    0.00    0.00

_computing_structure_solution     'SHELXT 2014/5 (Sheldrick, 2014)'
;
_shelx_hkl_checksum              74509
loop_
_space_group_symop_operation_xyz
'x, y, z'
'-x, y, -z+1/2'
'x+1/2, y+1/2, z'
'-x+1/2, y+1/2, -z+1/2'
'-x, -y, -z'
'x, -y, z-1/2'
'-x+1/2, -y+1/2, -z'
'x+1/2, -y+1/2, z-1/2'
loop_
_atom_site_label
_atom_site_type_symbol
_atom_site_fract_x
_atom_site_fract_y
_atom_site_fract_z
_atom_site_U_iso_or_equiv
_atom_site_adp_type
_atom_site_occupancy
_atom_site_site_symmetry_order
_atom_site_calc_flag
_atom_site_refinement_flags_posn
_atom_site_refinement_flags_adp
_atom_site_refinement_flags_occupancy
_atom_site_disorder_assembly
_atom_site_disorder_group
Tm1 Tm 0.5000 -0.16001(2) 0.7500 0.01850(8) Uani 1 2 d S T P . .
N1 N 0.5000 0.5767(4) 0.7500 0.0174(7) Uani 1 2 d S T P . .
N2 N 0.58980(18) 0.7345(3) 0.6776(3) 0.0220(5) Uani 1 1 d . . . . .
O1 O 0.4837(2) 0.0610(2) 0.8266(3) 0.0324(6) Uani 1 1 d . . . . .
O2 O 0.3971(2) -0.2274(3) 0.5142(3) 0.0455(7) Uani 1 1 d . . . . .
O3 O 0.3383(2) -0.0792(4) 0.5828(3) 0.0491(7) Uani 1 1 d . . . . .
C1 C 0.54530(19) 0.5053(3) 0.7092(3) 0.0183(6) Uani 1 1 d . . . . .
C2 C 0.5000 0.1254(5) 0.7500 0.0261(9) Uani 1 2 d S T P . .
C3 C 0.5000 0.2848(4) 0.7500 0.0211(8) Uani 1 2 d S T P . .
C4 C 0.5959(2) 0.5929(3) 0.6693(3) 0.0190(6) Uani 1 1 d . . . . .
C5 C 0.5446(2) 0.3573(3) 0.7036(4) 0.0216(6) Uani 1 1 d . . . . .
C6 C 0.3352(3) -0.1564(3) 0.4951(4) 0.0318(8) Uani 1 1 d . . . . .
C7 C 0.6342(3) 0.8197(4) 0.6427(5) 0.0300(8) Uani 1 1 d . . . . .
C8 C 0.6476(2) 0.5335(4) 0.6287(4) 0.0271(7) Uani 1 1 d . . . . .
C9 C 0.6952(3) 0.6211(4) 0.5963(4) 0.0321(7) Uani 1 1 d . . . . .
C10 C 0.6872(3) 0.7675(4) 0.6020(4) 0.0333(8) Uani 1 1 d . . . . .
loop_
_atom_site_aniso_label
_atom_site_aniso_U_11
_atom_site_aniso_U_22
_atom_site_aniso_U_33
_atom_site_aniso_U_23
_atom_site_aniso_U_13
_atom_site_aniso_U_12
Tm1 0.02648(12) 0.00710(11) 0.02846(12) 0.000 0.01963(9) 0.000
N1 0.0230(16) 0.0080(15) 0.0237(17) 0.000 0.0149(14) 0.000
N2 0.0274(13) 0.0124(12) 0.0344(14) -0.0005(10) 0.0224(12) -0.0008(10)
O1 0.0584(16) 0.0102(11) 0.0486(15) -0.0019(10) 0.0424(14) -0.0011(10)
O2 0.0429(15) 0.0380(17) 0.0428(16) -0.0082(13) 0.0173(13) 0.0044(13)
O3 0.0462(16) 0.0496(18) 0.0538(18) 0.0003(15) 0.0300(15) 0.0122(14)
C1 0.0214(13) 0.0111(13) 0.0220(13) 0.0002(10) 0.0122(11) 0.0000(10)
C2 0.033(2) 0.014(2) 0.032(2) 0.000 0.019(2) 0.000
C3 0.028(2) 0.009(2) 0.027(2) 0.000 0.0160(18) 0.000
C4 0.0213(13) 0.0136(14) 0.0225(14) 0.0005(11) 0.0128(12) -0.0004(11)
C5 0.0279(15) 0.0123(14) 0.0293(16) -0.0009(11) 0.0192(14) 0.0002(11)
C6 0.037(2) 0.0247(19) 0.0309(19) 0.0019(12) 0.0181(16) 0.0021(13)
C7 0.0389(19) 0.0143(14) 0.050(2) 0.0029(14) 0.0329(18) -0.0032(13)
C8 0.0338(16) 0.0206(16) 0.0360(17) -0.0003(13) 0.0253(15) 0.0032(13)
C9 0.0369(18) 0.0313(17) 0.043(2) 0.0027(16) 0.0314(17) 0.0049(16)
C10 0.0408(19) 0.0266(18) 0.049(2) 0.0033(15) 0.0351(18) -0.0018(14)
loop_
_atom_type_symbol
_atom_type_description
_atom_type_scat_dispersion_real
_atom_type_scat_dispersion_imag
_atom_type_scat_source
C C 0.0033 0.0016 'International Tables Vol C Tables 4.2.6.8 and 6.1.1.4'
N N 0.0061 0.0033 'International Tables Vol C Tables 4.2.6.8 and 6.1.1.4'
O O 0.0106 0.0060 'International Tables Vol C Tables 4.2.6.8 and 6.1.1.4'
Tm Tm -0.3139 5.2483 'International Tables Vol C Tables 4.2.6.8 and 6.1.1.4'
loop_
_geom_angle_atom_site_label_1
_geom_angle_atom_site_label_2
_geom_angle_atom_site_label_3
_geom_angle
_geom_angle_site_symmetry_1
_geom_angle_site_symmetry_3
_geom_angle_publ_flag
O1 Tm1 O1 55.79(12) 2_656 . ?
O1 Tm1 O2 88.05(10) 2_656 . ?
O1 Tm1 O2 120.28(10) . . ?
O1 Tm1 O2 120.28(10) 2_656 2_656 ?
O1 Tm1 O2 88.05(10) . 2_656 ?
O2 Tm1 O2 149.14(15) . 2_656 ?
O1 Tm1 N2 138.76(9) 2_656 2_646 ?
O1 Tm1 N2 88.35(9) . 2_646 ?
O2 Tm1 N2 94.89(11) . 2_646 ?
O2 Tm1 N2 72.37(10) 2_656 2_646 ?
O1 Tm1 N2 88.35(9) 2_656 1_545 ?
O1 Tm1 N2 138.76(9) . 1_545 ?
O2 Tm1 N2 72.36(10) . 1_545 ?
O2 Tm1 N2 94.89(11) 2_656 1_545 ?
N2 Tm1 N2 131.70(12) 2_646 1_545 ?
O1 Tm1 N1 152.10(6) 2_656 1_545 ?
O1 Tm1 N1 152.10(6) . 1_545 ?
O2 Tm1 N1 74.57(7) . 1_545 ?
O2 Tm1 N1 74.57(7) 2_656 1_545 ?
N2 Tm1 N1 65.85(6) 2_646 1_545 ?
N2 Tm1 N1 65.85(6) 1_545 1_545 ?
O1 Tm1 O3 76.64(11) 2_656 . ?
O1 Tm1 O3 72.19(10) . . ?
O2 Tm1 O3 52.58(10) . . ?
O2 Tm1 O3 140.29(11) 2_656 . ?
N2 Tm1 O3 72.96(10) 2_646 . ?
N2 Tm1 O3 122.80(10) 1_545 . ?
N1 Tm1 O3 107.68(8) 1_545 . ?
O1 Tm1 O3 72.19(10) 2_656 2_656 ?
O1 Tm1 O3 76.64(11) . 2_656 ?
O2 Tm1 O3 140.29(11) . 2_656 ?
O2 Tm1 O3 52.58(10) 2_656 2_656 ?
N2 Tm1 O3 122.80(10) 2_646 2_656 ?
N2 Tm1 O3 72.95(10) 1_545 2_656 ?
N1 Tm1 O3 107.68(8) 1_545 2_656 ?
O3 Tm1 O3 144.63(16) . 2_656 ?
O1 Tm1 C2 27.90(6) 2_656 . ?
O1 Tm1 C2 27.90(6) . . ?
O2 Tm1 C2 105.43(7) . . ?
O2 Tm1 C2 105.43(7) 2_656 . ?
N2 Tm1 C2 114.15(6) 2_646 . ?
N2 Tm1 C2 114.15(6) 1_545 . ?
N1 Tm1 C2 180.0 1_545 . ?
O3 Tm1 C2 72.32(8) . . ?
O3 Tm1 C2 72.32(8) 2_656 . ?
O1 Tm1 C6 81.80(10) 2_656 . ?
O1 Tm1 C6 96.94(10) . . ?
O2 Tm1 C6 25.73(11) . . ?
O2 Tm1 C6 155.16(11) 2_656 . ?
N2 Tm1 C6 83.43(11) 2_646 . ?
N2 Tm1 C6 97.16(11) 1_545 . ?
N1 Tm1 C6 90.71(7) 1_545 . ?
O3 Tm1 C6 26.86(11) . . ?
O3 Tm1 C6 152.21(11) 2_656 . ?
C2 Tm1 C6 89.29(7) . . ?
O1 Tm1 C6 96.94(10) 2_656 2_656 ?
O1 Tm1 C6 81.80(10) . 2_656 ?
O2 Tm1 C6 155.15(11) . 2_656 ?
O2 Tm1 C6 25.73(11) 2_656 2_656 ?
N2 Tm1 C6 97.16(11) 2_646 2_656 ?
N2 Tm1 C6 83.43(11) 1_545 2_656 ?
N1 Tm1 C6 90.71(7) 1_545 2_656 ?
O3 Tm1 C6 152.21(11) . 2_656 ?
O3 Tm1 C6 26.86(11) 2_656 2_656 ?
C2 Tm1 C6 89.29(7) . 2_656 ?
C6 Tm1 C6 178.58(13) . 2_656 ?
C1 N1 C1 119.7(4) . 2_656 ?
C1 N1 Tm1 120.13(18) . 1_565 ?
C1 N1 Tm1 120.12(18) 2_656 1_565 ?
C4 N2 C7 118.6(3) . . ?
C4 N2 Tm1 121.97(19) . 1_565 ?
C7 N2 Tm1 119.4(2) . 1_565 ?
C2 O1 Tm1 90.9(2) . . ?
C6 O2 Tm1 94.5(3) . . ?
C6 O3 Tm1 87.7(2) . . ?
N1 C1 C5 121.9(3) . . ?
N1 C1 C4 116.3(3) . . ?
C5 C1 C4 121.8(3) . . ?
O1 C2 O1 122.4(5) 2_656 . ?
O1 C2 C3 118.8(2) 2_656 . ?
O1 C2 C3 118.8(2) . . ?
O1 C2 Tm1 61.2(2) 2_656 . ?
O1 C2 Tm1 61.2(2) . . ?
C3 C2 Tm1 180.0 . . ?
C5 C3 C5 120.8(4) . 2_656 ?
C5 C3 C2 119.6(2) . . ?
C5 C3 C2 119.6(2) 2_656 . ?
N2 C4 C8 121.6(3) . . ?
N2 C4 C1 115.8(2) . . ?
C8 C4 C1 122.6(3) . . ?
C3 C5 C1 117.7(3) . . ?
O2 C6 O3 125.2(4) . . ?
O2 C6 Tm1 59.8(2) . . ?
O3 C6 Tm1 65.4(2) . . ?
N2 C7 C10 122.7(3) . . ?
C4 C8 C9 119.7(3) . . ?
C10 C9 C8 118.6(3) . . ?
C7 C10 C9 118.7(3) . . ?
loop_
_geom_bond_atom_site_label_1
_geom_bond_atom_site_label_2
_geom_bond_distance
_geom_bond_site_symmetry_2
_geom_bond_publ_flag
Tm1 O1 2.360(2) 2_656 ?
Tm1 O1 2.360(2) . ?
Tm1 O2 2.390(3) . ?
Tm1 O2 2.390(3) 2_656 ?
Tm1 N2 2.433(3) 2_646 ?
Tm1 N2 2.433(3) 1_545 ?
Tm1 N1 2.484(4) 1_545 ?
Tm1 O3 2.510(3) . ?
Tm1 O3 2.510(3) 2_656 ?
Tm1 C2 2.693(5) . ?
Tm1 C6 2.757(4) . ?
Tm1 C6 2.757(4) 2_656 ?
N1 C1 1.342(3) . ?
N1 C1 1.342(3) 2_656 ?
N1 Tm1 2.484(4) 1_565 ?
N2 C4 1.349(4) . ?
N2 C7 1.353(4) . ?
N2 Tm1 2.433(3) 1_565 ?
O1 C2 1.260(3) . ?
O2 C6 1.200(5) . ?
O3 C6 1.246(5) . ?
C1 C5 1.398(4) . ?
C1 C4 1.493(4) . ?
C2 O1 1.260(3) 2_656 ?
C2 C3 1.505(6) . ?
C3 C5 1.386(4) . ?
C3 C5 1.386(4) 2_656 ?
C4 C8 1.386(4) . ?
C7 C10 1.381(5) . ?
C8 C9 1.391(5) . ?
C9 C10 1.395(5) . ?
