#------------------------------------------------------------------------------
#$Date: 2021-10-03 22:11:05 +0300 (Sun, 03 Oct 2021) $
#$Revision: 269470 $
#$URL: file:///home/coder/svn-repositories/cod/cif/4/51/90/4519043.cif $
#------------------------------------------------------------------------------
#
# This file is available in the Crystallography Open Database (COD),
# http://www.crystallography.net/
#
# All data on this site have been placed in the public domain by the
# contributors.
#
data_4519043
loop_
_publ_author_name
'Khan, Sheeba'
'Mandal, Sanjay K.'
_publ_section_title
;
 Luminescent 2D Pillared-Bilayer Metal-Organic Coordination Networks for
 Selective Sensing of ReO<sub>4</sub><sup>-</sup> in Water.
;
_journal_issue                   38
_journal_name_full               'ACS applied materials &amp; interfaces'
_journal_page_first              45465
_journal_page_last               45474
_journal_paper_doi               10.1021/acsami.1c11606
_journal_volume                  13
_journal_year                    2021
_chemical_formula_moiety         'C27 H22 N6 O5 Zn, 2(H2 O), 2(C H4 O)'
_chemical_formula_sum            'C29 H34 N6 O9 Zn'
_chemical_formula_weight         675.87
_space_group_crystal_system      triclinic
_space_group_IT_number           2
_space_group_name_Hall           '-P 1'
_space_group_name_H-M_alt        'P -1'
_atom_sites_solution_hydrogens   geom
_atom_sites_solution_primary     dual
_audit_creation_date             2020-06-27
_audit_creation_method
;
Olex2 1.2
(compiled 2018.05.29 svn.r3508 for OlexSys, GUI svn.r5506)
;
_cell_angle_alpha                66.422(3)
_cell_angle_beta                 85.750(3)
_cell_angle_gamma                76.567(3)
_cell_formula_units_Z            2
_cell_length_a                   8.6078(10)
_cell_length_b                   13.3046(14)
_cell_length_c                   15.3640(15)
_cell_measurement_reflns_used    5071
_cell_measurement_temperature    100.15
_cell_measurement_theta_max      23.98
_cell_measurement_theta_min      2.43
_cell_volume                     1568.2(3)
_computing_cell_refinement       'SAINT v8.34A (Bruker, 2013)'
_computing_data_reduction        'SAINT v8.34A (Bruker, 2013)'
_computing_molecular_graphics    'Olex2 (Dolomanov et al., 2009)'
_computing_publication_material  'Olex2 (Dolomanov et al., 2009)'
_computing_structure_refinement  'ShelXL (Sheldrick, 2015)'
_computing_structure_solution    'ShelXT (Sheldrick, 2015)'
_diffrn_ambient_temperature      100.15
_diffrn_detector                 'CCD area detector'
_diffrn_detector_area_resol_mean 8
_diffrn_detector_type            'APEX II CCD 4K area detector'
_diffrn_measured_fraction_theta_full 0.976
_diffrn_measured_fraction_theta_max 0.976
_diffrn_measurement_device       'four-circle diffractometer'
_diffrn_measurement_device_type  'Bruker Kappa APEX II'
_diffrn_measurement_method       '\f and \w scans'
_diffrn_radiation_monochromator  graphite
_diffrn_radiation_probe          x-ray
_diffrn_radiation_type           MoK\a
_diffrn_radiation_wavelength     0.71073
_diffrn_reflns_av_R_equivalents  0.0372
_diffrn_reflns_av_unetI/netI     0.0452
_diffrn_reflns_Laue_measured_fraction_full 0.976
_diffrn_reflns_Laue_measured_fraction_max 0.976
_diffrn_reflns_limit_h_max       10
_diffrn_reflns_limit_h_min       -10
_diffrn_reflns_limit_k_max       15
_diffrn_reflns_limit_k_min       -15
_diffrn_reflns_limit_l_max       17
_diffrn_reflns_limit_l_min       -18
_diffrn_reflns_number            15641
_diffrn_reflns_point_group_measured_fraction_full 0.976
_diffrn_reflns_point_group_measured_fraction_max 0.976
_diffrn_reflns_theta_full        24.999
_diffrn_reflns_theta_max         24.999
_diffrn_reflns_theta_min         1.713
_diffrn_source                   'sealed X-ray tube'
_diffrn_source_target            Mo
_exptl_absorpt_coefficient_mu    0.845
_exptl_absorpt_correction_T_max  0.7452
_exptl_absorpt_correction_T_min  0.6512
_exptl_absorpt_correction_type   multi-scan
_exptl_absorpt_process_details
'SADABS-2014/5 (Bruker,2014/5) was used for absorption correction.'
_exptl_crystal_colour            'clear light orange'
_exptl_crystal_colour_lustre     clear
_exptl_crystal_colour_modifier   light
_exptl_crystal_colour_primary    orange
_exptl_crystal_density_diffrn    1.431
_exptl_crystal_description       plate
_exptl_crystal_F_000             704
_exptl_crystal_size_max          0.25
_exptl_crystal_size_mid          0.19
_exptl_crystal_size_min          0.12
_refine_diff_density_max         0.315
_refine_diff_density_min         -0.304
_refine_diff_density_rms         0.062
_refine_ls_extinction_method     none
_refine_ls_goodness_of_fit_ref   1.054
_refine_ls_hydrogen_treatment    constr
_refine_ls_matrix_type           full
_refine_ls_number_parameters     352
_refine_ls_number_reflns         5401
_refine_ls_number_restraints     0
_refine_ls_restrained_S_all      1.054
_refine_ls_R_factor_all          0.0527
_refine_ls_R_factor_gt           0.0404
_refine_ls_shift/su_max          0.001
_refine_ls_shift/su_mean         0.000
_refine_ls_structure_factor_coef Fsqd
_refine_ls_weighting_details
'w=1/[\s^2^(Fo^2^)+(0.0698P)^2^+0.1068P] where P=(Fo^2^+2Fc^2^)/3'
_refine_ls_weighting_scheme      calc
_refine_ls_wR_factor_gt          0.1131
_refine_ls_wR_factor_ref         0.1193
_reflns_Friedel_coverage         0.000
_reflns_number_gt                4348
_reflns_number_total             5401
_reflns_threshold_expression     'I > 2\s(I)'
_cod_data_source_file            am1c11606_si_003.cif
_cod_data_source_block           2
_cod_database_code               4519043
_shelx_shelxl_version_number     2014/7
_shelx_space_group_comment
;
The symmetry employed for this shelxl refinement is uniquely defined
by the following loop, which should always be used as a source of
symmetry information in preference to the above space-group names.
They are only intended as comments.
;
_shelx_estimated_absorpt_t_max   0.852
_shelx_estimated_absorpt_t_min   0.852
_olex2_refinement_description
;
1. Fixed Uiso
 At 1.2 times of:
  All C(H) groups, All C(H,H) groups, All N(H) groups
2.a Secondary CH2 refined with riding coordinates:
 C15(H15A,H15B), C24(H24A,H24B)
2.b Aromatic/amide H refined with riding coordinates:
 N4(H4), N6(H6), C4(H4A), C9(H9), C11(H11), C12(H12), C13(H13), C14(H14),
 C16(H16), C17(H17), C18(H18), C19(H19), C20(H20), C22(H22), C23(H23), C25(H25),
  C26(H26), C27(H27)
;
_shelx_res_file
;
    sbk_3znazobpy_0m_a.res created by SHELXL-2014/7

TITL sbk_3znazobpy_0m_a_a.res in P-1
REM Old TITL sbk_3znazobpy_0m_a_a.res in P-1
REM SHELXT solution in P-1
REM R1 0.154, Rweak 0.010, Alpha 0.056, Orientation as input
REM Formula found by SHELXT: C7 N7 O5 Zn
CELL 0.71073 8.6078 13.3046 15.364 66.422 85.75 76.567
ZERR 2 0.001 0.0014 0.0015 0.003 0.003 0.003
LATT 1
SFAC C H N O Zn
UNIT 54 44 12 10 2

L.S. 50
PLAN  20
SIZE 0.2 0.2 0.2
TEMP -173
BOND $H
list 4
ABIN
fmap 2
acta 50
OMIT -3 50
OMIT 0 0 1
OMIT 0 2 2
OMIT 0 2 3
OMIT 0 0 2
OMIT 0 -1 2
OMIT 1 1 3
OMIT 1 0 0
OMIT 0 -1 1
REM <olex2.extras>
REM <HklSrc "%.\\SBK_3ZnAzobpy_0m_a.hkl">
REM </olex2.extras>

WGHT    0.069800    0.106800
FVAR       0.46992
ZN1   5    0.585836    0.088299    0.875184    11.00000    0.04422    0.02328 =
         0.03905   -0.01579    0.00888   -0.01273
O1    4    0.261979   -0.009884    1.011482    11.00000    0.05492    0.02809 =
         0.04165   -0.00978   -0.00162   -0.01295
O2    4    0.229522    0.905681    0.217356    11.00000    0.07467    0.04529 =
         0.03770   -0.01836    0.01651   -0.02362
O3    4    0.350028    0.126992    0.893406    11.00000    0.04473    0.02924 =
         0.06611   -0.02019    0.01593   -0.01424
O4    4    0.036503    0.267651    0.979464    11.00000    0.06267    0.03813 =
         0.04051   -0.00651    0.00152   -0.00884
O5    4    0.446643    0.818837    0.307353    11.00000    0.06699    0.05775 =
         0.07185   -0.02885    0.02052   -0.01099
N1    3    0.578415    0.252148    0.874233    11.00000    0.04524    0.02807 =
         0.05243   -0.02100    0.00823   -0.01459
N2    3    0.547217    0.940441    0.854999    11.00000    0.04785    0.02812 =
         0.04910   -0.02093    0.00582   -0.01339
N3    3    0.570527    0.564002    0.882271    11.00000    0.06464    0.02926 =
         0.06586   -0.02746    0.00838   -0.01479
N4    3    0.048894    0.246832    0.841698    11.00000    0.06068    0.02849 =
         0.04198   -0.00765   -0.00471   -0.00908
AFIX  43
H4    2    0.038573    0.278082    0.779382    11.00000   -1.20000
AFIX   0
N5    3    0.500552    0.651146    0.818877    11.00000    0.06341    0.03375 =
         0.07668   -0.03441   -0.00159   -0.01314
N6    3   -0.024040    0.781208    0.714492    11.00000    0.14692    0.03241 =
         0.03673   -0.01537    0.01951   -0.02486
AFIX  43
H6    2    0.011433    0.813297    0.746797    11.00000   -1.20000
AFIX   0
C1    1    0.197571    0.849096    0.383319    11.00000    0.07098    0.03523 =
         0.03864   -0.01583    0.01404   -0.01596
C2    1    0.244795    0.077238    0.935942    11.00000    0.04646    0.02461 =
         0.03948   -0.02361    0.00927   -0.01428
C3    1    0.009488    0.845810    0.540008    11.00000    0.09379    0.02642 =
         0.03382   -0.00936    0.01823   -0.00963
C4    1    0.059119    0.491982    0.889508    11.00000    0.07069    0.03967 =
         0.03389   -0.01353    0.00500   -0.01202
AFIX  43
H4A   2    0.095305    0.452603    0.953780    11.00000   -1.20000
AFIX   0
C5    1    0.563336    0.461824    0.874586    11.00000    0.04961    0.03238 =
         0.06243   -0.03047    0.01292   -0.01739
C6    1    0.022316    0.432534    0.840594    11.00000    0.05336    0.03396 =
         0.03628   -0.01327    0.00794   -0.01147
C7    1    0.037510    0.310162    0.891699    11.00000    0.04289    0.03543 =
         0.03829   -0.00934    0.00160   -0.00894
C8    1    0.299665    0.856351    0.298433    11.00000    0.07785    0.03365 =
         0.04646   -0.02151    0.02025   -0.02433
C9    1    0.649135    0.842759    0.896068    11.00000    0.04643    0.03391 =
         0.06194   -0.02739   -0.00072   -0.00964
AFIX  43
H9    2    0.733137    0.839831    0.934381    11.00000   -1.20000
AFIX   0
C10   1    0.520776    0.749332    0.831552    11.00000    0.05092    0.03043 =
         0.05982   -0.02865    0.00518   -0.01329
C11   1    0.662097    0.264297    0.936039    11.00000    0.04850    0.03161 =
         0.05904   -0.02237    0.00680   -0.01258
AFIX  43
H11   2    0.728636    0.199047    0.980638    11.00000   -1.20000
AFIX   0
C12   1    0.036089    0.877308    0.375868    11.00000    0.06965    0.07819 =
         0.03547   -0.02100    0.01006   -0.02506
AFIX  43
H12   2   -0.013646    0.898849    0.315978    11.00000   -1.20000
AFIX   0
C13   1    0.044666    0.606485    0.847500    11.00000    0.08525    0.03963 =
         0.03984   -0.02099    0.01157   -0.01758
AFIX  43
H13   2    0.071004    0.644696    0.883061    11.00000   -1.20000
AFIX   0
C14   1   -0.029726    0.492033    0.747600    11.00000    0.09209    0.03669 =
         0.03908   -0.01616   -0.00055   -0.01637
AFIX  43
H14   2   -0.055323    0.453057    0.712507    11.00000   -1.20000
AFIX   0
C15   1    0.078594    0.125492    0.891747    11.00000    0.05122    0.03004 =
         0.04731   -0.01132   -0.00202   -0.01374
AFIX  23
H15A  2    0.065702    0.091371    0.846827    11.00000   -1.20000
H15B  2   -0.001111    0.106075    0.942120    11.00000   -1.20000
AFIX   0
C16   1    0.641652    0.745763    0.887058    11.00000    0.05390    0.02710 =
         0.06711   -0.02502   -0.00320   -0.00583
AFIX  43
H16   2    0.717916    0.677815    0.918312    11.00000   -1.20000
AFIX   0
C17   1   -0.058380    0.875640    0.452951    11.00000    0.06938    0.06999 =
         0.04721   -0.01957    0.01675   -0.01962
AFIX  43
H17   2   -0.171404    0.895373    0.445431    11.00000   -1.20000
AFIX   0
C18   1    0.430680    0.942880    0.800910    11.00000    0.06676    0.02875 =
         0.07063   -0.02489   -0.01232   -0.00407
AFIX  43
H18   2    0.356294    1.012008    0.770203    11.00000   -1.20000
AFIX   0
C19   1    0.470494    0.450953    0.810781    11.00000    0.08591    0.03141 =
         0.07633   -0.02304   -0.01598   -0.00987
AFIX  43
H19   2    0.400589    0.514401    0.766522    11.00000   -1.20000
AFIX   0
C20   1    0.483153    0.344539    0.813782    11.00000    0.08782    0.03269 =
         0.07173   -0.02628   -0.01862   -0.01375
AFIX  43
H20   2    0.419880    0.336418    0.769918    11.00000   -1.20000
AFIX   0
C21   1   -0.007772    0.666759    0.754058    11.00000    0.09458    0.03507 =
         0.03581   -0.01504    0.02166   -0.01728
C22   1    0.413853    0.849625    0.787811    11.00000    0.06878    0.04077 =
         0.07456   -0.03482   -0.02008   -0.00397
AFIX  43
H22   2    0.329233    0.854532    0.748949    11.00000   -1.20000
AFIX   0
C23   1   -0.045619    0.607363    0.704043    11.00000    0.11814    0.03575 =
         0.03360   -0.01118    0.00249   -0.01309
AFIX  43
H23   2   -0.082399    0.646484    0.639866    11.00000   -1.20000
AFIX   0
C24   1   -0.097446    0.851538    0.621443    11.00000    0.12659    0.03178 =
         0.04480   -0.01085    0.03268   -0.01138
AFIX  23
H24A  2   -0.127832    0.930497    0.615567    11.00000   -1.20000
H24B  2   -0.196526    0.828369    0.616320    11.00000   -1.20000
AFIX   0
C25   1    0.268274    0.816855    0.471462    11.00000    0.07246    0.06901 =
         0.04470   -0.01864    0.00047   -0.00215
AFIX  43
H25   2    0.381316    0.795614    0.478842    11.00000   -1.20000
AFIX   0
C26   1    0.658530    0.366420    0.939634    11.00000    0.05737    0.03867 =
         0.06365   -0.03036    0.00245   -0.01461
AFIX  43
H26   2    0.720364    0.371213    0.985973    11.00000   -1.20000
AFIX   0
C27   1    0.173802    0.815697    0.548621    11.00000    0.10223    0.06936 =
         0.03184   -0.01471   -0.00045   -0.00198
AFIX  43
H27   2    0.223149    0.793719    0.608702    11.00000   -1.20000
AFIX   0
HKLF 4

REM  sbk_3znazobpy_0m_a_a.res in P-1
REM R1 =  0.0404 for    4348 Fo > 4sig(Fo)  and  0.0527 for all    5401 data
REM    352 parameters refined using      0 restraints

END

WGHT      0.0698      0.1068

REM Highest difference peak  0.315,  deepest hole -0.304,  1-sigma level  0.062
Q1    1   0.4280  0.1163  0.8551  11.00000  0.05    0.31
Q2    1   0.3572  0.8582  0.6808  11.00000  0.05    0.31
Q3    1   0.0243  0.8984  0.8406  11.00000  0.05    0.29
Q4    1   0.0897  1.0185  0.1862  11.00000  0.05    0.27
Q5    1   0.1243  0.2663  0.7872  11.00000  0.05    0.26
Q6    1  -0.2744  0.8559  0.5985  11.00000  0.05    0.25
Q7    1   0.8928  0.8832  0.8569  11.00000  0.05    0.24
Q8    1  -0.0387  0.8841  0.8026  11.00000  0.05    0.24
Q9    1   0.1994  0.7977  0.5804  11.00000  0.05    0.23
Q10   1   0.3597 -0.0263  1.0315  11.00000  0.05    0.23
Q11   1   0.5582  0.7392  0.8815  11.00000  0.05    0.23
Q12   1   0.6090  0.4204  0.9052  11.00000  0.05    0.23
Q13   1   0.0140  0.1649  1.0904  11.00000  0.05    0.23
Q14   1  -0.0666  0.9156  0.7856  11.00000  0.05    0.22
Q15   1   0.2442  0.8588  0.3691  11.00000  0.05    0.22
Q16   1  -0.2042  0.9175  0.6038  11.00000  0.05    0.22
Q17   1   0.8455  0.1009  1.0756  11.00000  0.05    0.22
Q18   1   0.4800  0.0810  0.9338  11.00000  0.05    0.21
Q19   1  -0.1111  0.7763  0.6961  11.00000  0.05    0.21
Q20   1  -0.1788  0.9861  0.4180  11.00000  0.05    0.21
;
_shelx_res_checksum              92695
_shelx_hkl_file
;
  -1   0   0   30.90    1.70
  -1   0   0   26.00    1.80
  -1   0   0   29.40    1.80
   1   0   0   30.10    1.70
   1   0   0   24.90    1.70
   1   0   0   28.40    1.80
  -2   0   0 4623.34  154.58
  -2   0   0 4283.87  154.58
  -2   0   0 4267.87  154.38
   2   0   0 4652.13  154.58
   2   0   0 4273.27  154.48
   2   0   0 4753.72  154.38
  -3   0   0 1083.29   38.60
  -3   0   0 1093.79   38.30
  -3   0   0 1081.99   38.60
   3   0   0 1102.29   38.70
   3   0   0 1105.09   38.60
   3   0   0 1019.70   38.20
  -4   0   0  364.16   14.40
  -4   0   0  376.56   14.90
   4   0   0  363.36   15.00
   4   0   0  383.06   14.40
  -5   0   0  489.15   18.80
  -5   0   0  420.26   17.80
   5   0   0  498.15   18.90
   5   0   0  463.15   17.90
   5   0   0  472.35   18.70
  -6   0   0  130.19    7.10
  -6   0   0  145.19    8.20
   6   0   0  135.29    8.10
   6   0   0  138.39    8.10
  -7   0   0   24.80    3.60
  -7   0   0   20.10    3.90
   7   0   0   23.80    4.50
   7   0   0   21.60    4.20
  -8   0   0   29.10    4.90
   8   0   0   18.90    5.30
   8   0   0   27.70    5.20
  -9   0   0    3.40    4.10
   9   0   0   -1.40    4.60
   9   0   0    2.30    4.30
   9  -1   0   35.80    6.80
   9  -1   0   30.80    6.00
  -9   1   0   28.50    5.50
   8  -1   0   28.20    5.10
   8  -1   0   31.80    5.80
  -8   1   0   36.80    5.40
   7  -1   0  104.99    7.90
   7  -1   0  117.29    8.40
  -7   1   0  117.49    8.00
  -7   1   0  105.99    6.80
   6  -1   0   49.30    5.40
   6  -1   0   52.79    5.40
  -6   1   0   62.09    4.50
  -6   1   0   60.79    5.50
   5  -1   0  174.88    8.40
  -5   1   0  140.09    7.50
  -5   1   0  173.48    8.30
   4  -1   0  205.98    9.80
   4  -1   0  227.78   10.10
  -4   1   0  219.28    9.40
  -4   1   0  225.78    9.80
   3  -1   0   23.80    2.40
   3  -1   0   22.70    2.60
  -3   1   0   19.50    2.40
  -3   1   0   28.20    2.30
   2  -1   0  116.49    5.30
   2  -1   0  113.99    5.10
   2  -1   0  120.69    5.40
  -2   1   0  115.99    5.30
  -2   1   0  116.09    5.30
  -2   1   0  117.89    5.10
   1  -1   0  560.14   19.60
   1  -1   0  545.95   19.60
  -1   1   0  532.45   19.60
  -1   1   0  560.24   19.50
  -1   1   0  569.84   19.70
  -1   1   0  540.25   19.60
   0  -1   0 1025.90   31.80
   0   1   0  808.82   31.80
  -1  -1   0  148.19    5.80
  -1  -1   0  153.18    5.80
   1   1   0  153.48    5.80
   1   1   0  149.69    5.60
   1   1   0  154.68    5.80
  -2  -1   0 2210.38   74.69
  -2  -1   0 2054.09   74.79
  -2  -1   0 2125.09   74.79
   2   1   0 2178.68   74.79
   2   1   0 2168.28   74.79
   2   1   0 2161.08   74.69
  -3  -1   0   -0.50    1.10
  -3  -1   0   -0.70    1.20
  -3  -1   0    1.60    1.40
   3   1   0    0.80    1.50
   3   1   0    0.00    1.20
   3   1   0    1.10    1.10
  -4  -1   0 1029.50   35.20
  -4  -1   0  852.31   34.60
   4   1   0  941.91   35.20
   4   1   0 1004.50   34.80
   4   1   0 1006.00   35.10
  -5  -1   0  170.88    7.90
  -5  -1   0  148.89    7.30
   5   1   0  157.58    7.20
   5   1   0  156.78    8.00
   5   1   0  135.59    7.80
  -6  -1   0  414.36   17.10
  -6  -1   0  387.36   16.30
   6   1   0  406.46   17.20
   6   1   0  420.06   17.40
  -7  -1   0    0.20    2.30
  -7  -1   0    5.30    2.90
   7   1   0    0.00    2.70
   7   1   0    0.20    3.10
  -8  -1   0   26.40    5.00
   8   1   0   18.40    4.60
   8   1   0   32.50    5.70
  -9  -1   0   45.20    6.40
   9   1   0   44.70    7.00
   9   1   0   37.00    5.90
 -10  -1   0   16.50    5.20
  10   1   0   24.30    6.90
  10   1   0   17.10    5.50
   9  -2   0   19.10    5.10
   9  -2   0   20.70    6.20
  -9   2   0   16.80    4.90
   8  -2   0   95.59    9.30
   8  -2   0  108.59    8.70
  -8   2   0  115.39    9.00
   7  -2   0   60.09    6.50
   7  -2   0   70.99    6.90
  -7   2   0   76.09    5.90
  -7   2   0   76.19    6.60
   6  -2   0  129.69    8.10
   6  -2   0  125.89    8.30
  -6   2   0  145.19    8.30
  -6   2   0  146.29    7.60
   5  -2   0  160.78    8.30
  -5   2   0  161.68    8.20
  -5   2   0  138.69    7.40
   4  -2   0  470.85   18.30
  -4   2   0  447.26   17.80
  -4   2   0  471.35   18.20
   3  -2   0  349.17   14.70
  -3   2   0  373.16   14.80
  -3   2   0  401.26   14.60
   2  -2   0  262.87   10.40
   2  -2   0  258.87   10.30
  -2   2   0  273.67   10.10
  -2   2   0  263.47   10.30
  -2   2   0  245.28   10.20
  -2   2   0  252.67   10.40
   1  -2   0 1438.66   52.19
   1  -2   0 1524.95   52.29
   1  -2   0 1567.34   52.29
  -1   2   0 1484.75   52.19
  -1   2   0 1449.26   52.19
  -1   2   0 1510.25   52.29
   0  -2   0   73.49    3.60
   0  -2   0   89.49    3.60
   0  -2   0   75.69    3.50
   0   2   0   76.39    3.50
   0   2   0   75.89    3.60
   0   2   0   78.29    3.60
  -1  -2   0  136.19    5.50
  -1  -2   0  133.09    4.90
   1   2   0  140.39    5.50
   1   2   0  130.69    5.60
  -2  -2   0  280.27   10.80
  -2  -2   0  278.07   10.80
   2   2   0  293.47   10.80
   2   2   0  282.37   10.90
   2   2   0  281.37   10.50
  -3  -2   0   22.00    2.30
   3   2   0   26.70    2.30
   3   2   0   24.00    2.30
   3   2   0   24.50    2.30
   3   2   0   27.40    2.80
  -4  -2   0  826.12   30.30
   4   2   0  813.42   30.00
   4   2   0  846.82   30.10
   4   2   0  808.02   30.30
  -5  -2   0  619.04   23.40
   5   2   0  586.94   23.50
   5   2   0  599.54   23.30
   5   2   0  614.54   23.20
  -6  -2   0  119.89    7.30
   6   2   0  123.49    7.60
   6   2   0  117.49    7.30
  -7  -2   0   28.10    4.40
   7   2   0   23.80    4.30
   7   2   0   30.30    4.70
  -8  -2   0  113.09    8.30
   8   2   0  108.09    8.70
   8   2   0  101.29    8.30
  -9  -2   0   25.10    5.10
   9   2   0   21.90    5.70
   9   2   0   20.50    5.30
 -10  -2   0   16.10    4.90
  10   2   0   19.70    5.60
  10   2   0   19.10    6.30
   9  -3   0   10.30    4.80
   9  -3   0    5.00    4.80
  -9   3   0    5.00    4.20
   8  -3   0    9.30    4.50
   8  -3   0   19.20    4.90
  -8   3   0   16.50    4.40
   7  -3   0    2.40    3.30
   7  -3   0    4.80    3.50
  -7   3   0    3.50    2.70
  -7   3   0    0.00    2.90
   6  -3   0   13.90    3.70
   6  -3   0   13.80    3.60
  -6   3   0   13.90    3.10
  -6   3   0   14.60    3.60
   5  -3   0  180.78    9.30
  -5   3   0  179.08    8.80
  -5   3   0  174.38    9.10
   4  -3   0  166.38    8.60
  -4   3   0  178.78    8.60
  -4   3   0  177.98    8.40
   3  -3   0  435.36   16.90
  -3   3   0  430.16   17.00
  -3   3   0  423.96   16.50
  -3   3   0  423.56   16.70
   2  -3   0   16.40    2.20
  -2   3   0   15.10    2.10
  -2   3   0   16.90    2.00
  -2   3   0   10.80    1.90
   1  -3   0  402.36   15.60
   1  -3   0  425.36   15.60
   1  -3   0  429.06   15.60
  -1   3   0  405.06   15.60
  -1   3   0  425.46   15.50
  -1   3   0  414.76   15.60
   0  -3   0 1517.15   52.59
   0  -3   0 1495.25   52.59
   0  -3   0 1431.66   52.69
   0   3   0 1561.74   52.69
   0   3   0 1495.15   52.69
   0   3   0 1512.85   52.69
  -1  -3   0    6.20    1.40
  -1  -3   0    4.10    1.30
  -1  -3   0    5.00    1.40
   1   3   0    4.70    1.40
   1   3   0    7.00    1.50
   1   3   0    3.40    1.10
  -2  -3   0  260.77   10.50
  -2  -3   0  278.47   10.90
  -2  -3   0  272.87   10.50
   2   3   0  253.37    9.80
   2   3   0  265.57   10.50
   2   3   0  279.97   10.50
  -3  -3   0   31.70    2.90
   3   3   0   30.10    2.70
   3   3   0   37.00    3.00
   3   3   0   31.40    2.50
   3   3   0   32.50    3.00
  -4  -3   0    1.80    1.80
   4   3   0    0.20    1.50
   4   3   0    1.00    1.70
   4   3   0    2.50    1.70
  -5  -3   0   18.20    2.90
   5   3   0   17.70    2.90
   5   3   0   28.80    3.50
  -6  -3   0  133.29    7.60
   6   3   0  132.69    7.70
   6   3   0  122.09    7.40
  -7  -3   0   23.60    4.00
   7   3   0   23.40    4.20
   7   3   0   22.90    4.30
  -8  -3   0  171.18   10.40
   8   3   0  166.88   10.70
   8   3   0  189.48   10.90
  -9  -3   0   15.30    4.50
   9   3   0   24.00    5.60
   9   3   0   25.70    5.30
 -10  -3   0   10.00    5.00
  10   3   0   10.90    6.00
  10   3   0    9.70    4.70
   8  -4   0    3.30    4.20
   8  -4   0    7.60    4.20
  -8   4   0    3.80    3.90
   7  -4   0    4.80    3.60
   7  -4   0    2.50    3.50
  -7   4   0    4.30    3.60
  -7   4   0    9.60    3.20
   6  -4   0   -1.40    2.90
   6  -4   0   -3.60    2.70
  -6   4   0    0.30    2.50
  -6   4   0   -1.70    2.60
   5  -4   0   17.80    3.50
   5  -4   0   15.10    3.30
  -5   4   0   26.10    3.80
  -5   4   0   22.00    3.60
   4  -4   0   98.69    6.10
  -4   4   0   87.39    5.90
  -4   4   0   84.09    5.80
   3  -4   0  331.27   13.70
  -3   4   0  336.77   13.70
  -3   4   0  319.37   14.00
   2  -4   0   89.89    4.90
   2  -4   0   91.09    5.10
  -2   4   0   87.19    5.00
  -2   4   0   90.79    4.80
   1  -4   0    3.80    1.60
   1  -4   0    3.30    1.50
  -1   4   0    2.40    1.40
  -1   4   0    2.40    1.30
  -1   4   0    3.40    1.50
   0  -4   0 1028.40   36.80
   0  -4   0 1036.60   37.00
   0  -4   0  999.00   36.70
   0   4   0  996.00   36.70
   0   4   0 1058.49   36.90
   0   4   0 1068.09   36.80
  -1  -4   0    2.60    1.50
  -1  -4   0    2.40    1.30
  -1  -4   0    2.10    1.40
   1   4   0    4.90    1.40
   1   4   0    2.40    1.30
   1   4   0    1.80    1.20
  -2  -4   0  628.14   22.80
  -2  -4   0  597.14   22.40
   2   4   0  601.64   22.50
  -3  -4   0  169.58    7.40
  -3  -4   0  161.08    7.80
   3   4   0  166.28    7.40
   3   4   0  159.38    7.40
   3   4   0  151.38    6.50
  -4  -4   0    3.70    1.80
  -4  -4   0    0.00    1.80
   4   4   0    2.30    1.40
   4   4   0    0.30    1.60
  -5  -4   0   79.99    5.20
   5   4   0   72.39    4.80
   5   4   0   72.79    5.20
  -6  -4   0   31.60    4.10
   6   4   0   26.20    3.90
   6   4   0   26.80    3.70
  -7  -4   0   55.69    5.90
   7   4   0   51.59    5.60
   7   4   0   47.90    5.40
  -8  -4   0   37.60    5.50
   8   4   0   29.00    5.10
   8   4   0   35.40    5.40
  -9  -4   0   24.50    5.20
   9   4   0   30.00    5.60
   9   4   0   26.60    5.70
 -10  -4   0    0.20    4.20
 -10  -4   0    1.50    4.70
  10   4   0   -3.40    5.10
  10   4   0    1.50    4.30
   8  -5   0   -1.70    4.00
   8  -5   0    1.10    4.10
  -8   5   0    5.00    4.30
   7  -5   0    1.90    3.60
   7  -5   0    2.40    3.70
  -7   5   0    3.80    3.70
  -7   5   0    0.00    3.10
   6  -5   0   54.59    6.00
   6  -5   0   53.29    6.10
  -6   5   0   56.89    6.00
  -6   5   0   54.19    5.90
   5  -5   0   41.20    5.10
   5  -5   0   38.20    4.70
  -5   5   0   44.90    5.10
  -5   5   0   44.70    5.10
   4  -5   0   47.10    5.00
  -4   5   0   67.09    5.20
  -4   5   0   51.69    5.60
   3  -5   0  125.49    6.80
  -3   5   0  116.99    6.70
  -3   5   0  113.49    7.10
   2  -5   0   53.79    4.00
   2  -5   0   48.00    4.00
  -2   5   0   47.80    3.90
   1  -5   0   45.40    3.70
   1  -5   0   52.49    3.80
  -1   5   0   46.30    3.60
   0  -5   0 1181.28   41.90
   0  -5   0 1127.49   41.60
   0   5   0 1153.98   41.70
   0   5   0 1187.68   41.60
  -1  -5   0    5.40    1.70
  -1  -5   0    4.70    1.80
   1   5   0    6.40    1.80
  -2  -5   0  664.33   24.30
  -2  -5   0  660.63   24.80
   2   5   0  654.33   24.40
   2   5   0  640.44   24.20
  -3  -5   0   -3.70    1.90
  -3  -5   0    3.90    1.70
   3   5   0    0.10    1.50
   3   5   0    2.00    0.90
  -4  -5   0    0.50    2.00
  -4  -5   0    4.80    2.00
   4   5   0    2.70    1.80
   4   5   0    1.30    1.30
  -5  -5   0  448.16   19.10
  -5  -5   0  485.65   18.70
   5   5   0  428.96   17.60
   5   5   0  476.95   18.70
  -6  -5   0   85.09    7.00
  -6  -5   0   90.19    6.50
   6   5   0   92.19    6.60
   6   5   0   99.09    6.00
  -7  -5   0  113.99    8.30
  -7  -5   0   84.39    6.70
   7   5   0   96.29    7.30
   7   5   0   91.69    6.80
  -8  -5   0   16.10    4.50
  -8  -5   0   19.50    4.20
   8   5   0   15.90    4.30
   8   5   0   12.70    4.10
  -9  -5   0   14.80    5.10
  -9  -5   0   20.80    4.70
   9   5   0   23.80    5.70
   9   5   0   16.20    4.60
 -10  -5   0   -1.80    3.70
 -10  -5   0    1.10    4.60
  10   5   0    1.10    5.40
  10   5   0    1.60    4.30
   8  -6   0    7.80    5.00
   8  -6   0    8.10    4.80
  -8   6   0    7.20    4.50
   7  -6   0   29.30    5.60
   7  -6   0   28.30    5.60
  -7   6   0   20.60    5.00
   6  -6   0   55.99    6.40
   6  -6   0   38.90    5.50
  -6   6   0   42.90    5.70
  -6   6   0   46.90    6.00
   5  -6   0  100.99    7.50
   5  -6   0   99.79    7.50
  -5   6   0  102.39    7.50
  -5   6   0  107.89    8.30
   4  -6   0   -2.80    2.40
  -4   6   0    2.20    2.50
  -4   6   0    0.90    2.30
   3  -6   0   17.50    3.30
  -3   6   0   14.70    3.40
  -3   6   0   18.80    3.30
   2  -6   0  229.78   10.40
   2  -6   0  225.28   10.30
  -2   6   0  229.78   10.50
   1  -6   0   61.89    4.50
   1  -6   0   56.29    4.30
  -1   6   0   56.29    4.30
   0  -6   0  333.07   13.60
   0  -6   0  358.56   13.90
   0   6   0  311.57   13.60
  -1  -6   0  496.15   19.10
  -1  -6   0  488.95   19.30
   1   6   0  492.95   19.00
  -2  -6   0  195.28    8.90
  -2  -6   0  194.78    9.20
   2   6   0  193.08    8.90
  -3  -6   0    1.80    2.00
  -3  -6   0    0.30    1.70
   3   6   0    2.50    1.80
  -4  -6   0  329.67   13.50
  -4  -6   0  312.47   14.20
   4   6   0  313.07   12.00
   4   6   0  324.77   13.60
  -5  -6   0  362.76   15.90
  -5  -6   0  391.66   17.00
   5   6   0  360.66   16.10
   5   6   0  406.26   14.90
  -6  -6   0  255.87   12.20
  -6  -6   0  264.27   13.50
   6   6   0  249.68   12.60
   6   6   0  273.07   11.50
  -7  -6   0   40.20    5.10
  -7  -6   0   40.20    5.80
   7   6   0   42.50    5.30
   7   6   0   35.50    4.50
  -8  -6   0   -1.20    3.80
  -8  -6   0    1.30    3.30
   8   6   0   -0.40    3.60
   8   6   0    1.50    3.40
  -9  -6   0   -0.50    3.20
  -9  -6   0    2.00    4.50
   9   6   0    6.60    4.20
   9   6   0    3.70    4.30
 -10  -6   0    1.10    5.10
  10   6   0   12.50    4.90
   7  -7   0   16.20    5.00
   7  -7   0   20.40    5.10
  -7   7   0   21.20    5.30
   6  -7   0   21.40    4.80
   6  -7   0   25.40    4.80
  -6   7   0   15.90    4.50
  -6   7   0   25.10    5.10
   5  -7   0    2.30    3.30
   5  -7   0    4.20    3.20
  -5   7   0    6.30    3.60
  -5   7   0    7.00    3.30
   4  -7   0   19.20    3.80
   4  -7   0   23.20    4.30
  -4   7   0   17.00    4.10
  -4   7   0   25.20    4.20
   3  -7   0  157.38    9.10
   3  -7   0  177.48    9.40
  -3   7   0  191.48    9.50
   2  -7   0  305.97   13.40
   2  -7   0  305.57   13.30
  -2   7   0  293.37   13.30
   1  -7   0  211.08    9.90
   1  -7   0  211.28   10.00
  -1   7   0  206.88    9.90
   0  -7   0   17.10    3.00
   0  -7   0   19.30    2.90
   0   7   0   12.80    2.60
  -1  -7   0  143.09    7.30
   1   7   0  138.29    7.40
  -2  -7   0   -1.00    1.70
  -2  -7   0   -1.40    1.80
   2   7   0    2.10    1.70
  -3  -7   0   -0.60    1.90
  -3  -7   0    3.90    2.00
   3   7   0    3.70    2.00
  -4  -7   0   72.39    6.10
  -4  -7   0   78.99    5.50
   4   7   0   86.69    5.80
  -5  -7   0  110.09    7.70
   5   7   0  103.99    5.20
  -6  -7   0   30.10    4.30
  -6  -7   0   33.60    5.20
   6   7   0   38.20    3.90
   6   7   0   39.90    4.80
  -7  -7   0    0.50    3.50
  -7  -7   0    5.50    3.10
   7   7   0    2.80    2.80
   7   7   0    7.70    3.40
  -8  -7   0   22.50    5.60
  -8  -7   0   19.80    4.40
   8   7   0   19.40    4.10
   8   7   0   17.50    4.70
  -9  -7   0   22.30    5.00
  -9  -7   0   19.80    6.00
   9   7   0   15.90    5.00
   7  -8   0   37.10    6.70
   7  -8   0   32.70    6.30
   6  -8   0   17.90    5.20
   6  -8   0   21.00    4.70
  -6   8   0   24.40    5.50
  -6   8   0   21.70    4.90
   5  -8   0    2.70    3.70
   5  -8   0    5.30    3.40
  -5   8   0    5.00    3.50
  -5   8   0    5.80    4.10
   4  -8   0   43.80    5.80
   4  -8   0   45.80    5.30
  -4   8   0   45.00    6.40
  -4   8   0   45.70    5.60
   3  -8   0  414.06   18.40
   3  -8   0  433.16   18.20
   3  -8   0  411.66   17.60
  -3   8   0  446.66   18.50
   2  -8   0  102.89    6.80
   2  -8   0  103.69    6.80
  -2   8   0   86.69    6.40
   1  -8   0  258.17   12.80
   1  -8   0  308.67   13.10
  -1   8   0  285.87   13.00
   0  -8   0   62.09    5.00
   0  -8   0   66.79    5.50
   0   8   0   63.49    5.00
  -1  -8   0   44.50    4.40
  -1  -8   0   49.20    5.10
   1   8   0   38.00    4.30
  -2  -8   0  115.39    7.30
  -2  -8   0  115.09    6.80
   2   8   0  125.69    7.10
  -3  -8   0    8.30    2.90
  -3  -8   0    9.10    2.60
   3   8   0    4.10    2.30
  -4  -8   0   66.19    6.10
   4   8   0   75.89    5.80
  -5  -8   0  117.99    8.40
  -5  -8   0  112.49    7.30
   5   8   0  118.19    7.60
  -6  -8   0    3.10    2.70
  -6  -8   0   -0.60    3.00
   6   8   0    1.50    2.60
   6   8   0    0.70    2.10
  -7  -8   0   23.50    5.30
  -7  -8   0   15.70    3.90
   7   8   0   17.10    4.10
  -8  -8   0   24.60    4.90
  -8  -8   0   21.10    5.40
   8   8   0   14.50    4.50
  -9  -8   0    8.50    4.10
  -9  -8   0    2.80    4.40
   9   8   0    4.10    4.10
   6  -9   0   -0.20    4.50
   6  -9   0    5.90    4.20
  -6   9   0    0.30    4.30
  -6   9   0    1.90    4.10
   5  -9   0    4.20    3.60
   5  -9   0    7.70    4.50
  -5   9   0    5.60    4.50
  -5   9   0    2.70    3.50
   4  -9   0    0.80    3.60
   4  -9   0    5.40    3.10
  -4   9   0   11.30    4.70
  -4   9   0    5.40    3.40
   3  -9   0  106.59    8.10
   3  -9   0  105.49    7.90
   3  -9   0  118.89    7.40
  -3   9   0  108.39    8.10
   2  -9   0    9.80    3.40
   2  -9   0    6.60    3.40
   2  -9   0    6.20    2.40
  -2   9   0    5.40    2.90
   1  -9   0    8.30    2.20
   1  -9   0   10.70    3.30
   1  -9   0    3.80    2.70
  -1   9   0    3.00    2.60
   0  -9   0   11.70    3.30
   0  -9   0   10.40    3.10
   0  -9   0   13.80    2.00
   0   9   0   10.40    2.90
  -1  -9   0   83.29    6.00
  -1  -9   0   76.19    6.40
   1   9   0   79.99    5.80
  -2  -9   0  127.39    8.30
  -2  -9   0  135.49    7.90
   2   9   0  137.49    7.80
  -3  -9   0  268.27   12.30
  -3  -9   0  260.47   13.10
   3   9   0  253.07   12.30
  -4  -9   0  104.69    6.80
  -4  -9   0  109.99    7.90
   4   9   0   85.79    6.80
  -5  -9   0   -3.10    2.80
   5   9   0   -0.20    2.40
  -6  -9   0   28.30    5.40
  -6  -9   0   18.80    4.10
   6   9   0   27.40    4.60
  -7  -9   0   29.90    6.00
  -7  -9   0   38.90    5.40
   7   9   0   38.90    5.80
  -8  -9   0    4.20    3.60
  -8  -9   0    3.00    4.20
   8   9   0    1.80    3.90
  -9  -9   0    6.80    4.60
  -9  -9   0    3.50    4.70
   9   9   0   -1.20    4.00
   5 -10   0   26.00    5.40
   5 -10   0   31.10    6.20
  -5  10   0   31.10    6.00
  -5  10   0   31.70    7.10
   4 -10   0   22.50    4.50
   4 -10   0   19.90    4.90
  -4  10   0   22.70    4.90
  -4  10   0   13.40    5.20
   3 -10   0  130.79    9.50
   3 -10   0  137.69    8.60
   3 -10   0  142.39    9.30
  -3  10   0  141.79    9.40
   2 -10   0  106.49    7.00
   2 -10   0  115.09    8.30
   2 -10   0  113.39    8.10
  -2  10   0  121.69    8.30
   1 -10   0  122.19    8.80
   1 -10   0  128.29    6.90
   1 -10   0  141.29    8.70
  -1  10   0  134.59    8.50
   0 -10   0    7.40    3.50
   0 -10   0    8.30    3.30
   0 -10   0   14.00    2.20
   0  10   0   10.90    3.10
  -1 -10   0    2.70    3.00
  -1 -10   0   -0.30    2.50
   1  10   0    3.70    2.70
  -2 -10   0   50.69    5.30
  -2 -10   0   42.20    5.50
   2  10   0   39.90    5.00
  -3 -10   0  127.79    9.00
  -3 -10   0  142.49    8.20
   3  10   0  118.19    8.00
  -4 -10   0   24.00    4.90
  -4 -10   0   25.20    4.30
   4  10   0   18.90    3.80
  -5 -10   0   37.80    5.00
  -5 -10   0   39.60    6.00
   5  10   0   35.20    5.00
  -6 -10   0  121.29    9.70
   6  10   0  111.59    8.30
  -7 -10   0   22.30    4.70
  -7 -10   0   20.70    5.60
   7  10   0   21.80    4.90
  -8 -10   0    5.00    3.70
  -8 -10   0    7.00    5.00
   8  10   0    7.30    4.40
   4 -11   0    4.60    3.70
   4 -11   0    7.80    4.80
  -4  11   0    8.90    5.60
  -4  11   0    2.80    4.00
   3 -11   0    0.40    3.90
   3 -11   0    1.60    4.00
   3 -11   0    3.80    3.10
  -3  11   0   -1.30    3.30
   2 -11   0   -1.00    2.40
   2 -11   0    1.10    3.30
   2 -11   0    1.60    3.80
  -2  11   0    4.10    3.40
   1 -11   0  185.08   11.60
   1 -11   0  212.98   11.60
  -1  11   0  204.88   11.40
   0 -11   0  140.29    9.60
   0 -11   0  133.29    9.40
   0  11   0  149.09    9.10
  -1 -11   0  218.68   12.20
  -1 -11   0  219.28   11.50
   1  11   0  197.48   11.30
  -2 -11   0    0.50    3.00
  -2 -11   0    3.60    3.50
   2  11   0    2.00    3.00
  -3 -11   0   34.10    4.90
  -3 -11   0   25.70    5.00
   3  11   0   28.70    4.60
  -4 -11   0    0.90    3.50
  -4 -11   0   -1.50    2.60
   4  11   0    5.00    3.20
  -5 -11   0  137.59    9.10
  -5 -11   0  124.29    9.90
   5  11   0  119.99    8.70
  -6 -11   0   82.49    7.20
  -6 -11   0   92.89    9.40
   6  11   0   86.39    8.50
  -7 -11   0   63.59    8.30
  -8 -11   0   -2.90    4.50
  -8 -11   0    5.50    4.10
   8  11   0   10.90    4.80
   3 -12   0    3.80    4.60
  -3  12   0    0.80    4.60
  -3  12   0   -2.10    3.80
   2 -12   0   21.30    4.90
   2 -12   0   17.90    5.10
  -2  12   0   16.60    4.90
   1 -12   0   88.29    8.60
   1 -12   0  116.19    9.30
  -1  12   0   85.69    8.20
   0 -12   0  184.98   11.60
   0 -12   0  178.68   11.70
   0  12   0  206.18   11.60
  -1 -12   0   12.80    4.10
  -1 -12   0   10.50    4.50
   1  12   0   17.80    4.60
  -2 -12   0    2.20    3.50
  -2 -12   0    9.70    4.30
   2  12   0    0.10    3.00
  -3 -12   0    5.80    3.60
  -3 -12   0    4.00    4.00
   3  12   0    3.00    3.20
  -4 -12   0    1.90    3.70
  -4 -12   0    0.00    3.20
   4  12   0   -2.80    2.80
  -5 -12   0  101.29    8.60
  -5 -12   0  117.49   10.40
   5  12   0  103.89    8.50
  -6 -12   0   49.50    7.80
  -6 -12   0   37.70    6.00
   6  12   0   48.20    6.50
  -7 -12   0    2.80    4.80
  -7 -12   0    7.10    4.20
   7  12   0    5.10    4.10
   2 -13   0    6.20    5.30
  -2  13   0   15.30    5.20
   1 -13   0   47.50    7.10
   1 -13   0   50.79    7.50
  -1  13   0   52.29    6.90
   0 -13   0   30.50    5.70
   0 -13   0   22.10    5.70
   0  13   0   31.90    5.60
  -1 -13   0    3.40    4.20
  -1 -13   0    6.10    4.30
   1  13   0    3.00    3.60
  -2 -13   0   43.10    6.80
  -2 -13   0   61.79    7.10
   2  13   0   59.09    7.00
  -3 -13   0   58.19    6.90
  -3 -13   0   64.69    8.10
   3  13   0   73.09    7.80
  -4 -13   0  101.49   10.10
  -4 -13   0   88.49    8.40
   4  13   0   77.79    8.00
  -5 -13   0  137.49   11.40
  -5 -13   0  133.49   10.90
   5  13   0  123.89    9.60
  -6 -13   0   49.50    8.10
   6  13   0   34.10    6.10
   0 -14   0    2.90    4.80
   0  14   0    5.00    4.40
  -1 -14   0   19.50    5.80
   1  14   0   21.30    5.40
  -2 -14   0   54.59    8.00
   2  14   0   65.29    7.90
  -3 -14   0   41.80    7.20
   3  14   0   51.89    6.80
  -4 -14   0   16.30    6.00
   4  14   0   15.60    5.00
   3  14  -1   42.40    6.60
  -3 -14   1   48.40    7.70
   2  14  -1   25.70    5.90
  -2 -14   1   33.60    6.80
  -1 -14   1   49.40    7.70
   5  13  -1    0.40    3.70
  -5 -13   1    5.40    5.00
  -5 -13   1    4.10    4.10
   4  13  -1   23.00    5.20
  -4 -13   1   22.20    5.90
  -4 -13   1   26.30    5.40
   3  13  -1   88.19    8.90
  -3 -13   1   75.59    8.80
  -3 -13   1   78.89    8.20
   2  13  -1  130.09    9.80
  -2 -13   1  111.49    9.20
  -2 -13   1  130.79   10.30
   1  13  -1   45.80    6.50
  -1 -13   1   36.50    6.20
  -1 -13   1   41.60    6.70
   0  13  -1   12.70    4.50
   0 -13   1   13.60    5.10
   0 -13   1    1.20    4.50
  -1  13  -1   17.00    5.00
   1 -13   1   15.40    5.70
   1 -13   1   11.80    5.30
   7  12  -1    7.70    4.50
  -7 -12   1   -4.00    4.60
  -7 -12   1    6.40    4.50
   6  12  -1    2.10    3.70
  -6 -12   1   -0.50    4.80
  -6 -12   1   -1.00    3.60
   5  12  -1    8.50    4.10
  -5 -12   1   13.80    5.20
  -5 -12   1    9.00    4.10
   4  12  -1   43.20    6.00
  -4 -12   1   29.90    6.10
  -4 -12   1   37.10    5.90
   3  12  -1   45.70    6.10
  -3 -12   1   49.20    6.10
  -3 -12   1   34.20    6.20
   2  12  -1  144.89    9.70
  -2 -12   1  138.59   10.30
  -2 -12   1  156.58   10.00
   1  12  -1   28.40    5.40
  -1 -12   1   37.40    6.00
  -1 -12   1   37.40    5.70
   0  12  -1    7.20    3.70
   0 -12   1    5.40    4.40
   0 -12   1    6.60    4.20
  -1  12  -1   83.39    8.30
   1 -12   1   66.29    7.90
   1 -12   1   73.19    8.00
  -2  12  -1   43.50    6.90
   2 -12   1   38.40    6.20
   2 -12   1   33.80    6.10
  -3  12  -1    8.70    5.70
  -3  12  -1   10.30    4.90
   3 -12   1    4.00    5.00
   7  11  -1   14.00    4.70
  -7 -11   1    7.80    4.20
  -7 -11   1   22.30    5.90
   6  11  -1   22.90    5.00
  -6 -11   1   12.30    4.90
  -6 -11   1   26.90    4.90
   5  11  -1  187.18   11.10
  -5 -11   1  174.68   10.80
  -5 -11   1  178.08   12.10
   4  11  -1   33.50    5.30
  -4 -11   1   40.90    5.40
  -4 -11   1   44.80    6.60
   3  11  -1   97.59    7.40
  -3 -11   1   84.79    7.90
  -3 -11   1   85.59    7.60
   2  11  -1   30.50    5.10
  -2 -11   1   34.40    5.20
  -2 -11   1   46.20    6.20
   1  11  -1   23.70    4.70
  -1 -11   1   26.60    4.60
  -1 -11   1   13.50    4.20
   0  11  -1   81.29    7.00
   0 -11   1   75.39    7.50
   0 -11   1   98.99    8.30
  -1  11  -1   71.09    7.40
   1 -11   1   89.49    7.80
   1 -11   1   65.09    7.20
  -2  11  -1   61.49    7.30
   2 -11   1   81.69    7.80
   2 -11   1   70.69    7.40
  -3  11  -1    6.60    5.00
  -3  11  -1   14.60    4.60
   3 -11   1    9.70    5.00
   3 -11   1   11.40    3.80
  -4  11  -1    7.30    4.60
  -4  11  -1    4.10    5.70
   4 -11   1    9.90    4.20
   4 -11   1    7.50    4.70
   8  10  -1   -1.60    3.70
  -8 -10   1   -1.00    4.60
  -8 -10   1   -3.20    3.50
   7  10  -1   22.60    5.10
  -7 -10   1   13.50    5.50
  -7 -10   1   23.70    5.10
   6  10  -1  110.39    8.30
  -6 -10   1  102.79    9.40
  -6 -10   1   93.59    7.70
   5  10  -1  262.47   13.50
  -5 -10   1  256.67   13.00
  -5 -10   1  250.57   14.00
   4  10  -1   13.70    3.50
  -4 -10   1    8.50    3.60
  -4 -10   1    3.40    3.60
   3  10  -1   17.90    4.00
  -3 -10   1   15.90    4.30
  -3 -10   1   14.90    3.80
   2  10  -1   43.70    5.40
  -2 -10   1   40.50    4.90
  -2 -10   1   27.20    4.90
   1  10  -1   10.90    3.30
  -1 -10   1    9.10    3.40
  -1 -10   1   12.30    3.70
   0  10  -1   66.69    6.40
   0 -10   1   68.59    6.50
   0 -10   1   52.69    6.20
  -1  10  -1    2.20    3.10
   1 -10   1    2.00    3.30
   1 -10   1    1.20    3.20
  -2  10  -1    1.80    2.80
   2 -10   1    5.50    3.70
   2 -10   1   -3.10    3.00
  -3  10  -1    4.60    3.60
  -3  10  -1    9.10    5.20
   3 -10   1    6.70    4.10
   3 -10   1    0.80    2.70
   3 -10   1    5.80    3.70
  -4  10  -1    2.90    3.90
  -4  10  -1   -3.50    3.90
   4 -10   1   -0.90    4.10
   4 -10   1    1.80    3.10
  -5  10  -1    0.00    4.90
  -5  10  -1    4.40    4.20
   5 -10   1   11.60    5.30
   5 -10   1    0.50    3.70
   9   9  -1    1.70    4.40
  -9  -9   1   -0.80    4.70
   8   9  -1   -0.90    3.90
  -8  -9   1    2.80    4.60
  -8  -9   1   -1.30    3.30
   7   9  -1   11.10    4.40
  -7  -9   1   13.50    3.90
  -7  -9   1   15.70    5.10
   6   9  -1  126.79    8.80
  -6  -9   1  109.19    9.30
  -6  -9   1  122.69    8.40
  -5  -9   1   98.09    8.30
  -5  -9   1   95.89    7.10
   4   9  -1    3.00    2.70
  -4  -9   1    4.00    2.80
  -4  -9   1    4.30    3.30
   3   9  -1  231.28   12.10
  -3  -9   1  231.68   12.50
  -3  -9   1  276.97   12.30
   2   9  -1   59.49    5.60
  -2  -9   1   60.39    6.10
  -2  -9   1   52.99    5.40
   1   9  -1  191.98    9.90
  -1  -9   1  191.78   10.40
  -1  -9   1  174.58    9.70
   0   9  -1  135.29    8.10
   0  -9   1  135.29    8.30
   0  -9   1  122.99    8.10
  -1   9  -1   89.09    6.60
   1  -9   1   70.99    6.40
   1  -9   1   76.29    6.40
  -2   9  -1    1.10    2.70
   2  -9   1   -2.80    2.80
   2  -9   1   -0.10    2.90
  -3   9  -1   14.80    4.00
  -3   9  -1    6.50    4.40
   3  -9   1    9.90    4.10
   3  -9   1   10.30    3.60
  -4   9  -1   -5.40    4.00
  -4   9  -1    0.90    3.20
   4  -9   1    2.10    3.60
   4  -9   1    4.30    2.90
  -5   9  -1   10.70    5.40
  -5   9  -1   17.10    4.70
   5  -9   1    7.70    3.70
   5  -9   1   19.40    5.30
  -6   9  -1    3.20    4.20
  -6   9  -1    5.50    5.10
   6  -9   1    6.10    4.20
   6  -9   1   11.90    5.30
   9   8  -1   30.20    6.00
  -9  -8   1   23.90    6.30
  -9  -8   1   34.50    6.10
   8   8  -1   35.60    5.90
  -8  -8   1   30.50    6.40
  -8  -8   1   39.30    6.00
   7   8  -1    3.10    3.30
  -7  -8   1   -1.10    2.90
  -7  -8   1   -1.60    3.60
   6   8  -1   94.09    7.40
  -6  -8   1   84.29    7.80
  -6  -8   1   96.79    6.90
   5   8  -1   -1.00    2.50
  -5  -8   1    9.10    3.30
  -5  -8   1   -1.20    2.30
   4   8  -1    1.80    2.30
  -4  -8   1    4.60    2.50
  -4  -8   1    3.10    2.70
   3   8  -1  211.88   10.40
  -3  -8   1  207.88   10.50
  -3  -8   1  210.78   10.90
   2   8  -1  124.39    7.40
  -2  -8   1  118.59    7.30
  -2  -8   1  135.89    8.00
   1   8  -1  298.17   13.60
  -1  -8   1  303.87   13.50
   0   8  -1  359.16   15.60
   0  -8   1  361.36   15.60
   0  -8   1  359.56   15.60
  -1   8  -1   17.20    3.50
   1  -8   1   16.00    3.50
   1  -8   1   16.40    3.40
  -2   8  -1   81.09    6.20
   2  -8   1   83.49    6.30
   2  -8   1   86.89    6.70
  -3   8  -1  184.28   10.50
  -3   8  -1  182.48   11.90
   3  -8   1  187.88   10.00
   3  -8   1  205.28   10.90
  -4   8  -1  107.69    9.30
  -4   8  -1  127.79    8.60
   4  -8   1  115.59    8.40
  -5   8  -1   11.70    4.80
  -5   8  -1   12.20    3.90
   5  -8   1    7.60    3.50
   5  -8   1   17.60    4.80
  -6   8  -1    1.60    3.90
  -6   8  -1   17.00    5.30
   6  -8   1   -0.50    3.40
   6  -8   1   -3.40    4.00
   9   7  -1   25.80    5.50
  -9  -7   1   33.30    5.70
  -9  -7   1   33.70    6.90
   8   7  -1   39.80    5.30
   8   7  -1   47.60    6.40
  -8  -7   1   38.60    6.60
  -8  -7   1   44.50    6.10
   7   7  -1    6.80    2.90
   7   7  -1    4.70    3.30
  -7  -7   1    3.40    3.90
  -7  -7   1    5.80    3.30
   6   7  -1   31.60    4.60
   6   7  -1   28.80    3.40
  -6  -7   1   30.80    4.40
  -6  -7   1   18.80    4.70
   5   7  -1   24.00    3.90
  -5  -7   1   53.29    5.10
  -5  -7   1   42.40    5.40
   4   7  -1   39.60    4.40
  -4  -7   1   41.00    4.90
  -4  -7   1   44.80    4.80
   3   7  -1  125.59    7.30
  -3  -7   1  134.19    7.20
  -3  -7   1  124.59    7.70
   2   7  -1   24.70    3.40
  -2  -7   1   29.90    3.90
  -2  -7   1   27.80    3.60
   1   7  -1  120.49    6.80
  -1  -7   1  116.79    6.70
  -1  -7   1  112.49    6.80
   0   7  -1   -2.10    1.60
   0  -7   1    1.90    2.00
   0  -7   1    3.80    2.10
  -1   7  -1   75.99    5.60
   1  -7   1   86.89    5.70
   1  -7   1   76.99    5.70
  -2   7  -1  302.77   13.50
   2  -7   1  295.57   13.20
   2  -7   1  313.47   13.80
  -3   7  -1  305.77   15.30
  -3   7  -1  308.67   14.10
   3  -7   1  297.17   14.20
   3  -7   1  317.97   13.70
  -4   7  -1  121.99    9.60
  -4   7  -1  128.89    8.60
   4  -7   1  147.19    8.90
  -5   7  -1   32.30    5.80
  -5   7  -1   39.60    5.40
   5  -7   1   36.10    5.50
  -6   7  -1    1.00    3.90
  -6   7  -1    3.90    3.60
   6  -7   1   -1.50    3.00
   6  -7   1   -7.30    3.30
  -7   7  -1    1.40    3.70
   7  -7   1    5.50    4.70
   7  -7   1    2.60    3.90
   9   6  -1   29.10    5.60
   9   6  -1   21.20    5.30
  -9  -6   1   32.60    6.50
  -9  -6   1   29.50    5.50
   8   6  -1    8.00    3.80
   8   6  -1    1.70    3.40
  -8  -6   1    5.00    3.40
  -8  -6   1   14.20    4.80
   7   6  -1   -1.30    2.80
   7   6  -1   -2.80    2.80
  -7  -6   1   -0.50    3.40
  -7  -6   1    3.90    2.90
   6   6  -1  120.99    7.80
   6   6  -1  118.29    6.80
  -6  -6   1  120.39    7.50
  -6  -6   1  112.29    8.60
   5   6  -1  277.37   13.00
   5   6  -1  298.87   11.70
  -5  -6   1  287.97   13.00
  -5  -6   1  289.07   14.00
   4   6  -1 1111.79   42.20
  -4  -6   1 1135.99   42.90
  -4  -6   1 1190.18   42.10
   3   6  -1  115.69    6.40
  -3  -6   1  100.99    6.50
   2   6  -1  242.08   10.40
  -2  -6   1  226.58   10.60
  -2  -6   1  223.38   10.40
   1   6  -1   78.99    5.00
  -1  -6   1   77.49    5.20
  -1  -6   1   85.49    5.30
   0   6  -1   46.00    4.00
   0  -6   1   50.89    4.30
   0  -6   1   49.60    4.20
  -1   6  -1  193.88    9.10
   1  -6   1  181.98    9.10
   1  -6   1  201.98    9.10
  -2   6  -1  332.77   14.10
   2  -6   1  318.67   13.60
   2  -6   1  337.37   14.20
  -3   6  -1   70.09    6.90
  -3   6  -1   88.09    5.90
   3  -6   1   80.99    5.80
   3  -6   1   89.49    6.20
  -4   6  -1  127.69    8.70
  -4   6  -1  110.39    7.60
   4  -6   1  117.99    7.90
  -5   6  -1   28.40    4.60
  -5   6  -1   23.60    5.10
   5  -6   1   22.80    4.50
  -6   6  -1    0.70    3.40
  -6   6  -1   -0.80    3.50
   6  -6   1   -1.20    3.30
   6  -6   1    0.20    2.90
  -7   6  -1   49.40    6.70
  -7   6  -1   64.49    7.30
   7  -6   1   71.79    7.40
   7  -6   1   64.79    7.30
  10   5  -1   12.20    5.10
  10   5  -1   16.80    6.00
 -10  -5   1   16.00    6.00
   9   5  -1   -9.50    4.00
   9   5  -1   -0.60    3.70
  -9  -5   1    3.30    3.90
  -9  -5   1    4.10    4.40
   8   5  -1   -1.20    3.40
   8   5  -1    1.00    3.30
  -8  -5   1    4.00    3.40
   7   5  -1   18.60    3.80
   7   5  -1   20.20    4.10
  -7  -5   1   19.40    3.90
   6   5  -1   82.59    5.60
   6   5  -1   78.69    6.10
  -6  -5   1   70.39    5.90
   5   5  -1  473.95   18.20
   5   5  -1  489.65   19.50
  -5  -5   1  457.35   19.70
  -5  -5   1  475.55   19.10
   4   5  -1  117.79    6.50
   4   5  -1  115.09    5.30
  -4  -5   1  100.09    6.60
  -4  -5   1  103.79    6.20
   3   5  -1  177.48    8.30
  -3  -5   1  168.08    8.10
   2   5  -1  501.75   19.80
  -2  -5   1  529.45   20.10
  -2  -5   1  511.25   19.60
   1   5  -1    7.80    2.00
  -1  -5   1    7.40    1.90
  -1  -5   1    8.60    2.10
   0   5  -1 1157.78   40.20
   0  -5   1 1077.49   40.10
   0  -5   1 1097.49   40.10
  -1   5  -1   13.10    2.50
  -1   5  -1   15.00    2.40
   1  -5   1   10.60    2.20
   1  -5   1   15.30    2.60
  -2   5  -1  247.48   10.90
   2  -5   1  252.67   10.90
   2  -5   1  238.08   10.40
  -3   5  -1   -3.30    1.70
  -3   5  -1    1.20    2.00
   3  -5   1    0.90    2.10
  -4   5  -1    0.00    2.60
  -4   5  -1    0.20    2.10
   4  -5   1    3.40    2.60
  -5   5  -1   63.09    6.10
  -5   5  -1   68.49    6.50
   5  -5   1   56.29    5.90
  -6   5  -1   52.99    6.20
  -6   5  -1   44.40    5.70
   6  -5   1   57.59    6.20
  -7   5  -1   26.00    5.00
  -7   5  -1   25.90    4.90
   7  -5   1   19.30    4.80
   7  -5   1   27.80    5.40
  -8   5  -1    9.00    4.50
   8  -5   1    6.60    4.60
   8  -5   1    8.30    4.60
  10   4  -1    7.40    4.80
  10   4  -1    5.60    5.80
 -10  -4   1   13.80    4.90
   9   4  -1   -5.00    3.50
   9   4  -1   -1.20    4.50
  -9  -4   1    0.20    3.20
   8   4  -1   -0.20    3.20
   8   4  -1    0.40    3.50
  -8  -4   1    0.60    3.10
   7   4  -1    2.50    3.10
   7   4  -1    1.90    3.00
  -7  -4   1    0.90    2.50
   6   4  -1   91.29    6.70
   6   4  -1  106.49    6.70
  -6  -4   1  116.59    6.90
   5   4  -1  266.67   11.80
   5   4  -1  252.07   11.20
  -5  -4   1  270.07   11.90
   4   4  -1  124.99    6.90
   4   4  -1  134.59    6.30
  -4  -4   1  146.09    7.10
   3   4  -1   55.49    4.00
   3   4  -1   61.69    3.20
  -3  -4   1   56.79    4.40
  -3  -4   1   55.59    4.00
  -3  -4   1   58.59    3.10
   2   4  -1   10.80    2.00
   2   4  -1    9.40    1.80
  -2  -4   1   21.30    2.70
  -2  -4   1   12.10    2.20
  -2  -4   1   18.30    1.50
   1   4  -1  678.13   24.60
   1   4  -1  674.73   24.60
  -1  -4   1  674.73   24.80
  -1  -4   1  651.23   24.60
   0   4  -1    2.90    1.40
   0   4  -1    4.30    1.50
   0   4  -1    4.60    1.70
   0  -4   1    4.80    1.70
   0  -4   1    6.40    1.60
  -1   4  -1   66.99    3.90
  -1   4  -1   74.29    4.40
   1  -4   1   72.49    4.10
   1  -4   1   72.49    4.40
  -2   4  -1  500.15   18.30
  -2   4  -1  472.25   18.80
   2  -4   1  505.35   18.80
   2  -4   1  473.15   18.30
  -3   4  -1  109.99    5.50
  -3   4  -1   98.99    6.00
  -3   4  -1  105.19    6.70
   3  -4   1  113.79    6.30
  -4   4  -1  349.87   14.90
  -4   4  -1  354.36   15.40
   4  -4   1  349.96   15.10
  -5   4  -1   56.29    5.60
  -5   4  -1   62.19    5.50
   5  -4   1   65.39    5.80
  -6   4  -1   60.29    6.10
  -6   4  -1   62.59    6.50
   6  -4   1   53.19    6.00
  -7   4  -1    3.40    3.20
  -7   4  -1   -2.00    3.00
   7  -4   1    1.70    3.70
   7  -4   1    0.30    3.20
  -8   4  -1    0.00    3.50
   8  -4   1   -3.40    3.90
   8  -4   1   -1.40    3.60
  10   3  -1    1.60    5.60
  10   3  -1   -0.10    4.10
 -10  -3   1   -0.70    4.20
   9   3  -1   13.70    4.50
   9   3  -1   12.00    5.20
  -9  -3   1   12.60    4.50
   8   3  -1   44.00    5.90
   8   3  -1   40.90    5.50
  -8  -3   1   37.10    5.70
   7   3  -1    8.90    3.50
   7   3  -1   14.70    3.50
  -7  -3   1   18.90    4.00
   6   3  -1  129.69    7.60
   6   3  -1  120.19    7.40
  -6  -3   1  131.69    7.60
   5   3  -1   38.80    4.20
   5   3  -1   45.40    4.10
  -5  -3   1   50.49    4.30
   4   3  -1  293.77   12.30
   4   3  -1  323.57   12.70
   4   3  -1  301.47   12.80
  -4  -3   1  314.67   12.70
   3   3  -1  267.37   10.40
   3   3  -1  267.67   11.00
  -3  -3   1  269.77   11.00
   2   3  -1   -0.10    0.90
   2   3  -1    0.80    1.20
   2   3  -1    2.70    1.40
  -2  -3   1   -0.50    1.20
  -2  -3   1   -0.30    1.30
  -2  -3   1    1.10    1.30
  -2  -3   1    0.10    0.80
   1   3  -1  434.76   16.60
   1   3  -1  435.26   16.50
  -1  -3   1  451.35   16.60
  -1  -3   1  458.25   16.70
  -1  -3   1  441.46   16.60
   0   3  -1   89.69    4.30
   0   3  -1   78.79    4.40
   0   3  -1   93.89    4.40
   0  -3   1   91.89    4.40
   0  -3   1   87.39    4.40
   0  -3   1   90.49    4.50
  -1   3  -1  446.56   17.00
  -1   3  -1  433.36   16.80
  -1   3  -1  445.56   16.60
   1  -3   1  456.75   16.60
   1  -3   1  473.45   17.00
  -2   3  -1   19.50    2.50
  -2   3  -1   21.60    3.10
  -2   3  -1   16.80    1.90
   2  -3   1   19.20    2.60
   2  -3   1   19.60    2.10
  -3   3  -1  244.28    9.60
  -3   3  -1  219.08   10.10
  -3   3  -1  241.08   10.90
   3  -3   1  223.98   10.20
  -4   3  -1  150.78    7.90
  -4   3  -1  141.49    7.90
   4  -3   1  166.58    8.20
  -5   3  -1   54.89    5.20
  -5   3  -1   60.69    5.50
   5  -3   1   47.00    5.00
  -6   3  -1    1.60    2.70
  -6   3  -1    0.90    2.30
   6  -3   1    0.20    2.80
  -7   3  -1    2.40    3.00
  -7   3  -1    8.40    3.70
   7  -3   1    0.10    3.20
   7  -3   1   -1.70    3.10
  -8   3  -1   14.40    4.50
   8  -3   1   17.50    4.80
   8  -3   1   14.20    4.50
  -9   3  -1    3.40    4.30
   9  -3   1   -0.60    4.70
   9  -3   1   -1.40    4.30
  10   2  -1    9.80    4.90
  10   2  -1    0.00    5.50
 -10  -2   1    3.10    4.70
   9   2  -1   24.10    5.40
   9   2  -1   24.10    5.80
  -9  -2   1   23.30    5.20
   8   2  -1  149.99   10.00
   8   2  -1  141.79   10.00
  -8  -2   1  151.18    9.50
   7   2  -1   13.40    3.70
   7   2  -1    9.20    3.50
  -7  -2   1   10.40    3.20
   6   2  -1    0.50    2.60
   6   2  -1    1.50    2.50
  -6  -2   1    1.40    2.10
   5   2  -1  160.18    7.40
   5   2  -1  163.28    8.30
   5   2  -1  162.88    8.20
  -5  -2   1  165.98    8.10
   4   2  -1   75.09    4.80
   4   2  -1   73.69    4.70
   4   2  -1   79.99    4.40
  -4  -2   1   73.99    4.80
   3   2  -1   57.79    3.60
   3   2  -1   66.49    3.70
   3   2  -1   65.39    4.00
  -3  -2   1   76.79    4.10
   2   2  -1    6.80    1.60
   2   2  -1    8.00    1.50
   2   2  -1    6.40    1.30
  -2  -2   1    6.30    1.40
  -2  -2   1    6.00    1.20
  -2  -2   1    6.00    1.50
   1   2  -1  197.68    7.90
   1   2  -1  196.98    7.80
  -1  -2   1  201.68    7.90
  -1  -2   1  187.48    7.90
  -1  -2   1  199.28    7.30
  -1  -2   1  207.38    7.90
   0   2  -1   35.10    2.30
   0   2  -1   26.40    2.30
   0   2  -1   37.80    2.20
   0  -2   1   28.90    2.30
   0  -2   1   35.10    2.40
   0  -2   1   39.40    2.20
  -1   2  -1  234.98    8.60
  -1   2  -1  210.88    9.00
  -1   2  -1  237.58    9.10
   1  -2   1  226.48    9.10
   1  -2   1  224.18    8.70
   1  -2   1  245.88    9.10
  -2   2  -1   20.40    2.20
  -2   2  -1   22.90    2.00
  -2   2  -1   19.90    2.30
  -2   2  -1   20.10    2.50
   2  -2   1   22.90    2.30
   2  -2   1   21.30    2.40
  -3   2  -1  862.11   30.30
  -3   2  -1  826.22   29.70
  -3   2  -1  827.42   30.40
   3  -2   1  786.22   30.20
  -4   2  -1  407.96   16.20
  -4   2  -1  406.16   16.30
   4  -2   1  390.96   16.30
  -5   2  -1  127.99    7.40
  -5   2  -1  123.99    7.10
   5  -2   1  139.49    7.60
  -6   2  -1    5.50    2.90
  -6   2  -1    6.60    2.70
   6  -2   1    4.30    2.90
  -7   2  -1   58.09    6.00
  -7   2  -1   67.29    6.50
   7  -2   1   63.29    6.70
   7  -2   1   62.49    6.20
  -8   2  -1   46.60    6.10
   8  -2   1   44.60    6.70
   8  -2   1   60.89    7.00
  -9   2  -1   34.20    6.20
   9  -2   1   29.20    6.40
   9  -2   1   36.70    6.10
  10   1  -1   21.70    6.00
  10   1  -1   29.00    7.00
 -10  -1   1   12.90    4.90
   9   1  -1   39.10    6.20
   9   1  -1   52.69    7.30
  -9  -1   1   49.60    6.70
   8   1  -1  103.49    8.00
   8   1  -1   88.39    8.30
  -8  -1   1   79.49    7.80
   7   1  -1   18.20    4.20
   7   1  -1   23.30    4.00
  -7  -1   1   31.10    4.60
   6   1  -1   14.50    3.10
   6   1  -1   14.50    3.60
   6   1  -1    9.90    2.50
  -6  -1   1    9.90    2.90
   5   1  -1   56.79    3.60
   5   1  -1   48.80    4.60
   5   1  -1   58.19    4.60
  -5  -1   1   66.09    4.80
   4   1  -1  425.96   16.40
   4   1  -1  393.96   15.50
   4   1  -1  425.36   16.40
  -4  -1   1  422.36   16.50
   3   1  -1  155.98    6.70
   3   1  -1  144.79    6.70
   3   1  -1  152.08    7.00
   3   1  -1  147.39    6.20
  -3  -1   1  139.99    6.70
  -3  -1   1  154.98    6.70
   2   1  -1  278.47   11.20
   2   1  -1  296.97   11.10
   2   1  -1  313.37   11.30
  -2  -1   1  314.47   11.30
  -2  -1   1  269.97   11.20
  -2  -1   1  300.77   11.10
   1   1  -1    1.60    0.80
   1   1  -1    2.00    0.90
   1   1  -1    0.60    0.70
  -1  -1   1    2.20    0.90
  -1  -1   1    0.30    0.70
  -1  -1   1    1.50    0.80
   0   1  -1   55.69    2.40
   0   1  -1   59.29    2.60
   0  -1   1   51.09    2.40
   0  -1   1   56.79    2.60
   0  -1   1   54.99    2.50
  -1   1  -1  414.16   15.20
  -1   1  -1  411.26   14.50
  -1   1  -1  399.66   14.90
  -1   1  -1  395.56   14.90
   1  -1   1  428.06   14.90
   1  -1   1  393.66   14.50
   1  -1   1  414.76   15.20
   1  -1   1  421.56   14.90
  -2   1  -1  117.69    5.50
  -2   1  -1  126.39    5.60
  -2   1  -1  134.79    5.80
   2  -1   1  128.19    5.60
   2  -1   1  118.69    5.70
   2  -1   1  119.29    5.70
  -3   1  -1   18.60    2.40
  -3   1  -1   15.20    2.20
   3  -1   1   16.90    2.50
   3  -1   1   12.90    2.10
  -4   1  -1  198.48    9.00
  -4   1  -1  190.48    8.90
   4  -1   1  205.48    9.20
  -5   1  -1   17.40    3.00
  -5   1  -1   18.10    2.90
   5  -1   1   14.00    3.00
  -6   1  -1    1.60    2.20
  -6   1  -1    2.30    2.40
   6  -1   1   -4.20    2.10
  -7   1  -1   53.19    5.30
  -7   1  -1   67.19    6.40
   7  -1   1   43.60    5.60
   7  -1   1   49.60    5.80
  -8   1  -1    1.80    3.20
   8  -1   1    0.00    3.20
   8  -1   1   -5.10    3.60
  -9   1  -1   27.30    5.40
   9  -1   1   17.90    5.20
   9  -1   1   29.30    6.40
   9   0  -1    9.20    4.40
   9   0  -1    5.10    5.20
  -9   0   1   11.90    4.70
   8   0  -1    2.80    4.00
   8   0  -1    2.90    3.80
  -8   0   1   -2.40    3.00
   7   0  -1   -0.70    3.10
   7   0  -1   -3.80    2.70
  -7   0   1   -1.10    2.00
  -7   0   1   -1.00    2.60
   6   0  -1  211.78   10.50
   6   0  -1  180.58   10.00
   6   0  -1  193.68    8.90
  -6   0   1  211.68   10.10
  -6   0   1  188.78    8.80
   5   0  -1  157.88    7.80
   5   0  -1  138.69    6.50
   5   0  -1  139.19    7.90
  -5   0   1  134.89    6.50
  -5   0   1  149.59    7.50
   4   0  -1  656.53   24.90
   4   0  -1  718.53   25.90
   4   0  -1  686.93   25.90
  -4   0   1  706.63   25.80
  -4   0   1  691.43   24.90
   3   0  -1 1072.29   38.90
   3   0  -1 1151.28   38.20
   3   0  -1 1114.49   38.90
  -3   0   1 1118.69   38.20
  -3   0   1 1005.10   38.80
  -3   0   1 1056.59   38.80
   2   0  -1    6.50    1.50
   2   0  -1    7.30    1.00
   2   0  -1    4.70    1.60
   2   0  -1    8.20    1.60
  -2   0   1    7.90    1.50
  -2   0   1    7.10    1.50
  -2   0   1    5.60    1.10
   1   0  -1  498.05   17.10
   1   0  -1  445.16   17.10
   1   0  -1  477.25   17.10
  -1   0   1  454.85   17.10
  -1   0   1  473.15   17.10
  -1   0   1  461.45   17.10
   0   0  -1   -0.40    0.10
   0   0   1    0.00    0.20
  -1   0  -1 3773.82  130.09
  -1   0  -1 3773.92  130.19
  -1   0  -1 3798.72  129.49
   1   0   1 3810.02  130.29
   1   0   1 3696.53  129.49
   1   0   1 3692.23  129.49
  -2   0  -1 3726.73  133.69
  -2   0  -1 3940.61  133.69
  -2   0  -1 3746.53  133.79
   2   0   1 3940.31  133.79
   2   0   1 3971.90  133.89
   2   0   1 3874.31  133.69
  -3   0  -1   57.79    3.50
  -3   0  -1   55.79    3.70
   3   0   1   57.09    3.60
   3   0   1   49.20    3.60
   3   0   1   56.69    3.40
  -4   0  -1  180.68    8.30
  -4   0  -1  171.88    8.00
   4   0   1  180.78    8.10
   4   0   1  177.18    8.20
  -5   0  -1   15.50    2.70
  -5   0  -1   22.60    3.00
   5   0   1   14.60    2.90
  -6   0  -1   11.40    2.80
  -6   0  -1    7.60    2.80
   6   0   1   11.60    3.30
  -7   0  -1   37.20    5.10
  -7   0  -1   41.20    4.70
   7   0   1   33.50    5.00
   7   0   1   42.70    5.20
  -8   0  -1   11.90    3.90
  -8   0  -1   10.80    3.60
   8   0   1   16.30    4.60
   8   0   1   10.30    4.00
  -9   0  -1   18.20    4.80
   9   0   1   23.60    5.60
   9   0   1   20.40    6.00
   9  -1  -1    8.20    5.10
   9  -1  -1    5.90    4.60
  -9   1   1    6.40    4.20
   8  -1  -1   -1.50    3.90
   8  -1  -1    0.80    3.80
  -8   1   1   -0.20    3.20
   7  -1  -1   72.59    6.60
   7  -1  -1   60.49    6.80
  -7   1   1   67.89    4.90
  -7   1   1   57.39    6.20
   6  -1  -1  238.38   10.90
   6  -1  -1  198.28   10.80
   6  -1  -1  201.88    9.30
  -6   1   1  189.58    9.10
  -6   1   1  217.58   10.60
   5  -1  -1  349.87   14.10
   5  -1  -1  369.66   15.40
   5  -1  -1  349.07   15.10
  -5   1   1  370.96   14.10
  -5   1   1  354.86   15.00
   4  -1  -1   76.49    5.10
   4  -1  -1   63.19    4.50
   4  -1  -1   70.89    4.80
  -4   1   1   53.49    3.50
  -4   1   1   60.29    4.30
   3  -1  -1    1.70    1.60
   3  -1  -1    4.10    1.70
   3  -1  -1    3.70    1.20
  -3   1   1    3.30    1.60
  -3   1   1    3.20    1.10
  -3   1   1    4.50    1.70
   2  -1  -1  553.34   20.60
   2  -1  -1  569.74   20.60
   2  -1  -1  553.54   20.70
  -2   1   1  578.04   20.60
  -2   1   1  536.75   20.60
  -2   1   1  607.64   20.10
   1  -1  -1  386.86   13.40
   1  -1  -1  366.96   13.50
   1  -1  -1  364.06   13.40
  -1   1   1  378.56   13.40
  -1   1   1  370.76   13.50
  -1   1   1  360.56   13.40
   0  -1  -1  700.53   26.50
   0  -1  -1  810.02   26.30
   0   1   1  769.62   26.60
  -1  -1  -1 3044.30  106.69
  -1  -1  -1 3096.69  105.99
  -1  -1  -1 3015.20  105.99
  -1  -1  -1 3131.29  106.29
   1   1   1 3222.08  105.99
   1   1   1 3041.10  106.39
   1   1   1 3014.30  105.99
   1   1   1 3037.80  106.29
  -2  -1  -1 1295.77   45.10
  -2  -1  -1 1263.67   45.10
  -2  -1  -1 1237.18   45.20
   2   1   1 1287.27   45.30
   2   1   1 1342.47   45.10
   2   1   1 1293.97   45.10
  -3  -1  -1    0.90    1.30
  -3  -1  -1    0.40    1.30
   3   1   1    2.40    1.30
   3   1   1    1.50    1.20
   3   1   1    2.30    1.50
  -4  -1  -1   29.80    3.10
  -4  -1  -1   21.40    2.70
   4   1   1   21.20    2.90
   4   1   1   26.40    2.80
  -5  -1  -1   19.00    3.10
  -5  -1  -1   16.60    2.70
   5   1   1   12.70    2.60
  -6  -1  -1  391.66   16.30
  -6  -1  -1  389.26   16.70
   6   1   1  411.46   17.00
  -7  -1  -1    4.90    2.80
  -7  -1  -1    5.60    2.80
   7   1   1    5.20    3.20
   7   1   1    8.40    3.50
  -8  -1  -1    6.20    3.70
  -8  -1  -1   12.40    3.90
   8   1   1    9.80    4.40
   8   1   1    7.20    4.00
  -9  -1  -1   -2.70    3.20
   9   1   1    7.20    5.20
   9   1   1    0.20    3.60
 -10  -1  -1   -0.70    4.40
  10   1   1   -7.30    3.40
  10   1   1   -1.80    5.60
   9  -2  -1   -3.00    4.00
   9  -2  -1   -0.50    4.70
  -9   2   1   -8.30    3.40
   8  -2  -1   31.00    5.90
   8  -2  -1   35.00    5.50
  -8   2   1   27.80    5.30
   7  -2  -1   66.49    6.40
   7  -2  -1   48.30    6.20
  -7   2   1   62.49    6.40
  -7   2   1   67.19    5.10
   6  -2  -1  177.58    9.90
   6  -2  -1  183.18   10.40
  -6   2   1  183.48    8.80
  -6   2   1  200.98    9.90
   5  -2  -1   42.50    4.40
   5  -2  -1   43.20    4.60
  -5   2   1   48.50    3.60
  -5   2   1   46.60    4.60
   4  -2  -1   58.39    4.50
   4  -2  -1   56.99    4.70
  -4   2   1   57.89    4.40
  -4   2   1   66.99    3.80
   3  -2  -1  708.83   25.70
   3  -2  -1  710.53   25.60
  -3   2   1  651.53   25.70
  -3   2   1  682.23   25.10
  -3   2   1  714.43   25.60
   2  -2  -1    4.20    1.40
   2  -2  -1    4.70    1.60
   2  -2  -1    5.00    1.50
  -2   2   1    5.60    1.50
  -2   2   1    2.40    1.40
  -2   2   1    3.40    1.10
  -2   2   1    3.50    1.20
   1  -2  -1   52.79    2.80
   1  -2  -1   56.39    3.00
   1  -2  -1   48.10    3.00
   1  -2  -1   53.59    2.80
  -1   2   1   55.39    2.80
  -1   2   1   50.09    3.10
   0  -2  -1 1517.45   53.39
   0  -2  -1 1526.75   53.49
   0  -2  -1 1562.14   53.49
   0  -2  -1 1499.85   53.79
   0   2   1 1549.84   53.39
   0   2   1 1581.74   53.49
   0   2   1 1587.44   53.79
   0   2   1 1531.35   53.49
  -1  -2  -1 1164.78   40.30
  -1  -2  -1 1162.18   40.30
  -1  -2  -1 1138.09   40.60
   1   2   1 1150.08   40.30
   1   2   1 1142.09   40.30
   1   2   1 1186.48   40.60
  -2  -2  -1  329.67   12.20
  -2  -2  -1  306.57   12.30
  -2  -2  -1  336.07   12.00
  -2  -2  -1  323.37   12.00
   2   2   1  310.67   12.30
   2   2   1  310.87   11.90
   2   2   1  319.87   12.00
  -3  -2  -1   63.09    4.00
  -3  -2  -1   75.59    4.00
   3   2   1   65.19    4.00
   3   2   1   70.09    4.00
   3   2   1   69.99    3.90
  -4  -2  -1   21.30    2.80
  -4  -2  -1   22.30    2.80
   4   2   1   20.50    2.60
   4   2   1   19.50    2.70
  -5  -2  -1  210.18    9.60
  -5  -2  -1  201.98    9.50
   5   2   1  204.88    9.70
  -6  -2  -1  462.85   19.10
  -6  -2  -1  493.95   19.60
   6   2   1  467.95   19.20
   6   2   1  482.55   19.60
  -7  -2  -1   22.50    4.00
  -7  -2  -1   38.20    4.90
   7   2   1   32.20    4.70
   7   2   1   32.80    4.60
  -8  -2  -1   -2.90    3.20
  -8  -2  -1    5.60    3.10
   8   2   1    0.00    3.90
   8   2   1    2.50    3.40
  -9  -2  -1   11.70    4.40
   9   2   1    9.50    4.40
   9   2   1    6.90    5.10
 -10  -2  -1    8.50    4.70
  10   2   1    6.00    4.70
  10   2   1   20.50    6.50
   9  -3  -1    8.20    4.50
   9  -3  -1    5.60    5.00
  -9   3   1    5.50    4.30
   8  -3  -1   18.20    5.10
   8  -3  -1   17.40    4.80
  -8   3   1   21.00    5.00
   7  -3  -1   14.10    4.00
   7  -3  -1    7.90    3.90
  -7   3   1   15.20    3.90
  -7   3   1   10.50    3.40
   6  -3  -1   25.90    4.30
   6  -3  -1   15.90    3.50
  -6   3   1   22.90    3.30
  -6   3   1   21.10    4.00
   5  -3  -1   41.90    4.70
   5  -3  -1   34.70    4.20
  -5   3   1   43.80    3.60
  -5   3   1   31.00    4.00
   4  -3  -1  185.78    9.20
   4  -3  -1  194.98    9.10
  -4   3   1  187.18    8.90
  -4   3   1  189.88    8.50
   3  -3  -1  270.67   11.30
   3  -3  -1  267.17   11.10
  -3   3   1  273.47   11.00
  -3   3   1  249.58   11.00
   2  -3  -1   13.80    2.10
   2  -3  -1   20.30    2.40
  -2   3   1   15.50    2.10
  -2   3   1   19.80    2.20
  -2   3   1   18.50    2.30
   1  -3  -1  535.75   19.50
   1  -3  -1  518.05   19.70
   1  -3  -1  527.95   19.50
   1  -3  -1  557.94   19.50
  -1   3   1  539.15   19.50
  -1   3   1  536.35   19.60
  -1   3   1  552.34   19.80
   0  -3  -1 2012.70   68.79
   0  -3  -1 1985.40   68.39
   0  -3  -1 1996.80   68.39
   0  -3  -1 2003.80   67.99
   0   3   1 1910.31   68.39
   0   3   1 1887.01   68.69
   0   3   1 1984.40   68.39
  -1  -3  -1  201.38    8.90
  -1  -3  -1  219.58    8.60
   1   3   1  232.58    8.60
   1   3   1  210.78    9.00
   1   3   1  240.98    8.70
  -2  -3  -1  238.88    9.40
  -2  -3  -1  237.98    9.30
  -2  -3  -1  241.78    9.70
   2   3   1  242.18    9.40
   2   3   1  238.68    9.60
   2   3   1  237.68    9.40
  -3  -3  -1  294.27   11.90
  -3  -3  -1  289.87   11.60
   3   3   1  295.17   11.70
   3   3   1  292.67   11.90
   3   3   1  293.57   11.60
  -4  -3  -1    2.30    1.60
   4   3   1    4.00    1.80
  -5  -3  -1  289.77   11.90
   5   3   1  255.27   11.90
  -6  -3  -1   -1.80    1.80
   6   3   1   -0.20    2.40
   6   3   1    1.20    2.30
  -7  -3  -1    7.30    2.90
   7   3   1    6.40    3.20
   7   3   1    7.60    3.30
  -8  -3  -1   93.69    7.30
   8   3   1   81.79    7.80
   8   3   1   87.59    7.60
  -9  -3  -1   24.90    5.00
   9   3   1   26.90    5.50
   9   3   1   14.10    5.10
 -10  -3  -1   25.20    5.70
  10   3   1   15.60    5.40
  10   3   1   25.40    6.50
   9  -4  -1   15.10    5.20
   8  -4  -1   20.20    5.20
   8  -4  -1   29.20    5.70
  -8   4   1   24.10    5.10
   7  -4  -1   18.10    4.20
   7  -4  -1   17.20    4.70
  -7   4   1   18.10    4.20
   6  -4  -1   25.90    4.70
   6  -4  -1   44.80    5.30
  -6   4   1   39.20    4.40
  -6   4   1   35.30    4.90
   5  -4  -1    4.30    2.60
   5  -4  -1   -0.60    2.10
  -5   4   1    4.40    2.10
  -5   4   1    3.10    2.20
   4  -4  -1  130.79    7.60
   4  -4  -1  140.09    7.70
  -4   4   1  142.69    7.50
  -4   4   1  148.49    7.40
   3  -4  -1    1.10    1.80
   3  -4  -1    0.50    1.80
  -3   4   1    1.60    1.70
  -3   4   1    1.80    1.80
   2  -4  -1   31.90    3.10
   2  -4  -1   36.30    3.20
   2  -4  -1   36.70    3.40
  -2   4   1   41.60    3.00
  -2   4   1   33.20    3.20
   1  -4  -1   30.60    2.90
   1  -4  -1   28.70    2.40
   1  -4  -1   29.40    2.60
  -1   4   1   28.70    2.40
  -1   4   1   34.90    3.00
  -1   4   1   28.80    2.60
   0  -4  -1  391.96   14.80
   0  -4  -1  382.16   13.80
   0  -4  -1  379.16   14.40
   0  -4  -1  368.26   14.30
   0   4   1  378.36   14.40
   0   4   1  406.76   14.80
   0   4   1  374.96   14.40
  -1  -4  -1 2512.05   86.69
  -1  -4  -1 2480.45   87.09
  -1  -4  -1 2490.65   86.59
   1   4   1 2469.65   86.59
   1   4   1 2510.55   87.09
   1   4   1 2482.25   86.59
  -2  -4  -1  308.87   12.50
  -2  -4  -1  307.67   11.90
   2   4   1  311.87   12.00
   2   4   1  305.17   12.00
  -3  -4  -1  103.09    5.40
  -3  -4  -1  106.29    5.90
   3   4   1  111.39    5.30
   3   4   1  109.99    4.70
   3   4   1  101.99    5.30
  -4  -4  -1  200.68    9.40
  -4  -4  -1  197.58    8.80
   4   4   1  195.08    9.00
   4   4   1  198.18    8.30
  -5  -4  -1   93.59    5.80
  -5  -4  -1  103.19    6.40
   5   4   1  100.79    6.00
   5   4   1   93.09    5.50
  -6  -4  -1   23.70    3.60
   6   4   1   18.40    3.30
   6   4   1   20.00    3.40
  -7  -4  -1   29.50    4.40
   7   4   1   28.80    4.50
   7   4   1   37.10    4.80
  -8  -4  -1   36.10    5.20
   8   4   1   26.80    4.80
   8   4   1   38.10    5.50
  -9  -4  -1   64.49    7.70
  -9  -4  -1   84.59    8.10
   9   4   1   70.69    7.50
   9   4   1   89.19    8.30
 -10  -4  -1   13.10    5.30
 -10  -4  -1    9.80    4.80
  10   4   1    3.50    5.60
  10   4   1    3.50    4.40
   8  -5  -1    7.40    4.30
   8  -5  -1    5.00    4.40
  -8   5   1   -5.60    3.20
   7  -5  -1    7.70    4.10
   7  -5  -1   11.20    4.40
  -7   5   1    8.10    3.70
   6  -5  -1    7.70    3.80
   6  -5  -1    6.40    3.40
  -6   5   1    5.60    3.20
  -6   5   1    7.40    2.90
   5  -5  -1    3.30    2.70
   5  -5  -1    5.00    2.80
  -5   5   1    0.60    2.50
  -5   5   1    9.70    2.80
   4  -5  -1  320.17   14.10
   4  -5  -1  315.27   14.00
  -4   5   1  334.47   14.30
  -4   5   1  320.47   14.00
   3  -5  -1    4.70    2.10
   3  -5  -1    2.10    2.00
  -3   5   1    3.60    2.00
   2  -5  -1  224.68   10.00
   2  -5  -1  223.18    9.70
   2  -5  -1  222.48   10.00
  -2   5   1  241.98   10.00
   1  -5  -1   23.10    2.60
   1  -5  -1   22.10    2.30
   1  -5  -1   19.70    2.70
  -1   5   1   18.30    2.40
  -1   5   1   21.90    2.50
   0  -5  -1  292.97   11.40
   0  -5  -1  291.67   10.70
   0  -5  -1  283.17   11.80
   0   5   1  277.57   11.50
   0   5   1  287.17   11.40
  -1  -5  -1  926.21   31.90
  -1  -5  -1  874.61   32.40
   1   5   1  854.71   31.90
  -2  -5  -1  854.91   32.10
   2   5   1  897.21   31.70
   2   5   1  868.31   31.50
  -3  -5  -1   19.80    2.90
  -3  -5  -1   16.60    2.40
   3   5   1   18.90    2.50
   3   5   1   20.20    2.50
   3   5   1   19.20    1.60
  -4  -5  -1  135.09    7.30
   4   5   1  126.09    6.70
   4   5   1  125.29    5.80
  -5  -5  -1   27.10    4.00
  -5  -5  -1   35.50    3.80
   5   5   1   21.90    2.90
   5   5   1   35.30    3.90
  -6  -5  -1    3.30    2.20
  -6  -5  -1    0.80    2.40
   6   5   1    2.10    2.40
   6   5   1    4.70    2.50
  -7  -5  -1   76.59    6.10
  -7  -5  -1   68.89    7.00
   7   5   1   65.99    6.00
   7   5   1   70.79    6.80
  -8  -5  -1   82.69    7.60
  -8  -5  -1   92.29    8.40
   8   5   1   97.19    8.20
   8   5   1   97.69    7.80
  -9  -5  -1   57.09    6.80
  -9  -5  -1   46.40    6.80
   9   5   1   69.19    7.50
   9   5   1   65.09    7.20
 -10  -5  -1   11.00    4.80
 -10  -5  -1    7.40    5.30
  10   5   1    9.60    5.30
  10   5   1   14.80    5.90
   8  -6  -1    0.60    4.20
   8  -6  -1    5.50    4.50
  -8   6   1    2.00    4.30
   7  -6  -1   -4.30    3.40
   7  -6  -1    5.90    3.90
  -7   6   1    2.50    3.60
   6  -6  -1   12.80    4.00
   6  -6  -1   12.70    4.10
  -6   6   1   13.70    3.70
  -6   6   1   12.00    3.80
   5  -6  -1  132.99    8.50
   5  -6  -1  117.29    8.20
  -5   6   1  121.89    8.30
  -5   6   1  134.89    8.30
   4  -6  -1   16.60    3.30
   4  -6  -1   17.10    3.50
  -4   6   1   20.00    3.80
  -4   6   1   21.20    3.50
   3  -6  -1  226.98   10.40
   3  -6  -1  224.68   10.30
  -3   6   1  212.68   10.30
   2  -6  -1   12.60    2.50
   2  -6  -1   12.50    2.80
   2  -6  -1   15.70    2.40
  -2   6   1   13.70    2.70
   1  -6  -1   41.20    3.90
   1  -6  -1   45.10    3.20
   1  -6  -1   42.30    3.60
  -1   6   1   45.20    3.60
   0  -6  -1 3573.14  121.79
   0  -6  -1 3760.52  122.79
   0  -6  -1 3440.66  123.09
   0   6   1 3306.67  122.69
   0   6   1 3515.45  122.59
  -1  -6  -1  247.88   10.60
  -1  -6  -1  252.17   11.00
   1   6   1  249.78   10.50
  -2  -6  -1 1950.50   65.99
  -2  -6  -1 1800.22   66.49
   2   6   1 1863.81   66.09
   2   6   1 1846.52   65.89
  -3  -6  -1  136.09    6.70
  -3  -6  -1  135.99    7.40
   3   6   1  124.39    6.70
  -4  -6  -1   66.99    4.60
  -4  -6  -1   64.99    5.10
   4   6   1   65.39    3.50
   4   6   1   65.49    4.70
  -5  -6  -1  238.38   10.60
  -5  -6  -1  226.58   11.30
   5   6   1  219.88   10.70
   5   6   1  223.28    9.50
  -6  -6  -1  150.28    9.50
  -6  -6  -1  157.88    8.60
   6   6   1  160.48    8.70
   6   6   1  159.68    7.90
  -7  -6  -1   89.29    8.40
  -7  -6  -1   88.59    6.70
   7   6   1   85.09    6.30
   7   6   1   86.89    6.90
  -8  -6  -1   52.79    6.00
  -8  -6  -1   49.20    6.90
   8   6   1   57.29    5.90
   8   6   1   56.89    6.60
  -9  -6  -1   13.60    5.00
  -9  -6  -1   17.20    4.60
   9   6   1   19.10    4.80
   9   6   1   18.50    5.10
 -10  -6  -1   -7.00    3.40
 -10  -6  -1   -2.50    4.30
  10   6   1   -3.40    5.00
  10   6   1   -4.30    3.70
   7  -7  -1    2.50    4.00
   7  -7  -1    5.00    3.90
  -7   7   1   15.90    4.70
   6  -7  -1   44.00    6.10
   6  -7  -1   44.10    6.10
  -6   7   1   41.80    5.80
  -6   7   1   44.00    6.10
   5  -7  -1   67.29    6.90
   5  -7  -1   91.29    7.50
  -5   7   1   82.49    7.20
  -5   7   1   76.09    7.30
   4  -7  -1   27.90    4.20
   4  -7  -1   19.70    3.90
  -4   7   1   19.40    3.60
  -4   7   1   24.20    4.60
   3  -7  -1   -3.40    2.20
   3  -7  -1    1.40    2.30
   3  -7  -1    0.60    2.00
  -3   7   1   -1.40    2.10
   2  -7  -1    3.80    2.40
   2  -7  -1    6.90    2.10
   2  -7  -1    0.60    1.90
  -2   7   1    8.00    2.50
   1  -7  -1  210.68   10.30
   1  -7  -1  228.38   10.00
   1  -7  -1  225.38    9.30
  -1   7   1  208.58   10.00
   0  -7  -1  290.87   10.90
   0  -7  -1  289.27   12.00
   0  -7  -1  267.27   12.40
   0   7   1  280.97   12.10
  -1  -7  -1   94.69    5.40
  -1  -7  -1   88.09    5.80
  -2  -7  -1   -1.80    1.60
  -2  -7  -1    0.70    1.70
   2   7   1   -0.60    1.50
  -3  -7  -1   26.50    3.40
  -3  -7  -1   29.90    3.40
   3   7   1   23.00    3.10
  -4  -7  -1  134.89    7.10
  -4  -7  -1  130.69    8.00
   4   7   1  135.39    7.40
  -5  -7  -1  146.39    8.90
  -5  -7  -1  137.79    7.80
   5   7   1  149.29    8.00
   5   7   1  143.69    6.50
  -6  -7  -1  264.77   13.50
  -6  -7  -1  272.77   12.50
   6   7   1  256.17   12.70
   6   7   1  269.17   11.40
  -7  -7  -1   55.79    6.50
  -7  -7  -1   47.20    5.40
   7   7   1   43.40    5.50
   7   7   1   47.20    4.90
  -8  -7  -1    6.50    4.30
  -8  -7  -1    7.20    3.50
   8   7   1    6.00    3.50
   8   7   1    6.20    3.70
  -9  -7  -1    3.10    3.60
  -9  -7  -1    1.30    4.30
   9   7   1    1.70    6.20
   9   7   1    8.40    4.20
   7  -8  -1   10.90    5.00
   7  -8  -1   22.70    5.70
  -7   8   1   21.40    5.30
   6  -8  -1   83.69    8.20
   6  -8  -1   90.89    8.60
  -6   8   1   82.09    8.30
  -6   8   1   98.49    8.30
   5  -8  -1   38.30    5.60
   5  -8  -1   42.70    5.80
  -5   8   1   48.90    6.00
  -5   8   1   43.50    6.30
   4  -8  -1   -3.10    2.80
   4  -8  -1    3.20    2.80
  -4   8   1    0.60    2.80
  -4   8   1    2.00    3.50
   3  -8  -1   86.19    6.40
   3  -8  -1   85.39    6.90
   3  -8  -1   95.39    6.70
  -3   8   1   93.79    6.50
   2  -8  -1  271.37   11.80
   2  -8  -1  281.27   12.40
   2  -8  -1  253.57   12.50
  -2   8   1  261.47   12.30
   1  -8  -1  371.86   15.20
   1  -8  -1  346.87   15.50
   1  -8  -1  353.06   14.10
  -1   8   1  352.06   15.10
   0  -8  -1   62.89    3.60
   0  -8  -1   69.39    5.50
   0  -8  -1   62.39    4.80
   0   8   1   58.99    4.70
  -1  -8  -1   88.39    6.20
  -1  -8  -1   94.09    5.70
   1   8   1   80.89    5.50
  -2  -8  -1    7.40    2.20
  -2  -8  -1    0.80    2.00
   2   8   1    2.30    1.80
  -3  -8  -1   11.40    2.60
  -3  -8  -1   10.90    3.10
   3   8   1   13.60    2.70
  -4  -8  -1  132.69    8.30
   4   8   1  147.89    7.80
  -5  -8  -1  180.28    9.10
  -5  -8  -1  170.58   10.10
   5   8   1  155.58    9.00
  -6  -8  -1  143.99    8.60
  -6  -8  -1  164.68   10.40
   6   8   1  140.89    7.30
   6   8   1  184.38    9.50
  -7  -8  -1   73.69    6.50
  -7  -8  -1   69.49    7.80
   7   8   1   70.59    6.90
   7   8   1   80.69    6.00
  -8  -8  -1    1.00    3.10
  -8  -8  -1    0.70    3.30
   8   8   1   -1.80    3.10
  -9  -8  -1   -2.70    4.00
  -9  -8  -1    4.30    3.90
   9   8   1    3.00    4.20
   6  -9  -1    8.50    4.90
   6  -9  -1    9.80    4.40
  -6   9   1   11.20    4.70
   5  -9  -1    2.40    3.20
   5  -9  -1   -0.10    3.60
  -5   9   1    0.80    3.90
  -5   9   1    0.70    3.30
   4  -9  -1    8.10    3.70
   4  -9  -1    1.40    2.90
  -4   9   1    8.20    4.00
  -4   9   1    7.40    3.60
   3  -9  -1   64.19    6.40
   3  -9  -1   69.39    6.40
   3  -9  -1   66.59    6.10
  -3   9   1   73.49    6.60
   2  -9  -1   86.19    7.00
   2  -9  -1   86.49    5.80
   2  -9  -1   80.79    6.20
  -2   9   1   79.49    6.60
   1  -9  -1   76.79    4.90
   1  -9  -1   75.39    6.10
   1  -9  -1   75.49    6.50
  -1   9   1   81.49    5.90
   0  -9  -1    0.30    2.20
   0  -9  -1    2.40    2.20
   0  -9  -1   -0.60    1.20
   0   9   1    0.00    2.00
  -1  -9  -1   30.80    4.40
  -1  -9  -1   41.30    4.50
   1   9   1   29.80    3.90
  -2  -9  -1   29.90    3.90
  -2  -9  -1   29.40    4.30
   2   9   1   33.50    4.00
  -3  -9  -1  105.79    6.50
  -3  -9  -1   98.09    7.20
   3   9   1   95.69    6.40
  -4  -9  -1  173.18   10.10
  -4  -9  -1  183.48    9.10
   4   9   1  157.58    9.10
  -5  -9  -1   53.49    6.30
  -5  -9  -1   53.79    5.50
   5   9   1   55.99    5.60
  -6  -9  -1   -0.20    2.50
  -6  -9  -1   -1.70    3.10
   6   9   1    0.80    2.60
  -7  -9  -1   43.30    6.60
  -7  -9  -1   20.50    4.30
   7   9   1   25.50    4.70
  -8  -9  -1   44.60    6.10
  -8  -9  -1   57.39    7.70
   8   9   1   47.80    6.20
  -9  -9  -1   36.40    6.20
  -9  -9  -1   33.30    6.60
   9   9   1   35.50    6.10
   5 -10  -1   -4.50    3.60
   5 -10  -1   -0.30    3.50
  -5  10   1    1.00    3.50
  -5  10   1   -1.70    4.40
   4 -10  -1   31.40    5.60
   4 -10  -1   18.80    4.20
  -4  10   1   22.70    5.70
  -4  10   1   25.00    5.00
   3 -10  -1  143.99    9.80
   3 -10  -1  133.59    8.70
   3 -10  -1  146.89    9.60
  -3  10   1  158.18    9.70
   2 -10  -1  166.78    9.70
   2 -10  -1  168.28   10.20
   2 -10  -1  175.88    9.00
  -2  10   1  167.98    9.90
   1 -10  -1  130.09    6.90
   1 -10  -1  136.59    8.40
   1 -10  -1  134.59    8.90
  -1  10   1  136.09    8.40
   0 -10  -1   22.30    4.30
   0 -10  -1   21.30    3.80
   0 -10  -1   22.40    2.50
   0  10   1   20.40    3.60
  -1 -10  -1   33.70    4.30
  -1 -10  -1   33.20    4.90
   1  10   1   39.10    4.70
  -2 -10  -1   64.39    6.60
  -2 -10  -1   67.19    5.60
   2  10   1   65.79    5.60
  -3 -10  -1  153.98    9.60
  -3 -10  -1  168.28    8.80
   3  10   1  141.99    8.70
  -4 -10  -1  101.59    8.20
  -4 -10  -1  103.39    7.20
   4  10   1  108.49    7.20
  -5 -10  -1   20.60    3.80
  -5 -10  -1   22.20    4.80
   5  10   1   25.80    4.40
  -6 -10  -1   11.90    4.20
  -6 -10  -1    9.70    3.50
   6  10   1    9.60    3.70
  -7 -10  -1   13.90    3.80
  -7 -10  -1    7.80    4.20
   7  10   1    7.20    3.90
  -8 -10  -1   25.50    5.10
  -8 -10  -1   32.80    6.90
   8  10   1   16.20    5.00
   5 -11  -1    6.70    4.20
  -5  11   1   -1.90    4.60
   4 -11  -1   46.80    5.80
   4 -11  -1   36.10    6.10
  -4  11   1   39.20    6.20
  -4  11   1   36.30    7.50
   3 -11  -1   81.79    6.70
   3 -11  -1   75.59    7.80
   3 -11  -1   70.79    7.50
  -3  11   1   82.29    7.90
   2 -11  -1   22.60    4.40
   2 -11  -1   27.00    5.00
   2 -11  -1   20.90    3.60
  -2  11   1   29.50    5.10
   1 -11  -1   55.59    6.10
   1 -11  -1   39.90    5.80
   1 -11  -1   53.49    5.60
  -1  11   1   49.60    5.80
   0 -11  -1  170.48   10.70
   0 -11  -1  187.48   10.40
   0  11   1  162.98    9.70
  -1 -11  -1  221.38   11.20
  -1 -11  -1  210.48   11.90
   1  11   1  206.38   11.30
  -2 -11  -1  220.28   11.10
  -2 -11  -1  216.68   12.30
   2  11   1  204.38   11.20
  -3 -11  -1  140.39    9.60
  -3 -11  -1  135.39    8.60
   3  11   1  142.29    8.80
  -4 -11  -1   32.90    4.80
  -4 -11  -1   33.70    5.70
   4  11   1   39.30    5.10
  -5 -11  -1   17.50    4.00
  -5 -11  -1   26.60    5.40
   5  11   1   19.20    4.20
  -6 -11  -1   25.80    4.50
  -6 -11  -1   31.90    6.00
   6  11   1   28.30    5.00
  -7 -11  -1   65.09    8.30
   7  11   1   86.29    8.30
  -8 -11  -1   12.80    5.50
   8  11   1    8.70    4.50
  -4  12   1   21.00    6.70
   3 -12  -1   36.60    6.60
   3 -12  -1   40.00    9.40
  -3  12   1   46.30    6.60
   2 -12  -1    6.80    4.40
   2 -12  -1    2.90    4.00
  -2  12   1    7.50    4.10
   1 -12  -1   35.70    5.90
   1 -12  -1   28.30    5.30
  -1  12   1   31.80    5.30
   0 -12  -1  226.78   13.00
   0 -12  -1  222.08   12.30
   0  12   1  218.88   12.20
  -1 -12  -1  123.69    8.50
  -1 -12  -1  118.09    9.40
   1  12   1  103.79    8.10
  -2 -12  -1  114.79    8.30
  -2 -12  -1  111.69    8.80
   2  12   1  119.49    8.20
  -3 -12  -1   44.50    5.60
  -3 -12  -1   42.50    6.50
   3  12   1   42.60    5.70
  -4 -12  -1   14.40    4.00
  -4 -12  -1   15.60    4.80
   4  12   1   19.40    4.40
  -5 -12  -1   45.70    5.90
  -5 -12  -1   45.40    7.20
   5  12   1   53.09    6.40
  -6 -12  -1   87.59    8.20
  -6 -12  -1   90.09    9.90
   6  12   1   82.59    8.20
  -7 -12  -1   49.99    8.10
   7  12   1   44.50    6.50
   2 -13  -1    5.20    4.90
  -2  13   1   11.60    4.80
   1 -13  -1   80.59    8.40
  -1  13   1   80.89    8.10
   0 -13  -1   59.09    7.80
   0 -13  -1   63.29    7.70
   0  13   1   60.09    7.10
  -1 -13  -1  102.49    9.50
  -1 -13  -1  115.69    8.90
   1  13   1   97.19    8.10
  -2 -13  -1    1.80    3.30
  -2 -13  -1    1.40    4.00
   2  13   1    0.00    3.40
  -3 -13  -1    5.20    4.30
  -3 -13  -1    6.60    3.70
   3  13   1    4.50    3.60
  -4 -13  -1   29.60    6.30
  -4 -13  -1   57.59    8.70
   4  13   1   38.90    5.70
  -5 -13  -1  141.79   11.20
   5  13   1  121.89    9.40
  -6 -13  -1  192.28   13.90
   1 -14  -1   77.79    9.10
   0 -14  -1   26.60    6.30
   0  14   1   22.90    5.40
  -1 -14  -1    9.50    5.20
   1  14   1    8.30    4.00
  -2 -14  -1   31.10    6.40
   2  14   1   46.30    6.70
  -3 -14  -1   12.50    5.10
   3  14   1   14.20    4.20
  -4 -14  -1   25.40    6.30
   4  14   1   19.40    5.10
  -5 -14  -1   54.39    8.40
   5  14   1   47.30    6.80
   5  13  -2   26.50    5.50
  -5 -13   2   20.70    6.20
  -5 -13   2   17.70    5.50
   4  13  -2    6.20    4.20
  -4 -13   2    5.80    4.90
  -4 -13   2    0.90    3.90
   3  13  -2   29.00    5.80
  -3 -13   2   34.30    6.70
  -3 -13   2   29.20    5.80
   2  13  -2   65.99    8.00
  -2 -13   2   67.19    8.10
  -2 -13   2   68.59    8.10
   1  13  -2   54.59    7.20
  -1 -13   2   43.60    6.90
  -1 -13   2   48.90    7.40
   0  13  -2   27.50    5.50
   0 -13   2   26.30    6.10
   0 -13   2   22.50    5.80
   1 -13   2   13.70    5.80
   6  12  -2    1.90    3.60
  -6 -12   2    1.40    4.70
  -6 -12   2    1.40    4.30
   5  12  -2    7.00    4.20
  -5 -12   2    3.40    4.80
  -5 -12   2    3.90    4.00
   4  12  -2    1.70    3.50
  -4 -12   2    8.10    4.70
  -4 -12   2    4.40    4.00
   3  12  -2   88.79    9.00
  -3 -12   2   87.39    9.00
  -3 -12   2   87.19    8.20
   2  12  -2  175.58   11.00
  -2 -12   2  166.28   11.20
  -2 -12   2  165.08   11.50
   1  12  -2  145.69   10.30
  -1 -12   2  148.09   10.70
  -1 -12   2  152.88   10.40
   0  12  -2   11.20    4.30
   0 -12   2   10.10    4.50
   0 -12   2   10.30    4.70
  -1  12  -2   11.80    4.50
   1 -12   2    2.20    4.30
   1 -12   2    6.40    4.40
  -2  12  -2   64.99    8.00
  -2  12  -2   65.19    9.70
   2 -12   2   66.09    7.80
   7  11  -2   -1.00    3.60
  -7 -11   2    5.90    4.90
  -7 -11   2   -1.10    3.60
   6  11  -2    5.50    3.60
  -6 -11   2    2.80    3.90
  -6 -11   2   -1.50    4.10
   5  11  -2   33.60    5.50
  -5 -11   2   31.70    5.60
  -5 -11   2   30.20    6.00
   4  11  -2    9.30    3.90
  -4 -11   2    9.30    4.50
  -4 -11   2    6.00    3.90
   3  11  -2  261.97   13.80
  -3 -11   2  275.27   14.60
  -3 -11   2  252.57   13.70
   2  11  -2   90.99    8.40
  -2 -11   2   83.29    7.80
  -2 -11   2   83.89    8.20
   1  11  -2  284.97   14.70
  -1 -11   2  313.57   14.80
  -1 -11   2  267.87   14.50
   0  11  -2   15.80    4.10
   0 -11   2    2.40    3.90
   0 -11   2   10.80    4.20
  -1  11  -2   10.50    4.20
   1 -11   2   10.60    4.30
   1 -11   2    7.00    4.50
  -2  11  -2   60.89    7.50
   2 -11   2   52.79    7.00
   2 -11   2   54.29    6.60
  -3  11  -2    7.40    6.00
  -3  11  -2    7.30    4.60
   3 -11   2   12.90    5.20
  -4  11  -2   18.10    6.80
   4 -11   2   19.60    6.00
   8  10  -2    1.80    4.10
  -8 -10   2    5.60    4.20
  -8 -10   2    1.20    4.80
   7  10  -2   -2.50    3.30
  -7 -10   2   -1.60    4.60
   6  10  -2   41.10    6.00
  -6 -10   2   41.90    7.00
  -6 -10   2   42.30    5.80
   5  10  -2   66.39    7.10
  -5 -10   2   71.79    8.00
  -5 -10   2   62.19    6.80
   4  10  -2   81.69    7.00
  -4 -10   2   86.19    8.20
  -4 -10   2   80.79    7.20
   3  10  -2    8.00    3.40
  -3 -10   2    3.00    3.60
  -3 -10   2    9.80    3.40
   2  10  -2   -2.90    2.70
  -2 -10   2   -1.80    2.80
  -2 -10   2   -3.40    2.50
   1  10  -2   73.69    7.10
  -1 -10   2   65.99    6.80
  -1 -10   2   80.59    7.20
   0  10  -2   41.20    5.40
   0 -10   2   57.89    6.20
   0 -10   2   69.19    6.70
  -1  10  -2  177.38   10.90
   1 -10   2  194.68   11.10
   1 -10   2  176.88   10.60
  -2  10  -2   10.00    3.70
   2 -10   2    8.40    4.20
   2 -10   2    4.10    3.60
  -3  10  -2   26.10    6.40
  -3  10  -2   36.00    5.80
   3 -10   2   27.30    5.50
  -4  10  -2    3.10    5.70
  -4  10  -2   23.80    5.30
   4 -10   2    7.20    4.60
  -5  10  -2    5.40    5.30
   5 -10   2    4.20    3.80
   5 -10   2   -2.60    4.40
   8   9  -2    2.60    3.90
  -8  -9   2    0.90    3.40
  -8  -9   2    0.10    4.40
   7   9  -2    1.30    3.90
  -7  -9   2   -0.40    3.90
  -7  -9   2    4.40    3.70
   6   9  -2  118.59    8.60
  -6  -9   2  119.99    8.60
  -6  -9   2  113.69    9.80
   5   9  -2  185.68   10.70
  -5  -9   2  178.48   11.50
  -5  -9   2  182.48   10.30
   4   9  -2  164.88    9.50
  -4  -9   2  164.38    9.60
  -4  -9   2  154.38   10.20
   3   9  -2    5.40    3.00
  -3  -9   2    9.30    3.40
  -3  -9   2    4.90    3.00
   2   9  -2   10.50    3.30
  -2  -9   2   15.60    3.60
  -2  -9   2   11.40    3.50
   1   9  -2   81.69    6.40
  -1  -9   2   85.19    6.90
  -1  -9   2   80.19    6.60
   0   9  -2   25.20    4.30
   0  -9   2   35.80    4.90
   0  -9   2   30.80    4.40
  -1   9  -2  149.49    9.40
   1  -9   2  180.88   10.00
   1  -9   2  157.98    9.40
  -2   9  -2    0.00    2.60
   2  -9   2   -0.90    3.30
   2  -9   2    0.90    2.90
  -3   9  -2    2.50    4.20
  -3   9  -2    7.90    3.80
   3  -9   2    4.70    3.30
   3  -9   2    5.40    3.80
  -4   9  -2   -2.20    3.00
  -4   9  -2   -2.50    3.90
   4  -9   2   -3.80    3.50
  -5   9  -2   15.60    6.10
  -5   9  -2    6.50    4.20
   5  -9   2    1.80    4.30
   5  -9   2    2.50    3.30
   9   8  -2   10.10    4.80
  -9  -8   2   10.40    5.60
  -9  -8   2   12.00    4.80
   8   8  -2   41.80    6.30
  -8  -8   2   42.30    6.00
  -8  -8   2   45.90    7.40
   7   8  -2   11.20    4.40
  -7  -8   2    8.60    3.60
  -7  -8   2    8.40    4.70
   6   8  -2  144.59    9.30
  -6  -8   2  141.59   10.10
  -6  -8   2  134.99    8.90
   5   8  -2   87.19    6.80
  -5  -8   2   83.19    8.20
  -5  -8   2   86.09    6.80
   4   8  -2   70.99    6.10
  -4  -8   2   69.39    7.40
  -4  -8   2   85.79    6.10
   3   8  -2  184.88    9.80
  -3  -8   2  187.28   10.30
  -3  -8   2  189.68   10.10
   2   8  -2   36.50    4.60
  -2  -8   2   41.10    4.90
  -2  -8   2   37.60    4.70
   1   8  -2  416.86   17.70
  -1  -8   2  395.46   17.40
  -1  -8   2  430.96   17.80
   0   8  -2  425.66   18.40
   0  -8   2  432.46   18.10
   0  -8   2  437.56   18.30
  -1   8  -2  269.97   12.90
   1  -8   2  274.27   12.70
   1  -8   2  273.07   13.20
  -2   8  -2   10.10    3.20
   2  -8   2    9.30    3.70
   2  -8   2   14.70    3.40
  -3   8  -2   56.39    7.70
  -3   8  -2   75.09    7.20
   3  -8   2   70.69    7.00
   3  -8   2   78.29    6.30
  -4   8  -2   20.00    4.50
  -4   8  -2   15.80    5.10
   4  -8   2   27.90    5.00
  -5   8  -2   59.59    7.90
  -5   8  -2   34.40    5.70
   5  -8   2   48.90    6.70
  -6   8  -2   27.40    6.60
  -6   8  -2   29.50    5.80
   6  -8   2   31.60    6.20
   6  -8   2   16.60    4.70
   9   7  -2   30.10    6.10
  -9  -7   2   35.20    6.00
  -9  -7   2   28.80    6.70
   8   7  -2   43.60    6.30
  -8  -7   2   31.30    6.50
  -8  -7   2   46.60    6.40
   7   7  -2   18.40    4.40
   7   7  -2   19.00    3.80
  -7  -7   2   21.50    5.40
  -7  -7   2   19.50    4.40
   6   7  -2   63.19    6.40
  -6  -7   2   70.99    6.20
  -6  -7   2   75.59    7.70
   5   7  -2   91.09    6.60
  -5  -7   2   75.79    6.10
  -5  -7   2   62.09    6.70
   4   7  -2   14.60    3.20
  -4  -7   2   15.20    3.60
   3   7  -2  145.19    8.10
  -3  -7   2  153.38    8.20
  -3  -7   2  149.49    8.70
   2   7  -2  400.96   17.10
  -2  -7   2  413.56   14.90
  -2  -7   2  423.76   17.10
  -2  -7   2  397.26   17.10
   1   7  -2  180.98    9.30
  -1  -7   2  185.98    9.20
  -1  -7   2  175.18    9.00
   0   7  -2  522.65   21.10
   0  -7   2  501.55   20.70
   0  -7   2  546.85   21.10
  -1   7  -2   27.50    3.80
   1  -7   2   22.70    3.40
   1  -7   2   24.80    3.90
  -2   7  -2    5.10    2.50
   2  -7   2    5.00    2.50
   2  -7   2    2.00    2.80
  -3   7  -2  202.18   12.20
  -3   7  -2  226.88   11.20
   3  -7   2  208.68   10.10
   3  -7   2  203.98   11.10
  -4   7  -2   37.30    5.20
  -4   7  -2   40.00    6.50
   4  -7   2   52.49    5.80
  -5   7  -2   24.50    5.50
  -5   7  -2   23.90    4.60
   5  -7   2   31.90    5.40
  -6   7  -2   19.80    5.00
  -6   7  -2    9.10    4.70
   6  -7   2   17.30    5.00
  -7   7  -2    8.10    4.80
  -7   7  -2    6.40    4.40
   7  -7   2    4.90    4.00
   7  -7   2   12.90    5.30
   9   6  -2   52.29    7.40
   9   6  -2   62.29    7.10
  -9  -6   2   62.79    8.50
  -9  -6   2   71.79    7.60
   8   6  -2   20.20    4.40
   8   6  -2   20.90    4.90
  -8  -6   2   23.60    4.80
  -8  -6   2   11.00    4.70
   7   6  -2   36.90    5.50
   7   6  -2   31.10    4.30
  -7  -6   2   38.50    5.90
  -7  -6   2   39.30    5.00
   6   6  -2    4.40    2.50
   6   6  -2    0.40    2.50
  -6  -6   2    0.60    2.70
  -6  -6   2    2.00    2.60
   5   6  -2   21.90    2.80
   5   6  -2    6.90    2.80
  -5  -6   2   25.40    3.90
  -5  -6   2   21.20    3.90
   4   6  -2  769.02   28.90
  -4  -6   2  746.83   29.30
  -4  -6   2  720.43   28.50
  -3  -6   2  467.85   19.10
  -3  -6   2  481.05   19.70
  -3  -6   2  490.95   17.50
   2   6  -2  671.13   25.60
  -2  -6   2  690.03   25.70
  -2  -6   2  639.64   23.80
  -2  -6   2  678.43   25.90
   1   6  -2   64.29    4.70
  -1  -6   2   65.69    4.70
  -1  -6   2   69.09    5.10
   0   6  -2  130.29    7.30
   0  -6   2  145.39    7.30
   0  -6   2  140.99    7.50
  -1   6  -2    4.70    2.10
   1  -6   2   13.30    2.90
   1  -6   2    9.30    2.30
  -2   6  -2  286.37   13.00
   2  -6   2  285.47   13.20
   2  -6   2  308.67   12.50
  -3   6  -2  174.88    9.30
  -3   6  -2  179.28   10.70
   3  -6   2  167.78    8.50
   3  -6   2  173.28    9.50
  -4   6  -2  280.87   14.80
  -4   6  -2  292.17   13.90
   4  -6   2  306.77   14.10
  -5   6  -2    6.30    3.30
  -5   6  -2    6.10    3.70
   5  -6   2    5.70    3.70
  -6   6  -2   32.60    5.60
  -6   6  -2   34.20    6.20
   6  -6   2   29.40    5.50
  -7   6  -2    2.90    4.00
  -7   6  -2    6.80    4.40
   7  -6   2    7.00    3.80
   7  -6   2    6.80    4.40
   9   5  -2   42.30    6.40
   9   5  -2   42.40    6.50
  -9  -5   2   42.40    6.40
   8   5  -2    3.00    3.60
   8   5  -2    7.40    4.00
  -8  -5   2   10.30    3.90
   7   5  -2   16.30    3.80
   7   5  -2   15.10    3.60
  -7  -5   2    9.80    3.70
   6   5  -2   12.50    3.40
   6   5  -2   12.80    3.10
  -6  -5   2   16.80    3.40
   5   5  -2  205.38   10.20
   5   5  -2  208.78    9.10
  -5  -5   2  194.28    9.90
   4   5  -2  395.76   16.70
   4   5  -2  414.76   15.50
  -4  -5   2  408.56   16.70
  -4  -5   2  412.46   15.40
  -4  -5   2  403.76   17.20
   3   5  -2  274.67   12.10
  -3  -5   2  279.17   12.60
  -3  -5   2  290.87   12.20
  -3  -5   2  277.67   10.70
   2   5  -2   35.40    3.60
  -2  -5   2   35.40    3.60
  -2  -5   2   31.40    2.20
  -2  -5   2   36.50    3.80
   1   5  -2   68.49    4.60
  -1  -5   2   63.69    4.50
  -1  -5   2   64.59    4.60
   0   5  -2   92.79    5.30
   0  -5   2   90.99    5.20
   0  -5   2   86.99    5.40
  -1   5  -2    1.40    1.70
  -1   5  -2    2.60    1.40
   1  -5   2   -1.10    1.90
   1  -5   2    2.60    1.70
  -2   5  -2  591.74   22.30
  -2   5  -2  547.45   23.30
  -2   5  -2  574.74   21.50
   2  -5   2  550.74   22.30
   2  -5   2  593.24   21.60
  -3   5  -2   16.00    3.50
  -3   5  -2   13.40    2.70
   3  -5   2   15.60    3.20
  -4   5  -2  143.19    8.40
  -4   5  -2  147.39    9.10
   4  -5   2  151.18    8.70
  -5   5  -2   -0.90    2.60
  -5   5  -2    4.30    2.90
   5  -5   2    0.70    3.00
  -6   5  -2    4.10    3.20
  -6   5  -2    6.70    3.70
   6  -5   2    5.70    3.80
  -7   5  -2   27.30    5.30
  -7   5  -2   20.60    4.90
   7  -5   2   29.90    5.50
  -8   5  -2   36.50    6.40
   8  -5   2   26.30    6.10
   8  -5   2   26.10    5.50
  10   4  -2   12.00    5.30
  10   4  -2   14.40    5.90
   9   4  -2    7.60    4.30
   9   4  -2    8.10    4.90
  -9  -4   2   15.00    4.60
   8   4  -2   12.60    4.30
   8   4  -2    2.00    3.50
  -8  -4   2    8.00    3.60
   7   4  -2    1.00    2.90
   7   4  -2    4.00    3.10
  -7  -4   2    2.20    2.80
   6   4  -2   25.00    3.70
   6   4  -2   32.60    4.30
  -6  -4   2   30.50    4.10
   5   4  -2  269.97   11.20
  -5  -4   2  244.18   11.70
   4   4  -2  449.16   17.30
   4   4  -2  459.05   18.40
  -4  -4   2  470.55   18.20
   3   4  -2    2.90    1.70
  -3  -4   2    9.50    2.10
  -3  -4   2    4.80    1.30
   2   4  -2   35.50    3.50
  -2  -4   2   40.70    3.70
  -2  -4   2   40.00    2.40
   1   4  -2  351.96   14.40
  -1  -4   2  387.56   14.50
  -1  -4   2  356.26   14.40
   0   4  -2   36.50    3.40
   0   4  -2   40.50    3.00
   0  -4   2   38.80    3.10
   0  -4   2   42.10    3.50
  -1   4  -2  104.69    5.00
  -1   4  -2  106.89    5.60
   1  -4   2   98.29    5.10
   1  -4   2  104.39    5.80
  -2   4  -2    4.70    3.00
  -2   4  -2    3.30    1.40
  -2   4  -2    8.20    2.10
   2  -4   2    4.50    1.60
   2  -4   2   11.40    2.40
  -3   4  -2   12.30    3.10
  -3   4  -2   14.80    2.60
  -3   4  -2   13.20    2.00
   3  -4   2    8.70    2.60
  -4   4  -2   50.79    5.50
  -4   4  -2   46.30    4.80
   4  -4   2   49.40    5.00
  -5   4  -2   22.50    3.80
  -5   4  -2   16.50    3.80
   5  -4   2   14.90    3.70
  -6   4  -2   72.99    6.60
  -6   4  -2   73.39    6.90
   6  -4   2   53.09    6.20
  -7   4  -2   23.60    4.80
  -7   4  -2   15.70    4.40
   7  -4   2   14.20    4.50
  -8   4  -2   37.40    6.20
   8  -4   2   37.50    6.10
   8  -4   2   19.90    5.20
  10   3  -2   24.50    6.00
  10   3  -2   20.10    6.50
 -10  -3   2   15.20    5.10
   9   3  -2   -0.20    4.40
   9   3  -2    2.30    3.90
  -9  -3   2   -2.10    3.30
   8   3  -2   11.50    4.00
   8   3  -2    6.80    4.20
  -8  -3   2   15.10    4.30
   7   3  -2    5.30    3.50
   7   3  -2    4.20    3.10
  -7  -3   2    8.80    3.30
   6   3  -2   36.90    4.30
   6   3  -2   44.80    4.90
  -6  -3   2   45.60    4.80
   5   3  -2   83.19    5.70
   5   3  -2   90.99    5.70
   5   3  -2   88.29    5.50
  -5  -3   2   95.19    5.80
   4   3  -2  307.27   12.70
   4   3  -2  297.57   12.20
  -4  -3   2  300.37   12.70
   3   3  -2  198.88    9.10
   3   3  -2  210.18    8.50
  -3  -3   2  207.68    8.40
  -3  -3   2  208.88    9.00
   2   3  -2   25.70    2.70
  -2  -3   2   32.80    2.80
  -2  -3   2   35.90    3.60
  -2  -3   2   28.10    2.20
   1   3  -2  398.76   15.20
   1   3  -2  408.06   15.20
  -1  -3   2  407.36   15.30
  -1  -3   2  399.66   15.20
  -1  -3   2  383.46   15.20
   0   3  -2  200.58    8.10
   0   3  -2  189.58    8.50
   0   3  -2  209.28    8.50
   0  -3   2  192.98    8.50
   0  -3   2  213.58    8.30
   0  -3   2  210.58    8.60
  -1   3  -2  579.84   20.50
  -1   3  -2  553.34   21.10
   1  -3   2  529.65   20.50
   1  -3   2  536.35   21.10
   1  -3   2  649.24   21.90
  -2   3  -2    0.90    1.80
  -2   3  -2    1.50    1.20
  -2   3  -2    0.20    1.60
   2  -3   2    5.90    1.80
   2  -3   2    2.90    1.30
  -3   3  -2   23.70    3.40
  -3   3  -2   20.70    2.90
  -3   3  -2   25.00    2.30
   3  -3   2   22.60    3.20
  -4   3  -2   20.50    3.40
  -4   3  -2   20.80    2.50
  -4   3  -2   19.70    3.10
   4  -3   2   17.70    3.20
  -5   3  -2   37.70    4.70
  -5   3  -2   29.00    4.20
   5  -3   2   27.80    4.10
  -6   3  -2   34.30    4.80
  -6   3  -2   31.00    4.60
   6  -3   2   37.40    4.90
  -7   3  -2    4.50    3.30
  -7   3  -2    8.90    3.80
   7  -3   2    6.50    3.90
  -8   3  -2   -4.40    3.30
   8  -3   2   -0.40    3.70
   8  -3   2    0.50    3.70
   9  -3   2    2.50    4.70
   9  -3   2    0.70    4.40
  10   2  -2    4.10    5.40
  10   2  -2    7.30    4.80
 -10  -2   2   10.60    5.00
   9   2  -2   11.50    4.40
   9   2  -2   11.50    5.60
  -9  -2   2    4.70    4.00
   8   2  -2   73.59    7.10
   8   2  -2   59.49    7.00
  -8  -2   2   53.19    6.30
   7   2  -2   26.80    4.60
   7   2  -2   26.20    4.30
  -7  -2   2   17.40    3.90
   6   2  -2   59.79    5.30
   6   2  -2   66.29    4.20
   6   2  -2   64.99    5.90
  -6  -2   2   58.99    5.60
   5   2  -2   38.00    4.00
   5   2  -2   43.90    4.30
   5   2  -2   36.20    3.00
  -5  -2   2   42.10    4.20
   4   2  -2   85.89    4.40
   4   2  -2   76.39    5.00
   4   2  -2   79.39    4.90
  -4  -2   2   80.39    5.00
   3   2  -2   46.90    3.40
   3   2  -2   56.79    3.70
  -3  -2   2   50.79    3.30
  -3  -2   2   55.09    3.70
   2   2  -2   36.80    2.90
   2   2  -2   40.70    2.80
   2   2  -2   30.10    2.40
  -2  -2   2   40.50    2.50
  -2  -2   2   35.30    2.80
  -2  -2   2   39.80    2.90
   1   2  -2   70.79    3.80
   1   2  -2   68.49    3.60
  -1  -2   2   67.49    3.70
   0   2  -2  173.38    7.00
   0   2  -2  174.08    7.10
   0  -2   2  169.88    7.10
   0  -2   2  155.18    7.00
   0  -2   2  171.88    6.70
  -1   2  -2  506.05   18.90
  -1   2  -2  513.05   19.60
  -1   2  -2  508.75   18.80
  -1   2  -2  565.44   18.30
   1  -2   2  483.85   18.80
   1  -2   2  527.25   18.90
   1  -2   2  476.65   18.20
  -2   2  -2   20.60    2.40
  -2   2  -2   21.00    1.80
  -2   2  -2   20.30    2.80
   2  -2   2   21.10    2.50
   2  -2   2   17.60    2.30
  -3   2  -2   34.90    3.40
  -3   2  -2   35.10    2.60
  -3   2  -2   37.60    3.70
   3  -2   2   39.10    3.70
  -4   2  -2  452.25   18.40
  -4   2  -2  486.75   17.50
  -4   2  -2  444.86   18.60
   4  -2   2  463.45   18.50
  -5   2  -2  170.88    8.80
  -5   2  -2  180.88    9.10
   5  -2   2  157.68    8.90
  -6   2  -2  102.99    7.00
  -6   2  -2   96.99    7.10
   6  -2   2  107.89    7.40
  -7   2  -2   -3.10    2.50
  -7   2  -2    6.50    3.10
   7  -2   2    0.30    3.30
  -8   2  -2    5.90    3.70
  -8   2  -2   14.90    4.40
   8  -2   2    8.90    4.30
   8  -2   2    9.60    4.20
  -9   2  -2    7.10    4.30
   9  -2   2    8.90    4.60
   9  -2   2    2.50    4.60
  10   1  -2    4.00    4.40
   9   1  -2    8.80    5.30
   9   1  -2   12.20    4.90
  -9  -1   2   13.80    4.50
   8   1  -2   87.19    8.30
   8   1  -2   93.79    8.40
  -8  -1   2   98.39    7.80
   7   1  -2   60.09    6.20
   7   1  -2   51.69    5.80
  -7  -1   2   49.50    5.80
   6   1  -2   85.69    6.50
   6   1  -2   90.39    6.40
   6   1  -2   84.79    4.60
  -6  -1   2   79.99    6.00
   5   1  -2   22.30    2.20
   5   1  -2   18.90    3.10
   5   1  -2   21.40    3.40
  -5  -1   2   27.70    3.50
   4   1  -2  154.78    7.60
   4   1  -2  153.68    6.50
   4   1  -2  141.79    7.40
  -4  -1   2  165.08    7.50
   3   1  -2   29.90    2.80
   3   1  -2   27.30    2.00
   3   1  -2   23.10    2.60
  -3  -1   2   29.80    2.80
  -3  -1   2   27.40    2.70
  -3  -1   2   18.90    2.40
   2   1  -2   35.40    2.70
   2   1  -2   37.80    2.60
   2   1  -2   35.00    2.70
  -2  -1   2   42.30    2.70
  -2  -1   2   38.10    2.70
  -2  -1   2   39.70    2.70
   1   1  -2    8.10    1.30
   1   1  -2   11.50    1.60
  -1  -1   2   15.30    1.50
  -1  -1   2   14.40    1.60
  -1  -1   2   10.60    1.60
   0   1  -2   13.40    1.40
   0   1  -2   14.90    1.90
   0   1  -2   14.10    1.50
   0  -1   2   12.80    1.60
   0  -1   2   10.20    1.40
  -1   1  -2  106.29    4.00
  -1   1  -2  116.19    5.40
  -1   1  -2  106.19    4.80
  -1   1  -2  108.59    4.80
   1  -1   2  112.89    4.90
   1  -1   2  112.19    4.80
   1  -1   2   88.49    4.00
   1  -1   2  113.09    5.30
  -2   1  -2    1.10    1.30
  -2   1  -2   -0.40    1.10
  -2   1  -2    0.70    0.80
  -2   1  -2    0.40    1.20
   2  -1   2    2.30    1.30
   2  -1   2    1.40    1.30
   2  -1   2   -0.50    1.30
  -3   1  -2  292.37   12.00
  -3   1  -2  271.77   11.60
   3  -1   2  299.97   11.80
  -4   1  -2  608.34   22.80
  -4   1  -2  596.34   23.00
   4  -1   2  584.24   22.80
  -5   1  -2  105.69    6.50
  -5   1  -2  118.49    6.70
   5  -1   2  107.49    6.70
  -6   1  -2   48.80    5.10
  -6   1  -2   45.10    5.10
   6  -1   2   44.70    5.10
  -7   1  -2    8.70    3.30
  -7   1  -2   11.70    3.50
   7  -1   2    9.20    3.60
  -8   1  -2   -0.50    3.40
  -8   1  -2    0.90    3.30
   8  -1   2    4.30    4.10
   8  -1   2    0.60    3.50
  -9   1  -2   -1.90    3.90
   9  -1   2    1.70    4.10
   9  -1   2   -4.90    4.20
   9   0  -2   61.19    8.10
   9   0  -2   45.40    6.60
  -9   0   2   44.50    6.50
   8   0  -2   12.80    4.80
   8   0  -2    6.00    3.70
  -8   0   2   14.40    4.50
   7   0  -2  116.09    7.70
   7   0  -2   95.79    7.80
  -7   0   2   96.69    7.70
   6   0  -2   50.29    5.30
   6   0  -2   36.70    4.70
   6   0  -2   51.89    3.60
  -6   0   2   53.09    5.10
   5   0  -2   39.20    4.20
   5   0  -2   37.10    2.60
   5   0  -2   43.60    4.20
  -5   0   2   39.30    4.10
   4   0  -2 1788.12   66.49
   4   0  -2 2026.00   67.89
   4   0  -2 1837.92   67.69
  -4   0   2 2008.70   67.89
   3   0  -2  242.48   10.00
   3   0  -2  236.38    8.90
   3   0  -2  240.48   10.00
  -3   0   2  252.77   10.00
  -3   0   2  241.28   10.00
   2   0  -2 8742.62  314.27
   2   0  -2 8948.60  314.27
   2   0  -2 8769.42  314.17
   2   0  -2 9999.00  313.77
  -2   0   2 9383.86  314.87
  -2   0   2 9084.99  314.27
  -2   0   2 8949.60  314.27
   1   0  -2  637.54   21.70
   1   0  -2  583.84   22.00
   1   0  -2  615.04   21.90
   1   0  -2  585.34   21.90
  -1   0   2  639.24   21.90
  -1   0   2  646.14   21.90
  -1   0   2  606.04   22.00
   0   0  -2  117.19    5.00
   0   0  -2  115.29    4.70
   0   0  -2  116.19    4.70
   0   0   2  118.29    4.90
   0   0   2  123.29    4.70
   0   0   2  119.69    4.70
  -1   0  -2   24.80    2.10
  -1   0  -2   23.00    1.80
  -1   0  -2   26.00    1.80
   1   0   2   28.30    1.90
   1   0   2   23.40    1.90
   1   0   2   23.50    2.10
  -2   0  -2  165.18    7.10
  -2   0  -2  174.08    7.10
  -2   0  -2  184.98    7.60
   2   0   2  163.48    7.10
   2   0   2  173.78    7.40
   2   0   2  179.78    7.30
  -3   0  -2   24.90    2.90
  -3   0  -2   32.30    2.70
   3   0   2   28.60    2.90
   3   0   2   32.60    2.90
   3   0   2   23.90    2.60
  -4   0  -2  695.73   25.60
  -4   0  -2  705.83   25.80
   4   0   2  639.24   25.50
  -5   0  -2    1.00    1.90
  -5   0  -2    1.30    1.90
   5   0   2    0.70    2.00
  -6   0  -2   33.30    4.20
  -6   0  -2   30.50    4.10
   6   0   2   21.50    3.80
  -7   0  -2   40.70    5.00
  -7   0  -2   44.00    5.40
   7   0   2   43.80    5.50
  -8   0  -2   -0.10    3.00
  -8   0  -2    5.80    3.60
   8   0   2   -3.50    3.30
   8   0   2   -0.80    3.70
  -9   0  -2   24.00    5.20
   9   0   2   16.40    5.50
   9   0   2   19.40    4.90
   9  -1  -2   15.70    4.90
   9  -1  -2   14.00    5.80
  -9   1   2   25.40    6.00
   8  -1  -2   41.10    6.40
   8  -1  -2   32.60    5.30
  -8   1   2   31.80    5.30
   7  -1  -2    0.50    3.40
   7  -1  -2   -1.90    2.90
  -7   1   2    1.20    2.60
   6  -1  -2   10.70    3.30
   6  -1  -2   11.40    3.20
  -6   1   2   15.20    2.30
  -6   1   2   13.10    3.10
   5  -1  -2  231.18   10.60
   5  -1  -2  217.78   10.70
  -5   1   2  223.28   10.50
  -5   1   2  233.38    9.10
   4  -1  -2  128.39    6.50
   4  -1  -2  134.69    6.80
  -4   1   2  127.69    6.50
  -4   1   2  109.89    5.10
   3  -1  -2 1055.79   38.10
   3  -1  -2 1012.50   38.00
  -3   1   2 1071.79   38.00
  -3   1   2 1192.38   37.00
  -3   1   2  955.30   37.90
   2  -1  -2  102.19    4.50
   2  -1  -2   97.49    4.60
   2  -1  -2   88.59    4.70
  -2   1   2   89.69    4.50
  -2   1   2   97.09    4.50
  -2   1   2   92.49    4.70
   1  -1  -2  496.45   18.30
   1  -1  -2  475.05   18.00
   1  -1  -2  529.55   18.00
  -1   1   2  469.45   18.00
  -1   1   2  512.85   18.30
  -1   1   2  519.25   18.00
  -1   1   2  545.45   17.70
   0  -1  -2  452.85   16.30
   0  -1  -2  456.05   16.30
   0   1   2  425.76   15.80
   0   1   2  468.35   16.30
   0   1   2  480.45   15.80
   0   1   2  451.25   16.30
  -1  -1  -2  724.53   25.40
  -1  -1  -2  699.73   25.40
  -1  -1  -2  716.13   26.00
  -1  -1  -2  734.03   25.40
   1   1   2  746.73   25.40
   1   1   2  746.13   25.50
   1   1   2  682.63   25.40
   1   1   2  775.42   26.10
  -2  -1  -2  891.71   32.60
  -2  -1  -2  937.01   33.30
  -2  -1  -2  940.41   32.80
  -2  -1  -2  919.61   32.80
   2   1   2  927.71   32.80
   2   1   2  937.21   32.90
   2   1   2  940.11   33.30
  -3  -1  -2  108.29    5.50
  -3  -1  -2  101.19    5.00
   3   1   2  101.89    5.20
   3   1   2  100.49    5.20
   3   1   2  102.19    5.00
  -4  -1  -2   48.60    3.80
  -4  -1  -2   49.10    4.00
   4   1   2   53.49    3.90
  -5  -1  -2   38.50    4.10
  -5  -1  -2   36.20    3.80
   5   1   2   37.80    4.00
  -6  -1  -2   70.49    5.50
  -6  -1  -2   80.79    5.80
   6   1   2   75.59    5.90
  -7  -1  -2   32.80    4.70
  -7  -1  -2   35.50    4.70
   7   1   2   34.60    4.70
  -8  -1  -2   48.40    5.90
  -8  -1  -2   42.60    5.50
   8   1   2   35.30    5.70
   8   1   2   48.40    6.00
  -9  -1  -2    5.50    3.90
   9   1   2    8.60    5.00
   9   1   2   -1.40    3.80
  10   1   2    7.30    4.70
  10   1   2   13.80    6.50
   9  -2  -2   13.00    5.70
   9  -2  -2    7.90    4.70
  -9   2   2    7.00    4.20
   8  -2  -2    3.30    3.70
   8  -2  -2   11.70    4.60
  -8   2   2   12.50    4.20
   7  -2  -2    7.10    3.50
   7  -2  -2    5.90    3.50
  -7   2   2    4.20    3.20
   6  -2  -2  260.87   12.30
   6  -2  -2  253.57   12.50
  -6   2   2  237.98   10.40
  -6   2   2  253.17   12.00
   5  -2  -2  218.18   10.50
   5  -2  -2  238.68   11.00
  -5   2   2  197.78    9.00
  -5   2   2  251.97   10.60
   4  -2  -2  340.67   13.80
   4  -2  -2  325.77   13.40
  -4   2   2  289.37   12.10
  -4   2   2  350.96   13.50
   3  -2  -2   38.10    3.50
   3  -2  -2   35.70    3.10
  -3   2   2   38.50    3.10
  -3   2   2   33.70    2.20
  -3   2   2   33.20    2.90
   2  -2  -2  588.24   21.70
   2  -2  -2  593.74   21.90
   2  -2  -2  643.54   21.70
  -2   2   2  594.64   21.70
  -2   2   2  598.04   21.80
  -2   2   2  569.64   21.80
   1  -2  -2  112.09    5.00
   1  -2  -2  116.69    4.70
   1  -2  -2  109.99    4.70
  -1   2   2  124.29    5.30
  -1   2   2  106.59    4.90
  -1   2   2  121.29    4.80
  -1   2   2  105.29    4.70
   0  -2  -2  124.29    5.30
   0  -2  -2  121.89    4.60
   0   2   2  121.59    4.60
   0   2   2  126.69    5.20
   0   2   2  126.19    4.90
   0   2   2  122.19    5.20
   0   2   2  117.39    4.60
  -1  -2  -2 1151.38   40.30
  -1  -2  -2 1201.18   41.10
  -1  -2  -2 1180.18   40.70
  -1  -2  -2 1105.49   40.20
   1   2   2 1135.39   40.30
   1   2   2 1171.28   41.00
   1   2   2 1143.99   40.30
   1   2   2 1191.38   40.70
  -2  -2  -2    9.00    1.80
  -2  -2  -2    5.00    1.20
  -2  -2  -2    4.10    1.10
  -2  -2  -2    6.70    1.30
   2   2   2    7.10    1.30
   2   2   2    6.70    1.20
   2   2   2    8.40    1.70
   2   2   2    6.20    1.30
  -3  -2  -2 1115.89   40.00
  -3  -2  -2 1116.19   40.10
  -3  -2  -2 1157.38   40.60
   3   2   2 1074.99   40.00
   3   2   2 1134.59   40.60
   3   2   2 1172.48   40.20
  -4  -2  -2   -0.50    1.40
  -4  -2  -2    0.80    1.70
   4   2   2    0.40    1.60
  -5  -2  -2   76.69    5.20
  -5  -2  -2   72.69    4.80
   5   2   2   73.79    5.20
  -6  -2  -2  214.68   10.90
  -6  -2  -2  251.57   11.10
   6   2   2  232.58   11.30
  -7  -2  -2   14.50    3.50
  -7  -2  -2   14.20    3.70
   7   2   2   13.50    3.70
  -8  -2  -2    3.70    3.50
  -8  -2  -2    5.20    3.40
   8   2   2    3.60    3.90
   8   2   2    6.70    3.60
  -9  -2  -2   -0.60    3.60
   9   2   2  -11.00    3.80
   9   2   2    0.10    3.60
 -10  -2  -2    4.80    4.30
  10   2   2    3.30    4.50
  10   2   2   -5.20    5.40
   9  -3  -2   -5.10    4.50
   9  -3  -2    4.80    4.50
  -9   3   2    4.60    4.50
   8  -3  -2    3.00    4.20
   8  -3  -2    5.60    4.10
  -8   3   2    1.40    3.30
   7  -3  -2   14.30    4.00
   7  -3  -2    6.10    3.50
  -7   3   2    9.90    3.70
   6  -3  -2   89.69    7.20
   6  -3  -2   82.79    6.70
  -6   3   2   98.79    6.90
  -6   3   2   97.59    5.50
   5  -3  -2   85.79    6.60
   5  -3  -2   89.69    6.30
  -5   3   2  103.69    6.40
  -5   3   2  103.79    5.30
   4  -3  -2   52.29    4.70
   4  -3  -2   43.30    4.10
  -4   3   2   49.70    3.30
  -4   3   2   46.20    4.00
   3  -3  -2    8.90    2.10
   3  -3  -2   10.80    2.40
  -3   3   2    8.40    1.70
  -3   3   2    8.10    2.00
  -3   3   2    8.40    1.90
   2  -3  -2   85.89    4.40
   2  -3  -2   85.89    4.60
  -2   3   2   85.29    4.40
  -2   3   2   91.29    4.90
  -2   3   2   80.19    4.30
   1  -3  -2    7.30    1.30
   1  -3  -2    7.90    1.70
   1  -3  -2    5.30    1.20
   1  -3  -2    7.90    1.60
  -1   3   2    5.50    1.30
  -1   3   2    9.10    1.40
  -1   3   2    8.70    1.70
  -1   3   2    8.00    1.30
   0  -3  -2  270.57    9.90
   0  -3  -2  258.17   10.50
   0  -3  -2  268.17    9.90
   0  -3  -2  259.37    9.90
   0   3   2  261.87    9.90
   0   3   2  273.67    9.90
   0   3   2  266.47    9.90
   0   3   2  276.17   10.60
  -1  -3  -2 5596.34  187.28
  -1  -3  -2 5415.26  186.68
  -1  -3  -2 5303.67  186.68
   1   3   2 5388.46  187.98
   1   3   2 5342.97  187.18
   1   3   2 5477.95  186.98
  -2  -3  -2  396.76   14.40
  -2  -3  -2  395.46   14.40
  -2  -3  -2  396.76   14.90
   2   3   2  381.36   14.40
   2   3   2  389.06   14.50
   2   3   2  399.56   14.90
   2   3   2  389.36   15.20
  -3  -3  -2   67.09    3.50
  -3  -3  -2   55.99    4.00
  -3  -3  -2   59.49    3.90
   3   3   2   52.59    3.50
   3   3   2   53.89    3.40
   3   3   2   55.19    3.90
  -4  -3  -2  269.27   11.00
  -4  -3  -2  233.68   10.40
  -4  -3  -2  238.78   10.90
   4   3   2  260.57   10.50
   4   3   2  249.58   10.50
  -5  -3  -2   25.70    3.20
  -5  -3  -2   21.60    3.30
   5   3   2   22.50    3.10
  -6  -3  -2  217.88   10.60
  -6  -3  -2  213.28   10.70
   6   3   2  227.88   10.70
  -7  -3  -2   30.00    4.40
  -7  -3  -2   26.50    4.10
   7   3   2   22.90    4.10
  -8  -3  -2   19.60    4.20
  -8  -3  -2   15.30    4.10
   8   3   2   19.80    4.70
   8   3   2   13.00    4.20
  -9  -3  -2   -0.90    3.30
  -9  -3  -2   -5.00    3.30
   9   3   2   -2.10    3.60
   9   3   2    5.90    4.70
 -10  -3  -2    4.10    4.50
 -10  -3  -2    2.50    4.30
  10   3   2    4.70    4.60
  10   3   2    2.50    5.50
   9  -4  -2    6.00    5.00
   9  -4  -2    1.10    4.40
   8  -4  -2   20.50    5.00
   8  -4  -2   14.80    5.10
  -8   4   2   13.30    4.70
   7  -4  -2   47.30    5.90
   7  -4  -2   45.40    5.90
  -7   4   2   52.99    6.00
   6  -4  -2   56.19    6.10
   6  -4  -2   63.79    6.00
  -6   4   2   70.49    4.90
  -6   4   2   69.29    6.50
   5  -4  -2   66.29    6.20
   5  -4  -2   76.29    5.70
  -5   4   2   63.19    5.50
  -5   4   2   68.09    4.70
   4  -4  -2   -2.70    2.00
   4  -4  -2   -0.40    1.90
  -4   4   2    0.40    1.80
  -4   4   2    0.60    1.50
   3  -4  -2   13.70    2.50
   3  -4  -2   19.60    2.90
  -3   4   2   15.60    2.50
   2  -4  -2   21.00    2.70
   2  -4  -2   20.40    2.50
  -2   4   2   23.10    2.50
  -2   4   2   22.10    2.50
   1  -4  -2  122.09    6.10
   1  -4  -2  122.69    5.60
   1  -4  -2  142.59    6.00
   1  -4  -2  122.59    5.50
  -1   4   2  120.59    5.60
  -1   4   2  113.49    5.40
  -1   4   2  126.39    6.10
   0  -4  -2  626.74   22.90
   0  -4  -2  614.14   22.20
   0  -4  -2  632.94   22.20
   0  -4  -2  640.34   22.10
   0   4   2  599.74   22.30
   0   4   2  613.34   22.00
   0   4   2  598.44   22.20
   0   4   2  638.54   22.90
  -1  -4  -2 2167.08   77.59
  -1  -4  -2 2304.67   78.39
  -1  -4  -2 2253.77   77.69
   1   4   2 2233.88   77.69
   1   4   2 2319.17   78.29
   1   4   2 2132.59   77.59
  -2  -4  -2  539.85   19.70
  -2  -4  -2  526.75   20.30
  -2  -4  -2  534.05   19.70
   2   4   2  554.84   20.70
   2   4   2  553.74   20.40
   2   4   2  542.15   19.70
   2   4   2  543.75   19.80
  -3  -4  -2  188.88    8.00
  -3  -4  -2  190.18    8.60
   3   4   2  193.08    8.10
   3   4   2  186.68    8.20
  -4  -4  -2  169.78    8.20
  -4  -4  -2  160.88    7.50
   4   4   2  156.88    7.50
   4   4   2  163.58    7.50
  -5  -4  -2   48.90    4.80
  -5  -4  -2   52.29    4.20
   5   4   2   52.99    4.30
  -6  -4  -2  239.38   11.80
  -6  -4  -2  257.87   11.60
   6   4   2  242.18   11.60
  -7  -4  -2    8.20    3.40
  -7  -4  -2   10.50    3.20
   7   4   2    7.90    3.30
   7   4   2    4.80    3.00
  -8  -4  -2   12.80    4.10
  -8  -4  -2    9.50    3.40
   8   4   2    7.60    3.70
   8   4   2    6.00    3.70
  -9  -4  -2   25.10    5.30
  -9  -4  -2   38.80    5.90
   9   4   2   40.40    6.60
   9   4   2   33.30    5.80
 -10  -4  -2    0.30    4.20
 -10  -4  -2   -2.50    4.30
  10   4   2    4.20    5.40
  10   4   2   14.40    5.10
   8  -5  -2    9.40    4.70
   8  -5  -2    6.10    4.30
  -8   5   2   16.80    4.70
   7  -5  -2   41.60    6.10
   7  -5  -2   56.49    6.30
  -7   5   2   48.50    6.20
   6  -5  -2    1.10    3.00
   6  -5  -2    6.80    3.50
  -6   5   2    4.00    3.10
  -6   5   2    3.10    2.30
   5  -5  -2    3.30    2.70
   5  -5  -2    6.60    3.10
  -5   5   2    0.10    2.40
  -5   5   2    2.00    2.00
   4  -5  -2  399.86   17.40
   4  -5  -2  428.26   17.80
  -4   5   2  417.96   17.40
  -4   5   2  458.65   17.70
   3  -5  -2  173.28    8.40
   3  -5  -2  177.18    8.70
  -3   5   2  175.78    8.30
   2  -5  -2  156.78    7.60
   2  -5  -2  169.28    7.60
   2  -5  -2  173.08    8.10
  -2   5   2  164.38    7.60
  -2   5   2  166.48    7.50
   1  -5  -2  159.68    7.40
   1  -5  -2  169.48    7.30
   1  -5  -2  166.58    8.00
  -1   5   2  175.28    7.40
  -1   5   2  182.68    7.50
   0  -5  -2  543.45   20.10
   0  -5  -2  557.74   19.70
   0   5   2  546.95   20.20
   0   5   2  546.65   20.20
  -1  -5  -2   61.49    3.50
   1   5   2   65.79    3.50
   1   5   2   54.29    3.50
  -2  -5  -2 1324.17   47.10
  -2  -5  -2 1313.87   47.80
   2   5   2 1356.26   47.20
   2   5   2 1329.07   47.10
  -3  -5  -2  283.47   11.90
  -3  -5  -2  327.97   12.90
   3   5   2  296.27   12.00
   3   5   2  301.77   12.20
  -4  -5  -2   94.29    5.40
  -4  -5  -2  101.59    6.00
   4   5   2  100.09    5.50
  -5  -5  -2  287.57   13.00
  -5  -5  -2  296.27   12.30
   5   5   2  270.67   12.40
  -6  -5  -2   98.29    7.30
  -6  -5  -2  100.29    6.50
   6   5   2  122.59    6.50
   6   5   2  110.49    6.90
  -7  -5  -2    2.90    3.10
  -7  -5  -2    0.70    2.40
   7   5   2   -1.80    2.50
   7   5   2    3.30    2.80
  -8  -5  -2   30.50    4.90
  -8  -5  -2   23.70    4.90
   8   5   2   27.00    4.90
   8   5   2   24.70    4.70
  -9  -5  -2   59.19    6.90
  -9  -5  -2   52.99    7.10
   9   5   2   47.00    6.50
   9   5   2   67.69    7.50
 -10  -5  -2   14.70    5.30
 -10  -5  -2   17.90    5.10
  10   5   2   17.10    5.80
  10   5   2   17.10    5.40
   8  -6  -2    5.30    4.40
   8  -6  -2    7.00    4.30
  -8   6   2    3.50    4.30
   7  -6  -2   -1.60    3.70
   7  -6  -2   13.70    4.20
  -7   6   2    1.30    3.60
   6  -6  -2   -1.00    3.20
   6  -6  -2   -0.70    3.10
  -6   6   2    3.40    3.00
  -6   6   2   -1.50    3.00
   5  -6  -2   30.70    4.70
   5  -6  -2   28.60    4.40
  -5   6   2   32.10    4.50
  -5   6   2   32.30    4.60
   4  -6  -2  218.08   10.90
   4  -6  -2  229.28   10.70
  -4   6   2  228.78   10.80
  -4   6   2  205.28   10.80
   3  -6  -2  354.26   15.10
   3  -6  -2  368.76   15.10
  -3   6   2  358.16   15.10
   2  -6  -2   17.40    2.90
   2  -6  -2   16.40    2.60
   2  -6  -2   12.90    2.40
  -2   6   2   16.10    2.50
   1  -6  -2   98.19    5.70
   1  -6  -2   90.29    5.10
   1  -6  -2   94.49    4.80
  -1   6   2   91.09    5.00
  -1   6   2   89.49    5.10
   0  -6  -2   50.79    3.10
   0  -6  -2   60.79    3.80
   0  -6  -2   53.69    4.40
   0   6   2   64.29    3.80
   0   6   2   55.49    3.70
  -1  -6  -2 2412.96   86.39
  -1  -6  -2 2440.16   85.69
   1   6   2 2490.75   85.69
  -2  -6  -2 2564.94   88.49
  -2  -6  -2 2444.86   89.19
   2   6   2 2532.55   88.49
   2   6   2 2576.04   88.69
  -3  -6  -2  820.62   29.90
  -3  -6  -2  841.22   30.80
   3   6   2  821.62   29.90
   3   6   2  789.62   30.10
  -4  -6  -2   51.79    4.10
  -4  -6  -2   56.49    5.00
   4   6   2   52.99    4.20
   4   6   2   55.19    3.20
  -5  -6  -2  129.39    7.20
  -5  -6  -2  139.09    8.10
   5   6   2  131.59    7.40
   5   6   2  148.29    6.70
  -6  -6  -2   -0.20    2.10
  -6  -6  -2    3.60    2.80
   6   6   2    0.50    2.10
   6   6   2   -2.20    2.10
  -7  -6  -2   25.50    5.10
  -7  -6  -2   31.90    4.30
   7   6   2   26.70    4.10
   7   6   2   31.90    4.70
  -8  -6  -2   64.09    7.40
  -8  -6  -2   57.89    6.10
   8   6   2   60.89    6.30
   8   6   2   62.79    6.70
  -9  -6  -2   48.30    6.90
  -9  -6  -2   59.29    6.60
   9   6   2   51.49    6.60
   9   6   2   60.39    7.20
 -10  -6  -2    6.20    4.10
 -10  -6  -2    4.30    4.80
  10   6   2    8.70    4.80
  10   6   2    5.60    5.10
   7  -7  -2    5.50    4.10
   7  -7  -2    1.20    3.80
  -7   7   2   -3.50    3.30
   6  -7  -2   32.40    5.40
   6  -7  -2   31.10    5.10
  -6   7   2   24.00    4.90
  -6   7   2   30.50    5.20
   5  -7  -2   50.89    6.00
   5  -7  -2   55.99    6.00
  -5   7   2   53.09    6.10
  -5   7   2   70.69    6.50
   4  -7  -2  242.78   11.90
   4  -7  -2  258.87   12.20
  -4   7   2  246.08   11.80
  -4   7   2  238.08   12.30
   3  -7  -2   14.60    3.20
   3  -7  -2   29.00    3.80
  -3   7   2   19.20    3.40
   2  -7  -2  148.49    8.20
   2  -7  -2  146.69    7.40
   2  -7  -2  147.59    7.60
  -2   7   2  144.29    7.50
   1  -7  -2  117.89    6.50
   1  -7  -2  120.09    5.90
   1  -7  -2  126.19    7.10
  -1   7   2  117.79    6.30
   0  -7  -2   11.80    2.80
   0  -7  -2   12.30    2.20
   0  -7  -2   12.30    1.70
   0   7   2   13.10    2.20
   0   7   2    9.30    2.10
  -1  -7  -2 1663.43   60.69
  -1  -7  -2 1792.32   59.89
   1   7   2 1669.93   59.99
   1   7   2 1621.14   59.79
  -2  -7  -2   94.09    5.20
  -2  -7  -2   81.99    5.70
   2   7   2   92.59    5.10
   2   7   2   83.99    5.00
  -3  -7  -2   81.29    5.70
   3   7   2   75.89    4.90
   3   7   2   74.79    5.20
  -4  -7  -2  152.58    8.50
  -4  -7  -2  158.58    7.70
   4   7   2  150.58    7.70
  -5  -7  -2    1.50    2.60
  -5  -7  -2    4.20    2.20
   5   7   2    3.10    2.00
   5   7   2    3.10    1.60
  -6  -7  -2  244.28   12.50
  -6  -7  -2  240.58   11.30
   6   7   2  226.48   11.50
   6   7   2  234.88   10.40
  -7  -7  -2   65.49    6.10
  -7  -7  -2   52.69    6.30
   7   7   2   44.60    5.30
   7   7   2   53.49    5.00
  -8  -7  -2   79.09    7.40
  -8  -7  -2   78.79    8.10
   8   7   2   86.49    7.10
   8   7   2   92.29    7.60
  -9  -7  -2   19.80    4.70
  -9  -7  -2   20.10    5.30
   9   7   2    9.10    3.90
   9   7   2   21.20    5.00
   7  -8  -2    5.10    4.60
   7  -8  -2    0.80    3.90
  -7   8   2    1.00    4.00
   6  -8  -2   23.30    5.00
   6  -8  -2   30.20    5.10
  -6   8   2   31.00    5.50
   5  -8  -2  120.79    8.40
   5  -8  -2   85.69    7.80
  -5   8   2   88.79    7.50
  -5   8   2   90.69    7.90
   4  -8  -2   10.10    3.60
   4  -8  -2   11.30    3.40
  -4   8   2   11.70    4.70
  -4   8   2   13.00    3.40
   3  -8  -2    3.90    2.90
   3  -8  -2    4.70    2.60
   3  -8  -2    2.00    2.30
  -3   8   2    1.80    2.30
   2  -8  -2   33.70    4.50
   2  -8  -2   28.40    3.80
   2  -8  -2   32.60    3.70
  -2   8   2   30.20    3.90
   1  -8  -2  109.19    6.90
   1  -8  -2  103.89    5.40
   1  -8  -2   94.09    6.10
  -1   8   2  103.69    6.20
   0  -8  -2  356.86   15.40
   0  -8  -2  347.47   14.50
   0  -8  -2  355.36   13.40
   0   8   2  349.17   14.60
  -1  -8  -2  597.54   23.10
  -1  -8  -2  581.44   22.30
   1   8   2  563.34   22.40
  -2  -8  -2   32.00    3.50
  -2  -8  -2   37.90    4.50
   2   8   2   31.30    3.60
  -3  -8  -2   40.20    4.00
  -3  -8  -2   54.59    5.50
   3   8   2   40.10    4.10
  -4  -8  -2   52.19    5.60
  -4  -8  -2   53.19    4.40
   4   8   2   53.89    4.70
  -5  -8  -2   73.89    5.20
  -5  -8  -2   70.69    6.80
   5   8   2   58.19    5.20
   5   8   2   69.39    3.70
  -6  -8  -2  266.77   12.40
  -6  -8  -2  256.67   13.70
   6   8   2  274.77   12.80
   6   8   2  254.27   10.90
  -7  -8  -2   72.19    6.30
  -7  -8  -2   57.39    7.00
   7   8   2   65.99    6.60
   7   8   2   73.99    5.60
  -8  -8  -2   23.40    4.50
  -8  -8  -2   29.60    5.50
   8   8   2   25.90    5.10
  -9  -8  -2   -2.20    3.80
  -9  -8  -2    1.80    3.50
   9   8   2   -2.70    3.60
   6  -9  -2   -1.60    3.80
   6  -9  -2   -4.10    3.40
  -6   9   2    5.40    4.10
   5  -9  -2   20.50    4.70
   5  -9  -2   22.80    4.60
  -5   9   2   21.70    4.70
  -5   9   2   17.80    5.00
   4  -9  -2    5.80    3.60
   4  -9  -2   10.50    3.40
  -4   9   2   13.10    4.30
  -4   9   2    7.80    3.40
   3  -9  -2    9.90    2.90
   3  -9  -2    6.10    3.70
   3  -9  -2   16.40    3.60
  -3   9   2    9.70    3.40
   2  -9  -2   10.50    2.70
   2  -9  -2   13.80    3.30
   2  -9  -2   17.90    3.90
  -2   9   2   11.20    3.20
   1  -9  -2   36.20    3.50
   1  -9  -2   41.60    5.00
   1  -9  -2   59.59    5.30
  -1   9   2   35.30    4.20
   0  -9  -2  213.08   10.70
   0  -9  -2  210.78    9.90
   0  -9  -2  188.78    8.20
   0   9   2  189.08    9.50
  -1  -9  -2   46.10    5.10
  -1  -9  -2   38.70    4.20
   1   9   2   32.60    3.90
  -2  -9  -2   29.70    3.60
  -2  -9  -2   27.30    4.20
   2   9   2   32.50    3.80
  -3  -9  -2   43.00    5.00
  -3  -9  -2   38.00    4.20
   3   9   2   36.30    4.20
  -4  -9  -2    8.80    2.60
  -4  -9  -2   13.10    3.70
   4   9   2   11.80    2.90
  -5  -9  -2  204.88   10.50
  -5  -9  -2  211.18   11.70
   5   9   2  212.18   10.70
  -6  -9  -2    5.70    3.50
  -6  -9  -2    0.20    2.30
   6   9   2    2.70    2.80
  -7  -9  -2   -1.50    2.50
  -7  -9  -2    1.10    3.60
   7   9   2   -2.90    2.70
  -8  -9  -2   80.19    7.50
  -8  -9  -2   64.29    8.20
   8   9   2   70.99    7.50
  -9  -9  -2   49.00    7.60
   9   9   2   50.29    6.80
   6 -10  -2    0.90    4.10
   5 -10  -2   50.09    6.60
   5 -10  -2   35.90    5.80
  -5  10   2   39.10    6.80
  -5  10   2   51.29    6.70
   4 -10  -2    1.60    3.00
   4 -10  -2    4.40    3.70
  -4  10   2    3.10    4.20
  -4  10   2    0.40    3.00
   3 -10  -2    3.70    3.60
   3 -10  -2    3.80    2.70
   3 -10  -2    1.50    2.80
  -3  10   2    2.60    3.00
   2 -10  -2   14.80    4.00
   2 -10  -2   17.00    3.80
   2 -10  -2   19.40    3.30
  -2  10   2   10.00    3.20
   1 -10  -2    5.80    3.30
   1 -10  -2    3.90    2.00
   1 -10  -2    5.70    3.00
  -1  10   2    7.60    2.80
   0 -10  -2   31.40    4.80
   0 -10  -2   27.80    4.10
   0 -10  -2   28.40    2.70
   0  10   2   28.70    3.90
  -1 -10  -2   19.20    3.40
  -1 -10  -2   20.40    4.20
   1  10   2   16.50    3.30
  -2 -10  -2    4.80    3.00
  -2 -10  -2    8.50    2.60
   2  10   2    6.50    2.60
  -3 -10  -2   58.89    5.40
   3  10   2   58.79    5.20
  -4 -10  -2  120.99    7.70
  -4 -10  -2  134.89    9.00
   4  10   2  130.89    7.80
  -5 -10  -2   70.59    7.40
  -5 -10  -2   61.69    5.40
   5  10   2   68.39    5.90
  -6 -10  -2   42.20    6.10
  -6 -10  -2   49.70    5.60
   6  10   2   52.39    5.80
  -7 -10  -2   -1.80    2.60
  -7 -10  -2    0.90    3.50
   7  10   2    3.80    3.40
  -8 -10  -2    4.80    4.40
  -8 -10  -2    1.80    3.70
   8  10   2    0.10    3.50
  -9 -10  -2   20.10    5.90
   9  10   2   16.20    5.10
   5 -11  -2    2.40    3.80
  -5  11   2   -2.90    4.60
  -5  11   2    0.80    3.80
   4 -11  -2   11.30    6.60
   4 -11  -2    0.40    3.20
  -4  11   2    8.40    5.10
  -4  11   2   14.30    4.50
   3 -11  -2  177.68   11.90
   3 -11  -2  182.08   10.20
   3 -11  -2  201.08   11.30
  -3  11   2  175.08   10.80
   2 -11  -2   93.89    7.40
   2 -11  -2   97.19    6.40
   2 -11  -2   94.79    8.30
  -2  11   2   83.29    7.30
   1 -11  -2   18.90    4.60
   1 -11  -2   18.20    3.10
   1 -11  -2   23.70    4.30
  -1  11   2   17.90    3.80
   0 -11  -2   64.29    6.20
   0 -11  -2   55.09    6.50
   0  11   2   57.79    5.90
  -1 -11  -2  161.58   10.30
  -1 -11  -2  172.78    9.30
   1  11   2  177.68    9.80
  -2 -11  -2   34.50    5.20
  -2 -11  -2   43.30    4.90
   2  11   2   47.40    5.50
  -3 -11  -2  187.98   11.40
  -3 -11  -2  173.58    9.80
   3  11   2  188.98   10.20
  -4 -11  -2   15.10    3.50
  -4 -11  -2   19.40    4.70
   4  11   2   13.80    3.50
  -5 -11  -2   33.60    4.80
  -5 -11  -2   38.70    6.00
   5  11   2   38.20    5.20
  -6 -11  -2    3.40    3.00
  -6 -11  -2    2.70    3.90
   6  11   2    4.10    3.40
  -7 -11  -2   -0.40    3.80
  -7 -11  -2    3.70    5.30
   7  11   2   -5.80    3.00
  -8 -11  -2   23.70    6.00
   8  11   2   10.70    4.70
  -4  12   2   23.90    5.70
  -4  12   2   26.70    6.90
   3 -12  -2   62.99    7.70
  -3  12   2   59.29    7.00
   2 -12  -2   85.39    8.70
   2 -12  -2   90.89    9.20
  -2  12   2   95.29    8.20
   1 -12  -2    7.40    4.10
   1 -12  -2    8.00    3.70
  -1  12   2    8.00    3.40
   0 -12  -2   11.20    4.30
   0 -12  -2   14.90    3.80
   0  12   2   15.10    3.80
  -1 -12  -2   95.19    7.30
  -1 -12  -2  102.19    8.80
   1  12   2   92.89    7.30
  -2 -12  -2   29.20    5.40
  -2 -12  -2   25.40    4.30
   2  12   2   19.60    4.20
  -3 -12  -2  153.88   10.80
  -3 -12  -2  179.78    9.70
   3  12   2  162.68    9.90
  -4 -12  -2   22.40    4.20
  -4 -12  -2   27.80    5.60
   4  12   2   19.30    4.10
  -5 -12  -2   -0.80    3.60
  -5 -12  -2    1.50    2.90
   5  12   2   -0.60    2.80
  -6 -12  -2   28.50    6.40
   6  12   2   39.60    5.90
  -7 -12  -2   42.20    7.70
   7  12   2   38.50    6.00
  -8 -12  -2   22.70    6.50
   3 -13  -2    0.30    4.90
  -3  13   2    4.90    4.10
   2 -13  -2   -2.40    4.30
  -2  13   2    3.40    3.90
   1 -13  -2   41.30    6.70
  -1  13   2   42.20    5.90
   0 -13  -2   52.89    7.30
   0  13   2   56.49    6.80
  -1 -13  -2   63.49    7.60
   1  13   2   76.99    7.30
  -2 -13  -2   95.39    9.30
   2  13   2   94.49    7.90
  -3 -13  -2  120.19   10.10
   3  13   2  115.59    8.80
  -4 -13  -2   18.40    5.50
   4  13   2   19.10    4.50
  -5 -13  -2   36.10    6.70
   5  13   2   49.20    6.30
  -6 -13  -2  102.19   10.90
   6  13   2  104.09    8.40
  -7 -13  -2   72.59    9.60
   7  13   2   68.59    8.10
   1 -14  -2   32.40    6.80
  -1  14   2   43.10    6.60
   0 -14  -2   64.89    8.50
   0  14   2   77.59    8.10
  -1 -14  -2   14.60    5.20
   1  14   2   14.70    4.30
  -2 -14  -2   19.50    5.70
   2  14   2   26.90    5.30
  -3 -14  -2    1.80    4.20
   3  14   2    3.20    3.30
  -4 -14  -2    3.70    4.50
   4  14   2    0.50    3.60
  -5 -14  -2   55.49    8.30
   5  14   2   56.69    7.00
  -6 -14  -2   57.79    9.10
  -1 -15  -2    1.60    5.00
  -2 -15  -2    2.00    4.70
   2  15   2    4.10    4.20
  -3 -15  -2    9.20    5.50
   3  15   2    9.10    4.60
  -4 -13   3   27.40    5.80
  -4 -13   3   13.70    5.50
   3  13  -3   -1.40    3.60
  -3 -13   3   -4.70    4.00
  -3 -13   3   -4.40    4.50
   2  13  -3    9.10    5.00
  -2 -13   3   13.10    5.30
  -2 -13   3    7.40    4.80
   1  13  -3   25.10    5.40
  -1 -13   3   32.80    6.70
  -1 -13   3   17.50    5.70
   5  12  -3   22.50    5.40
  -5 -12   3   23.70    6.00
  -5 -12   3   22.50    5.50
   4  12  -3   -2.90    3.50
  -4 -12   3    7.40    4.60
  -4 -12   3   12.70    5.30
   3  12  -3   16.00    4.90
  -3 -12   3   17.50    4.80
  -3 -12   3   13.40    5.00
   2  12  -3  109.29    8.90
  -2 -12   3   91.19    9.00
  -2 -12   3  104.19    9.40
   1  12  -3   50.99    6.90
  -1 -12   3   46.70    6.70
  -1 -12   3   56.59    7.30
   0  12  -3   53.79    7.40
   0 -12   3   37.10    6.20
   0 -12   3   49.40    7.30
  -1  12  -3    0.00    3.70
   1 -12   3    2.50    4.80
  -2  12  -3   -0.60    4.90
   2 -12   3    1.30    4.60
   7  11  -3   41.30    6.80
  -7 -11   3   38.10    7.50
  -7 -11   3   41.60    6.60
   6  11  -3   16.70    4.80
  -6 -11   3    8.00    5.00
  -6 -11   3   13.70    5.00
   5  11  -3    1.80    3.40
  -5 -11   3    7.70    4.40
  -5 -11   3   -1.30    3.60
   4  11  -3   12.90    4.10
  -4 -11   3    9.80    4.70
  -4 -11   3    2.40    4.10
   3  11  -3   50.59    6.60
  -3 -11   3   65.29    7.20
  -3 -11   3   68.99    7.70
   2  11  -3  127.69    9.40
  -2 -11   3  136.59   10.00
  -2 -11   3  136.39   10.10
   1  11  -3   67.99    7.40
  -1 -11   3   86.49    8.10
  -1 -11   3   62.29    7.00
   0  11  -3   36.50    5.70
   0 -11   3   44.20    6.50
   0 -11   3   38.80    5.90
  -1  11  -3    1.20    3.40
   1 -11   3    0.80    3.80
   1 -11   3    5.50    4.40
  -2  11  -3    3.70    5.30
  -2  11  -3    8.80    4.20
   2 -11   3   14.80    5.00
  -3  11  -3   20.30    5.50
  -3  11  -3   21.30    6.90
   3 -11   3   25.90    6.20
   7  10  -3    1.70    3.70
  -7 -10   3   11.70    5.40
   6  10  -3    5.80    4.00
  -6 -10   3    3.80    3.70
  -6 -10   3   -1.40    3.80
   5  10  -3   13.40    4.20
  -5 -10   3    9.90    4.40
  -5 -10   3   10.90    4.10
   4  10  -3    3.20    3.40
  -4 -10   3    5.00    3.70
  -4 -10   3    2.00    3.30
   3  10  -3    1.60    3.00
  -3 -10   3   -2.40    3.10
  -3 -10   3    5.10    3.70
   2  10  -3   13.30    3.90
  -2 -10   3   11.60    3.90
  -2 -10   3    8.80    3.60
   1  10  -3   64.39    6.80
  -1 -10   3   63.09    6.60
  -1 -10   3   57.89    6.70
   0  10  -3    7.70    3.50
   0 -10   3   15.00    4.50
   0 -10   3    5.60    3.80
  -1  10  -3  149.88    9.90
   1 -10   3  139.49    9.40
   1 -10   3  142.19   10.00
  -2  10  -3   31.60    7.00
  -2  10  -3   40.20    6.00
   2 -10   3   37.10    6.30
   2 -10   3   44.50    5.80
  -3  10  -3   35.80    6.10
  -3  10  -3   30.90    6.90
   3 -10   3   39.20    6.70
  -4  10  -3   10.80    6.10
  -4  10  -3   17.20    5.20
   4 -10   3   19.70    5.60
   8   9  -3   37.20    6.60
  -8  -9   3   33.00    7.00
  -8  -9   3   55.39    7.10
   7   9  -3    1.80    3.60
  -7  -9   3   10.50    4.80
  -7  -9   3    7.60    4.00
   6   9  -3   14.50    4.10
  -6  -9   3   16.50    5.00
   5   9  -3   90.49    7.70
  -5  -9   3   96.19    8.60
  -5  -9   3   94.79    7.50
   4   9  -3   41.40    5.60
  -4  -9   3   49.30    6.40
  -4  -9   3   40.90    5.50
   3   9  -3   66.49    6.60
  -3  -9   3   73.39    6.50
  -3  -9   3   77.99    6.90
   2   9  -3   60.59    6.10
  -2  -9   3   45.30    5.80
  -2  -9   3   44.60    5.50
   1   9  -3   29.30    4.50
  -1  -9   3   23.60    4.40
  -1  -9   3   27.60    4.50
   0   9  -3    2.60    2.80
   0  -9   3    2.30    3.00
   0  -9   3    7.10    3.50
  -1   9  -3   61.89    6.40
   1  -9   3   57.09    5.90
   1  -9   3   65.59    6.80
  -2   9  -3   10.20    5.00
  -2   9  -3   15.10    3.90
   2  -9   3   13.90    3.80
   2  -9   3   12.50    4.50
  -3   9  -3    2.90    3.50
  -3   9  -3   -2.90    4.30
   3  -9   3    5.20    4.20
  -4   9  -3   -2.30    4.40
  -4   9  -3    1.20    3.70
   4  -9   3    1.20    4.40
  -5   9  -3    6.10    4.50
  -5   9  -3    4.70    5.30
   5  -9   3    7.20    4.80
   8   8  -3    4.50    4.40
  -8  -8   3    4.40    3.90
  -8  -8   3   -1.60    4.90
   7   8  -3   38.90    5.90
  -7  -8   3   45.50    5.90
  -7  -8   3   40.30    7.00
   6   8  -3   42.70    5.80
  -6  -8   3   48.10    5.90
  -6  -8   3   38.70    6.10
   5   8  -3   48.70    5.80
  -5  -8   3   51.29    6.50
   4   8  -3  104.59    7.50
  -4  -8   3  115.89    7.80
  -4  -8   3  108.69    8.20
   3   8  -3   16.40    3.40
  -3  -8   3    9.80    3.40
  -3  -8   3    9.10    3.20
   2   8  -3   19.00    3.50
  -2  -8   3   15.50    3.50
  -2  -8   3   15.80    3.60
   1   8  -3    3.10    2.70
  -1  -8   3    3.40    2.70
  -1  -8   3    1.00    2.70
   0   8  -3  253.27   12.70
   0  -8   3  272.97   12.90
   0  -8   3  273.57   12.70
  -1   8  -3  143.29    8.80
   1  -8   3  154.78    9.30
   1  -8   3  149.49    8.50
  -2   8  -3  127.29    8.20
  -2   8  -3  116.89   10.20
   2  -8   3  108.29    8.50
   2  -8   3  126.19    7.70
  -3   8  -3   15.20    5.00
  -3   8  -3   22.10    4.60
   3  -8   3   14.70    3.50
   3  -8   3   16.80    4.30
  -4   8  -3   11.30    5.10
  -4   8  -3    7.20    3.70
   4  -8   3    7.00    4.20
  -5   8  -3   25.30    6.20
  -5   8  -3   35.60    6.00
   5  -8   3   29.80    6.10
  -6   8  -3    9.70    4.60
  -6   8  -3   15.40    5.90
   6  -8   3   11.10    5.10
   9   7  -3   -2.90    3.70
  -9  -7   3   -2.20    5.00
  -9  -7   3    7.30    4.30
   8   7  -3    9.00    4.40
  -8  -7   3   12.80    5.20
  -8  -7   3   14.50    4.50
   7   7  -3   24.40    4.90
  -7  -7   3   23.40    5.60
  -7  -7   3   22.20    4.50
   6   7  -3   54.39    6.10
  -6  -7   3   45.30    5.50
  -6  -7   3   40.40    6.20
   5   7  -3  166.98    9.80
  -5  -7   3  180.48   10.80
  -5  -7   3  178.68    9.90
   4   7  -3   99.59    6.90
  -4  -7   3   90.49    5.30
  -4  -7   3  103.29    6.80
  -4  -7   3   95.59    7.30
   3   7  -3   17.00    3.10
  -3  -7   3   13.70    3.30
  -3  -7   3   11.80    1.70
  -3  -7   3   17.10    3.50
   2   7  -3   97.79    6.60
  -2  -7   3  106.69    6.70
  -2  -7   3   88.99    6.60
   1   7  -3  127.39    7.60
  -1  -7   3  114.49    7.20
  -1  -7   3  120.69    7.30
   0   7  -3  565.14   22.90
   0  -7   3  540.85   22.30
   0  -7   3  601.14   22.90
  -1   7  -3  295.47   13.90
   1  -7   3  306.17   13.60
   1  -7   3  342.47   14.60
  -2   7  -3    3.70    2.70
  -2   7  -3   10.50    3.80
   2  -7   3   12.30    2.90
   2  -7   3   11.50    3.60
  -3   7  -3    6.20    3.80
  -3   7  -3    1.20    2.80
   3  -7   3    3.20    3.10
   3  -7   3    0.80    2.60
  -4   7  -3    3.10    3.00
  -4   7  -3   -1.00    3.60
   4  -7   3    3.00    3.60
  -5   7  -3    2.10    3.20
  -5   7  -3   -0.40    4.20
   5  -7   3   -1.00    3.70
  -6   7  -3   43.30    6.40
  -6   7  -3   33.00    6.60
   6  -7   3   37.90    6.40
   7  -7   3   -1.40    4.80
   9   6  -3   22.30    5.70
  -9  -6   3   12.30    4.60
  -9  -6   3   18.70    6.00
   8   6  -3  105.89    8.90
   8   6  -3  120.59    8.60
  -8  -6   3  113.89    9.90
  -8  -6   3  112.39    8.70
   7   6  -3   18.10    4.10
   7   6  -3   22.90    4.60
  -7  -6   3   24.10    5.10
  -7  -6   3   21.40    4.40
   6   6  -3  179.58    9.20
   6   6  -3  187.28   10.40
  -6  -6   3  207.28   12.00
  -6  -6   3  185.08   10.30
   5   6  -3   95.89    6.90
  -5  -6   3   84.19    7.20
  -5  -6   3   99.79    6.60
   4   6  -3   51.79    5.10
  -4  -6   3   59.39    5.10
  -4  -6   3   48.20    5.60
   3   6  -3  401.76   16.90
  -3  -6   3  402.66   17.20
  -3  -6   3  401.06   16.60
  -3  -6   3  396.06   15.00
   2   6  -3  388.76   16.00
  -2  -6   3  379.66   16.00
  -2  -6   3  371.66   15.90
   1   6  -3  265.57   12.40
  -1  -6   3  292.27   12.70
  -1  -6   3  285.67   12.30
   0   6  -3  596.04   23.60
   0  -6   3  643.74   23.40
   0  -6   3  571.84   23.60
  -1   6  -3   87.99    5.60
   1  -6   3   79.49    5.30
   1  -6   3   74.49    5.80
  -2   6  -3    2.20    2.20
  -2   6  -3   -2.00    2.90
   2  -6   3    2.80    2.50
   2  -6   3    1.60    1.90
  -3   6  -3  179.78   10.90
  -3   6  -3  161.68    9.40
   3  -6   3  167.78    8.40
   3  -6   3  188.98    9.90
  -4   6  -3   43.40    5.30
  -4   6  -3   49.40    6.70
   4  -6   3   52.39    5.80
  -5   6  -3   61.09    7.60
  -5   6  -3   63.29    6.80
   5  -6   3   52.49    6.50
  -6   6  -3   28.40    5.40
  -6   6  -3   29.70    6.00
   6  -6   3   30.50    5.50
  -7   6  -3    7.50    4.40
  -7   6  -3   10.60    5.00
   7  -6   3   18.20    5.60
   9   5  -3   62.19    7.40
   9   5  -3   45.60    6.70
  -9  -5   3   64.99    7.70
   8   5  -3   54.79    6.20
   8   5  -3   53.29    6.60
  -8  -5   3   55.99    6.60
   7   5  -3   20.00    4.00
   7   5  -3   14.80    4.20
  -7  -5   3   11.70    3.70
   6   5  -3    5.00    2.70
   6   5  -3    5.40    3.00
  -6  -5   3    9.50    3.00
   5   5  -3   24.70    3.70
   5   5  -3   30.80    3.40
  -5  -5   3   32.80    4.30
   4   5  -3  243.88   11.60
  -4  -5   3  261.17   11.50
   3   5  -3  189.48    9.20
  -3  -5   3  186.38    9.20
  -3  -5   3  191.88    7.90
  -3  -5   3  194.88    9.60
   2   5  -3  652.53   24.00
  -2  -5   3  590.14   23.80
  -2  -5   3  621.34   22.50
  -2  -5   3  621.94   24.00
   1   5  -3  110.69    6.20
  -1  -5   3  104.19    6.10
  -1  -5   3  111.79    6.40
   0   5  -3  274.87   11.70
   0  -5   3  268.07   11.80
   0  -5   3  269.47   11.40
  -1   5  -3   28.10    3.40
  -1   5  -3   33.80    2.90
   1  -5   3   28.30    3.00
   1  -5   3   29.50    3.60
  -2   5  -3   71.69    4.20
  -2   5  -3   72.09    6.10
   2  -5   3   80.19    4.60
   2  -5   3   71.99    5.50
  -3   5  -3  146.59    9.20
  -3   5  -3  134.49    7.70
  -3   5  -3  124.79    6.30
   3  -5   3  140.09    8.10
  -4   5  -3  225.18   12.40
  -4   5  -3  221.28   11.40
   4  -5   3  241.08   11.70
  -5   5  -3    8.70    3.40
  -5   5  -3    7.40    4.90
   5  -5   3   11.10    3.80
  -6   5  -3   15.60    4.60
  -6   5  -3   11.00    4.00
   6  -5   3   17.40    4.60
  -7   5  -3    2.30    3.40
  -7   5  -3    8.30    4.10
   7  -5   3    2.70    4.10
  -8   5  -3    4.40    4.50
   8  -5   3    6.40    4.30
   8  -5   3    1.50    4.70
   9   4  -3   21.50    5.30
   9   4  -3   21.70    5.80
  -9  -4   3   26.00    5.40
   8   4  -3   41.60    5.80
   8   4  -3   22.30    4.70
  -8  -4   3   27.90    5.00
   7   4  -3    0.20    2.80
   7   4  -3    0.20    3.00
  -7  -4   3   -2.60    2.60
   6   4  -3    3.00    2.70
   6   4  -3    5.50    2.80
  -6  -4   3    8.10    3.00
   5   4  -3   93.89    6.50
   5   4  -3  107.19    6.00
  -5  -4   3   94.99    6.20
   4   4  -3  512.55   19.10
   4   4  -3  509.35   19.90
  -4  -4   3  481.65   19.80
   3   4  -3  232.58   10.70
  -3  -4   3  249.28   10.60
  -3  -4   3  241.18    9.70
   2   4  -3   25.80    3.10
  -2  -4   3   31.20    3.50
  -2  -4   3   19.40    2.10
  -2  -4   3   21.00    2.80
   1   4  -3   16.10    2.50
  -1  -4   3   21.60    2.70
  -1  -4   3   21.60    2.80
   0   4  -3   21.90    2.80
   0  -4   3   28.40    3.20
   0  -4   3   29.80    2.80
  -1   4  -3  164.98    7.50
  -1   4  -3  145.99    6.60
   1  -4   3  151.98    6.80
   1  -4   3  149.99    7.60
  -2   4  -3  227.08   10.10
  -2   4  -3  217.78   11.20
  -2   4  -3  225.28    8.90
   2  -4   3  212.78   10.20
   2  -4   3  227.48    9.10
  -3   4  -3  221.48    8.80
  -3   4  -3  225.38   11.20
  -3   4  -3  196.38    9.90
   3  -4   3  211.68   10.30
  -4   4  -3   37.70    5.50
  -4   4  -3   36.10    4.50
  -4   4  -3   37.50    3.10
   4  -4   3   30.60    4.10
  -5   4  -3   22.60    4.10
  -5   4  -3   14.60    4.00
   5  -4   3   18.10    4.00
  -6   4  -3    4.80    3.50
  -6   4  -3   10.50    3.60
   6  -4   3   -0.30    3.40
  -7   4  -3   21.50    4.80
  -7   4  -3   12.60    4.20
   7  -4   3   13.80    4.60
  -8   4  -3   34.30    6.20
   8  -4   3   31.50    5.90
   9   3  -3   23.10    6.10
   9   3  -3   26.60    5.50
  -9  -3   3   15.90    4.90
   8   3  -3    7.40    4.40
   8   3  -3   19.10    4.60
  -8  -3   3   11.60    4.10
   7   3  -3   21.90    4.30
   7   3  -3   16.60    4.00
  -7  -3   3   20.90    4.00
   6   3  -3    6.50    2.80
   6   3  -3    4.70    2.60
  -6  -3   3    2.80    2.40
   5   3  -3   72.29    5.20
   5   3  -3   77.99    5.50
   5   3  -3   66.99    4.60
  -5  -3   3   71.09    5.40
   4   3  -3  599.94   22.50
   4   3  -3  598.74   23.20
  -4  -3   3  598.14   23.00
   3   3  -3    7.90    2.00
  -3  -3   3    9.10    2.10
  -3  -3   3    9.90    1.80
   2   3  -3    8.10    2.10
  -2  -3   3    6.40    1.40
  -2  -3   3    6.70    2.00
   1   3  -3  401.46   15.70
  -1  -3   3  413.16   15.70
  -1  -3   3  406.46   15.70
  -1  -3   3  406.36   15.80
   0   3  -3   24.90    2.80
   0  -3   3   21.80    2.30
   0  -3   3   25.10    2.70
   0  -3   3   23.80    2.70
  -1   3  -3  436.16   17.20
  -1   3  -3  425.26   16.10
  -1   3  -3  392.26   15.20
   1  -3   3  413.96   16.20
   1  -3   3  409.36   15.30
  -2   3  -3  368.66   13.20
  -2   3  -3  364.86   14.40
  -2   3  -3  353.56   15.40
   2  -3   3  341.37   13.20
   2  -3   3  356.06   14.40
  -3   3  -3  289.07   13.60
  -3   3  -3  311.27   11.50
  -3   3  -3  304.47   12.90
   3  -3   3  305.87   13.00
  -4   3  -3    7.40    1.60
  -4   3  -3    6.40    2.30
  -4   3  -3    6.70    2.80
   4  -3   3    3.70    2.60
  -5   3  -3   -0.50    1.70
  -5   3  -3    5.80    2.70
  -5   3  -3    1.50    2.50
   5  -3   3    0.50    2.50
  -6   3  -3   35.90    4.80
  -6   3  -3   14.70    4.70
   6  -3   3   23.10    4.50
  -7   3  -3   17.50    4.50
  -7   3  -3   30.30    5.20
   7  -3   3   26.90    5.10
  -8   3  -3   21.00    5.00
  -8   3  -3   29.50    5.70
   8  -3   3   32.60    5.70
   9   2  -3    1.40    4.80
   9   2  -3   -3.30    3.50
  -9  -2   3    2.40    3.80
   8   2  -3   11.40    4.80
   8   2  -3   24.40    4.80
  -8  -2   3   18.00    4.50
   7   2  -3    5.00    3.30
   7   2  -3    1.40    2.90
  -7  -2   3    5.00    3.20
   6   2  -3  138.99    8.00
   6   2  -3  122.99    6.20
   6   2  -3  144.09    8.10
  -6  -2   3  133.89    7.90
   5   2  -3  197.88    8.20
   5   2  -3  187.78    9.40
   5   2  -3  187.58    9.20
  -5  -2   3  186.48    9.30
   4   2  -3  194.18    9.20
   4   2  -3  196.98    8.90
  -4  -2   3  200.68    9.10
   3   2  -3    7.70    2.10
   3   2  -3   11.50    2.10
  -3  -2   3    9.00    2.10
   2   2  -3  133.99    6.30
  -2  -2   3  136.79    6.20
  -2  -2   3  135.99    6.30
  -2  -2   3  132.89    5.90
   1   2  -3   66.19    3.90
   1   2  -3   71.49    3.70
  -1  -2   3   62.29    3.80
  -1  -2   3   73.29    3.90
   0   2  -3  696.63   26.00
   0   2  -3  714.23   26.10
   0  -2   3  724.63   26.10
   0  -2   3  735.03   25.70
   0  -2   3  721.33   26.10
  -1   2  -3  936.01   34.40
   1  -2   3  882.31   32.60
   1  -2   3  996.60   33.50
   1  -2   3  913.21   33.50
  -2   2  -3  706.43   26.00
  -2   2  -3  736.43   28.00
  -2   2  -3  745.33   27.30
   2  -2   3  779.42   27.30
  -3   2  -3   -0.10    2.90
  -3   2  -3    0.90    1.00
  -3   2  -3    0.00    1.60
   3  -2   3    4.10    2.00
  -4   2  -3   48.10    3.20
  -4   2  -3   49.20    4.60
  -4   2  -3   52.29    4.30
   4  -2   3   52.89    4.60
  -5   2  -3  172.88    9.90
  -5   2  -3  186.68    9.60
  -5   2  -3  197.98    8.40
   5  -2   3  199.78   10.00
  -6   2  -3  200.48   10.90
  -6   2  -3  204.28   10.70
   6  -2   3  210.18   10.90
  -7   2  -3   90.79    7.60
  -7   2  -3   86.79    7.40
   7  -2   3   96.19    8.00
  -8   2  -3   28.90    5.30
  -8   2  -3   33.40    5.80
   8  -2   3   37.20    5.70
  -9   2  -3    6.00    4.40
   9  -2   3   -7.80    3.50
   9  -2   3   -2.40    4.20
   9   1  -3    4.10    5.00
   9   1  -3   -4.30    3.50
  -9  -1   3   -5.90    3.40
   8   1  -3   15.90    4.30
   8   1  -3   21.90    5.30
  -8  -1   3   25.60    4.80
   7   1  -3    3.60    3.40
   7   1  -3    1.40    2.90
  -7  -1   3    3.00    2.80
   6   1  -3   84.59    6.30
   6   1  -3   86.29    6.50
   6   1  -3   84.49    4.20
  -6  -1   3   86.19    6.30
   5   1  -3  355.86   14.60
   5   1  -3  345.47   14.70
   5   1  -3  338.57   13.00
  -5  -1   3  347.67   14.60
   4   1  -3  253.67   11.20
   4   1  -3  269.37   10.00
   4   1  -3  262.67   11.30
  -4  -1   3  259.67   11.30
   3   1  -3   21.40    2.60
   3   1  -3   21.50    2.60
  -3  -1   3   26.90    2.70
  -3  -1   3   28.30    2.80
   2   1  -3  607.94   22.40
   2   1  -3  633.84   22.30
   2   1  -3  600.14   22.30
  -2  -1   3  616.84   22.40
  -2  -1   3  598.64   22.30
  -2  -1   3  607.24   22.20
   1   1  -3    4.40    1.30
   1   1  -3    5.10    1.40
  -1  -1   3    3.00    1.40
  -1  -1   3    5.80    1.40
   0   1  -3 1200.68   41.50
   0   1  -3 1143.49   41.50
   0   1  -3 1214.28   42.20
   0  -1   3 1151.08   41.50
   0  -1   3 1186.08   41.60
  -1   1  -3    9.20    1.60
  -1   1  -3   11.70    2.00
  -1   1  -3   11.40    1.60
   1  -1   3   12.20    1.70
   1  -1   3   11.80    1.70
   1  -1   3   13.30    2.00
  -2   1  -3  115.99    5.50
  -2   1  -3  115.89    6.10
   2  -1   3  115.89    5.50
   2  -1   3  115.99    5.70
  -3   1  -3  781.52   28.50
  -3   1  -3  801.72   29.70
  -3   1  -3  811.82   30.30
   3  -1   3  849.22   29.90
  -4   1  -3   76.29    5.10
  -4   1  -3   72.59    5.20
   4  -1   3   81.29    5.20
  -5   1  -3  273.97   13.00
  -5   1  -3  298.57   12.80
   5  -1   3  285.67   12.80
  -6   1  -3   80.69    6.50
  -6   1  -3   88.49    6.50
   6  -1   3   90.59    6.80
  -7   1  -3   66.69    6.40
  -7   1  -3   71.39    6.70
   7  -1   3   58.69    6.30
  -8   1  -3   14.50    4.10
  -8   1  -3   12.90    4.20
   8  -1   3   10.00    4.20
  -9   1  -3    0.00    3.80
   9  -1   3   -4.10    4.20
   9  -1   3    3.80    4.50
   9   0  -3   28.80    6.70
   9   0  -3   22.00    5.50
  -9   0   3   14.90    4.70
   8   0  -3   32.70    6.10
   8   0  -3   39.90    5.90
  -8   0   3   37.10    5.70
   7   0  -3   92.19    7.60
   7   0  -3   99.29    8.40
  -7   0   3  105.19    7.60
   6   0  -3   -0.20    2.60
   6   0  -3    2.40    2.50
   6   0  -3   -0.40    1.10
  -6   0   3   -1.00    2.20
   5   0  -3  240.48   11.00
   5   0  -3  243.28   10.80
   5   0  -3  216.78    8.60
  -5   0   3  232.38   10.70
   4   0  -3  401.36   16.20
   4   0  -3  424.66   16.40
  -4   0   3  394.26   16.10
   3   0  -3  469.55   17.90
   3   0  -3  469.95   17.80
  -3   0   3  453.55   17.60
  -3   0   3  479.75   17.70
   2   0  -3 8989.50  304.57
   2   0  -3 8521.95  304.07
   2   0  -3 8731.13  304.27
   2   0  -3 8716.33  304.87
  -2   0   3 8635.14  304.87
  -2   0   3 9106.79  304.17
  -2   0   3 9086.99  304.27
   1   0  -3 1914.61   64.99
   1   0  -3 1826.82   64.89
   1   0  -3 1911.01   64.89
  -1   0   3 1799.52   65.09
  -1   0   3 1883.81   64.99
  -1   0   3 1850.01   64.99
   0   0  -3 4303.17  149.88
   0   0  -3 4516.75  149.88
   0   0  -3 4332.47  152.18
   0   0   3 4288.47  150.38
   0   0   3 4414.16  149.88
   0   0   3 4237.48  149.88
  -1   0  -3  746.53   24.80
  -1   0  -3  665.73   24.70
  -1   0  -3  679.83   25.40
   1   0   3  665.23   24.70
   1   0   3  730.23   24.70
   1   0   3  682.83   25.30
  -2   0  -3    5.90    1.70
  -2   0  -3    4.30    1.20
  -2   0  -3    5.50    1.40
   2   0   3    5.10    1.40
   2   0   3    3.50    1.50
   2   0   3    1.60    1.30
  -3   0  -3  186.98    8.80
  -3   0  -3  183.68    8.30
   3   0   3  201.18    8.40
   3   0   3  198.28    8.30
  -4   0  -3  704.93   27.60
  -4   0  -3  726.23   27.10
   4   0   3  752.62   27.30
  -5   0  -3   39.60    4.50
  -5   0  -3   43.00    4.20
   5   0   3   37.90    4.10
  -6   0  -3  124.79    7.50
  -6   0  -3  123.29    7.70
   6   0   3  124.09    7.60
  -7   0  -3    4.60    2.80
  -7   0  -3    1.20    3.00
   7   0   3    0.70    3.10
  -8   0  -3    0.80    3.20
  -8   0  -3   -0.70    3.30
   8   0   3    2.30    3.40
  -9   0  -3   26.70    5.50
   9   0   3   28.30    5.80
   9   0   3   29.70    5.60
   9  -1  -3   52.79    8.00
   9  -1  -3   45.90    6.50
  -9   1   3   37.20    6.60
   8  -1  -3  112.19    9.90
   8  -1  -3  117.29    8.80
  -8   1   3  109.09    8.80
   7  -1  -3   79.99    7.70
   7  -1  -3   76.49    6.80
  -7   1   3   82.59    6.90
   6  -1  -3   48.00    5.00
   6  -1  -3   41.30    5.10
  -6   1   3   48.80    5.10
   5  -1  -3   45.30    4.80
   5  -1  -3   33.60    4.00
  -5   1   3   46.40    4.40
   4  -1  -3    3.00    2.10
   4  -1  -3    1.70    1.90
  -4   1   3    2.60    1.80
   3  -1  -3  701.73   25.00
   3  -1  -3  633.74   24.60
  -3   1   3  659.23   24.60
  -3   1   3  688.83   24.70
   2  -1  -3  150.58    6.20
   2  -1  -3  151.88    6.30
   2  -1  -3  161.08    6.80
  -2   1   3  131.49    6.20
  -2   1   3  141.19    6.30
  -2   1   3  155.98    6.70
   1  -1  -3  366.76   12.50
   1  -1  -3  361.86   12.50
   1  -1  -3  334.37   12.90
   1  -1  -3  323.87   12.30
  -1   1   3  346.07   12.30
  -1   1   3  335.57   12.50
  -1   1   3  342.27   12.90
  -1   1   3  339.27   12.50
   0  -1  -3 1220.38   45.50
   0  -1  -3 1294.07   46.10
   0   1   3 1366.66   46.00
   0   1   3 1361.66   46.10
   0   1   3 1284.07   45.50
   0   1   3 1364.26   45.50
  -1  -1  -3    9.10    1.10
  -1  -1  -3    7.80    1.10
  -1  -1  -3   10.90    1.20
  -1  -1  -3    7.90    1.70
   1   1   3    7.50    1.10
   1   1   3    9.10    1.20
   1   1   3    8.90    1.10
   1   1   3    9.50    1.70
  -2  -1  -3   45.20    2.70
  -2  -1  -3   43.40    2.60
  -2  -1  -3   41.40    2.20
  -2  -1  -3   47.80    3.40
   2   1   3   38.60    2.60
   2   1   3   44.50    2.70
   2   1   3   48.30    3.30
  -3  -1  -3   81.89    5.10
  -3  -1  -3   83.09    4.60
  -3  -1  -3   86.49    4.10
   3   1   3   92.19    4.70
   3   1   3   89.09    4.60
  -4  -1  -3  591.14   21.70
  -4  -1  -3  573.74   22.20
   4   1   3  549.15   21.70
  -5  -1  -3  209.18    9.40
  -5  -1  -3  194.88    9.70
   5   1   3  190.48    9.30
  -6  -1  -3   20.50    3.80
  -6  -1  -3   19.60    3.40
   6   1   3   14.10    3.30
  -7  -1  -3   42.90    5.10
  -7  -1  -3   40.50    5.20
   7   1   3   34.00    4.90
  -8  -1  -3  113.49    8.50
  -8  -1  -3  110.39    8.50
   8   1   3  116.29    8.60
  -9  -1  -3   15.70    4.50
   9   1   3   22.10    5.60
   9   1   3   13.50    4.60
   9  -2  -3   51.99    8.00
   9  -2  -3   46.80    6.70
  -9   2   3   41.70    6.50
   8  -2  -3   83.09    8.60
   8  -2  -3   82.99    8.10
  -8   2   3   82.09    8.00
   7  -2  -3   23.30    4.70
   7  -2  -3   23.60    4.80
  -7   2   3   26.90    4.60
   6  -2  -3   77.39    5.90
   6  -2  -3   75.59    6.60
  -6   2   3   57.39    3.50
  -6   2   3   73.99    5.80
   5  -2  -3   77.09    5.40
   5  -2  -3   71.09    5.80
  -5   2   3   71.59    5.30
  -5   2   3   75.69    3.60
   4  -2  -3  836.52   30.50
   4  -2  -3  834.22   30.80
  -4   2   3  836.52   30.50
  -4   2   3  780.82   28.80
   3  -2  -3  241.98    9.80
   3  -2  -3  235.18   10.10
  -3   2   3  246.38    9.70
  -3   2   3  231.08    9.60
  -3   2   3  206.58    8.30
   2  -2  -3  535.25   18.80
   2  -2  -3  481.65   18.40
   2  -2  -3  483.85   18.30
  -2   2   3  516.35   19.20
  -2   2   3  505.95   18.30
  -2   2   3  486.65   18.40
   1  -2  -3  178.38    7.10
   1  -2  -3  164.28    6.50
   1  -2  -3  152.98    6.50
  -1   2   3  161.38    6.50
  -1   2   3  167.38    7.00
  -1   2   3  177.98    7.30
  -1   2   3  164.28    6.60
  -1   2   3  181.28    6.70
   0  -2  -3  191.18    7.60
   0  -2  -3  190.18    7.70
   0   2   3  185.88    7.50
   0   2   3  191.68    7.60
  -1  -2  -3  431.56   16.40
  -1  -2  -3  445.76   16.00
  -1  -2  -3  437.56   15.40
   1   2   3  436.16   16.40
   1   2   3  448.06   16.00
   1   2   3  431.06   15.40
   1   2   3  435.36   15.40
  -2  -2  -3  219.08    8.80
  -2  -2  -3  232.78    8.70
  -2  -2  -3  222.98    8.70
  -2  -2  -3  219.38    9.50
   2   2   3  222.28    9.50
   2   2   3  228.08    8.80
   2   2   3  236.88    8.70
   2   2   3  232.88    8.80
  -3  -2  -3  465.55   17.40
  -3  -2  -3  456.55   17.30
  -3  -2  -3  443.06   18.10
   3   2   3  492.15   17.60
   3   2   3  481.05   17.40
  -4  -2  -3  278.77   12.30
  -4  -2  -3  271.77   11.60
  -4  -2  -3  315.77   11.70
   4   2   3  274.67   11.70
   4   2   3  273.17   11.60
  -5  -2  -3  136.99    7.60
  -5  -2  -3  129.89    6.90
   5   2   3  131.39    7.20
  -6  -2  -3   36.50    4.20
  -6  -2  -3   36.90    4.60
   6   2   3   30.60    4.10
  -7  -2  -3   26.30    4.10
  -7  -2  -3   19.50    4.00
   7   2   3   25.10    4.20
  -8  -2  -3   50.49    6.40
  -8  -2  -3   56.49    6.20
   8   2   3   47.00    6.00
  -9  -2  -3   -2.50    3.20
  -9  -2  -3   -0.20    3.40
   9   2   3   -1.70    3.40
   9   2   3    0.30    4.70
 -10  -2  -3   -0.20    4.40
  10   2   3    8.10    6.00
  10   2   3    9.20    4.50
   9  -3  -3   10.20    5.70
   9  -3  -3    6.90    4.30
  -9   3   3    7.00    4.50
   8  -3  -3   -0.90    4.00
   8  -3  -3    3.60    3.70
  -8   3   3    6.30    3.70
   7  -3  -3   -5.80    2.90
   7  -3  -3   -1.00    2.70
  -7   3   3    0.20    2.80
   6  -3  -3   69.29    6.00
   6  -3  -3   58.69    6.30
  -6   3   3   76.69    4.30
  -6   3   3   69.29    5.90
   5  -3  -3  160.68    8.50
   5  -3  -3  156.38    8.90
  -5   3   3  161.58    7.00
  -5   3   3  166.88    8.50
   4  -3  -3  156.98    7.80
   4  -3  -3  163.28    8.30
  -4   3   3  167.98    6.80
  -4   3   3  153.78    7.80
   3  -3  -3  683.33   25.50
   3  -3  -3  661.23   25.10
  -3   3   3  666.63   25.10
  -3   3   3  670.43   25.10
  -3   3   3  708.53   24.50
   2  -3  -3  342.17   13.80
   2  -3  -3  353.06   13.40
  -2   3   3  338.57   13.40
  -2   3   3  374.46   13.50
   1  -3  -3    1.70    1.00
   1  -3  -3    2.30    1.40
   1  -3  -3    5.80    1.80
   1  -3  -3    3.60    1.10
  -1   3   3    4.60    1.60
  -1   3   3    2.00    1.00
  -1   3   3    3.60    1.00
  -1   3   3    4.10    1.40
   0  -3  -3  993.50   35.80
   0  -3  -3  997.50   34.80
   0   3   3 1019.10   35.70
   0   3   3  997.70   35.30
   0   3   3 1011.80   34.80
   0   3   3  964.10   34.80
   0   3   3 1039.40   35.80
  -1  -3  -3   95.69    3.90
  -1  -3  -3   97.19    4.90
  -1  -3  -3   96.89    4.80
   1   3   3   99.89    3.90
   1   3   3   98.89    5.00
   1   3   3   95.99    4.60
   1   3   3  100.89    3.90
  -2  -3  -3   15.40    2.50
  -2  -3  -3   12.40    1.90
  -2  -3  -3   15.10    1.60
  -2  -3  -3   17.80    1.60
   2   3   3    9.50    1.50
   2   3   3   14.70    2.30
   2   3   3   14.10    1.60
   2   3   3   16.80    1.60
  -3  -3  -3   -0.10    1.10
  -3  -3  -3    0.00    1.30
  -3  -3  -3   -0.60    1.70
   3   3   3    0.90    1.10
   3   3   3    1.90    1.30
  -4  -3  -3  161.78    7.50
  -4  -3  -3  169.98    7.90
  -4  -3  -3  157.18    8.30
   4   3   3  164.58    7.70
   4   3   3  166.68    7.50
  -5  -3  -3  101.29    6.50
  -5  -3  -3  109.59    6.20
  -5  -3  -3  103.79    5.90
   5   3   3   94.29    6.00
  -6  -3  -3  173.58    9.00
  -6  -3  -3  176.28    9.00
  -6  -3  -3  168.98    9.50
   6   3   3  183.88    9.40
  -7  -3  -3   42.20    5.40
  -7  -3  -3   38.10    4.70
  -7  -3  -3   37.80    4.80
   7   3   3   31.90    4.60
  -8  -3  -3    4.30    3.30
  -8  -3  -3   10.50    3.80
  -8  -3  -3    6.60    3.60
   8   3   3    6.10    3.30
  -9  -3  -3    8.70    4.30
  -9  -3  -3    2.30    3.60
  -9  -3  -3    3.90    3.90
   9   3   3   -0.80    3.50
   9   3   3    0.90    4.60
 -10  -3  -3    2.50    4.20
  10   3   3   -2.60    4.20
  10   3   3   -1.20    5.40
   9  -4  -3   -2.50    4.20
   9  -4  -3    0.70    4.80
   8  -4  -3   -0.70    3.40
   8  -4  -3    0.70    4.00
  -8   4   3   -1.30    3.60
   7  -4  -3   17.80    4.50
   7  -4  -3   18.20    4.40
  -7   4   3   17.50    4.10
   6  -4  -3   29.90    4.50
   6  -4  -3   34.30    5.00
  -6   4   3   29.80    4.30
  -6   4   3   38.00    3.60
   5  -4  -3  233.88   11.20
   5  -4  -3  219.58   10.60
  -5   4   3  202.18    9.30
  -5   4   3  229.98   10.80
   4  -4  -3   21.80    3.10
   4  -4  -3   23.40    3.50
  -4   4   3   25.50    2.80
  -4   4   3   23.80    3.20
   3  -4  -3  128.89    6.30
   3  -4  -3  119.89    6.50
  -3   4   3  111.19    6.10
  -3   4   3  123.99    6.20
   2  -4  -3    2.20    1.40
   2  -4  -3    2.40    1.60
  -2   4   3    0.40    1.30
  -2   4   3    1.30    1.20
   1  -4  -3   57.59    3.20
   1  -4  -3   60.39    4.10
   1  -4  -3   58.09    3.60
   1  -4  -3   59.99    3.30
  -1   4   3   59.69    3.20
  -1   4   3   63.39    3.20
  -1   4   3   59.09    3.50
   0  -4  -3 2262.37   78.99
   0  -4  -3 2215.08   79.99
   0  -4  -3 2293.77   78.99
   0  -4  -3 2296.57   79.19
   0   4   3 2258.47   79.09
   0   4   3 2289.37   78.99
   0   4   3 2284.67   78.99
   0   4   3 2339.27   79.99
  -1  -4  -3  567.14   21.30
  -1  -4  -3  575.14   20.30
  -1  -4  -3  567.34   20.40
   1   4   3  577.34   20.40
   1   4   3  568.64   21.20
   1   4   3  565.94   21.50
   1   4   3  579.24   20.40
  -2  -4  -3  937.51   33.20
  -2  -4  -3  958.70   33.10
  -2  -4  -3  933.61   33.90
   2   4   3  928.41   33.10
   2   4   3  886.71   33.20
   2   4   3  985.30   34.00
  -3  -4  -3   81.79    4.10
  -3  -4  -3   76.39    4.60
  -3  -4  -3   72.19    5.00
   3   4   3   75.19    4.00
   3   4   3   77.99    4.20
  -4  -4  -3   31.90    4.00
  -4  -4  -3   34.70    3.10
  -4  -4  -3   37.30    3.60
   4   4   3   32.40    3.20
   4   4   3   35.70    3.00
  -5  -4  -3  142.39    8.40
  -5  -4  -3  160.38    7.60
  -5  -4  -3  157.98    8.10
   5   4   3  165.58    8.10
  -6  -4  -3  113.89    6.90
  -6  -4  -3   98.89    6.20
  -6  -4  -3   87.59    6.80
   6   4   3  100.59    6.70
  -7  -4  -3   68.59    5.70
  -7  -4  -3   67.59    6.50
  -7  -4  -3   68.49    6.40
   7   4   3   71.09    6.20
  -8  -4  -3    3.00    2.90
  -8  -4  -3   -2.60    3.00
  -8  -4  -3    0.40    3.30
   8   4   3   -0.30    3.30
  -9  -4  -3   -2.10    3.20
  -9  -4  -3    0.90    3.60
   9   4   3   -1.20    4.30
   9   4   3   -4.00    3.30
 -10  -4  -3    3.70    4.40
 -10  -4  -3    0.60    4.00
  10   4   3   -5.80    5.20
  10   4   3   -3.70    3.70
   8  -5  -3   20.70    5.20
   8  -5  -3   18.10    4.90
  -8   5   3   19.90    5.10
   7  -5  -3   50.69    6.50
   7  -5  -3   59.39    6.60
  -7   5   3   49.60    6.10
   6  -5  -3   42.20    5.60
   6  -5  -3   45.40    5.20
  -6   5   3   48.40    4.30
  -6   5   3   47.30    5.60
   5  -5  -3   47.60    5.00
   5  -5  -3   48.10    5.30
  -5   5   3   49.50    5.10
  -5   5   3   50.69    4.20
   4  -5  -3   28.00    3.90
   4  -5  -3   29.40    3.60
  -4   5   3   25.40    3.40
  -4   5   3   26.70    3.30
   3  -5  -3   96.69    5.60
   3  -5  -3   98.09    5.80
  -3   5   3   90.19    5.50
   2  -5  -3  234.18   10.90
   2  -5  -3  256.07   10.50
   2  -5  -3  246.78   10.30
  -2   5   3  240.78   10.20
  -2   5   3  249.38   10.20
   1  -5  -3   71.39    4.80
   1  -5  -3   70.19    3.90
   1  -5  -3   70.89    4.10
  -1   5   3   81.19    4.00
  -1   5   3   68.39    4.00
  -1   5   3   67.79    3.80
   0  -5  -3 1127.09   37.50
   0  -5  -3 1046.70   37.90
   0  -5  -3 1027.70   36.90
   0  -5  -3 1040.50   36.80
   0   5   3 1065.69   36.80
   0   5   3 1003.50   36.90
   0   5   3  994.40   36.80
  -1  -5  -3  979.50   34.80
  -1  -5  -3 1018.00   35.80
  -1  -5  -3  974.10   34.80
   1   5   3  992.80   34.40
   1   5   3  973.90   34.90
   1   5   3  968.20   34.80
  -2  -5  -3   54.49    3.10
  -2  -5  -3   54.09    4.00
   2   5   3   55.29    3.30
   2   5   3   49.70    3.00
  -3  -5  -3  260.67   10.00
  -3  -5  -3  233.68   10.60
   3   5   3  241.28   10.00
   3   5   3  253.97   10.20
  -4  -5  -3  233.08    9.70
  -4  -5  -3  233.08   10.50
   4   5   3  218.88    9.60
   4   5   3  224.28    9.90
  -5  -5  -3   89.19    5.90
  -5  -5  -3   95.89    5.50
   5   5   3   88.79    5.60
  -6  -5  -3  366.56   15.90
  -6  -5  -3  377.86   16.40
   6   5   3  383.96   16.10
  -7  -5  -3   87.49    6.60
  -7  -5  -3  100.29    7.50
   7   5   3   79.99    6.70
  -8  -5  -3   -1.20    3.00
  -8  -5  -3   -1.20    2.90
   8   5   3    3.50    3.20
   8   5   3   -1.80    3.10
  -9  -5  -3    1.60    3.70
  -9  -5  -3   -2.90    3.20
   9   5   3    1.00    4.20
   9   5   3    6.20    4.10
 -10  -5  -3    5.30    4.50
 -10  -5  -3   -1.40    4.00
  10   5   3   -0.30    5.00
  10   5   3    5.00    4.50
   8  -6  -3   15.40    5.20
   8  -6  -3   14.70    5.00
  -8   6   3   24.60    5.40
   7  -6  -3   39.30    5.70
   7  -6  -3   39.40    5.90
  -7   6   3   42.10    6.10
   6  -6  -3   20.50    4.50
   6  -6  -3   22.80    4.40
  -6   6   3   27.50    4.70
   5  -6  -3    0.30    2.70
   5  -6  -3   -0.20    2.60
  -5   6   3    1.50    2.30
  -5   6   3    0.80    2.40
   4  -6  -3  174.38    8.90
   4  -6  -3  163.18    9.00
  -4   6   3  171.48    8.80
  -4   6   3  161.08    8.70
   3  -6  -3  350.76   14.70
   3  -6  -3  356.56   14.90
  -3   6   3  362.46   14.70
   2  -6  -3  483.55   18.90
   2  -6  -3  469.95   18.20
   2  -6  -3  486.25   18.20
  -2   6   3  464.05   18.20
  -2   6   3  441.56   18.10
   1  -6  -3  291.97   11.10
   1  -6  -3  271.07   11.90
   1  -6  -3  279.97   11.10
  -1   6   3  264.67   11.10
  -1   6   3  265.67   11.10
   0  -6  -3  478.45   18.00
   0  -6  -3  481.65   17.60
   0  -6  -3  504.95   19.20
   0   6   3  464.55   18.00
   0   6   3  469.95   18.00
   0   6   3  497.15   17.60
  -1  -6  -3  194.88    8.10
   1   6   3  186.98    8.10
   1   6   3  196.48    7.30
  -2  -6  -3  381.46   14.40
  -2  -6  -3  356.96   15.30
   2   6   3  396.46   14.40
   2   6   3  361.86   14.50
  -3  -6  -3  568.14   21.90
  -3  -6  -3  556.04   20.80
   3   6   3  570.34   21.00
   3   6   3  537.15   20.80
  -4  -6  -3  303.27   12.90
  -4  -6  -3  299.47   12.00
   4   6   3  274.07   12.10
   4   6   3  284.97   12.00
  -5  -6  -3  216.78   10.80
  -5  -6  -3  207.58    9.90
   5   6   3  223.88   10.10
  -6  -6  -3  181.18    9.80
  -6  -6  -3  173.38    8.80
   6   6   3  166.88    9.00
  -7  -6  -3   36.50    4.60
  -7  -6  -3   34.30    5.40
   7   6   3   42.50    4.50
   7   6   3   34.80    4.90
  -8  -6  -3   26.70    4.60
  -8  -6  -3   28.50    5.10
   8   6   3   25.40    4.60
   8   6   3   26.40    4.80
  -9  -6  -3   22.40    4.90
  -9  -6  -3   16.80    4.80
   9   6   3    7.90    4.20
   9   6   3   26.60    5.70
 -10  -6  -3   26.00    5.70
 -10  -6  -3   23.10    5.60
  10   6   3   15.00    5.90
  10   6   3   23.90    5.70
   7  -7  -3   -1.20    3.80
   7  -7  -3   -1.90    3.50
  -7   7   3    2.90    3.90
   6  -7  -3    2.50    3.50
   6  -7  -3    1.10    3.20
  -6   7   3    5.40    3.50
   5  -7  -3   36.50    5.20
   5  -7  -3   47.30    5.50
  -5   7   3   45.70    5.40
  -5   7   3   51.59    5.70
   4  -7  -3  203.98   10.70
   4  -7  -3  227.98   10.80
  -4   7   3  198.78   10.40
   3  -7  -3  469.65   19.60
   3  -7  -3  509.15   19.80
  -3   7   3  489.45   19.70
   2  -7  -3   82.19    5.10
   2  -7  -3   82.29    5.20
   2  -7  -3   74.49    5.80
  -2   7   3   82.59    5.10
   1  -7  -3   36.30    3.10
   1  -7  -3   34.60    3.30
   1  -7  -3   28.70    3.60
  -1   7   3   34.90    3.30
  -1   7   3   38.10    3.40
   0  -7  -3   -1.50    1.70
   0  -7  -3   -0.90    1.40
   0  -7  -3    1.80    1.20
   0   7   3    0.40    1.30
   0   7   3    1.80    1.50
  -1  -7  -3   -1.10    1.80
  -1  -7  -3    2.50    1.50
   1   7   3    1.30    1.50
  -2  -7  -3  738.13   28.30
  -2  -7  -3  722.53   27.20
   2   7   3  749.53   27.20
   2   7   3  747.33   27.20
  -3  -7  -3   85.99    4.90
  -3  -7  -3   82.59    5.80
   3   7   3   84.09    4.80
   3   7   3   84.79    5.10
  -4  -7  -3    0.70    2.10
  -4  -7  -3    0.50    1.50
   4   7   3   -0.10    1.60
  -5  -7  -3   49.80    5.20
  -5  -7  -3   44.90    4.20
   5   7   3   38.80    4.30
  -6  -7  -3   14.90    3.80
  -6  -7  -3    9.90    3.00
   6   7   3   12.70    3.10
   6   7   3   12.10    2.70
  -7  -7  -3    2.60    3.30
  -7  -7  -3    4.50    2.80
   7   7   3    0.30    2.70
   7   7   3    4.40    2.90
  -8  -7  -3   79.39    7.20
  -8  -7  -3   76.99    8.00
   8   7   3   68.79    7.00
   8   7   3   68.09    6.60
  -9  -7  -3   40.00    6.40
  -9  -7  -3   48.90    6.30
   9   7   3   44.50    6.20
   9   7   3   50.39    6.60
   7  -8  -3    4.90    6.40
   7  -8  -3   -2.10    4.00
  -7   8   3    1.00    3.90
   6  -8  -3    4.50    3.80
   6  -8  -3    6.00    3.70
  -6   8   3    8.90    3.70
   5  -8  -3   49.60    6.00
   5  -8  -3   38.50    5.30
  -5   8   3   44.70    5.90
  -5   8   3   50.49    5.90
   4  -8  -3  124.89    8.30
   4  -8  -3  142.09    8.50
  -4   8   3  131.09    8.10
   3  -8  -3  175.18    9.20
   3  -8  -3  177.08    9.30
  -3   8   3  182.08    9.30
   2  -8  -3    3.00    2.70
   2  -8  -3    8.30    2.40
   2  -8  -3    7.20    2.50
  -2   8   3    6.20    2.40
   1  -8  -3   32.20    4.00
   1  -8  -3   38.30    3.30
   1  -8  -3   33.20    3.60
  -1   8   3   29.80    3.40
   0  -8  -3   80.19    5.90
   0  -8  -3   82.09    4.30
   0  -8  -3   78.29    5.00
   0   8   3   87.59    5.00
   0   8   3   78.79    4.90
  -1  -8  -3  181.78    9.40
  -1  -8  -3  178.08    8.30
   1   8   3  184.38    8.50
  -2  -8  -3  711.03   27.90
  -2  -8  -3  763.42   26.90
   2   8   3  696.43   26.90
   2   8   3  698.93   26.70
  -3  -8  -3   99.69    6.60
  -3  -8  -3   92.99    5.50
   3   8   3   89.49    5.50
   3   8   3  100.69    5.80
  -4  -8  -3    3.60    2.00
  -4  -8  -3    0.70    2.40
   4   8   3    4.50    2.10
  -5  -8  -3   12.60    3.50
  -5  -8  -3   14.70    2.90
   5   8   3   13.00    2.00
   5   8   3   17.40    3.10
  -6  -8  -3    7.70    2.90
  -6  -8  -3    3.00    3.10
   6   8   3    7.30    2.40
   6   8   3   10.90    3.10
  -7  -8  -3   22.60    3.90
  -7  -8  -3   23.50    4.80
   7   8   3   17.60    3.30
   7   8   3   24.10    4.30
  -8  -8  -3   32.00    5.80
  -8  -8  -3   33.00    4.90
   8   8   3   30.40    5.20
   8   8   3   19.50    4.80
  -9  -8  -3   23.40    6.00
  -9  -8  -3   23.00    6.50
   9   8   3   22.00    4.90
   6  -9  -3   -4.60    3.30
  -6   9   3   -4.70    3.30
   5  -9  -3    2.20    3.60
   5  -9  -3    6.70    3.60
  -5   9   3   10.40    4.20
  -5   9   3    5.70    3.40
   4  -9  -3   -0.10    2.80
   4  -9  -3   -2.30    2.70
  -4   9   3    0.40    2.70
   3  -9  -3    1.70    2.50
   3  -9  -3    8.50    3.70
   3  -9  -3    7.90    3.20
  -3   9   3    3.60    2.80
   2  -9  -3    3.40    3.00
   2  -9  -3    3.80    2.60
   2  -9  -3    5.10    2.30
  -2   9   3    0.10    2.10
   1  -9  -3   60.89    4.90
   1  -9  -3   66.99    4.40
   1  -9  -3   71.29    6.00
  -1   9   3   67.99    5.00
   0  -9  -3  162.78    9.20
   0  -9  -3  169.78    8.40
   0  -9  -3  161.58    7.20
   0   9   3  178.88    8.40
  -1  -9  -3  505.85   19.90
  -1  -9  -3  480.05   21.00
   1   9   3  533.95   20.10
  -2  -9  -3  390.86   16.00
  -2  -9  -3  386.36   17.20
   2   9   3  401.46   16.20
  -3  -9  -3    1.10    1.90
  -3  -9  -3    0.10    2.30
   3   9   3   -0.50    1.80
  -4  -9  -3    7.30    2.40
  -4  -9  -3   13.10    3.40
   4   9   3   11.00    2.80
  -5  -9  -3   91.39    7.50
  -5  -9  -3   98.49    6.40
   5   9   3   92.49    6.40
  -6  -9  -3   77.39    7.10
  -6  -9  -3   70.09    5.70
   6   9   3   60.09    5.90
  -7  -9  -3   34.30    4.90
  -7  -9  -3   32.60    5.80
   7   9   3   45.00    5.50
  -8  -9  -3    7.20    3.70
  -8  -9  -3   11.70    4.60
   8   9   3    9.40    3.80
  -9  -9  -3    0.50    4.40
   9   9   3    3.40    4.20
   6 -10  -3    9.80    4.70
  -6  10   3    7.90    4.20
   5 -10  -3   68.59    7.60
  -5  10   3   75.69    7.80
  -5  10   3   68.19    8.10
   4 -10  -3   37.50    5.60
   4 -10  -3   40.20    5.40
  -4  10   3   35.20    5.20
   3 -10  -3   52.89    5.70
   3 -10  -3   50.89    5.50
   3 -10  -3   44.20    6.10
  -3  10   3   39.50    5.20
   2 -10  -3   45.30    5.80
   2 -10  -3   47.40    4.70
   2 -10  -3   42.70    5.10
  -2  10   3   45.00    5.20
   1 -10  -3   35.90    5.00
   1 -10  -3   42.70    4.70
   1 -10  -3   45.40    4.00
  -1  10   3   47.80    4.80
   0 -10  -3    2.90    2.40
   0 -10  -3    0.70    2.70
   0 -10  -3    1.80    1.40
   0  10   3   -0.80    1.80
  -1 -10  -3  362.36   14.50
  -1 -10  -3  337.47   15.80
   1  10   3  315.47   14.50
  -2 -10  -3   62.39    5.00
  -2 -10  -3   68.29    6.70
   2  10   3   60.29    5.60
  -3 -10  -3   16.90    4.20
  -3 -10  -3   18.50    3.10
   3  10   3   24.30    3.70
  -4 -10  -3  132.59    8.90
  -4 -10  -3  122.39    7.50
   4  10   3  133.19    7.80
  -5 -10  -3    1.40    3.30
   5  10   3    5.20    2.70
  -6 -10  -3  220.88   13.40
  -6 -10  -3  252.57   12.20
   6  10   3  242.98   12.50
  -7 -10  -3   24.80    5.30
  -7 -10  -3   28.30    4.50
   7  10   3   22.50    4.80
  -8 -10  -3   16.90    5.20
   8  10   3   12.20    4.40
  -9 -10  -3    2.50    4.40
   9  10   3    1.00    3.90
   5 -11  -3    8.00    4.20
  -5  11   3    2.80    3.90
   4 -11  -3    0.60    3.20
  -4  11   3   -3.70    3.00
   3 -11  -3  169.18   11.60
   3 -11  -3  176.48   10.60
   3 -11  -3  161.98    9.80
  -3  11   3  164.38   10.30
   2 -11  -3   66.19    7.30
   2 -11  -3   73.69    6.90
   2 -11  -3   73.19    5.70
  -2  11   3   74.59    7.00
   1 -11  -3  188.88   11.30
   1 -11  -3  181.98    8.90
   1 -11  -3  188.68   10.20
  -1  11   3  201.28   10.30
   0 -11  -3   27.10    4.10
   0 -11  -3   28.50    2.90
   0 -11  -3   25.10    4.80
   0  11   3   20.00    3.90
  -1 -11  -3   14.90    4.10
  -1 -11  -3   15.30    3.30
   1  11   3   11.30    3.10
  -2 -11  -3   50.09    6.00
  -2 -11  -3   66.59    5.80
   2  11   3   55.49    5.60
  -3 -11  -3   76.19    7.60
  -3 -11  -3   64.49    5.90
   3  11   3   51.89    5.40
  -4 -11  -3    5.10    3.50
  -4 -11  -3    2.20    2.50
   4  11   3   -0.40    2.30
  -5 -11  -3  161.28   10.60
  -5 -11  -3  157.68    9.10
   5  11   3  158.68    9.40
  -6 -11  -3   31.60    6.00
   6  11   3   21.40    4.30
  -7 -11  -3  140.59   10.80
   7  11   3  128.39    9.20
  -8 -11  -3   -7.60    3.60
   8  11   3    3.10    4.00
   4 -12  -3   -0.90    3.40
  -4  12   3    3.40    3.80
   3 -12  -3   44.00    8.30
   3 -12  -3   39.30    6.80
  -3  12   3   42.20    6.20
   2 -12  -3  144.99   10.70
  -2  12   3  141.99    9.30
   1 -12  -3   95.29    9.70
   1 -12  -3   89.59    8.30
  -1  12   3   73.19    7.00
   0 -12  -3   58.69    7.20
   0 -12  -3   63.99    6.20
   0  12   3   64.59    6.50
  -1 -12  -3    4.90    3.00
  -1 -12  -3    5.60    3.60
   1  12   3    2.90    2.90
  -2 -12  -3   11.60    3.30
  -2 -12  -3   10.70    4.00
   2  12   3   11.40    3.30
  -3 -12  -3   62.19    7.20
  -3 -12  -3   57.09    5.80
   3  12   3   51.09    5.70
  -4 -12  -3   22.50    4.10
  -4 -12  -3   26.40    5.40
   4  12   3   17.70    4.10
  -5 -12  -3   29.30    5.80
   5  12   3   27.80    4.60
  -6 -12  -3    4.00    4.10
   6  12   3    0.80    3.20
  -7 -12  -3    2.30    4.40
   7  12   3   -1.90    3.20
  -8 -12  -3    5.20    5.30
   8  12   3   11.40    4.60
   3 -13  -3   28.30    6.50
  -3  13   3   28.60    5.60
   2 -13  -3   27.40    6.10
  -2  13   3   40.30    6.00
   1 -13  -3   22.40    5.50
  -1  13   3   24.50    4.90
   0 -13  -3    3.20    4.10
   0  13   3    6.60    3.50
  -1 -13  -3   71.69    8.20
   1  13   3   73.69    6.90
  -2 -13  -3   94.39    9.20
   2  13   3   92.39    7.50
  -3 -13  -3  255.87   14.40
   3  13   3  259.57   13.40
  -4 -13  -3  113.29   10.20
   4  13   3  125.59    8.70
  -5 -13  -3   33.30    6.30
   5  13   3   16.90    4.50
  -6 -13  -3    9.50    4.80
   6  13   3   15.80    4.20
  -7 -13  -3   18.00    5.90
   7  13   3   25.20    5.50
   2 -14  -3    7.50    5.40
   1 -14  -3    2.40    4.60
  -1  14   3    1.60    3.60
   0 -14  -3   37.80    6.70
   0  14   3   28.00    5.40
  -1 -14  -3   37.90    6.60
   1  14   3   32.10    5.40
  -2 -14  -3   18.20    5.40
   2  14   3   20.40    4.60
  -3 -14  -3   87.99    9.60
   3  14   3   76.79    7.70
  -4 -14  -3   38.40    7.00
   4  14   3   26.00    5.30
  -5 -14  -3    6.00    5.10
   5  14   3    8.30    4.10
  -6 -14  -3   38.00    7.20
   6  14   3   41.40    6.20
  -1 -15  -3    6.20    4.90
   1  15   3   16.50    4.80
  -2 -15  -3    5.80    5.00
   2  15   3    1.40    3.60
  -3 -15  -3   20.80    6.00
   3  15   3   12.50    4.60
  -4 -15  -3    1.60    4.60
   4  15   3    1.40    3.90
   5  12  -4   53.99    7.40
  -5 -12   4   52.69    8.10
  -5 -12   4   61.49    7.90
   4  12  -4   35.20    6.10
  -4 -12   4   43.30    7.40
  -4 -12   4   45.40    7.10
   3  12  -4   19.10    5.20
  -3 -12   4    6.30    4.50
  -3 -12   4   10.30    5.00
   2  12  -4    1.10    3.80
  -2 -12   4    6.30    4.60
  -2 -12   4   -0.80    4.40
   1  12  -4   28.70    5.80
  -1 -12   4   23.60    5.50
  -1 -12   4   18.80    5.70
   0  12  -4   13.90    4.90
   0 -12   4   15.70    5.90
  -1  12  -4   17.40    7.00
  -1  12  -4   34.90    6.60
   1 -12   4   31.90    6.60
   6  11  -4   20.90    5.10
  -6 -11   4   15.90    5.50
  -6 -11   4   26.40    6.50
   5  11  -4  107.39    9.30
  -5 -11   4  116.99   10.50
  -5 -11   4  105.39    9.70
   4  11  -4   16.40    4.60
  -4 -11   4   14.40    4.70
  -4 -11   4   13.70    4.90
   3  11  -4    2.90    3.50
  -3 -11   4    3.50    4.10
  -3 -11   4    3.60    4.30
   2  11  -4   40.30    5.90
  -2 -11   4   41.40    6.30
  -2 -11   4   55.29    7.00
   1  11  -4   61.89    7.40
  -1 -11   4   72.49    7.70
  -1 -11   4   49.50    6.70
   0  11  -4   10.50    4.10
   0 -11   4   10.40    4.70
   0 -11   4    9.40    4.30
  -1  11  -4   22.20    7.00
  -1  11  -4   25.70    5.50
   1 -11   4   18.50    5.50
  -2  11  -4    4.50    4.00
  -2  11  -4    4.00    5.70
   2 -11   4    6.60    5.10
   7  10  -4   36.50    6.50
  -7 -10   4   26.90    6.70
  -7 -10   4   34.60    6.10
   6  10  -4   15.00    4.70
  -6 -10   4    8.90    4.30
  -6 -10   4   20.60    6.00
   5  10  -4    3.70    3.40
  -5 -10   4   -4.20    3.40
  -5 -10   4    3.40    3.70
   4  10  -4   -1.70    3.00
  -4 -10   4    1.30    3.40
  -4 -10   4    2.40    3.80
   3  10  -4   28.50    5.20
  -3 -10   4   26.90    5.10
  -3 -10   4   37.10    5.80
   2  10  -4   35.30    5.60
  -2 -10   4   37.50    5.70
  -2 -10   4   24.40    5.00
   1  10  -4   15.40    4.40
  -1 -10   4   17.70    4.60
  -1 -10   4   10.50    4.20
   0  10  -4    8.30    3.80
   0 -10   4   10.40    4.00
   0 -10   4    6.10    4.20
  -1  10  -4    6.90    4.70
  -1  10  -4    0.10    3.30
   1 -10   4   -3.40    3.60
   1 -10   4   -0.40    3.30
  -2  10  -4   -0.30    3.40
  -2  10  -4   -2.30    4.10
   2 -10   4   -3.10    4.40
  -3  10  -4   22.50    7.20
  -3  10  -4   33.00    6.10
   3 -10   4   24.90    5.70
  -4  10  -4   15.70    6.40
  -4  10  -4   21.60    5.80
   4 -10   4   26.20    6.20
   8   9  -4   20.30    5.60
  -8  -9   4   15.00    6.00
  -8  -9   4   21.50    5.50
   7   9  -4   29.70    5.70
  -7  -9   4   33.60    7.00
   6   9  -4   -1.20    3.10
  -6  -9   4    1.10    3.50
  -6  -9   4    1.00    4.10
   5   9  -4   -1.60    3.00
  -5  -9   4    2.70    4.00
  -5  -9   4    6.60    3.60
   4   9  -4    2.10    3.20
  -4  -9   4   -0.30    3.20
  -4  -9   4   -3.70    3.30
   3   9  -4   22.40    4.40
  -3  -9   4   28.10    5.00
  -3  -9   4   22.60    4.70
   2   9  -4  123.69    8.60
  -2  -9   4  135.69    9.10
  -2  -9   4  128.49    8.90
   1   9  -4   55.69    6.10
  -1  -9   4   62.59    6.20
  -1  -9   4   58.89    6.60
   0   9  -4   20.30    4.30
   0  -9   4   24.00    4.40
   0  -9   4   23.10    4.70
  -1   9  -4    3.00    3.20
   1  -9   4    2.00    3.50
   1  -9   4    1.30    3.00
  -2   9  -4   -1.40    2.90
  -2   9  -4    1.20    4.20
   2  -9   4    0.40    4.00
   2  -9   4   -3.00    3.90
  -3   9  -4   77.39    9.60
  -3   9  -4   99.69    9.20
   3  -9   4  100.59    9.20
  -4   9  -4   10.20    4.30
  -4   9  -4    9.80    5.60
   4  -9   4   14.00    5.50
  -5   9  -4    3.90    5.40
  -5   9  -4    9.30    4.50
   5  -9   4    2.00    5.00
   8   8  -4   45.30    7.00
  -8  -8   4   39.70    7.40
  -8  -8   4   46.70    6.30
   7   8  -4    3.80    3.80
  -7  -8   4    0.80    4.30
  -7  -8   4    1.80    3.60
   6   8  -4    0.50    3.10
  -6  -8   4    2.60    3.40
  -6  -8   4    2.70    4.10
   5   8  -4   42.00    5.70
  -5  -8   4   46.90    6.50
  -5  -8   4   39.60    5.40
   4   8  -4    4.80    3.10
  -4  -8   4    3.80    3.20
  -4  -8   4    5.00    3.30
   3   8  -4   75.59    7.20
  -3  -8   4   84.09    6.70
  -3  -8   4   72.09    6.80
   2   8  -4  175.78    9.70
  -2  -8   4  158.38    9.60
  -2  -8   4  168.28    9.70
   1   8  -4   43.50    5.20
  -1  -8   4   42.70    5.00
  -1  -8   4   31.20    4.70
   0   8  -4   17.40    3.80
   0  -8   4   21.60    4.20
   0  -8   4   21.40    3.80
  -1   8  -4  103.49    7.60
   1  -8   4  108.69    7.10
   1  -8   4  112.89    8.20
  -2   8  -4   96.69    7.50
  -2   8  -4   94.69    9.10
   2  -8   4   98.89    8.20
   2  -8   4   89.59    6.70
  -3   8  -4   46.50    6.30
  -3   8  -4   47.90    7.70
   3  -8   4   61.29    6.50
  -4   8  -4    9.70    3.90
  -4   8  -4    6.90    4.90
   4  -8   4   15.10    5.00
  -5   8  -4    3.10    5.00
  -5   8  -4    3.10    4.00
   5  -8   4    0.70    4.50
   8   7  -4   48.80    6.80
  -8  -7   4   60.59    7.00
  -8  -7   4   43.70    7.30
   7   7  -4    4.50    3.60
  -7  -7   4   12.70    4.60
  -7  -7   4    2.30    3.40
   6   7  -4   15.50    4.20
  -6  -7   4   24.60    5.30
  -6  -7   4   32.20    5.10
   5   7  -4  140.19    8.80
  -5  -7   4  131.59   10.00
  -5  -7   4  138.89    8.80
   4   7  -4   53.99    5.70
  -4  -7   4   42.40    5.50
  -4  -7   4   38.50    4.90
   3   7  -4  100.79    7.00
  -3  -7   4  114.29    7.50
  -3  -7   4  115.59    7.70
   2   7  -4   37.70    4.50
  -2  -7   4   29.70    4.40
  -2  -7   4   34.40    4.60
   1   7  -4   35.80    4.50
  -1  -7   4   34.70    4.20
  -1  -7   4   35.80    4.50
   0   7  -4    9.00    3.00
   0  -7   4    3.70    2.80
   0  -7   4    9.50    2.80
  -1   7  -4  381.56   16.40
   1  -7   4  350.26   15.40
   1  -7   4  377.16   16.70
  -2   7  -4   47.90    6.80
  -2   7  -4   50.59    5.60
   2  -7   4   55.89    6.20
   2  -7   4   52.29    4.80
  -3   7  -4   26.30    4.80
  -3   7  -4   35.10    6.60
   3  -7   4   38.20    5.30
   3  -7   4   39.20    4.10
  -4   7  -4    0.30    3.10
  -4   7  -4   -0.40    4.10
   4  -7   4   -0.20    3.60
  -5   7  -4   18.00    5.70
  -5   7  -4   25.00    5.20
   5  -7   4   31.80    5.90
  -6   7  -4   12.80    6.20
  -6   7  -4    8.40    4.30
   6  -7   4    9.50    4.90
   9   6  -4    0.50    4.40
  -9  -6   4   -0.80    4.90
  -9  -6   4   -3.40    3.70
   8   6  -4    0.80    3.80
   8   6  -4   -1.00    3.60
  -8  -6   4    0.10    3.60
   7   6  -4   96.69    7.90
  -7  -6   4   94.39    7.80
   6   6  -4  188.08   10.70
  -6  -6   4  178.68   10.30
  -6  -6   4  183.08   11.40
   5   6  -4  328.27   15.40
  -5  -6   4  330.97   15.20
  -5  -6   4  348.57   16.20
  -4  -6   4  249.88   12.70
   3   6  -4   53.79    5.10
  -3  -6   4   49.80    4.90
  -3  -6   4   46.60    5.20
   2   6  -4   35.30    4.20
  -2  -6   4   41.40    4.50
  -2  -6   4   32.90    4.10
   1   6  -4   23.20    3.60
  -1  -6   4   24.10    3.40
  -1  -6   4   25.70    3.80
   0   6  -4  521.75   21.30
   0  -6   4  533.85   20.70
   0  -6   4  530.95   21.40
  -1   6  -4  132.49    7.60
  -1   6  -4  125.29    9.00
   1  -6   4  132.59    8.00
   1  -6   4  140.89    7.00
  -2   6  -4  173.58   10.90
  -2   6  -4  176.48    9.40
   2  -6   4  176.38    8.40
   2  -6   4  175.38    9.70
  -3   6  -4  131.09    9.60
  -3   6  -4  119.99    8.00
   3  -6   4  125.19    8.20
   3  -6   4  113.29    6.50
  -4   6  -4   36.10    5.20
  -4   6  -4   42.90    6.90
   4  -6   4   42.10    5.50
  -5   6  -4   36.70    5.50
  -5   6  -4   26.20    5.70
   5  -6   4   33.40    5.80
  -6   6  -4   14.10    4.60
  -6   6  -4    2.50    4.40
   6  -6   4   10.00    4.40
  -7   6  -4   28.40    5.80
  -7   6  -4   41.30    7.00
   7  -6   4   25.40    6.20
   9   5  -4    9.30    5.00
   9   5  -4    5.30    5.10
  -9  -5   4    6.30    4.20
   8   5  -4   31.00    5.60
   8   5  -4   23.50    5.20
  -8  -5   4   25.20    5.00
   7   5  -4  130.89    8.70
   7   5  -4  138.39    9.50
  -7  -5   4  123.89    8.70
   6   5  -4   20.00    4.00
   6   5  -4   26.60    4.00
  -6  -5   4   24.90    4.40
   5   5  -4  231.28   11.00
  -5  -5   4  191.58   10.40
   4   5  -4   34.70    4.20
  -4  -5   4   36.40    4.30
   3   5  -4   -0.80    1.80
  -3  -5   4   -2.10    1.90
   2   5  -4  481.25   19.60
  -2  -5   4  486.45   19.80
  -2  -5   4  513.65   19.90
   1   5  -4   32.20    3.80
  -1  -5   4   40.00    4.20
  -1  -5   4   35.50    3.80
   0   5  -4  803.92   30.30
   0  -5   4  785.92   29.70
   0  -5   4  822.82   30.50
  -1   5  -4  132.19    7.20
  -1   5  -4  134.89    8.50
   1  -5   4  132.49    6.60
   1  -5   4  133.59    7.60
  -2   5  -4   -0.40    1.90
  -2   5  -4    0.30    1.30
  -2   5  -4   -2.80    2.40
   2  -5   4   -0.50    1.60
   2  -5   4    0.80    2.30
  -3   5  -4  117.39    7.40
  -3   5  -4  107.29    5.50
  -3   5  -4  115.09    8.50
   3  -5   4  117.19    7.50
  -4   5  -4   26.50    4.30
  -4   5  -4   13.10    4.10
   4  -5   4   27.10    4.50
  -5   5  -4    4.90    3.10
  -5   5  -4    7.50    4.10
   5  -5   4   11.10    4.00
  -6   5  -4   50.89    7.40
  -6   5  -4   65.29    7.20
   6  -5   4   48.10    6.30
  -7   5  -4    6.70    5.10
  -7   5  -4    2.00    3.70
   7  -5   4    9.00    4.60
   9   4  -4    5.30    4.70
   9   4  -4    6.90    4.30
  -9  -4   4    8.60    4.60
   8   4  -4   94.79    8.30
   8   4  -4   70.59    7.40
  -8  -4   4   92.09    7.90
   7   4  -4   20.20    4.30
   7   4  -4   12.10    4.00
  -7  -4   4   21.70    4.40
   6   4  -4   28.00    4.40
   6   4  -4   23.50    3.80
  -6  -4   4   23.40    3.90
   5   4  -4   -3.30    2.00
   5   4  -4   -0.90    2.00
  -5  -4   4   -2.20    2.00
   4   4  -4   16.70    2.90
  -4  -4   4   22.00    3.20
   3   4  -4  412.06   16.50
  -3  -4   4  388.96   16.30
   2   4  -4  187.18    9.00
  -2  -4   4  198.18    9.10
  -2  -4   4  185.98    8.00
  -2  -4   4  190.18    8.90
   1   4  -4   21.70    2.90
  -1  -4   4   26.80    3.20
  -1  -4   4   27.60    3.10
   0   4  -4   82.59    5.20
   0  -4   4   90.79    4.90
   0  -4   4   90.89    5.50
  -1   4  -4   96.69    5.40
  -1   4  -4   75.09    5.90
   1  -4   4   89.49    5.60
   1  -4   4   80.29    4.50
  -2   4  -4  103.99    7.30
  -2   4  -4  103.29    4.90
  -2   4  -4  106.49    6.30
   2  -4   4  108.19    6.70
   2  -4   4  116.49    5.20
  -3   4  -4  292.57   13.00
  -3   4  -4  302.27   11.30
  -3   4  -4  297.87   14.30
   3  -4   4  273.27   13.00
  -4   4  -4   94.79    5.00
  -4   4  -4   95.19    7.50
  -4   4  -4  100.19    6.80
   4  -4   4  106.69    7.00
  -5   4  -4   48.10    5.40
  -5   4  -4   44.80    6.10
   5  -4   4   46.50    5.70
  -6   4  -4    5.30    3.60
  -6   4  -4    1.60    3.20
   6  -4   4    1.60    3.50
  -7   4  -4   -0.40    3.60
  -7   4  -4   -2.80    3.30
   7  -4   4    3.60    4.20
  -8   4  -4   10.00    4.90
  -8   4  -4   11.20    5.00
   8  -4   4    3.90    4.60
   9   3  -4   33.50    6.30
   9   3  -4   26.90    5.60
  -9  -3   4   26.10    5.30
   8   3  -4   95.79    8.20
   8   3  -4   90.79    8.40
  -8  -3   4  101.39    8.10
   7   3  -4    3.80    3.00
   7   3  -4    4.60    3.50
  -7  -3   4    3.70    3.00
   6   3  -4    8.10    3.20
   6   3  -4   10.10    3.10
  -6  -3   4   10.30    3.10
   5   3  -4   42.70    4.60
   5   3  -4   54.29    4.80
  -5  -3   4   52.69    4.90
   4   3  -4   92.59    5.30
   4   3  -4   91.29    5.70
  -4  -3   4   84.79    5.60
   3   3  -4  497.55   19.00
  -3  -3   4  464.65   18.70
  -2  -3   4   44.80    3.20
   1   3  -4   70.89    4.40
  -1  -3   4   60.89    4.40
   0   3  -4  131.49    7.30
   0   3  -4  121.29    6.50
   0  -3   4  131.29    6.50
   0  -3   4  133.29    6.00
  -1   3  -4    8.20    2.10
  -1   3  -4    8.30    2.70
   1  -3   4    9.10    1.60
   1  -3   4   12.30    2.50
  -2   3  -4  119.29    5.30
  -2   3  -4  138.19    7.80
  -2   3  -4  137.49    6.80
   2  -3   4  126.29    5.40
   2  -3   4  136.59    7.00
  -3   3  -4  128.69    7.10
  -3   3  -4  135.69    5.40
  -3   3  -4  129.29    7.90
   3  -3   4  128.79    7.30
  -4   3  -4  115.29    7.80
  -4   3  -4  102.19    6.70
  -4   3  -4  105.39    4.80
   4  -3   4  104.39    6.90
  -5   3  -4   26.80    4.70
  -5   3  -4   25.30    4.00
   5  -3   4   18.60    4.00
  -6   3  -4   10.70    3.80
  -6   3  -4   10.30    3.60
   6  -3   4    3.40    3.50
  -7   3  -4   12.50    4.00
  -7   3  -4    7.60    4.10
   7  -3   4   11.50    4.40
  -8   3  -4   21.90    5.50
  -8   3  -4   23.40    5.20
   8  -3   4   23.20    5.40
   9   2  -4   14.40    5.80
   9   2  -4   16.60    5.10
  -9  -2   4   14.50    4.70
   8   2  -4   11.80    4.30
   8   2  -4   13.40    4.80
  -8  -2   4   22.50    5.00
   7   2  -4   55.09    6.10
   7   2  -4   53.69    6.20
  -7  -2   4   72.69    6.70
   6   2  -4    4.10    2.70
   6   2  -4    0.60    2.80
  -6  -2   4    0.20    2.30
   5   2  -4  186.68    7.90
   5   2  -4  171.38    8.90
   5   2  -4  181.58    9.20
  -5  -2   4  185.88    9.20
   4   2  -4  178.68    8.40
   4   2  -4  178.28    8.60
  -4  -2   4  175.18    8.60
   3   2  -4  282.77   11.80
  -3  -2   4  277.87   11.70
   2   2  -4  318.37   12.70
  -2  -2   4  296.07   12.20
  -2  -2   4  312.57   12.60
  -2  -2   4  327.37   12.60
   1   2  -4   25.50    2.70
  -1  -2   4   21.30    2.60
  -1  -2   4   26.60    2.80
   0   2  -4  413.86   16.70
   0   2  -4  424.36   15.90
   0  -2   4  416.96   15.90
   0  -2   4  405.26   15.80
  -1   2  -4   44.10    3.30
  -1   2  -4   45.20    4.00
   1  -2   4   46.10    2.50
   1  -2   4   45.90    3.40
   1  -2   4   48.90    3.80
  -2   2  -4 1132.29   42.20
  -2   2  -4 1185.98   43.20
   2  -2   4 1198.68   42.30
  -3   2  -4  141.19    7.90
   3  -2   4  146.69    7.40
  -4   2  -4   97.99    4.40
  -4   2  -4   96.69    6.70
  -4   2  -4   98.79    6.10
   4  -2   4   90.89    6.10
  -5   2  -4   23.90    4.20
  -5   2  -4   30.00    4.10
  -5   2  -4   20.10    2.30
   5  -2   4   19.00    3.60
  -6   2  -4   45.60    5.90
  -6   2  -4   52.09    5.40
   6  -2   4   44.00    5.40
  -7   2  -4   77.19    7.30
  -7   2  -4   92.39    7.60
   7  -2   4   96.29    8.20
  -8   2  -4   48.40    6.70
   8  -2   4   54.19    6.80
   9  -2   4   16.90    5.40
   9   1  -4    2.60    4.00
   9   1  -4    0.00    5.00
  -9  -1   4    5.60    4.40
   8   1  -4   -3.80    3.90
   8   1  -4   -2.30    3.30
  -8  -1   4    7.00    3.90
   7   1  -4    4.10    3.50
   7   1  -4    4.00    3.10
  -7  -1   4   10.30    3.60
   6   1  -4    2.60    2.90
   6   1  -4    1.30    2.60
  -6  -1   4    2.30    2.50
   5   1  -4  269.47   12.50
   5   1  -4  265.27   12.50
   5   1  -4  300.87   10.60
  -5  -1   4  272.87   12.50
   4   1  -4  442.96   17.00
   4   1  -4  454.95   17.20
   4   1  -4  389.36   15.60
  -4  -1   4  428.46   16.90
   3   1  -4  114.99    6.30
   3   1  -4  131.49    6.30
  -3  -1   4  133.09    6.40
  -3  -1   4  129.09    6.90
   2   1  -4  242.18   10.30
  -2  -1   4  270.17   10.40
  -2  -1   4  245.08   10.30
  -2  -1   4  269.27   10.40
   1   1  -4  520.65   20.10
   1   1  -4  546.75   20.50
   1   1  -4  549.95   20.10
  -1  -1   4  567.84   20.10
   0   1  -4 1239.08   44.00
   0   1  -4 1267.77   44.80
   0   1  -4 1188.88   43.90
   0  -1   4 1279.67   44.00
   0  -1   4 1253.17   44.10
  -1   1  -4  234.88    9.70
  -1   1  -4  232.88    8.90
   1  -1   4  224.48    8.80
   1  -1   4  186.88    7.80
   1  -1   4  212.98    8.90
  -2   1  -4  379.76   15.00
  -2   1  -4  339.47   13.90
   2  -1   4  356.46   13.90
   2  -1   4  366.36   14.00
  -3   1  -4   17.00    3.80
  -3   1  -4   12.50    2.40
   3  -1   4   10.60    2.30
  -4   1  -4    1.30    1.90
  -4   1  -4    4.20    1.10
  -4   1  -4    1.80    2.00
   4  -1   4    5.30    2.20
  -5   1  -4    6.00    3.00
  -5   1  -4   17.40    3.10
   5  -1   4   16.80    3.30
  -6   1  -4    3.90    3.00
  -6   1  -4    3.10    2.80
   6  -1   4    0.80    2.70
  -7   1  -4   13.20    4.10
  -7   1  -4   23.20    4.40
   7  -1   4   17.40    4.40
  -8   1  -4   18.80    4.60
  -8   1  -4   22.90    5.10
   8  -1   4   17.30    4.60
  -9   1  -4    6.10    4.10
   9  -1   4    6.00    4.70
   9   0  -4   -0.90    4.10
   9   0  -4   -0.60    4.80
  -9   0   4    4.20    4.00
   8   0  -4   55.79    6.70
   8   0  -4   71.39    7.80
  -8   0   4   64.19    6.90
   7   0  -4    0.40    3.50
   7   0  -4    0.60    2.90
  -7   0   4    2.10    2.70
   6   0  -4  116.19    7.80
   6   0  -4  124.49    7.90
  -6   0   4  130.59    7.60
   5   0  -4  178.78    9.00
   5   0  -4  178.38    9.20
  -5   0   4  177.38    8.90
   4   0  -4  650.33   23.90
   4   0  -4  602.44   23.90
  -4   0   4  630.74   23.80
   3   0  -4  388.06   14.90
   3   0  -4  368.16   14.70
   3   0  -4  363.16   13.40
  -3   0   4  378.76   14.70
  -3   0   4  379.06   14.70
   2   0  -4 1448.66   50.99
   2   0  -4 1522.05   50.39
   2   0  -4 1426.96   50.79
  -2   0   4 1412.76   50.79
  -2   0   4 1392.36   50.79
   1   0  -4 1778.22   59.59
   1   0  -4 1659.03   59.29
   1   0  -4 1689.43   59.39
  -1   0   4 1742.43   59.39
  -1   0   4 1651.63   59.49
  -1   0   4 1681.13   59.39
   0   0  -4 2552.14   86.09
   0   0  -4 2504.35   86.69
   0   0  -4 2502.75   86.09
   0   0   4 2394.16   86.09
   0   0   4 2454.35   86.09
   0   0   4 2486.15   86.79
  -1   0  -4  168.18    7.00
  -1   0  -4  174.68    7.00
  -1   0  -4  177.88    7.90
   1   0   4  174.88    7.70
   1   0   4  173.38    6.40
   1   0   4  169.48    7.00
   1   0   4  167.88    7.00
  -2   0  -4  342.67   13.30
  -2   0  -4  356.76   14.20
   2   0   4  344.77   13.40
   2   0   4  353.96   13.50
  -3   0  -4  286.97   11.90
  -3   0  -4  303.07   12.80
   3   0   4  295.07   12.00
   3   0   4  295.67   12.10
  -4   0  -4  167.58    8.70
  -4   0  -4  157.28    7.90
   4   0   4  179.28    8.30
  -5   0  -4  190.48    9.60
  -5   0  -4  169.48    8.80
   5   0   4  180.78    9.10
  -6   0  -4   84.39    6.90
  -6   0  -4   92.19    6.40
   6   0   4   96.39    6.80
  -7   0  -4   54.39    6.40
  -7   0  -4   50.39    5.70
   7   0   4   46.00    5.50
  -8   0  -4   14.90    4.50
  -8   0  -4    5.80    3.60
   8   0   4   13.90    4.60
  -9   0  -4    4.20    4.20
   9   0   4    6.90    4.20
   9  -1  -4   17.50    5.20
   9  -1  -4   12.60    6.00
  -9   1   4   24.00    5.40
   8  -1  -4   94.39    8.50
   8  -1  -4  110.49    9.40
  -8   1   4   90.39    8.10
   7  -1  -4   13.80    4.30
   7  -1  -4   17.60    4.10
  -7   1   4   14.40    3.80
   6  -1  -4   44.70    5.30
   6  -1  -4   58.19    5.40
  -6   1   4   53.49    5.40
   5  -1  -4   22.40    3.40
   5  -1  -4   25.50    3.70
  -5   1   4   25.90    3.50
   4  -1  -4   22.00    2.90
   4  -1  -4   22.40    3.20
  -4   1   4   17.80    2.80
   3  -1  -4  116.59    5.90
   3  -1  -4  120.39    6.30
  -3   1   4  118.99    5.90
  -3   1   4  114.99    5.80
   2  -1  -4  158.78    6.40
   2  -1  -4  147.09    6.90
   2  -1  -4  138.59    5.60
  -2   1   4  152.78    6.40
  -2   1   4  152.48    6.40
   1  -1  -4  561.84   20.30
   1  -1  -4  555.94   20.20
   1  -1  -4  606.94   20.20
  -1   1   4  578.84   20.20
  -1   1   4  551.54   20.20
  -1   1   4  546.65   20.70
  -1   1   4  558.04   20.30
   0  -1  -4    4.40    0.80
   0  -1  -4    8.30    1.00
   0  -1  -4    5.20    1.50
   0   1   4    7.00    1.00
   0   1   4    5.80    1.30
   0   1   4   10.30    1.10
  -1  -1  -4  150.68    5.90
  -1  -1  -4  151.48    5.80
  -1  -1  -4  158.88    6.90
  -1  -1  -4  147.69    5.90
   1   1   4  147.79    5.90
   1   1   4  146.19    6.70
   1   1   4  143.89    5.90
   1   1   4  152.48    5.90
  -2  -1  -4  113.09    5.80
  -2  -1  -4   98.79    4.30
  -2  -1  -4  103.89    4.80
  -2  -1  -4  101.89    4.70
   2   1   4  108.69    5.00
   2   1   4  108.49    6.10
   2   1   4  123.09    4.40
   2   1   4  102.39    4.90
  -3  -1  -4  433.96   15.80
  -3  -1  -4  441.36   16.50
  -3  -1  -4  431.76   17.40
   3   1   4  428.86   16.60
   3   1   4  435.66   16.50
  -4  -1  -4  573.84   20.20
  -4  -1  -4  541.85   20.90
  -4  -1  -4  526.65   21.70
   4   1   4  553.94   21.10
  -5  -1  -4  172.28    8.90
  -5  -1  -4  166.58    8.30
  -5  -1  -4  160.48    7.40
   5   1   4  151.68    8.20
  -6  -1  -4   25.80    3.70
  -6  -1  -4   30.40    4.50
   6   1   4   30.00    4.10
  -7  -1  -4   -2.60    2.90
  -7  -1  -4    2.80    2.70
   7   1   4   -3.00    2.70
  -8  -1  -4   35.70    5.30
  -8  -1  -4   31.90    5.60
   8   1   4   36.70    5.60
  -9  -1  -4   26.70    5.10
  -9  -1  -4   28.50    5.80
   9   1   4   41.10    6.20
   9  -2  -4   22.00    6.30
   9  -2  -4    5.30    4.20
  -9   2   4   13.00    5.00
   8  -2  -4  119.19    9.00
   8  -2  -4  141.79   10.60
  -8   2   4  112.79    9.10
   7  -2  -4   14.30    3.90
   7  -2  -4   22.50    5.00
  -7   2   4   22.80    4.40
   6  -2  -4   33.40    4.50
   6  -2  -4   31.90    4.80
  -6   2   4   39.80    4.70
   5  -2  -4   40.80    4.40
   5  -2  -4   38.00    4.50
  -5   2   4   46.00    4.40
   4  -2  -4  113.29    6.60
   4  -2  -4  112.39    6.20
  -4   2   4  108.09    6.10
   3  -2  -4   92.89    5.50
   3  -2  -4   86.99    5.00
  -3   2   4   88.79    4.80
  -3   2   4   93.09    4.90
   2  -2  -4  232.28    9.70
   2  -2  -4  224.58    9.20
  -2   2   4  213.18    8.40
  -2   2   4  257.37    9.20
  -2   2   4  236.58    9.20
   1  -2  -4  146.49    6.00
   1  -2  -4  145.79    6.00
   1  -2  -4  152.78    6.80
   1  -2  -4  161.88    6.30
  -1   2   4  153.18    6.10
  -1   2   4  150.98    6.10
  -1   2   4  173.78    6.30
  -1   2   4  151.98    6.70
   0  -2  -4  333.97   12.60
   0  -2  -4  329.37   12.60
   0  -2  -4  339.77   11.50
   0  -2  -4  337.27   11.50
   0   2   4  300.07   11.60
   0   2   4  329.37   12.60
   0   2   4  336.17   12.60
   0   2   4  330.57   11.60
  -1  -2  -4   80.39    4.40
  -1  -2  -4   81.59    3.20
  -1  -2  -4   76.19    3.80
   1   2   4   78.49    3.20
   1   2   4   69.19    3.10
   1   2   4   84.49    3.80
   1   2   4   75.69    4.30
  -2  -2  -4    2.50    1.00
  -2  -2  -4    3.00    1.00
  -2  -2  -4    2.60    1.60
  -2  -2  -4    2.60    1.10
   2   2   4    2.30    1.00
   2   2   4    3.70    1.70
   2   2   4    3.00    1.10
   2   2   4    3.90    1.10
  -3  -2  -4  150.68    7.50
  -3  -2  -4  145.29    6.50
  -3  -2  -4  138.89    6.20
   3   2   4  142.59    6.60
   3   2   4  161.68    6.60
  -4  -2  -4  498.45   19.80
  -4  -2  -4  553.84   20.30
  -4  -2  -4  543.75   21.30
   4   2   4  549.05   20.50
   4   2   4  545.45   20.40
  -5  -2  -4  156.18    8.80
  -5  -2  -4  160.38    8.00
  -5  -2  -4  181.48    7.90
   5   2   4  166.68    8.40
  -6  -2  -4    0.50    2.00
  -6  -2  -4   -0.50    2.40
  -6  -2  -4    0.30    1.90
   6   2   4   -0.80    2.20
  -7  -2  -4    4.80    2.80
  -7  -2  -4    6.20    2.70
  -7  -2  -4    2.40    3.20
   7   2   4    2.50    2.80
  -8  -2  -4   40.20    5.10
  -8  -2  -4   44.10    5.50
  -8  -2  -4   50.99    6.40
   8   2   4   37.30    5.50
  -9  -2  -4   10.90    4.70
  -9  -2  -4   18.00    4.70
   9   2   4   18.30    4.70
   9  -3  -4    5.20    5.30
   9  -3  -4    3.10    4.20
  -9   3   4    8.50    5.00
   8  -3  -4   19.80    5.70
   8  -3  -4   14.80    4.90
  -8   3   4   21.30    4.70
   7  -3  -4   17.40    4.30
   7  -3  -4   18.60    4.80
  -7   3   4   27.70    4.60
   6  -3  -4   -0.40    3.00
   6  -3  -4   -2.60    2.50
  -6   3   4    7.40    2.90
   5  -3  -4   -1.30    2.00
   5  -3  -4   -0.80    2.50
  -5   3   4    0.10    2.10
   4  -3  -4  113.09    6.70
   4  -3  -4  116.69    6.20
  -4   3   4  100.79    5.90
   3  -3  -4  363.86   14.70
   3  -3  -4  339.97   14.20
  -3   3   4  383.26   14.20
  -3   3   4  355.26   14.10
   2  -3  -4   89.59    5.10
   2  -3  -4   89.69    4.50
  -2   3   4   99.49    4.20
  -2   3   4   93.49    4.50
  -2   3   4   87.69    4.50
   1  -3  -4   66.89    3.90
   1  -3  -4   63.19    3.00
   1  -3  -4   65.19    3.00
  -1   3   4   58.69    3.00
  -1   3   4   62.79    3.10
  -1   3   4   63.89    3.70
  -1   3   4   62.59    3.40
  -1   3   4   65.39    4.10
   0  -3  -4  212.68    8.80
   0  -3  -4  204.48    8.90
   0   3   4  222.58    9.00
   0   3   4  211.98    7.60
   0   3   4  226.28    7.60
   0   3   4  208.38    8.80
   0   3   4  210.48    8.50
  -1  -3  -4   -0.20    1.50
  -1  -3  -4   -0.30    1.20
  -1  -3  -4    0.50    0.50
  -1  -3  -4   -0.30    0.50
   1   3   4   -0.40    1.00
   1   3   4    1.10    1.30
   1   3   4    1.00    0.50
   1   3   4    0.70    0.50
  -2  -3  -4  244.68    8.90
  -2  -3  -4  229.38   10.20
  -2  -3  -4  250.17    9.60
  -2  -3  -4  229.98    8.90
   2   3   4  233.08    9.00
   2   3   4  234.88    9.40
   2   3   4  228.58    8.90
  -3  -3  -4   41.70    3.90
  -3  -3  -4   40.90    3.00
  -3  -3  -4   47.20    2.90
   3   3   4   43.40    3.00
   3   3   4   35.50    2.90
   3   3   4   45.50    2.90
  -4  -3  -4   14.20    3.10
  -4  -3  -4   12.50    2.20
  -4  -3  -4   21.10    2.40
   4   3   4   13.40    2.10
   4   3   4   13.90    2.30
  -5  -3  -4    6.80    2.00
  -5  -3  -4    7.30    2.10
  -5  -3  -4    8.40    2.70
   5   3   4    8.20    2.30
  -6  -3  -4   57.79    5.50
  -6  -3  -4   74.19    5.30
  -6  -3  -4   65.79    5.00
   6   3   4   59.59    5.20
  -7  -3  -4   30.60    4.30
  -7  -3  -4   29.20    5.00
  -7  -3  -4   34.70    4.40
   7   3   4   35.50    4.80
  -8  -3  -4   25.10    4.60
  -8  -3  -4   19.00    4.90
  -8  -3  -4   26.00    4.40
   8   3   4   32.10    5.10
  -9  -3  -4   13.00    4.30
  -9  -3  -4   18.00    5.10
  -9  -3  -4   16.20    4.80
   9   3   4   10.50    4.30
 -10  -3  -4    6.10    4.80
  10   3   4    1.10    4.40
  10   3   4    5.90    5.80
   8  -4  -4   10.80    4.20
   8  -4  -4   18.20    5.40
  -8   4   4   16.80    4.80
   7  -4  -4   14.80    4.50
   7  -4  -4   14.60    4.00
  -7   4   4   23.50    4.70
   6  -4  -4    6.00    3.20
   6  -4  -4    5.60    3.30
  -6   4   4    0.30    2.80
   5  -4  -4   15.90    3.60
   5  -4  -4   14.10    3.10
  -5   4   4   16.30    1.90
  -5   4   4   14.10    3.00
   4  -4  -4   27.50    3.80
   4  -4  -4   23.00    3.10
  -4   4   4   23.10    2.30
  -4   4   4   28.50    3.30
   3  -4  -4  554.34   21.10
   3  -4  -4  553.24   21.50
  -3   4   4  546.55   21.10
  -3   4   4  575.64   21.10
   2  -4  -4   32.60    2.80
   2  -4  -4   30.80    3.20
  -2   4   4   31.30    2.70
  -2   4   4   32.00    2.80
   1  -4  -4  242.98   10.20
   1  -4  -4  234.28    9.00
   1  -4  -4  233.48    9.10
   1  -4  -4  244.38    9.70
  -1   4   4  246.58    9.70
  -1   4   4  229.38    9.00
  -1   4   4  224.08    9.00
   0  -4  -4 1651.03   58.19
   0  -4  -4 1647.04   56.99
   0   4   4 1701.73   59.09
   0   4   4 1668.63   58.19
   0   4   4 1582.34   56.99
   0   4   4 1659.33   57.49
   0   4   4 1605.94   56.99
  -1  -4  -4   16.30    2.40
  -1  -4  -4   17.90    1.30
  -1  -4  -4   19.10    1.40
   1   4   4   18.00    1.40
   1   4   4   20.30    1.30
   1   4   4   24.80    2.90
   1   4   4   22.20    2.40
  -2  -4  -4 1231.38   42.90
  -2  -4  -4 1257.87   43.90
  -2  -4  -4 1260.87   43.00
  -2  -4  -4 1193.68   44.40
   2   4   4 1201.48   43.80
   2   4   4 1237.58   43.00
   2   4   4 1210.28   42.90
  -3  -4  -4   29.20    3.50
  -3  -4  -4   25.70    2.40
  -3  -4  -4   28.20    3.00
   3   4   4   29.00    2.60
   3   4   4   27.90    2.40
  -4  -4  -4  145.59    8.10
  -4  -4  -4  141.39    6.70
  -4  -4  -4  148.29    7.20
   4   4   4  149.19    6.90
   4   4   4  141.49    6.80
  -5  -4  -4   66.99    5.00
  -5  -4  -4   73.09    5.80
  -5  -4  -4   73.29    4.80
   5   4   4   82.59    5.10
  -6  -4  -4   19.10    3.30
  -6  -4  -4   28.10    4.50
  -6  -4  -4   22.60    3.60
   6   4   4   24.40    3.60
  -7  -4  -4   89.79    6.60
  -7  -4  -4   93.99    7.00
  -7  -4  -4   87.59    7.40
   7   4   4   93.29    6.80
  -8  -4  -4   16.50    4.00
  -8  -4  -4   18.90    4.50
  -8  -4  -4   16.20    4.00
   8   4   4   14.60    4.00
  -9  -4  -4    9.90    4.60
  -9  -4  -4   13.70    4.20
  -9  -4  -4   19.30    4.50
   9   4   4    7.40    4.40
 -10  -4  -4   10.50    4.40
  10   4   4    6.50    4.60
  10   4   4    0.90    5.40
   8  -5  -4    1.20    4.20
   8  -5  -4    1.60    3.60
  -8   5   4    0.70    3.90
   7  -5  -4    2.90    4.00
   7  -5  -4    8.00    3.70
  -7   5   4    4.20    3.50
   6  -5  -4   93.79    7.30
   6  -5  -4   89.29    8.10
  -6   5   4   93.69    7.20
   5  -5  -4  103.39    7.30
   5  -5  -4  108.49    6.80
  -5   5   4   86.39    6.40
  -5   5   4   92.19    5.30
   4  -5  -4   68.49    5.60
   4  -5  -4   73.89    5.20
  -4   5   4   57.89    4.20
  -4   5   4   59.59    4.90
   3  -5  -4   87.89    5.70
   3  -5  -4   92.69    5.30
  -3   5   4   93.69    5.30
  -3   5   4   83.49    5.10
   2  -5  -4   44.80    3.80
   2  -5  -4   47.20    3.30
  -2   5   4   45.70    3.50
  -2   5   4   46.70    3.30
   1  -5  -4    2.90    1.50
   1  -5  -4    3.80    1.30
   1  -5  -4    0.20    1.70
  -1   5   4    5.20    1.40
  -1   5   4    4.00    1.20
   0  -5  -4  764.32   28.40
   0  -5  -4  761.72   27.10
   0  -5  -4  757.42   27.10
   0   5   4  743.63   27.20
   0   5   4  778.52   27.20
   0   5   4  785.12   27.40
  -1  -5  -4 1565.84   56.39
  -1  -5  -4 1580.94   55.09
  -1  -5  -4 1581.54   54.99
   1   5   4 1590.64   55.09
   1   5   4 1585.94   55.09
  -2  -5  -4   65.59    4.40
  -2  -5  -4   58.29    3.10
   2   5   4   60.99    3.30
   2   5   4   54.39    3.10
  -3  -5  -4  161.48    7.50
  -3  -5  -4  139.59    6.40
   3   5   4  155.18    6.70
   3   5   4  142.19    6.40
  -4  -5  -4   20.60    2.50
  -4  -5  -4   18.60    2.80
  -4  -5  -4   19.00    3.40
   4   5   4   19.10    2.50
   4   5   4   15.60    2.30
  -5  -5  -4   16.20    3.60
  -5  -5  -4   24.50    3.10
  -5  -5  -4   18.50    3.20
   5   5   4   20.60    3.00
  -6  -5  -4  285.67   13.90
  -6  -5  -4  308.57   12.90
  -6  -5  -4  264.37   12.90
   6   5   4  289.47   13.00
  -7  -5  -4   85.99    7.30
  -7  -5  -4   75.89    5.90
  -7  -5  -4   69.19    6.60
   7   5   4   69.69    6.50
  -8  -5  -4   21.20    4.50
  -8  -5  -4   17.10    3.90
   8   5   4   10.60    3.90
  -9  -5  -4    2.60    3.50
  -9  -5  -4    1.70    3.50
   9   5   4   -0.70    3.40
   9   5   4    4.40    4.40
  10   5   4    1.70    5.10
  10   5   4   -0.20    4.10
   8  -6  -4    9.10    4.90
   8  -6  -4   15.60    5.50
  -8   6   4   23.60    5.30
   7  -6  -4   48.80    6.60
   7  -6  -4   36.30    5.60
  -7   6   4   55.59    6.40
   6  -6  -4  100.29    8.10
   6  -6  -4   83.89    6.90
  -6   6   4   90.19    7.20
   5  -6  -4   72.79    6.70
   5  -6  -4   63.89    5.70
  -5   6   4   67.19    5.10
  -5   6   4   74.29    5.90
   4  -6  -4   13.30    3.30
   4  -6  -4   15.30    2.90
  -4   6   4   15.30    3.00
   3  -6  -4   61.69    4.50
   3  -6  -4   58.19    5.10
  -3   6   4   51.79    4.20
   2  -6  -4  182.68    8.50
   2  -6  -4  173.48    9.10
   2  -6  -4  174.68    8.10
  -2   6   4  185.68    8.20
  -2   6   4  187.38    8.10
   1  -6  -4  688.53   25.70
   1  -6  -4  683.33   26.90
   1  -6  -4  730.93   26.00
  -1   6   4  717.73   25.70
  -1   6   4  708.23   25.80
   0  -6  -4 1380.76   48.90
   0  -6  -4 1392.86   50.19
   0  -6  -4 1417.86   48.80
   0   6   4 1420.76   48.80
   0   6   4 1340.47   48.80
   0   6   4 1366.76   48.90
  -1  -6  -4 2567.44   92.79
  -1  -6  -4 2648.83   91.39
   1   6   4 2664.73   91.59
   1   6   4 2704.53   91.29
   1   6   4 2574.14   91.49
  -2  -6  -4  506.95   17.80
  -2  -6  -4  465.85   18.90
   2   6   4  472.45   17.70
   2   6   4  471.65   17.80
  -3  -6  -4   17.00    2.20
  -3  -6  -4   10.60    2.50
   3   6   4   14.50    2.00
   3   6   4   14.10    1.90
  -4  -6  -4   17.70    2.40
  -4  -6  -4    8.90    2.50
   4   6   4   14.20    2.20
   4   6   4    8.40    2.00
  -5  -6  -4  288.57   12.80
  -5  -6  -4  273.07   11.80
   5   6   4  276.47   12.20
  -6  -6  -4  183.28    9.90
  -6  -6  -4  171.88    8.70
   6   6   4  168.28    9.10
  -7  -6  -4  204.48   11.20
  -7  -6  -4  194.98   10.10
   7   6   4  185.18   10.40
  -8  -6  -4    1.40    3.20
  -8  -6  -4    6.50    3.30
   8   6   4    2.80    3.10
  -9  -6  -4    4.60    3.70
  -9  -6  -4    3.60    3.40
   9   6   4   -2.80    3.90
   9   6   4   -5.00    3.20
 -10  -6  -4   13.80    4.80
  10   6   4    5.90    4.30
  10   6   4    9.70    5.80
   7  -7  -4   46.30    6.80
   7  -7  -4   34.30    5.50
  -7   7   4   25.10    5.20
   6  -7  -4  105.09    8.60
   6  -7  -4  103.19    7.80
  -6   7   4   97.39    7.80
   5  -7  -4    0.60    2.80
   5  -7  -4   -2.40    2.80
  -5   7   4    0.90    2.60
  -5   7   4    1.90    2.40
   4  -7  -4    7.30    2.60
   4  -7  -4    6.70    3.00
  -4   7   4    7.40    2.60
   3  -7  -4  418.36   17.60
   3  -7  -4  432.16   17.30
  -3   7   4  426.26   17.30
   2  -7  -4  124.79    6.50
   2  -7  -4  123.99    6.60
   2  -7  -4  122.99    7.40
  -2   7   4  123.69    6.50
  -2   7   4  124.39    6.40
   1  -7  -4  197.28    9.30
   1  -7  -4  166.68    7.80
   1  -7  -4  179.68    8.00
  -1   7   4  175.08    7.90
  -1   7   4  168.68    7.90
   0  -7  -4   19.20    3.30
   0  -7  -4   23.40    2.40
   0  -7  -4   27.30    2.50
   0   7   4   28.20    2.70
   0   7   4   24.00    2.30
   0   7   4   23.80    2.60
  -1  -7  -4   40.50    4.30
  -1  -7  -4   32.30    2.80
   1   7   4   33.90    3.00
   1   7   4   38.50    2.40
  -2  -7  -4    2.90    2.00
  -2  -7  -4   -0.50    1.30
   2   7   4    2.60    1.50
   2   7   4    2.00    1.20
   2   7   4    6.00    1.10
  -3  -7  -4  172.98    8.00
  -3  -7  -4  195.48    9.40
   3   7   4  184.18    8.10
   3   7   4  180.88    8.20
  -4  -7  -4  117.39    7.30
  -4  -7  -4  122.09    6.30
   4   7   4  127.49    6.40
   4   7   4  119.99    6.40
  -5  -7  -4  229.68   11.30
  -5  -7  -4  212.88   10.00
   5   7   4  230.98   10.50
  -6  -7  -4  150.38    8.90
  -6  -7  -4  148.19    8.10
   6   7   4  137.89    8.00
  -7  -7  -4   74.79    7.40
  -7  -7  -4   70.09    5.90
   7   7   4   66.29    6.40
  -8  -7  -4   17.70    3.90
  -8  -7  -4   13.00    4.30
   8   7   4   10.00    3.90
   8   7   4   17.70    4.20
  -9  -7  -4   43.50    6.70
   9   7   4   30.50    5.50
   9   7   4   41.30    6.00
   7  -8  -4   25.20    5.70
  -7   8   4   36.30    5.90
   6  -8  -4   -0.20    3.40
   6  -8  -4    0.60    3.60
  -6   8   4    0.20    3.30
   5  -8  -4   -0.40    2.90
   5  -8  -4    5.50    3.10
  -5   8   4    0.40    2.80
  -5   8   4    1.70    2.70
   4  -8  -4  247.08   12.40
   4  -8  -4  262.47   12.90
  -4   8   4  277.27   12.70
   3  -8  -4  341.87   15.10
   3  -8  -4  362.16   15.10
  -3   8   4  337.67   14.90
   2  -8  -4  416.16   16.30
   2  -8  -4  391.46   16.20
   2  -8  -4  402.46   17.40
  -2   8   4  393.06   16.30
   1  -8  -4  141.89    6.80
   1  -8  -4  139.89    6.80
   1  -8  -4  128.69    7.80
  -1   8   4  138.79    6.70
  -1   8   4  124.79    6.80
   0  -8  -4   72.39    4.10
   0  -8  -4   73.39    4.40
   0  -8  -4   68.59    5.60
   0   8   4   74.49    4.50
   0   8   4   67.39    4.40
  -1  -8  -4   -2.00    2.10
  -1  -8  -4    1.10    1.50
   1   8   4    0.70    1.40
   1   8   4    0.30    0.90
  -2  -8  -4  368.66   16.30
  -2  -8  -4  393.76   15.20
   2   8   4  382.36   15.30
   2   8   4  394.26   15.20
  -3  -8  -4  450.15   18.70
  -3  -8  -4  438.06   17.20
   3   8   4  438.96   17.40
   3   8   4  443.56   17.20
  -4  -8  -4  227.98   11.10
  -4  -8  -4  213.38    9.60
   4   8   4  204.08    9.60
   4   8   4  209.88    9.80
  -5  -8  -4   98.19    7.40
  -5  -8  -4  105.89    6.20
   5   8   4  102.49    6.20
  -6  -8  -4  109.69    6.70
  -6  -8  -4  100.39    7.60
   6   8   4   98.59    6.90
  -7  -8  -4   10.00    3.00
  -7  -8  -4    3.00    3.10
   7   8   4    3.20    2.70
   7   8   4    3.60    3.00
  -8  -8  -4    9.50    4.20
  -8  -8  -4   10.70    3.80
   8   8   4    7.60    3.50
   8   8   4    9.80    3.50
  -9  -8  -4   26.80    5.90
   9   8   4   24.30    5.00
   6  -9  -4    2.80    4.10
  -6   9   4   -2.70    3.40
   5  -9  -4    4.90    3.50
   5  -9  -4    7.20    3.50
  -5   9   4    0.60    3.40
  -5   9   4    3.20    3.40
   4  -9  -4   10.20    3.70
   4  -9  -4   11.80    3.60
  -4   9   4   16.20    3.80
   3  -9  -4  142.79    8.40
   3  -9  -4  149.79    8.40
  -3   9   4  126.39    8.10
   2  -9  -4   61.29    4.90
   2  -9  -4   64.79    6.30
   2  -9  -4   56.99    4.80
  -2   9   4   54.79    5.20
   1  -9  -4   89.39    5.70
   1  -9  -4  102.39    5.60
   1  -9  -4  100.09    7.20
  -1   9   4   94.59    5.90
   0  -9  -4   -0.20    2.30
   0  -9  -4    0.40    1.40
   0  -9  -4    1.00    1.60
   0   9   4    3.00    1.90
   0   9   4    1.20    1.70
  -1  -9  -4  114.69    7.80
  -1  -9  -4  124.79    6.40
   1   9   4  133.99    6.70
  -2  -9  -4  828.82   32.40
  -2  -9  -4  835.12   31.10
   2   9   4  872.21   31.30
   2   9   4  820.92   31.00
  -3  -9  -4  282.17   12.10
  -3  -9  -4  287.67   13.60
   3   9   4  280.67   12.10
   3   9   4  279.27   12.20
  -4  -9  -4    0.70    2.30
   4   9   4    0.20    1.80
  -5  -9  -4  146.09    9.50
  -5  -9  -4  160.08    8.30
   5   9   4  164.58    8.70
  -6  -9  -4   59.79    6.70
  -6  -9  -4   50.89    5.20
   6   9   4   62.89    4.40
   6   9   4   55.99    5.50
  -7  -9  -4  106.59    7.40
  -7  -9  -4   98.09    8.30
   7   9   4  108.39    7.70
  -8  -9  -4   28.20    5.60
   8   9   4   25.20    5.00
  -9  -9  -4   24.10    5.50
   9   9   4   13.40    4.70
   6 -10  -4   -1.40    3.90
  -6  10   4    2.00    3.70
   5 -10  -4   49.90    6.60
  -5  10   4   52.69    6.70
   4 -10  -4   22.90    4.40
   4 -10  -4   24.50    7.40
  -4  10   4   15.70    4.00
   3 -10  -4  127.49    7.90
   3 -10  -4  121.09    8.00
   3 -10  -4  106.49    9.10
  -3  10   4  117.89    8.00
   2 -10  -4    9.00    2.80
   2 -10  -4    9.00    3.00
   2 -10  -4    5.50    3.60
  -2  10   4   11.20    3.10
   1 -10  -4   64.29    4.70
   1 -10  -4   65.99    5.10
   1 -10  -4   61.29    6.40
  -1  10   4   71.09    5.30
   0 -10  -4   56.69    3.80
   0 -10  -4   49.90    5.90
   0 -10  -4   55.29    4.80
   0  10   4   49.90    4.80
  -1 -10  -4  176.48    8.50
  -1 -10  -4  185.48   10.20
   1  10   4  159.58    8.60
  -2 -10  -4  674.83   27.20
  -2 -10  -4  672.93   25.50
   2  10   4  678.53   26.50
   2  10   4  650.43   25.80
  -3 -10  -4   81.19    7.40
  -3 -10  -4   64.29    4.90
   3  10   4   59.79    5.10
  -4 -10  -4    9.30    3.30
  -4 -10  -4    5.90    2.40
   4  10   4    7.50    2.80
  -5 -10  -4   12.60    3.90
   5  10   4   20.80    3.60
  -6 -10  -4   31.90    5.50
  -6 -10  -4   29.70    4.30
   6  10   4   35.20    4.90
  -7 -10  -4   67.99    7.80
   7  10   4   65.09    6.70
  -8 -10  -4   32.10    6.10
   8  10   4   40.00    5.70
  -9 -10  -4    3.90    4.70
   9  10   4   16.50    4.80
   5 -11  -4   44.40    6.30
  -5  11   4   47.40    6.50
   4 -11  -4   17.10    4.10
  -4  11   4   12.10    3.90
   3 -11  -4   36.80    4.90
   3 -11  -4   29.80    5.80
  -3  11   4   30.10    5.00
   2 -11  -4   91.49    8.10
   2 -11  -4   99.59    7.20
   2 -11  -4   84.39    6.20
  -2  11   4   90.29    6.90
   1 -11  -4  202.28    9.90
   1 -11  -4  192.28   11.40
   1 -11  -4  186.48    9.00
  -1  11   4  183.78   10.00
   0 -11  -4   89.89    6.20
   0 -11  -4   90.89    5.10
   0 -11  -4   89.29    8.00
   0  11   4   95.09    6.50
  -1 -11  -4  274.27   12.60
  -1 -11  -4  304.07   14.60
   1  11   4  270.17   12.80
  -2 -11  -4   52.49    6.30
  -2 -11  -4   56.39    5.00
   2  11   4   64.29    5.80
  -3 -11  -4   13.00    4.10
  -3 -11  -4   15.80    3.10
   3  11   4   17.70    3.40
  -4 -11  -4   11.90    4.20
  -4 -11  -4   16.30    3.40
   4  11   4   14.10    3.30
  -5 -11  -4   64.79    5.50
  -5 -11  -4   73.59    7.90
   5  11   4   52.99    5.80
  -6 -11  -4   97.09    9.40
   6  11   4  103.09    7.50
  -7 -11  -4  238.98   14.50
   7  11   4  259.67   13.50
  -8 -11  -4   29.70    6.50
   8  11   4   22.50    5.20
   4 -12  -4   16.40    4.40
  -4  12   4   11.30    4.30
   3 -12  -4   64.29    8.00
   3 -12  -4   52.49    6.00
  -3  12   4   75.79    7.50
   2 -12  -4   57.59    8.20
   2 -12  -4   64.99    7.50
  -2  12   4   58.19    6.30
   1 -12  -4  133.89    9.90
  -1  12   4  119.29    8.20
   0 -12  -4  100.09    8.70
   0  12   4   93.09    7.00
  -1 -12  -4  137.89    9.80
   1  12   4  123.49    7.90
  -2 -12  -4   -2.40    3.70
  -2 -12  -4   -0.20    3.40
   2  12   4    1.40    2.50
  -3 -12  -4   73.39    7.60
   3  12   4   63.89    6.10
  -4 -12  -4   28.60    5.60
   4  12   4   28.20    4.50
  -5 -12  -4   61.09    7.50
   5  12   4   61.49    6.20
  -6 -12  -4   82.09    8.80
   6  12   4   70.19    7.00
  -7 -12  -4   55.29    7.90
   7  12   4   55.09    6.50
  -8 -12  -4   -0.80    4.90
   8  12   4   -2.40    3.70
   3 -13  -4   62.49    8.50
  -3  13   4   80.79    8.20
   2 -13  -4   53.49    7.50
  -2  13   4   62.99    7.00
   1 -13  -4   44.80    6.90
  -1  13   4   62.09    6.70
   0 -13  -4   58.19    7.30
   0  13   4   49.90    5.80
  -1 -13  -4    1.70    3.80
   1  13   4    5.90    3.10
  -2 -13  -4   92.79    9.20
   2  13   4   94.59    7.30
  -3 -13  -4  210.98   13.10
   3  13   4  220.88   11.70
  -4 -13  -4  125.69   10.40
   4  13   4  130.49    8.60
  -5 -13  -4   69.69    8.60
   5  13   4   85.29    7.80
  -6 -13  -4   17.10    5.30
   6  13   4   31.50    5.20
  -7 -13  -4    0.40    4.60
   7  13   4    3.30    3.70
   2 -14  -4   48.60    7.60
  -2  14   4   52.19    6.70
   1 -14  -4   22.50    6.00
  -1  14   4   16.90    4.70
   0 -14  -4    2.80    4.30
   0  14   4    3.70    3.30
  -1 -14  -4    4.90    4.30
   1  14   4    7.60    3.40
  -2 -14  -4  100.59   10.00
   2  14   4  100.69    8.00
  -3 -14  -4   46.60    7.10
   3  14   4   44.80    5.90
  -4 -14  -4   88.79    9.40
   4  14   4   62.99    7.00
  -5 -14  -4    2.00    4.40
   5  14   4    2.50    3.40
  -6 -14  -4   -6.70    4.20
   6  14   4    4.70    3.80
   0 -15  -4   17.00    5.90
   0  15   4   11.00    4.20
  -1 -15  -4    5.00    4.90
   1  15   4    7.30    4.00
  -2 -15  -4   50.89    7.70
   2  15   4   42.70    5.90
  -3 -15  -4    5.70    4.70
   3  15   4   13.20    4.40
  -4 -15  -4   45.50    7.80
   4  15   4   45.80    6.40
  -5 -15  -4    0.00    5.00
   3  12  -5   92.09    9.40
  -3 -12   5   80.49    9.00
  -3 -12   5   73.59    8.80
   2  12  -5   38.60    6.50
  -2 -12   5   17.70    5.80
  -2 -12   5   32.50    6.40
   1  12  -5   -1.60    3.70
  -1 -12   5    0.60    4.60
   5  11  -5   57.19    7.50
  -5 -11   5   85.69    9.20
  -5 -11   5   72.79    8.10
   4  11  -5  113.59    9.70
  -4 -11   5  124.69   10.40
  -4 -11   5  111.89   10.20
   3  11  -5   24.10    5.50
  -3 -11   5   22.20    5.30
  -3 -11   5   29.80    6.00
   2  11  -5    5.10    3.80
  -2 -11   5    2.50    4.40
  -2 -11   5    2.00    4.10
   1  11  -5   13.10    4.70
  -1 -11   5   12.60    4.70
  -1 -11   5    6.50    4.80
   0  11  -5   13.10    4.50
   0 -11   5   11.20    5.30
  -1  11  -5   18.40    5.30
  -1  11  -5   14.40    6.60
   1 -11   5   14.70    5.40
  -2  11  -5   21.00    7.30
   2 -11   5   52.39    8.00
   6  10  -5   57.19    7.30
  -6 -10   5   42.40    7.30
  -6 -10   5   55.79    7.50
   5  10  -5    2.50    3.40
  -5 -10   5   -0.60    4.00
  -5 -10   5    1.30    4.00
   4  10  -5   26.00    5.30
  -4 -10   5   20.80    5.20
  -4 -10   5   24.90    5.50
   3  10  -5   95.19    8.50
  -3 -10   5  106.09    8.90
  -3 -10   5  106.89    9.10
   2  10  -5   87.69    8.50
  -2 -10   5   78.09    7.90
  -2 -10   5   88.09    8.50
   1  10  -5  100.19    8.40
  -1 -10   5   84.99    8.00
  -1 -10   5  101.39    8.90
   0  10  -5   28.80    5.40
   0 -10   5   32.60    5.90
   0 -10   5   26.70    5.00
  -1  10  -5    2.80    4.90
  -1  10  -5   13.00    4.70
   1 -10   5    4.90    4.70
  -2  10  -5   35.70    6.20
  -2  10  -5   27.30    7.20
   2 -10   5   46.20    7.20
  -3  10  -5   -4.40    3.90
  -3  10  -5    1.60    5.40
   3 -10   5   -1.40    5.00
   7   9  -5   26.80    5.60
  -7  -9   5   32.10    6.70
   6   9  -5   39.50    6.20
  -6  -9   5   21.30    5.90
  -6  -9   5   26.10    5.20
   5   9  -5   34.50    5.70
  -5  -9   5   33.30    5.90
  -5  -9   5   37.00    6.20
   4   9  -5   16.70    4.40
  -4  -9   5   16.70    4.90
  -4  -9   5   23.00    4.90
   3   9  -5   10.30    3.70
  -3  -9   5   11.30    4.00
  -3  -9   5    4.30    3.70
   2   9  -5   91.09    8.40
  -2  -9   5   79.29    7.60
  -2  -9   5   69.99    7.20
   1   9  -5   83.09    7.70
  -1  -9   5   76.09    7.50
  -1  -9   5   76.99    7.20
   0   9  -5   30.70    5.00
   0  -9   5   21.90    5.00
   0  -9   5   26.60    4.60
  -1   9  -5   -3.10    3.80
  -1   9  -5    6.50    3.80
   1  -9   5    0.00    3.70
   1  -9   5    5.50    3.50
  -2   9  -5    4.70    4.80
  -2   9  -5   -4.60    3.00
   2  -9   5   -3.90    3.80
  -3   9  -5    9.70    5.30
  -3   9  -5    5.80    4.20
   3  -9   5    7.30    4.60
  -4   9  -5   53.29    8.80
  -4   9  -5   62.99    7.50
   4  -9   5   49.40    7.60
   8   8  -5   30.80    6.30
  -8  -8   5   24.10    5.80
  -8  -8   5   28.00    7.10
   7   8  -5   16.30    4.80
  -7  -8   5   18.70    6.10
  -7  -8   5   12.00    4.50
   6   8  -5    5.90    3.80
  -6  -8   5    4.20    4.30
   5   8  -5    7.90    3.50
  -5  -8   5   -1.70    3.20
  -5  -8   5    3.10    3.70
   4   8  -5    1.00    2.80
  -4  -8   5    0.40    3.20
  -4  -8   5   -2.50    3.00
   3   8  -5   41.50    5.50
  -3  -8   5   40.20    5.50
  -3  -8   5   35.90    5.50
   2   8  -5  292.97   14.20
  -2  -8   5  292.37   14.30
  -2  -8   5  284.47   13.90
   1   8  -5  161.58    9.60
  -1  -8   5  154.28    9.70
  -1  -8   5  147.49    9.30
   0   8  -5   19.50    4.00
   0  -8   5   12.90    3.70
   0  -8   5   21.00    4.40
  -1   8  -5    8.70    4.20
  -1   8  -5    2.40    3.10
   1  -8   5    2.30    2.80
   1  -8   5    4.60    3.90
  -2   8  -5   28.70    4.80
  -2   8  -5   17.50    5.50
   2  -8   5   28.60    5.40
  -3   8  -5   90.39    8.60
  -3   8  -5   78.69    9.90
   3  -8   5   83.39    8.20
  -4   8  -5  110.09   11.20
  -4   8  -5  138.49   10.20
   4  -8   5  150.88   10.80
  -5   8  -5    0.60    5.10
  -5   8  -5    4.10    4.40
   5  -8   5    0.10    4.60
   8   7  -5   68.39    8.10
  -8  -7   5   52.49    7.80
  -8  -7   5   49.50    6.80
   7   7  -5   11.70    4.50
  -7  -7   5   19.60    4.70
  -7  -7   5   20.30    5.50
   6   7  -5    4.30    3.40
  -6  -7   5    1.50    3.30
  -6  -7   5   -1.10    3.80
   5   7  -5   51.69    6.30
  -5  -7   5   64.59    7.40
   4   7  -5   42.50    5.20
  -4  -7   5   47.90    5.50
  -4  -7   5   38.20    5.80
   3   7  -5   78.19    6.40
  -3  -7   5   86.09    7.00
  -3  -7   5   72.99    6.50
   2   7  -5   81.79    6.30
  -2  -7   5   68.69    6.40
  -2  -7   5   84.39    6.70
   1   7  -5  191.18   10.40
  -1  -7   5  202.08   10.00
  -1  -7   5  186.38   10.40
   0   7  -5   35.50    4.90
   0  -7   5   35.20    4.80
   0  -7   5   35.00    4.20
  -1   7  -5   10.10    4.20
  -1   7  -5   23.10    4.10
   1  -7   5   15.90    3.20
   1  -7   5   10.10    3.70
  -2   7  -5  111.99   11.40
   2  -7   5  130.29    7.30
   2  -7   5  129.49    9.00
  -3   7  -5   18.10    5.40
  -3   7  -5   22.30    4.70
   3  -7   5    4.90    3.80
  -4   7  -5   78.99    9.70
  -4   7  -5   97.59    8.00
   4  -7   5   94.99    8.70
  -5   7  -5    0.80    4.40
  -5   7  -5   -0.50    3.60
   5  -7   5   -0.10    4.60
  -6   7  -5    4.80    4.20
  -6   7  -5    2.90    5.30
   6  -7   5   -2.30    4.50
   8   6  -5   35.40    6.00
  -8  -6   5   35.40    5.80
   7   6  -5    4.40    3.60
  -7  -6   5    0.00    3.30
   6   6  -5  142.49    9.70
  -6  -6   5  162.88    9.70
   5   6  -5  168.28   10.10
  -5  -6   5  173.18   10.20
  -5  -6   5  205.08   11.50
   4   6  -5  295.37   13.80
  -4  -6   5  293.17   13.70
  -4  -6   5  280.47   14.10
   3   6  -5   51.69    5.20
  -3  -6   5   52.69    5.60
  -3  -6   5   45.60    5.20
   2   6  -5  127.99    7.80
  -2  -6   5  137.49    8.00
  -2  -6   5  136.99    8.00
   1   6  -5   11.40    3.10
  -1  -6   5   10.70    3.20
  -1  -6   5   12.60    3.00
   0   6  -5   23.30    3.70
   0  -6   5   19.20    3.10
   0  -6   5   19.00    3.70
  -1   6  -5   84.39    7.60
  -1   6  -5   83.69    6.20
   1  -6   5  102.69    5.90
   1  -6   5   85.39    6.70
  -2   6  -5  116.49    7.70
  -2   6  -5  119.19    9.30
   2  -6   5  119.59    8.10
   2  -6   5  120.39    6.50
  -3   6  -5   70.79    6.60
  -3   6  -5   56.39    7.50
   3  -6   5   56.29    4.60
   3  -6   5   69.89    6.50
  -4   6  -5    6.70    4.50
  -4   6  -5    5.10    3.30
   4  -6   5    4.10    3.80
  -5   6  -5    1.20    3.60
  -5   6  -5    1.80    4.60
   5  -6   5    3.90    4.40
  -6   6  -5   -2.80    3.30
  -6   6  -5   -2.90    4.50
   6  -6   5   -5.00    3.70
   9   5  -5   15.80    5.20
   9   5  -5   25.10    6.00
  -9  -5   5   22.70    5.60
   8   5  -5   -1.70    3.40
   8   5  -5   -7.20    3.70
  -8  -5   5    0.60    3.60
   7   5  -5    4.90    3.50
  -7  -5   5   -1.70    3.10
   6   5  -5  237.58   12.60
  -6  -5   5  259.27   12.70
   5   5  -5  101.39    7.40
  -5  -5   5  116.59    7.30
   4   5  -5  238.28   11.30
  -4  -5   5  217.08   11.10
   3   5  -5   23.50    3.70
  -3  -5   5   18.10    3.50
  -3  -5   5   17.00    3.10
   2   5  -5   40.00    4.20
  -2  -5   5   41.00    4.30
  -2  -5   5   27.20    3.90
   1   5  -5   53.99    4.60
  -1  -5   5   46.00    4.10
  -1  -5   5   52.19    5.10
   0   5  -5   72.29    6.10
   0   5  -5   72.99    5.40
   0  -5   5   76.89    5.70
   0  -5   5   73.79    4.80
  -1   5  -5  129.69    7.30
  -1   5  -5  130.99    8.80
   1  -5   5  140.29    7.90
   1  -5   5  126.99    6.50
  -2   5  -5   63.19    7.40
  -2   5  -5   57.79    5.10
   2  -5   5   50.19    3.90
   2  -5   5   60.49    5.80
  -3   5  -5   -1.00    2.50
  -3   5  -5    1.10    3.10
   3  -5   5    5.60    3.10
  -4   5  -5   15.50    3.80
  -4   5  -5   42.00    7.00
   4  -5   5   13.70    4.00
  -5   5  -5    1.40    3.00
  -5   5  -5    0.30    3.80
   5  -5   5    1.30    3.60
  -6   5  -5   12.20    5.00
  -6   5  -5   10.90    4.20
   6  -5   5   20.80    4.90
  -7   5  -5   22.10    5.20
  -7   5  -5   23.60    6.10
   7  -5   5   20.50    5.80
   9   4  -5   -1.80    3.90
   9   4  -5    1.30    5.10
  -9  -4   5    6.00    4.40
   8   4  -5    1.00    4.20
   8   4  -5    3.60    3.70
  -8  -4   5    9.60    4.20
   7   4  -5   32.70    5.20
   7   4  -5   39.30    5.50
  -7  -4   5   52.39    5.70
   6   4  -5  110.29    7.80
   6   4  -5  115.69    7.50
  -6  -4   5  111.59    7.70
   5   4  -5   80.89    6.40
  -5  -4   5   86.39    6.30
   4   4  -5   92.69    6.20
  -4  -4   5   81.99    5.80
   3   4  -5    6.60    2.40
  -3  -4   5   13.20    2.80
   2   4  -5   59.09    4.60
  -2  -4   5   51.09    4.70
   1   4  -5   57.79    4.50
  -1  -4   5   59.69    4.70
  -1  -4   5   52.89    4.30
   0   4  -5   31.30    4.30
   0   4  -5   32.60    3.50
   0  -4   5   28.50    3.10
   0  -4   5   32.80    3.70
  -1   4  -5  210.68   11.60
  -1   4  -5  222.08   10.30
   1  -4   5  226.78   10.60
   1  -4   5  234.08    9.40
  -2   4  -5   43.10    5.50
  -2   4  -5   37.50    4.10
   2  -4   5   37.10    2.90
   2  -4   5   39.80    4.30
  -3   4  -5  123.29    9.20
  -3   4  -5  129.69    7.60
   3  -4   5  130.09    7.80
  -4   4  -5   73.59    6.00
  -4   4  -5   63.69    7.10
   4  -4   5   65.69    6.20
  -5   4  -5    6.40    3.10
  -5   4  -5    1.20    3.90
   5  -4   5    3.50    3.60
  -6   4  -5   41.30    6.60
  -6   4  -5   51.69    6.30
   6  -4   5   49.40    6.20
  -7   4  -5   14.40    4.40
  -7   4  -5   10.00    4.70
   7  -4   5    9.80    4.80
  -8   4  -5    3.20    4.40
   8  -4   5    4.00    4.60
   9   3  -5   10.10    5.30
   9   3  -5    4.50    4.50
  -9  -3   5    5.30    4.30
   8   3  -5   32.40    5.70
   8   3  -5   38.60    5.80
  -8  -3   5   37.00    5.70
   7   3  -5   82.09    7.40
   7   3  -5  100.39    7.90
  -7  -3   5   91.19    7.40
   6   3  -5   -0.20    3.00
   6   3  -5   -2.20    2.60
  -6  -3   5    0.70    2.60
   5   3  -5   13.80    3.20
   5   3  -5    5.20    2.50
  -5  -3   5   13.10    3.10
   4   3  -5    5.00    2.30
  -4  -3   5    7.20    2.30
   3   3  -5    6.50    2.30
  -3  -3   5    5.80    2.10
   2   3  -5  331.47   13.60
  -2  -3   5  315.17   13.30
   1   3  -5  251.77   10.80
  -1  -3   5  237.78   10.60
   0   3  -5  270.47   11.70
   0   3  -5  300.37   14.00
   0  -3   5  291.47   11.90
   0  -3   5  259.67   11.10
  -1   3  -5  934.21   35.60
  -1   3  -5  997.10   34.20
   1  -3   5  938.51   34.30
   1  -3   5  853.01   33.00
  -2   3  -5   -1.60    1.50
  -2   3  -5    1.30    2.30
   2  -3   5   -0.90    1.90
  -3   3  -5   53.09    6.00
  -3   3  -5   49.70    4.80
   3  -3   5   59.09    4.90
  -4   3  -5   73.49    5.70
  -4   3  -5   58.29    6.40
   4  -3   5   75.49    5.90
  -5   3  -5   -1.80    2.20
  -5   3  -5   -1.70    3.00
   5  -3   5    5.20    3.20
  -6   3  -5   10.40    3.70
  -6   3  -5   14.70    4.50
   6  -3   5   19.60    4.60
  -7   3  -5    2.60    3.90
  -7   3  -5   -2.80    3.00
   7  -3   5    1.30    3.80
  -8   3  -5    5.90    4.40
  -8   3  -5    5.40    4.60
   8  -3   5    7.80    4.60
   9   2  -5   37.30    6.90
   9   2  -5   44.20    6.60
  -9  -2   5   30.70    5.70
   8   2  -5   71.79    7.80
   8   2  -5   59.69    7.00
  -8  -2   5   70.39    7.00
   7   2  -5   54.79    6.30
   7   2  -5   49.90    5.90
  -7  -2   5   61.09    6.40
   6   2  -5   23.00    4.00
   6   2  -5   25.80    4.00
  -6  -2   5   25.00    4.10
   5   2  -5    0.70    2.40
   5   2  -5    5.10    2.50
  -5  -2   5    7.10    2.70
   4   2  -5   11.10    2.50
   4   2  -5    9.60    2.60
  -4  -2   5    4.00    2.00
   3   2  -5   55.89    4.30
  -3  -2   5   51.39    4.10
   2   2  -5  129.29    6.40
  -2  -2   5  116.49    6.40
   1   2  -5  353.76   13.80
   1   2  -5  346.97   14.50
  -1  -2   5  355.96   13.90
  -1  -2   5  333.57   13.80
   0   2  -5  142.99    7.10
   0   2  -5  156.88    8.00
   0  -2   5  158.08    7.20
   0  -2   5  144.29    6.90
  -1   2  -5  157.38    7.20
  -1   2  -5  156.78    8.40
   1  -2   5  157.18    7.40
   1  -2   5  142.29    6.20
   1  -2   5  164.38    7.40
  -2   2  -5  391.36   15.00
  -2   2  -5  363.66   16.00
   2  -2   5  360.86   15.10
  -3   2  -5  180.38    8.40
  -3   2  -5  175.08    9.30
   3  -2   5  158.58    8.40
  -4   2  -5  229.08   11.60
  -4   2  -5  212.08   10.40
   4  -2   5  218.98   10.80
  -5   2  -5   65.99    6.20
  -5   2  -5   56.19    5.60
   5  -2   5   51.29    5.40
  -6   2  -5   14.80    3.70
  -6   2  -5    9.70    3.90
   6  -2   5   10.30    3.70
  -7   2  -5    7.50    3.70
  -7   2  -5    4.30    4.00
   7  -2   5    8.80    4.20
  -8   2  -5    9.90    4.90
  -8   2  -5   20.50    5.00
   8  -2   5   18.50    5.20
   9   1  -5   27.60    6.50
   9   1  -5   11.10    4.80
  -9  -1   5   29.80    5.70
   8   1  -5   79.19    7.80
   8   1  -5   76.29    8.00
  -8  -1   5   72.89    7.70
   7   1  -5    3.90    3.80
   7   1  -5   19.10    4.30
  -7  -1   5   18.80    4.10
   6   1  -5   -0.20    2.60
   6   1  -5    0.10    2.80
  -6  -1   5   -3.30    2.10
   5   1  -5    4.90    2.50
   5   1  -5    5.20    2.60
   5   1  -5    5.60    1.20
  -5  -1   5    5.60    2.50
   4   1  -5  301.37   13.10
   4   1  -5  301.57   12.80
  -4  -1   5  302.37   12.90
   3   1  -5  760.32   28.30
   3   1  -5  744.53   27.60
  -3  -1   5  779.32   28.20
   2   1  -5  159.28    7.20
   2   1  -5  154.68    7.20
  -2  -1   5  158.28    7.10
  -2  -1   5  145.19    7.00
   1   1  -5  245.58    9.90
   1   1  -5  235.18   10.30
  -1  -1   5  229.08    9.70
  -1  -1   5  247.18    9.80
   0   1  -5   11.10    1.90
   0   1  -5    7.10    2.10
   0  -1   5    9.20    1.80
   0  -1   5    9.20    1.80
  -1   1  -5  720.03   26.50
  -1   1  -5  767.32   27.70
   1  -1   5  698.83   26.60
   1  -1   5  727.83   26.70
  -2   1  -5  134.59    6.50
  -2   1  -5  145.89    7.70
   2  -1   5  122.79    6.50
   2  -1   5  135.89    6.60
  -3   1  -5  436.36   18.20
  -3   1  -5  432.96   17.10
   3  -1   5  434.86   17.20
  -4   1  -5   42.20    5.00
  -4   1  -5   50.79    4.50
   4  -1   5   39.30    4.20
  -5   1  -5  237.58   12.10
  -5   1  -5  217.78    9.00
  -5   1  -5  249.58   11.40
   5  -1   5  247.08   11.50
  -6   1  -5   39.00    5.50
  -6   1  -5   39.80    4.80
   6  -1   5   39.90    5.00
  -7   1  -5    5.70    3.30
  -7   1  -5    8.20    4.00
   7  -1   5    5.00    3.60
  -8   1  -5    4.00    3.80
  -8   1  -5    4.60    4.30
   8  -1   5   17.10    4.70
  -9   1  -5    7.60    4.30
   9  -1   5    6.00    4.90
   9   0  -5    6.90    4.50
   9   0  -5   17.10    6.20
  -9   0   5   14.90    5.00
   8   0  -5   -1.00    4.30
   8   0  -5    4.00    3.70
  -8   0   5   -0.40    3.40
   7   0  -5    0.20    2.90
   7   0  -5    2.90    3.90
  -7   0   5   -0.90    3.00
   6   0  -5  136.89    8.80
   6   0  -5  144.19    8.40
  -6   0   5  142.99    8.30
   5   0  -5  167.58    8.70
   5   0  -5  166.98    9.00
  -5   0   5  167.78    8.70
   4   0  -5 1796.42   63.39
   4   0  -5 1770.12   63.39
  -4   0   5 1754.42   63.19
   3   0  -5 1653.13   58.99
   3   0  -5 1733.83   58.79
   3   0  -5 1541.75   57.69
  -3   0   5 1651.93   58.69
  -3   0   5 1706.43   58.69
   2   0  -5   59.39    3.30
   2   0  -5   48.20    3.40
  -2   0   5   50.19    3.30
  -2   0   5   55.09    3.40
   1   0  -5   76.09    4.20
   1   0  -5   80.89    4.00
  -1   0   5   74.69    4.10
  -1   0   5   79.99    4.10
  -1   0   5   70.39    3.90
   0   0  -5  637.54   24.00
   0   0  -5  684.73   24.80
   0   0   5  690.13   24.10
   0   0   5  665.93   24.10
   0   0   5  655.93   24.80
  -1   0  -5  377.76   14.90
  -1   0  -5  361.86   13.90
   1   0   5  385.66   13.30
   1   0   5  358.36   13.90
   1   0   5  354.56   13.90
  -2   0  -5  548.45   20.40
  -2   0  -5  557.44   21.50
   2   0   5  553.54   20.60
   2   0   5  551.84   20.50
  -3   0  -5    2.40    1.60
  -3   0  -5   -4.80    2.00
   3   0   5    2.10    1.80
   3   0   5    3.20    1.70
  -4   0  -5   35.40    3.60
  -4   0  -5   46.10    5.00
   4   0   5   33.70    3.70
  -5   0  -5   29.40    3.60
  -5   0  -5   22.60    2.30
  -5   0  -5   23.20    4.20
   5   0   5   19.20    3.40
  -6   0  -5    9.60    3.60
  -6   0  -5    5.80    1.90
  -6   0  -5    9.10    3.10
   6   0   5   -4.50    2.50
  -7   0  -5   43.70    6.00
   7   0   5   47.70    5.80
  -8   0  -5   46.60    6.70
  -8   0  -5   47.40    6.10
   8   0   5   40.50    5.90
  -9   0  -5   17.60    5.50
  -9   0  -5   21.70    5.40
   9   0   5   28.20    6.10
   9  -1  -5    0.70    4.20
   9  -1  -5    0.60    5.10
  -9   1   5    3.50    4.30
   8  -1  -5    4.30    3.80
   8  -1  -5    0.30    4.40
  -8   1   5    1.40    3.30
   7  -1  -5   59.99    6.40
   7  -1  -5   74.69    7.40
  -7   1   5   74.69    6.80
   6  -1  -5   11.30    3.50
   6  -1  -5   15.40    4.00
  -6   1   5   23.90    3.90
   5  -1  -5  188.48   10.00
   5  -1  -5  172.88    9.40
  -5   1   5  220.58    9.80
   4  -1  -5   28.30    3.40
   4  -1  -5   28.80    3.60
  -4   1   5   20.10    2.90
   3  -1  -5   87.19    4.90
   3  -1  -5   86.59    5.40
  -3   1   5   86.19    4.70
  -3   1   5   84.79    4.90
   2  -1  -5  395.66   15.20
   2  -1  -5  393.66   14.70
   2  -1  -5  358.86   14.10
  -2   1   5  381.76   14.60
  -2   1   5  414.06   14.70
   1  -1  -5   25.00    2.00
   1  -1  -5   21.20    1.90
   1  -1  -5   24.50    2.30
  -1   1   5   23.30    2.00
  -1   1   5   22.30    2.00
  -1   1   5   21.50    1.90
   0  -1  -5   69.49    3.20
   0  -1  -5   74.29    4.20
   0  -1  -5   64.39    3.10
   0   1   5   69.69    3.20
   0   1   5   58.29    3.70
   0   1   5   65.09    3.20
  -1  -1  -5 1042.30   36.80
  -1  -1  -5 1077.69   38.10
  -1  -1  -5 1055.29   36.80
   1   1   5 1054.39   38.10
   1   1   5  993.90   36.80
   1   1   5 1060.89   36.90
   1   1   5 1062.19   36.90
  -2  -1  -5  209.88    8.90
  -2  -1  -5  224.28   10.10
  -2  -1  -5  253.57    8.40
   2   1   5  215.48    8.90
   2   1   5  224.98    9.00
   2   1   5  214.78    8.30
  -3  -1  -5  101.99    4.30
  -3  -1  -5   95.59    6.20
  -3  -1  -5  101.19    5.20
   3   1   5  112.59    5.50
   3   1   5  100.09    5.30
  -4  -1  -5  126.29    7.50
  -4  -1  -5  143.29    6.70
  -4  -1  -5  122.99    5.50
   4   1   5  133.19    6.80
  -5  -1  -5  111.09    6.30
  -5  -1  -5  101.99    5.10
  -5  -1  -5   94.99    7.00
   5   1   5  118.79    6.70
  -6  -1  -5  165.48    9.80
  -6  -1  -5  178.58    8.00
  -6  -1  -5  170.48    9.10
   6   1   5  166.58    9.20
  -7  -1  -5   18.70    3.10
  -7  -1  -5   18.40    4.50
  -7  -1  -5   22.00    4.00
   7   1   5   20.80    4.20
  -8  -1  -5   -2.70    2.70
  -8  -1  -5    4.10    3.70
   8   1   5    4.10    3.80
  -9  -1  -5   -2.00    4.00
  -9  -1  -5   -0.80    3.20
   9   1   5   -0.70    4.00
   9  -2  -5   -3.50    5.10
   9  -2  -5   -2.40    4.10
  -9   2   5   -1.50    4.20
   8  -2  -5   76.79    7.70
   8  -2  -5   94.99    9.30
  -8   2   5   91.09    8.40
   7  -2  -5   17.60    4.80
   7  -2  -5   17.50    4.00
  -7   2   5   26.00    4.80
   6  -2  -5   11.00    3.70
   6  -2  -5   14.10    3.40
  -6   2   5    7.50    3.10
   5  -2  -5   32.90    3.90
   5  -2  -5   29.30    4.10
  -5   2   5   28.10    3.80
   4  -2  -5  150.28    7.50
   4  -2  -5  146.09    8.00
  -4   2   5  152.58    7.60
   3  -2  -5  169.78    7.70
   3  -2  -5  170.38    8.20
  -3   2   5  167.48    7.70
  -3   2   5  180.68    7.90
   2  -2  -5  195.88    9.10
   2  -2  -5  195.98    8.30
   2  -2  -5  204.78    7.80
  -2   2   5  188.48    8.30
  -2   2   5  197.38    8.30
  -2   2   5  240.38    7.90
   1  -2  -5    7.90    1.20
   1  -2  -5    9.30    1.30
   1  -2  -5   10.30    1.70
  -1   2   5    8.60    1.20
  -1   2   5    7.30    1.20
  -1   2   5   14.80    1.70
   0  -2  -5   73.89    3.00
   0  -2  -5   76.09    3.10
   0  -2  -5   74.69    4.20
   0   2   5   80.09    4.20
   0   2   5   69.09    3.10
   0   2   5   80.29    4.20
   0   2   5   71.99    3.10
  -1  -2  -5  681.33   24.70
  -1  -2  -5  708.73   25.60
  -1  -2  -5  668.03   24.10
   1   2   5  688.93   24.20
   1   2   5  685.43   24.20
   1   2   5  703.83   25.60
   1   2   5  683.53   24.70
  -2  -2  -5  486.35   18.10
  -2  -2  -5  486.95   18.20
  -2  -2  -5  520.15   19.60
  -2  -2  -5  489.65   18.10
   2   2   5  518.15   18.20
   2   2   5  502.15   18.20
   2   2   5  508.15   18.20
  -3  -2  -5    4.60    2.20
  -3  -2  -5    6.70    1.60
  -3  -2  -5    5.70    1.40
   3   2   5    4.20    1.50
   3   2   5    3.80    1.50
  -4  -2  -5  296.47   12.40
  -4  -2  -5  327.37   14.20
  -4  -2  -5  339.87   13.10
   4   2   5  324.87   13.30
   4   2   5  334.37   13.20
  -5  -2  -5  103.19    7.10
  -5  -2  -5  115.89    6.20
  -5  -2  -5  109.99    5.70
   5   2   5  119.19    6.50
  -6  -2  -5   62.19    4.60
  -6  -2  -5   63.89    6.20
  -6  -2  -5   64.09    5.10
   6   2   5   75.19    6.00
  -7  -2  -5    6.30    3.60
  -7  -2  -5    2.20    2.40
  -7  -2  -5   10.80    3.20
   7   2   5    1.40    2.90
  -8  -2  -5    0.00    3.40
  -8  -2  -5    0.20    3.00
   8   2   5    4.00    3.40
  -9  -2  -5   14.70    4.30
  -9  -2  -5   16.40    5.20
   9   2   5   15.70    4.70
   9  -3  -5   11.90    5.80
   9  -3  -5    5.00    4.40
  -9   3   5    6.90    4.70
   8  -3  -5   22.90    5.60
   8  -3  -5   10.00    4.20
  -8   3   5   18.40    5.00
   7  -3  -5   46.50    6.20
   7  -3  -5   39.50    5.40
  -7   3   5   33.70    5.20
   6  -3  -5   -1.50    2.40
   6  -3  -5    1.80    3.10
  -6   3   5   -0.40    2.60
   5  -3  -5   99.59    6.40
   5  -3  -5  104.29    7.10
  -5   3   5  104.09    6.40
   4  -3  -5    1.70    2.30
   4  -3  -5    6.60    2.20
  -4   3   5    5.50    2.00
   3  -3  -5  127.09    7.00
   3  -3  -5  131.29    6.50
  -3   3   5  137.69    6.50
  -3   3   5  143.89    6.60
   2  -3  -5  102.89    5.80
   2  -3  -5  102.79    4.90
  -2   3   5  102.39    4.60
  -2   3   5  107.09    4.90
  -2   3   5  105.39    4.90
   1  -3  -5  105.89    4.50
   1  -3  -5  116.19    5.20
  -1   3   5  112.29    4.60
  -1   3   5  107.09    5.10
  -1   3   5  112.39    4.60
   0  -3  -5 1128.69   41.10
   0  -3  -5 1189.78   41.10
   0   3   5 1117.29   41.00
   0   3   5 1161.58   41.10
  -1  -3  -5   11.00    2.20
  -1  -3  -5    9.80    1.80
   1   3   5   10.20    1.80
   1   3   5   11.90    2.10
   1   3   5    9.10    0.80
  -2  -3  -5  105.89    5.00
  -2  -3  -5  102.59    5.80
  -2  -3  -5   91.69    4.20
  -2  -3  -5  100.79    4.30
   2   3   5   96.89    4.30
   2   3   5   93.49    4.30
   2   3   5  119.69    5.10
  -3  -3  -5   46.30    3.30
  -3  -3  -5   40.50    2.90
  -3  -3  -5   43.90    4.20
   3   3   5   46.90    3.20
   3   3   5   41.40    2.90
   3   3   5   50.79    3.20
  -4  -3  -5  594.14   21.90
  -4  -3  -5  567.24   23.20
  -4  -3  -5  590.84   21.80
   4   3   5  582.24   21.90
   4   3   5  587.44   22.10
  -5  -3  -5   26.40    3.00
  -5  -3  -5   21.10    4.00
  -5  -3  -5   26.00    3.20
   5   3   5   23.00    3.20
  -6  -3  -5    4.30    3.10
  -6  -3  -5    3.80    2.00
  -6  -3  -5    2.80    2.20
   6   3   5    3.60    2.50
  -7  -3  -5   -3.20    2.20
  -7  -3  -5   -5.30    2.20
  -7  -3  -5    2.60    3.10
   7   3   5    2.50    2.70
  -8  -3  -5    3.70    2.90
  -8  -3  -5    5.20    3.90
  -8  -3  -5    5.20    2.90
   8   3   5    5.90    3.60
  -9  -3  -5   15.50    4.50
  -9  -3  -5   12.90    5.00
   9   3   5   22.30    5.00
   8  -4  -5   16.00    4.80
   8  -4  -5   37.40    6.30
  -8   4   5   33.60    5.50
   7  -4  -5   36.00    5.80
   7  -4  -5   27.50    4.90
  -7   4   5   25.20    4.80
   6  -4  -5   76.99    6.30
   6  -4  -5   59.49    6.40
  -6   4   5   69.19    6.00
   5  -4  -5    9.70    2.80
   5  -4  -5    8.30    3.20
  -5   4   5   10.20    3.00
   4  -4  -5    8.60    2.70
   4  -4  -5    2.10    2.00
  -4   4   5    3.60    1.90
  -4   4   5    4.60    1.10
   3  -4  -5  424.16   17.20
   3  -4  -5  421.86   17.80
  -3   4   5  479.45   16.50
  -3   4   5  424.86   17.20
  -3   4   5  465.35   17.20
   2  -4  -5   67.49    4.50
   2  -4  -5   66.19    3.70
  -2   4   5   64.69    3.80
  -2   4   5   64.19    3.70
  -2   4   5   60.89    3.60
   1  -4  -5  101.19    4.50
   1  -4  -5  110.79    5.50
   1  -4  -5  106.79    6.00
   1  -4  -5  112.69    4.50
  -1   4   5  104.49    4.50
  -1   4   5  105.99    5.20
  -1   4   5  100.59    4.60
   0  -4  -5  169.78    5.80
   0  -4  -5  154.78    7.50
   0   4   5  155.18    5.90
   0   4   5  159.98    6.90
   0   4   5  163.78    7.30
   0   4   5  152.98    5.90
  -1  -4  -5   26.60    3.10
  -1  -4  -5   35.00    3.20
   1   4   5   29.40    2.80
  -2  -4  -5   27.20    1.80
  -2  -4  -5   29.20    3.00
  -2  -4  -5   24.30    3.40
   2   4   5   26.40    1.90
   2   4   5   25.60    2.70
   2   4   5   25.60    1.80
  -3  -4  -5   70.59    5.30
  -3  -4  -5   69.49    3.70
  -3  -4  -5   64.99    4.30
   3   4   5   72.49    3.80
   3   4   5   75.19    3.90
  -4  -4  -5  132.99    6.40
  -4  -4  -5  112.69    5.90
  -4  -4  -5  118.59    7.30
   4   4   5  126.59    6.00
   4   4   5  122.99    6.20
  -5  -4  -5   21.50    3.90
  -5  -4  -5   15.90    2.70
  -5  -4  -5   23.00    3.00
   5   4   5   16.60    2.90
  -6  -4  -5    0.90    2.20
  -6  -4  -5    4.00    2.30
  -6  -4  -5    1.70    2.90
   6   4   5    3.20    2.60
  -7  -4  -5   22.00    4.60
  -7  -4  -5   13.40    3.60
  -7  -4  -5   21.20    3.80
   7   4   5   23.10    4.00
  -8  -4  -5   23.20    4.20
  -8  -4  -5   30.00    4.90
  -8  -4  -5   30.40    5.80
   8   4   5   26.90    4.70
  -9  -4  -5   33.30    5.30
  -9  -4  -5   30.70    6.20
   9   4   5   31.10    5.50
  10   4   5   19.50    5.30
   8  -5  -5   31.40    6.10
   8  -5  -5   15.30    5.30
  -8   5   5   19.00    4.90
   7  -5  -5    1.60    3.60
   7  -5  -5    4.40    3.60
  -7   5   5    7.20    3.90
   6  -5  -5   -2.20    2.90
   6  -5  -5    4.30    3.00
  -6   5   5    2.50    2.80
   5  -5  -5   66.69    6.00
   5  -5  -5   62.89    6.30
  -5   5   5   65.09    5.50
  -5   5   5   78.09    4.10
   4  -5  -5   54.19    5.30
   4  -5  -5   59.69    4.60
  -4   5   5   59.79    3.80
  -4   5   5   61.59    4.60
   3  -5  -5  480.35   18.70
   3  -5  -5  490.25   19.40
  -3   5   5  486.05   18.70
  -3   5   5  478.85   18.70
   2  -5  -5  371.36   14.50
   2  -5  -5  340.87   13.60
  -2   5   5  354.56   13.70
  -2   5   5  352.26   13.70
   1  -5  -5    1.50    1.10
   1  -5  -5    0.70    1.50
   1  -5  -5    0.50    1.80
  -1   5   5   -0.20    1.00
  -1   5   5    1.30    1.60
  -1   5   5    0.20    0.90
   0  -5  -5  174.58    6.60
   0  -5  -5  174.38    8.20
   0   5   5  175.18    7.30
   0   5   5  167.28    6.60
   0   5   5  167.98    6.60
  -1  -5  -5  438.16   16.80
  -1  -5  -5  418.86   15.10
  -1  -5  -5  414.96   15.10
   1   5   5  435.56   15.20
   1   5   5  414.96   15.10
  -2  -5  -5  137.19    5.70
  -2  -5  -5  142.39    7.60
  -2  -5  -5  141.59    7.10
   2   5   5  145.69    5.90
   2   5   5  143.79    5.80
  -3  -5  -5  464.45   18.10
  -3  -5  -5  459.45   18.80
  -3  -5  -5  463.05   17.00
   3   5   5  458.85   17.10
   3   5   5  456.95   17.20
  -4  -5  -5   12.70    3.10
  -4  -5  -5   11.70    2.50
  -4  -5  -5   11.70    1.90
   4   5   5    7.30    1.90
   4   5   5   11.20    1.90
  -5  -5  -5   27.40    3.50
  -5  -5  -5   25.40    4.20
  -5  -5  -5   23.80    2.90
   5   5   5   22.00    3.00
   5   5   5   23.00    3.30
  -6  -5  -5   66.19    4.90
  -6  -5  -5   58.79    6.30
  -6  -5  -5   56.39    5.20
   6   5   5   59.69    5.30
  -7  -5  -5   29.20    4.10
  -7  -5  -5   19.90    4.30
  -7  -5  -5   25.20    4.90
   7   5   5   24.30    4.30
  -8  -5  -5   38.60    4.90
  -8  -5  -5   31.90    5.80
  -8  -5  -5   33.90    5.00
   8   5   5   32.60    5.20
  -9  -5  -5   11.20    3.80
  -9  -5  -5    5.50    3.90
  -9  -5  -5    7.70    4.90
   9   5   5   12.80    4.50
  10   5   5    6.80    4.60
  10   5   5   -1.70    5.10
   8  -6  -5    1.70    4.30
  -8   6   5    0.70    4.10
   7  -6  -5   -0.80    3.40
   7  -6  -5    3.40    4.00
  -7   6   5    6.10    3.60
   6  -6  -5   53.49    6.30
   6  -6  -5   55.09    5.90
  -6   6   5   61.19    6.30
   5  -6  -5  116.79    8.10
   5  -6  -5  124.19    7.50
  -5   6   5  120.29    6.40
  -5   6   5  110.09    7.40
   4  -6  -5  192.88    9.30
   4  -6  -5  190.88    9.90
  -4   6   5  175.88    9.20
   3  -6  -5   15.90    2.60
   3  -6  -5   27.10    3.60
  -3   6   5   22.60    2.90
  -3   6   5   21.50    2.90
   2  -6  -5  194.98    9.00
   2  -6  -5  188.18    8.40
  -2   6   5  197.48    8.50
  -2   6   5  192.88    8.40
   1  -6  -5  343.67   13.40
   1  -6  -5  349.47   14.90
   1  -6  -5  349.17   14.00
  -1   6   5  348.17   13.50
  -1   6   5  371.06   13.60
   0  -6  -5  639.54   22.80
   0  -6  -5  622.74   24.50
   0   6   5  633.14   23.40
   0   6   5  666.23   23.00
   0   6   5  630.14   23.00
  -1  -6  -5 1923.61   67.89
   1   6   5 1908.01   66.29
   1   6   5 1868.81   66.29
   1   6   5 1920.11   66.59
  -2  -6  -5  526.95   19.00
  -2  -6  -5  528.95   20.60
   2   6   5  522.35   19.10
   2   6   5  519.65   19.00
  -3  -6  -5  333.17   14.00
  -3  -6  -5  326.47   12.70
   3   6   5  328.07   12.80
   3   6   5  334.07   12.90
  -4  -6  -5    7.80    2.40
  -4  -6  -5    9.50    1.90
   4   6   5    5.90    1.70
   4   6   5   11.40    2.10
  -5  -6  -5   50.29    4.00
  -5  -6  -5   48.20    4.90
   5   6   5   43.50    4.20
   5   6   5   46.00    3.90
  -6  -6  -5  147.79    8.50
  -6  -6  -5  135.29    7.60
   6   6   5  144.19    8.00
  -7  -6  -5  113.59    7.90
  -7  -6  -5  109.29    7.20
   7   6   5  114.49    7.40
  -8  -6  -5    5.40    3.20
  -8  -6  -5    7.40    3.70
   8   6   5    5.30    3.40
  -9  -6  -5    2.80    3.60
   9   6   5   -0.10    3.50
  10   6   5    5.70    4.40
   7  -7  -5   17.70    5.00
  -7   7   5   30.30    5.40
   6  -7  -5  222.98   11.50
   6  -7  -5  204.28   11.90
  -6   7   5  184.98   11.10
   5  -7  -5   66.29    6.10
   5  -7  -5   71.19    6.90
  -5   7   5   64.59    5.40
  -5   7   5   66.89    6.30
   4  -7  -5   90.89    6.30
   4  -7  -5   88.09    6.90
  -4   7   5  104.99    6.50
   3  -7  -5   40.40    4.00
   3  -7  -5   44.20    4.70
  -3   7   5   39.90    4.10
   2  -7  -5    0.20    1.80
   2  -7  -5   -0.20    1.50
   2  -7  -5    0.10    2.30
  -2   7   5    0.20    1.50
  -2   7   5    2.80    1.50
   1  -7  -5   13.50    2.90
   1  -7  -5   15.90    2.40
   1  -7  -5   17.40    2.10
  -1   7   5   14.30    2.10
  -1   7   5   13.90    2.10
   0  -7  -5   14.20    2.90
   0  -7  -5   11.30    1.70
   0   7   5   11.60    1.80
   0   7   5   13.10    1.80
  -1  -7  -5  124.49    7.10
  -1  -7  -5  124.99    5.50
   1   7   5  126.29    5.60
   1   7   5  124.39    5.60
   1   7   5  127.39    5.70
  -2  -7  -5   32.50    2.60
  -2  -7  -5   37.20    4.00
   2   7   5   32.80    2.60
   2   7   5   32.90    2.70
  -3  -7  -5   16.90    3.10
  -3  -7  -5   27.10    2.60
   3   7   5   22.80    2.60
   3   7   5   26.70    2.60
  -4  -7  -5   22.60    2.70
  -4  -7  -5   19.70    3.30
   4   7   5   22.70    2.70
   4   7   5   21.50    2.80
  -5  -7  -5  137.99    8.10
  -5  -7  -5  125.19    6.70
   5   7   5  135.49    7.00
   5   7   5  118.99    6.80
  -6  -7  -5  225.28   10.80
  -6  -7  -5  243.08   11.90
   6   7   5  232.68   11.10
  -7  -7  -5  149.79    8.30
  -7  -7  -5  154.88    9.50
   7   7   5  142.59    8.90
  -8  -7  -5    2.90    2.70
  -8  -7  -5   -1.50    3.00
   8   7   5    0.60    3.00
  -9  -7  -5   14.70    4.60
   9   7   5   16.80    4.80
   9   7   5   13.70    4.60
   7  -8  -5   55.19    7.30
  -7   8   5   53.09    6.80
   6  -8  -5   50.39    6.60
  -6   8   5   54.99    6.50
   5  -8  -5   11.70    3.60
   5  -8  -5   21.90    4.40
  -5   8   5   18.10    4.00
   4  -8  -5   39.70    4.60
   4  -8  -5   37.70    4.90
  -4   8   5   45.70    5.10
   3  -8  -5   95.39    6.00
   3  -8  -5   79.49    6.20
  -3   8   5   84.09    5.90
   2  -8  -5  391.16   16.80
   2  -8  -5  370.86   15.30
   2  -8  -5  386.46   15.70
  -2   8   5  378.16   15.30
  -2   8   5  365.06   15.40
   1  -8  -5  125.49    7.70
   1  -8  -5  131.39    6.50
   1  -8  -5  116.79    6.20
  -1   8   5  123.79    6.20
  -1   8   5  126.19    6.40
   0  -8  -5  161.48    9.00
   0  -8  -5  157.08    7.30
   0   8   5  161.68    7.50
   0   8   5  178.38    7.50
  -1  -8  -5  146.49    8.30
  -1  -8  -5  154.98    6.70
   1   8   5  143.99    6.80
   1   8   5  150.58    6.40
   1   8   5  151.98    6.90
  -2  -8  -5    1.10    2.20
  -2  -8  -5    0.60    1.30
   2   8   5   -0.30    1.30
   2   8   5    1.70    1.00
   2   8   5    3.30    1.50
  -3  -8  -5   71.69    5.80
  -3  -8  -5   64.19    4.10
   3   8   5   71.39    4.30
   3   8   5   70.29    4.50
  -4  -8  -5  171.58    7.90
  -4  -8  -5  169.38    9.40
   4   8   5  166.18    7.90
   4   8   5  166.38    8.10
  -5  -8  -5   86.99    5.40
  -5  -8  -5   82.29    6.80
   5   8   5   85.19    5.80
  -6  -8  -5  131.29    8.90
  -6  -8  -5  134.39    7.50
   6   8   5  129.59    7.80
  -7  -8  -5   43.30    5.00
  -7  -8  -5   43.80    5.80
   7   8   5   48.80    5.40
  -8  -8  -5   -3.70    3.00
   8   8   5    1.80    3.10
  -9  -8  -5    7.20    4.10
   9   8   5   18.10    4.60
   6  -9  -5   -0.40    3.50
  -6   9   5   -1.50    3.40
   5  -9  -5    3.00    3.40
  -5   9   5   -0.20    2.80
   4  -9  -5   22.40    4.30
   4  -9  -5   21.00    3.80
  -4   9   5   23.20    4.20
   3  -9  -5   62.19    5.50
   3  -9  -5   58.09    5.70
  -3   9   5   59.49    5.20
   2  -9  -5  193.78    9.50
   2  -9  -5  202.48    9.70
   2  -9  -5  204.38   11.10
  -2   9   5  188.98    9.50
   1  -9  -5  162.28    8.00
   1  -9  -5  164.78    7.80
   1  -9  -5  162.28    9.40
  -1   9   5  153.58    7.90
  -1   9   5  173.78    8.20
   0  -9  -5   97.09    5.50
   0  -9  -5   96.89    7.10
   0   9   5   96.39    5.60
   0   9   5   98.69    5.50
  -1  -9  -5   16.80    3.50
  -1  -9  -5   15.70    2.30
   1   9   5   19.10    2.10
   1   9   5   18.60    2.70
  -2  -9  -5  185.98    8.40
  -2  -9  -5  176.58    9.90
   2   9   5  189.68    8.50
   2   9   5  191.88    8.60
  -3  -9  -5  143.69    8.70
  -3  -9  -5  150.98    7.30
   3   9   5  152.98    7.30
   3   9   5  145.49    7.30
  -4  -9  -5   26.70    4.50
   4   9   5   28.90    3.50
   4   9   5   29.40    3.40
  -5  -9  -5   58.39    4.50
  -5  -9  -5   48.50    5.80
   5   9   5   40.80    4.50
  -6  -9  -5   60.09    5.50
  -6  -9  -5   42.60    5.90
   6   9   5   49.90    5.30
  -7  -9  -5   74.49    7.90
   7   9   5   68.99    6.80
  -8  -9  -5   33.80    5.90
   8   9   5   39.50    5.70
  -9  -9  -5   37.40    6.30
   9   9   5   43.10    6.30
   6 -10  -5    2.40    4.10
  -6  10   5    3.70    4.00
   5 -10  -5   -1.70    3.00
  -5  10   5    3.90    3.50
   4 -10  -5   -2.90    2.80
  -4  10   5    6.90    3.20
   3 -10  -5   88.99    7.00
   3 -10  -5   98.29    8.10
  -3  10   5   85.69    6.60
   2 -10  -5    1.50    2.20
   2 -10  -5    6.90    3.30
   2 -10  -5   -2.80    2.10
  -2  10   5    1.00    2.20
   1 -10  -5  106.79    7.80
   1 -10  -5  106.49    6.30
   1 -10  -5   98.39    5.90
  -1  10   5  102.39    6.50
   0 -10  -5  118.29    6.70
   0 -10  -5  115.69    8.20
   0  10   5  126.99    6.90
   0  10   5  121.09    6.80
  -1 -10  -5    1.00    1.70
  -1 -10  -5    1.60    2.70
   1  10   5   -1.20    1.70
  -2 -10  -5  701.63   29.40
  -2 -10  -5  743.43   27.50
   2  10   5  729.03   27.60
   2  10   5  751.92   27.80
  -3 -10  -5  208.88    9.60
  -3 -10  -5  222.08   11.60
   3  10   5  201.68    9.90
   3  10   5  205.38    9.80
  -4 -10  -5  164.78   10.00
  -4 -10  -5  163.18    8.20
   4  10   5  160.68    8.60
  -5 -10  -5    4.80    3.40
   5  10   5    4.30    2.50
  -6 -10  -5    2.00    3.50
   6  10   5    4.60    2.90
  -7 -10  -5   -3.10    3.30
   7  10   5    4.80    3.10
  -8 -10  -5   21.80    5.70
   8  10   5   15.90    4.30
  -9 -10  -5    7.90    4.70
   9  10   5   20.10    5.10
   5 -11  -5   54.39    6.90
  -5  11   5   64.09    7.40
   4 -11  -5   64.99    6.80
  -4  11   5   55.69    6.50
   3 -11  -5   15.50    3.80
  -3  11   5    7.30    3.40
   2 -11  -5   10.40    2.90
   2 -11  -5    3.70    3.80
  -2  11   5    3.00    2.60
   1 -11  -5  174.78   10.60
   1 -11  -5  161.28   10.50
   1 -11  -5  162.68    8.20
  -1  11   5  159.18    8.90
   0 -11  -5   -0.10    3.10
   0 -11  -5   -0.20    2.20
   0  11   5    2.90    2.20
  -1 -11  -5  576.24   22.20
  -1 -11  -5  557.44   24.10
   1  11   5  561.94   22.30
  -2 -11  -5    0.10    2.80
  -2 -11  -5    3.80    2.30
   2  11   5    5.20    2.40
  -3 -11  -5  496.75   19.90
  -3 -11  -5  476.95   21.50
   3  11   5  509.15   20.20
  -4 -11  -5   76.79    7.70
  -4 -11  -5   87.19    8.20
   4  11   5   77.39    5.90
  -5 -11  -5   30.70    5.20
   5  11   5   18.60    3.80
  -6 -11  -5   87.39    8.70
   6  11   5   86.79    6.90
  -7 -11  -5   41.20    6.60
   7  11   5   46.50    5.90
  -8 -11  -5   75.19    8.90
   8  11   5   75.39    7.70
   4 -12  -5   58.29    6.70
  -4  12   5   61.99    7.20
   3 -12  -5    2.80    3.30
  -3  12   5    4.30    3.60
   2 -12  -5   -0.90    3.70
   2 -12  -5    0.40    2.40
  -2  12   5    0.70    2.70
   1 -12  -5   37.10    6.00
  -1  12   5   51.19    5.40
   0 -12  -5   17.60    4.70
   0  12   5   14.60    3.40
  -1 -12  -5  155.98   10.40
   1  12   5  160.28    8.70
  -2 -12  -5  131.09    9.90
   2  12   5  140.19    8.00
  -3 -12  -5    1.50    3.30
   3  12   5    1.80    2.50
  -4 -12  -5    3.50    3.60
   4  12   5    7.00    3.00
  -5 -12  -5  109.89    9.30
   5  12   5  111.19    7.60
  -6 -12  -5   49.60    7.10
   6  12   5   37.10    5.20
  -7 -12  -5  160.38   11.90
   7  12   5  172.68   10.50
  -8 -12  -5   13.60    5.30
   8  12   5   12.80    4.70
  -3  13   5   16.40    4.60
   2 -13  -5   68.69    8.20
  -2  13   5   87.69    7.90
   1 -13  -5   41.70    6.70
  -1  13   5   36.80    5.10
   0 -13  -5   88.29    8.70
   0  13   5   87.39    6.90
  -1 -13  -5  116.69    9.60
   1  13   5  120.99    7.80
  -2 -13  -5   48.00    6.80
   2  13   5   60.59    6.10
  -3 -13  -5   54.29    7.20
   3  13   5   63.69    6.40
  -4 -13  -5   79.69    8.60
   4  13   5   62.39    6.40
  -5 -13  -5   92.89    9.60
   5  13   5   81.29    7.20
  -6 -13  -5   47.20    7.60
   6  13   5   50.99    6.20
  -7 -13  -5   38.60    7.00
   7  13   5   44.80    6.30
   2 -14  -5   69.09    8.70
  -2  14   5   69.19    7.60
   1 -14  -5   20.20    5.80
  -1  14   5   15.50    4.40
   0 -14  -5   26.50    5.90
   0  14   5   34.30    5.20
  -1 -14  -5    4.00    4.50
   1  14   5    7.60    3.50
  -2 -14  -5    6.10    4.30
   2  14   5    8.00    3.40
  -3 -14  -5  115.89   10.40
   3  14   5  118.29    8.20
  -4 -14  -5   41.40    7.10
   4  14   5   54.49    6.40
  -5 -14  -5   11.40    5.20
   5  14   5   14.50    4.10
  -6 -14  -5   23.10    6.30
   6  14   5   16.00    4.40
   0 -15  -5    0.80    4.40
   0  15   5    1.50    3.30
  -1 -15  -5    0.40    4.30
   1  15   5    2.20    3.40
  -2 -15  -5   26.90    6.40
   2  15   5   31.70    5.10
  -3 -15  -5   70.59    8.80
   3  15   5   82.89    7.80
  -4 -15  -5   41.70    7.30
   4  15   5   30.60    5.40
  -5 -15  -5   -0.80    4.50
   5  15   5   -0.70    3.40
   4  11  -6   69.99    8.30
  -4 -11   6   67.49    8.30
  -4 -11   6   66.29    8.30
   3  11  -6   42.00    6.80
  -3 -11   6   28.90    5.90
  -3 -11   6   37.60    6.70
   2  11  -6   49.99    7.00
  -2 -11   6   33.80    6.20
  -2 -11   6   64.99    8.00
   1  11  -6   -0.50    3.80
  -1 -11   6    2.90    4.50
   0  11  -6    2.70    5.30
   0  11  -6    3.80    4.20
   0 -11   6   13.80    5.90
   1 -11   6   16.60    5.80
   6  10  -6   14.60    4.80
  -6 -10   6   22.50    6.20
  -6 -10   6   18.50    5.60
   5  10  -6    6.60    4.30
  -5 -10   6   11.60    5.10
  -5 -10   6   11.80    5.20
   4  10  -6   17.60    4.70
  -4 -10   6   14.60    5.00
  -4 -10   6   16.30    5.20
   3  10  -6    1.40    3.50
  -3 -10   6    2.40    4.00
  -3 -10   6   -5.00    3.70
   2  10  -6   40.10    6.00
  -2 -10   6   42.30    6.20
  -2 -10   6   39.80    6.30
   1  10  -6   40.70    6.30
  -1 -10   6   38.50    5.80
  -1 -10   6   57.79    7.10
   0  10  -6   18.70    4.70
   0  10  -6    9.10    5.40
   0 -10   6   11.40    5.00
  -1  10  -6   10.20    6.70
  -1  10  -6   16.70    5.10
   1 -10   6   22.20    5.70
  -2  10  -6   27.20    7.50
  -2  10  -6   35.20    6.20
   2 -10   6   39.20    7.30
   7   9  -6   36.10    6.70
  -7  -9   6   23.60    5.70
  -7  -9   6   15.00    6.00
   6   9  -6   25.60    5.60
  -6  -9   6   10.40    4.80
  -6  -9   6   13.30    5.50
   5   9  -6   73.39    7.90
  -5  -9   6   94.39    9.00
  -5  -9   6   69.69    8.30
   4   9  -6   72.79    7.80
  -4  -9   6   51.09    6.80
  -4  -9   6   60.39    7.50
   3   9  -6   37.30    5.60
  -3  -9   6   24.50    5.20
  -3  -9   6   29.70    5.60
   2   9  -6   22.90    4.90
  -2  -9   6   27.30    5.00
  -2  -9   6   17.30    4.40
   1   9  -6   40.50    6.00
  -1  -9   6   29.70    5.60
  -1  -9   6   34.70    5.20
   0   9  -6   24.10    7.00
   0   9  -6   23.10    4.70
   0  -9   6   18.00    5.00
   0  -9   6   13.70    4.10
  -1   9  -6   15.30    5.40
  -1   9  -6   24.00    5.00
   1  -9   6   15.20    5.00
  -2   9  -6   12.70    5.70
  -2   9  -6    9.90    4.50
   2  -9   6   19.20    5.70
  -3   9  -6   -1.40    6.10
  -3   9  -6    3.70    4.10
   3  -9   6   -2.60    4.50
  -4   9  -6    6.40    5.80
   4  -9   6   -2.50    4.70
   7   8  -6   20.70    5.10
  -7  -8   6   16.30    5.80
   6   8  -6   -0.20    4.00
  -6  -8   6    4.00    4.50
  -6  -8   6    6.30    4.20
   5   8  -6   28.70    5.20
  -5  -8   6   22.20    5.10
  -5  -8   6   15.30    4.60
   4   8  -6   48.10    6.00
  -4  -8   6   58.69    7.00
  -4  -8   6   43.50    6.10
   3   8  -6    7.90    3.70
  -3  -8   6    5.60    3.70
  -3  -8   6   10.40    4.20
   2   8  -6   96.09    7.90
  -2  -8   6  113.29    8.10
  -2  -8   6  113.09    8.40
   1   8  -6  185.68   10.60
  -1  -8   6  176.18   10.90
  -1  -8   6  182.08   10.40
   0   8  -6   74.49    8.90
   0   8  -6   69.29    7.00
   0  -8   6   79.09    7.50
   0  -8   6   73.59    6.70
  -1   8  -6   10.80    3.80
  -1   8  -6   10.60    5.10
   1  -8   6    5.50    4.20
   1  -8   6    7.30    3.40
  -2   8  -6   -1.30    3.00
  -2   8  -6    0.00    4.70
   2  -8   6    2.10    4.20
  -3   8  -6   23.40    6.70
  -3   8  -6   34.30    6.20
   3  -8   6   30.20    5.60
  -4   8  -6   34.40    7.90
  -4   8  -6   30.20    5.60
   4  -8   6   25.10    6.10
  -5   8  -6   51.59    8.60
   5  -8   6   22.80    6.40
   8   7  -6   42.30    6.80
  -8  -7   6   36.90    6.30
  -8  -7   6   39.20    7.50
   7   7  -6    7.30    4.40
  -7  -7   6   11.30    4.30
  -7  -7   6   20.10    5.70
   6   7  -6   25.10    5.00
  -6  -7   6   32.20    5.90
  -6  -7   6   22.50    4.70
   5   7  -6   11.40    3.90
  -5  -7   6   14.20    4.10
  -5  -7   6    1.40    3.60
   4   7  -6   52.79    5.90
  -4  -7   6   42.30    5.70
  -4  -7   6   47.20    6.20
   3   7  -6  196.78   11.30
  -3  -7   6  224.98   11.90
  -3  -7   6  205.18   11.30
   2   7  -6   72.49    6.80
  -2  -7   6   65.69    6.60
  -2  -7   6   73.19    7.00
   1   7  -6  419.06   18.50
  -1  -7   6  406.56   18.40
  -1  -7   6  430.66   17.90
   0   7  -6   -7.80    2.90
   0   7  -6   -2.40    2.40
   0  -7   6    2.80    2.60
   0  -7   6   -0.40    3.10
  -1   7  -6   63.49    9.10
  -1   7  -6   49.30    5.90
   1  -7   6   47.10    4.70
   1  -7   6   47.70    6.10
  -2   7  -6   -0.60    2.90
  -2   7  -6    3.50    3.80
   2  -7   6   -1.30    3.50
  -3   7  -6    2.80    3.50
  -3   7  -6    3.50    4.60
   3  -7   6   -1.30    3.80
  -4   7  -6   80.19    8.00
  -4   7  -6   67.59    8.80
   4  -7   6   63.79    7.70
  -5   7  -6   41.60    8.10
  -5   7  -6   32.00    6.00
   5  -7   6   19.70    5.70
   8   6  -6   79.59    8.60
  -8  -6   6   91.89    8.90
   7   6  -6   23.70    5.20
  -7  -6   6   25.70    5.00
   6   6  -6   -0.30    3.20
  -6  -6   6    4.10    3.30
   5   6  -6   30.20    4.90
  -5  -6   6   44.10    5.40
  -5  -6   6   29.50    5.40
   4   6  -6   81.69    7.00
  -4  -6   6  107.59    8.40
  -4  -6   6   94.59    7.00
   3   6  -6   12.40    3.50
  -3  -6   6   15.40    3.70
  -3  -6   6   17.70    3.90
   2   6  -6  372.26   17.30
  -2  -6   6  414.56   17.70
  -2  -6   6  418.66   17.40
   1   6  -6    3.10    2.60
  -1  -6   6    3.00    2.70
  -1  -6   6    4.60    2.60
   0   6  -6  159.88   10.40
   0   6  -6  157.58    9.00
   0  -6   6  154.98    9.30
   0  -6   6  146.09    8.10
  -1   6  -6  299.57   15.90
  -1   6  -6  294.27   13.70
   1  -6   6  294.87   14.20
   1  -6   6  291.87   12.70
  -2   6  -6   20.40    4.10
  -2   6  -6   28.70    5.90
   2  -6   6   20.60    4.40
   2  -6   6   20.80    3.10
  -3   6  -6  230.08   12.30
  -3   6  -6  213.68   13.70
   3  -6   6  249.38   12.80
  -4   6  -6   78.09    9.20
  -4   6  -6   63.79    6.90
   4  -6   6   70.19    7.50
  -5   6  -6   49.80    7.70
  -5   6  -6   40.50    6.20
   5  -6   6   45.80    6.60
  -6   6  -6    1.90    5.40
  -6   6  -6    0.40    3.70
   6  -6   6   -2.50    4.10
   8   5  -6   16.70    4.80
  -8  -5   6   25.00    5.40
   7   5  -6   36.30    5.70
  -7  -5   6   39.80    5.70
   6   5  -6   62.79    6.80
  -6  -5   6   55.99    6.10
   5   5  -6   29.80    4.70
  -5  -5   6   35.30    4.80
   4   5  -6  271.07   13.00
   3   5  -6   17.60    3.40
  -3  -5   6   19.90    3.90
  -3  -5   6   14.60    3.30
   2   5  -6  125.59    7.50
  -2  -5   6  117.89    7.30
  -2  -5   6  115.99    7.40
   1   5  -6   -5.30    2.70
   1   5  -6   -1.50    1.90
  -1  -5   6   -0.30    1.90
  -1  -5   6   -0.50    2.30
   0   5  -6   44.70    4.80
   0   5  -6   45.80    6.50
   0  -5   6   36.30    4.40
   0  -5   6   45.80    4.00
  -1   5  -6    1.80    3.00
  -1   5  -6   -2.70    1.90
   1  -5   6    0.10    2.70
   1  -5   6   -0.10    1.90
  -2   5  -6  156.98   10.30
  -2   5  -6  152.48    8.60
   2  -5   6  131.49    6.80
   2  -5   6  173.68    9.40
  -3   5  -6   -0.20    2.70
  -3   5  -6   -1.30    3.30
   3  -5   6   -0.60    2.90
  -4   5  -6  141.79    9.10
  -4   5  -6  139.49   10.50
   4  -5   6  148.39    9.70
  -5   5  -6   32.20    6.50
  -5   5  -6   30.20    5.30
   5  -5   6   23.30    5.50
  -6   5  -6    6.10    4.80
  -6   5  -6   -3.30    3.40
   6  -5   6    0.70    4.10
  -7   5  -6   39.30    7.20
  -7   5  -6   32.80    6.30
   7  -5   6   45.10    7.20
   9   4  -6   15.00    5.20
   9   4  -6    7.80    5.30
  -9  -4   6   11.60    4.80
   8   4  -6   16.40    5.00
   8   4  -6   21.10    5.10
  -8  -4   6   25.10    5.10
   7   4  -6    6.10    3.50
  -7  -4   6    1.10    3.30
   6   4  -6   68.89    6.50
  -6  -4   6   51.39    5.80
   5   4  -6  120.79    7.90
  -5  -4   6  118.69    7.60
   4   4  -6  127.79    7.80
  -4  -4   6  138.59    8.00
   3   4  -6    0.20    2.00
  -3  -4   6   -2.10    1.90
   2   4  -6    6.70    2.30
  -2  -4   6    5.20    2.50
   1   4  -6   90.59    6.80
   1   4  -6   99.49    6.10
  -1  -4   6   92.39    6.40
  -1  -4   6  104.69    6.00
   0   4  -6  260.47   11.30
   0   4  -6  237.88   12.50
   0  -4   6  254.27   10.60
   0  -4   6  229.58   11.20
  -1   4  -6   10.20    2.60
  -1   4  -6   16.50    4.00
   1  -4   6   11.70    3.00
   1  -4   6   12.40    2.10
  -2   4  -6   90.79    6.10
  -2   4  -6   95.79    8.30
   2  -4   6  101.89    6.60
   2  -4   6   85.49    4.50
  -3   4  -6   -0.40    2.40
  -3   4  -6   -0.30    2.60
   3  -4   6   -2.10    2.60
  -4   4  -6   -1.20    2.30
  -4   4  -6    6.30    3.60
   4  -4   6   -1.10    3.00
  -5   4  -6   18.80    5.40
  -5   4  -6   21.20    4.20
   5  -4   6   14.50    4.40
  -6   4  -6   11.50    4.10
  -6   4  -6   11.70    4.60
   6  -4   6    7.50    4.40
  -7   4  -6   20.10    6.00
  -7   4  -6   19.20    4.90
   7  -4   6   16.40    5.40
   9   3  -6    6.00    5.60
   9   3  -6    3.50    4.30
  -9  -3   6   -4.10    3.90
   8   3  -6   -7.40    4.10
   8   3  -6   -4.40    3.60
  -8  -3   6    2.00    3.70
   7   3  -6    6.60    4.00
   7   3  -6   -0.20    3.10
  -7  -3   6    6.90    3.30
   6   3  -6   77.49    6.60
   6   3  -6   71.29    6.70
  -6  -3   6   76.39    6.40
   5   3  -6   73.09    5.80
  -5  -3   6   74.09    5.90
   4   3  -6  112.79    7.10
  -4  -3   6  124.39    7.20
   3   3  -6   14.90    2.80
  -3  -3   6    8.50    2.60
   2   3  -6   12.40    2.90
   2   3  -6   19.00    2.90
  -2  -3   6   15.00    2.90
   1   3  -6   30.50    4.30
   1   3  -6   25.60    3.20
  -1  -3   6   22.60    3.20
   0   3  -6  476.35   19.80
   0   3  -6  460.85   18.30
   0  -3   6  475.05   18.50
   0  -3   6  447.56   17.70
  -1   3  -6  290.27   12.20
  -1   3  -6  277.27   13.50
   1  -3   6  291.07   11.10
   1  -3   6  275.77   12.50
  -2   3  -6  182.88   10.10
   2  -3   6  164.98    8.80
  -3   3  -6    3.70    2.50
  -3   3  -6    5.10    4.00
   3  -3   6    6.10    2.60
  -4   3  -6  100.99    8.10
  -4   3  -6   99.09    6.80
   4  -3   6   93.99    7.00
  -5   3  -6    1.80    2.70
  -5   3  -6   -2.60    4.40
   5  -3   6    3.40    3.50
  -6   3  -6   20.10    5.10
  -6   3  -6   33.50    5.10
   6  -3   6   17.50    4.50
  -7   3  -6    5.80    4.60
  -7   3  -6   -3.10    3.30
   7  -3   6    0.20    4.20
  -8   3  -6    6.20    4.10
  -8   3  -6    5.80    5.10
   8  -3   6    5.60    4.70
   9   2  -6   16.00    5.70
   9   2  -6   12.00    4.50
  -9  -2   6   13.70    4.70
   8   2  -6   40.40    6.00
   8   2  -6   32.80    6.20
  -8  -2   6   55.09    6.80
   7   2  -6   75.49    7.40
   7   2  -6   70.59    6.80
  -7  -2   6   73.39    7.10
   6   2  -6   74.69    6.80
   6   2  -6   71.29    6.50
  -6  -2   6   67.59    6.40
   5   2  -6    3.40    2.60
   5   2  -6    3.50    2.60
  -5  -2   6    7.90    2.70
   4   2  -6   19.30    3.10
  -4  -2   6   25.10    3.50
   3   2  -6    2.20    1.80
   3   2  -6    1.50    1.80
  -3  -2   6    1.80    1.80
   2   2  -6   76.89    5.50
   2   2  -6   82.49    5.20
   1   2  -6  310.97   13.00
   1   2  -6  338.47   14.20
  -1  -2   6  320.17   13.10
  -1  -2   6  296.57   12.90
   0   2  -6  367.66   14.60
   0   2  -6  351.66   16.00
   0  -2   6  362.16   14.50
   0  -2   6  366.26   14.60
  -1   2  -6  730.13   29.50
  -1   2  -6  800.62   28.30
   1  -2   6  762.72   27.10
   1  -2   6  754.22   28.50
  -2   2  -6   15.00    3.30
  -2   2  -6   20.50    2.90
   2  -2   6   14.70    2.80
  -3   2  -6  120.19    7.90
  -3   2  -6  130.69    6.80
   3  -2   6  109.09    6.90
  -4   2  -6  533.25   21.90
  -4   2  -6  557.44   23.40
   4  -2   6  553.44   22.20
  -5   2  -6   18.10    4.30
  -5   2  -6   18.20    3.60
   5  -2   6    9.70    3.60
  -6   2  -6   88.99    7.10
  -6   2  -6   87.19    8.30
   6  -2   6   92.59    7.70
  -7   2  -6   24.10    4.60
  -7   2  -6   22.90    5.60
   7  -2   6   21.10    4.70
  -8   2  -6    3.10    3.90
  -8   2  -6    1.10    4.20
   8  -2   6   -1.40    4.30
   9   1  -6    6.40    4.40
   9   1  -6    1.90    5.30
  -9  -1   6    3.60    4.10
   8   1  -6   70.09    7.50
   8   1  -6   79.69    8.30
  -8  -1   6   73.99    7.60
   7   1  -6  144.69    9.20
   7   1  -6  133.49    9.70
  -7  -1   6  146.59    9.00
   6   1  -6  117.19    8.20
   6   1  -6   95.39    7.20
  -6  -1   6  121.29    7.70
   5   1  -6    4.00    2.90
   5   1  -6    3.50    2.40
   5   1  -6    1.60    1.30
   5   1  -6    2.70    1.30
  -5  -1   6    1.20    2.30
   4   1  -6   22.10    3.30
   4   1  -6   23.90    2.60
   4   1  -6   21.60    3.40
  -4  -1   6   19.70    3.20
   3   1  -6  115.99    6.20
   3   1  -6  108.59    5.80
  -3  -1   6  110.09    6.10
   2   1  -6  609.74   22.90
   2   1  -6  606.24   23.30
  -2  -1   6  609.34   23.00
  -2  -1   6  616.34   22.90
   1   1  -6  435.56   17.00
   1   1  -6  428.36   16.20
  -1  -1   6  405.96   16.30
  -1  -1   6  414.76   16.30
   0   1  -6   45.20    4.50
   0   1  -6   44.10    3.40
   0  -1   6   45.30    3.50
   0  -1   6   43.20    3.50
  -1   1  -6  166.28    7.80
  -1   1  -6  203.98   10.20
   1  -1   6  179.98    8.00
   1  -1   6  176.58    8.10
  -2   1  -6   78.19    5.90
  -2   1  -6   81.59    4.80
   2  -1   6   85.29    4.90
   2  -1   6   80.39    5.00
  -3   1  -6  117.09    7.40
  -3   1  -6  127.09    6.50
   3  -1   6  117.59    6.60
  -4   1  -6  216.28   11.40
  -4   1  -6  213.78   10.10
   4  -1   6  211.48   10.40
  -5   1  -6   45.70    4.90
  -5   1  -6   46.10    5.90
   5  -1   6   40.10    4.80
  -6   1  -6  111.99    8.70
  -6   1  -6  101.69    7.40
   6  -1   6  121.69    8.10
  -7   1  -6   32.30    5.90
  -7   1  -6   35.10    5.20
   7  -1   6   25.40    4.90
  -8   1  -6    3.20    3.70
  -8   1  -6   -1.20    4.10
   8  -1   6    6.30    4.00
   9   0  -6   20.90    6.40
   9   0  -6   24.50    5.70
  -9   0   6    9.30    4.90
   8   0  -6   51.89    6.60
   8   0  -6   53.49    7.00
  -8   0   6   50.59    6.70
   7   0  -6   82.59    7.30
   7   0  -6   80.59    7.70
  -7   0   6   90.19    7.50
   6   0  -6   45.20    5.50
   6   0  -6   45.70    5.20
  -6   0   6   44.80    5.30
   5   0  -6  167.68    8.90
   5   0  -6  168.78    9.20
  -5   0   6  164.88    8.60
   4   0  -6 1586.14   56.09
   4   0  -6 1559.64   56.49
  -4   0   6 1536.85   55.99
   3   0  -6 1060.79   38.80
   3   0  -6 1066.89   37.90
  -3   0   6 1074.99   38.70
  -3   0   6 1071.39   38.80
   2   0  -6 3102.19  107.89
   2   0  -6 3057.59  107.99
  -2   0   6 3096.99  107.99
  -2   0   6 3130.79  107.99
   1   0  -6   78.79    4.30
   1   0  -6   84.29    4.70
  -1   0   6   78.59    4.30
  -1   0   6   82.29    4.60
  -1   0   6   74.69    4.30
   0   0  -6  110.89    6.10
   0   0  -6  106.79    5.20
   0   0   6  109.09    5.30
   0   0   6  116.59    5.40
  -1   0  -6    4.70    1.50
  -1   0  -6    8.50    2.30
   1   0   6    6.10    1.60
   1   0   6    4.10    1.70
  -2   0  -6  587.74   24.50
  -2   0  -6  621.74   23.10
   2   0   6  645.54   23.20
   2   0   6  636.64   23.10
  -3   0  -6  247.48   11.70
  -3   0  -6  238.38   10.40
   3   0   6  228.18   10.30
   3   0   6  254.27   10.50
  -4   0  -6   98.79    5.80
  -4   0  -6  101.29    7.00
   4   0   6   98.19    6.20
  -5   0  -6   42.80    4.40
  -5   0  -6   44.50    5.70
   5   0   6   43.20    4.70
  -6   0  -6   55.49    6.50
  -6   0  -6   39.20    4.80
   6   0   6   39.90    4.90
  -7   0  -6   10.60    3.70
  -7   0  -6    9.70    4.20
   7   0   6    9.60    3.80
  -8   0  -6   30.60    6.00
  -8   0  -6   26.70    5.10
   8   0   6   40.50    6.00
  -9   0  -6   28.90    6.60
  -9   0  -6   26.30    5.60
   9   0   6   29.70    6.10
   9  -1  -6   25.50    5.70
   9  -1  -6   18.90    6.40
  -9   1   6   20.90    5.50
   8  -1  -6    9.00    4.30
   8  -1  -6   18.20    5.70
  -8   1   6   10.60    4.30
   7  -1  -6    5.10    4.10
   7  -1  -6    8.40    3.50
  -7   1   6    2.80    3.20
   6  -1  -6  107.09    8.10
   6  -1  -6  133.39    8.00
  -6   1   6  113.59    7.60
   5  -1  -6    4.80    2.80
   5  -1  -6    6.90    2.70
  -5   1   6    1.10    2.10
   4  -1  -6  306.47   13.60
   4  -1  -6  309.87   13.20
  -4   1   6  312.37   13.10
   3  -1  -6   23.40    1.70
   3  -1  -6   20.70    3.10
   3  -1  -6   29.60    3.00
  -3   1   6   27.30    2.90
  -3   1   6   22.50    2.60
   2  -1  -6  504.15   18.70
   2  -1  -6  514.35   19.00
  -2   1   6  521.45   19.00
  -2   1   6  499.65   19.00
  -2   1   6  506.45   18.70
   1  -1  -6  489.35   16.90
   1  -1  -6  487.95   17.50
  -1   1   6  448.96   16.90
  -1   1   6  426.56   17.30
  -1   1   6  438.96   16.90
   0  -1  -6    9.10    1.30
   0  -1  -6    5.60    1.30
   0  -1  -6    7.20    2.00
   0   1   6    5.70    1.40
   0   1   6    6.00    1.30
   0   1   6    7.90    1.80
  -1  -1  -6  754.72   26.50
  -1  -1  -6  740.73   27.80
   1   1   6  742.03   26.40
   1   1   6  738.23   26.50
   1   1   6  721.73   26.50
  -2  -1  -6  869.71   30.70
  -2  -1  -6  851.61   32.20
   2   1   6  877.01   30.90
   2   1   6  783.62   30.00
   2   1   6  903.61   30.80
  -3  -1  -6  455.05   17.20
  -3  -1  -6  451.85   18.70
   3   1   6  446.26   17.40
   3   1   6  450.65   17.30
  -4  -1  -6    3.40    2.40
  -4  -1  -6    2.10    1.70
   4   1   6    3.70    2.00
  -5  -1  -6    1.30    1.80
  -5  -1  -6   -2.00    1.10
  -5  -1  -6   -3.40    2.10
   5   1   6    2.20    2.20
  -6  -1  -6   56.89    3.90
  -6  -1  -6   59.89    5.70
  -6  -1  -6   50.59    6.20
   6   1   6   56.49    5.50
  -7  -1  -6   67.59    6.50
  -7  -1  -6   79.39    7.50
   7   1   6   60.29    6.20
  -8  -1  -6   49.60    7.00
  -8  -1  -6   38.10    5.60
   8   1   6   43.40    5.90
  -9  -1  -6   -0.60    3.80
  -9  -1  -6    1.80    4.50
   9   1   6    6.70    4.30
   9  -2  -6    8.40    6.20
   9  -2  -6   11.20    4.90
  -9   2   6    8.30    4.40
   8  -2  -6   13.50    4.60
   8  -2  -6   21.50    5.90
  -8   2   6   18.10    4.80
   7  -2  -6   13.70    4.60
   7  -2  -6   12.70    4.20
  -7   2   6   10.80    3.80
   6  -2  -6  194.68   10.40
   6  -2  -6  204.08   11.20
  -6   2   6  195.68   10.30
   5  -2  -6   11.00    2.90
   5  -2  -6   12.80    3.30
  -5   2   6    7.80    2.60
   4  -2  -6  352.76   14.20
   4  -2  -6  319.27   14.50
  -4   2   6  351.66   14.10
   3  -2  -6  109.89    6.40
   3  -2  -6  112.69    5.70
  -3   2   6  112.29    5.60
  -3   2   6  104.39    5.60
   2  -2  -6   24.70    2.20
   2  -2  -6   31.90    2.70
  -2   2   6   29.50    2.60
  -2   2   6   27.80    2.10
  -2   2   6   30.40    2.50
   1  -2  -6  246.98    9.00
   1  -2  -6  220.38    9.50
  -1   2   6  243.38    9.00
  -1   2   6  216.68    8.90
  -1   2   6  239.38    9.50
   0  -2  -6  816.82   30.80
   0  -2  -6  895.81   32.20
   0   2   6  927.21   31.00
   0   2   6  863.21   31.80
   0   2   6  914.41   30.90
   0   2   6  868.31   32.00
  -1  -2  -6 1104.59   40.70
  -1  -2  -6 1229.08   42.50
   1   2   6 1130.39   40.80
   1   2   6 1260.97   41.40
   1   2   6 1115.39   40.80
  -2  -2  -6 1038.60   35.50
  -2  -2  -6 1035.70   35.50
  -2  -2  -6 1005.60   37.20
   2   2   6  944.81   35.50
   2   2   6 1012.10   35.60
   2   2   6  988.80   35.60
  -3  -2  -6  132.39    5.60
  -3  -2  -6  129.89    7.50
  -3  -2  -6  131.49    5.90
   3   2   6  125.69    5.50
   3   2   6  125.99    6.10
   3   2   6  129.39    6.10
  -4  -2  -6   38.30    3.40
  -4  -2  -6   37.60    4.60
  -4  -2  -6   33.20    2.70
   4   2   6   44.60    3.60
   4   2   6   40.00    3.60
  -5  -2  -6    4.00    1.60
  -5  -2  -6    8.20    2.30
  -5  -2  -6    4.20    2.70
   5   2   6    5.70    2.40
  -6  -2  -6  123.69    6.60
  -6  -2  -6  133.79    8.80
  -6  -2  -6  138.59    7.70
   6   2   6  136.99    7.90
  -7  -2  -6    7.90    2.60
  -7  -2  -6    8.30    4.00
  -7  -2  -6   11.10    3.30
   7   2   6    7.90    3.50
  -8  -2  -6   22.20    4.50
  -8  -2  -6   20.30    5.20
   8   2   6   20.40    4.70
  -9  -2  -6   -1.80    4.10
  -9  -2  -6    8.50    3.90
   9   2   6   -1.20    3.60
   8  -3  -6   16.90    5.80
   8  -3  -6    9.50    4.60
  -8   3   6   10.70    4.30
   7  -3  -6   69.89    7.70
   7  -3  -6   75.59    6.90
  -7   3   6   69.59    7.00
   6  -3  -6    3.90    3.40
   6  -3  -6   -3.30    2.50
  -6   3   6   -0.70    2.70
   5  -3  -6  112.49    7.60
   5  -3  -6  114.29    6.80
  -5   3   6  101.09    6.60
   4  -3  -6   56.59    4.30
   4  -3  -6   58.49    5.20
  -4   3   6   55.19    4.40
   3  -3  -6  134.69    7.30
   3  -3  -6  144.69    6.60
  -3   3   6  141.89    6.50
  -3   3   6  119.69    6.40
   2  -3  -6  915.41   33.70
   2  -3  -6  909.91   32.70
  -2   3   6  923.71   32.60
  -2   3   6  906.51   32.80
  -2   3   6  927.11   32.80
   1  -3  -6   12.50    1.30
   1  -3  -6   12.70    2.00
  -1   3   6   16.20    1.50
  -1   3   6   17.40    2.20
  -1   3   6   13.20    1.50
   0  -3  -6   12.30    2.20
   0   3   6   15.60    2.20
   0   3   6   11.60    0.90
   0   3   6    9.60    0.90
  -1  -3  -6  290.37   12.20
  -1  -3  -6  291.47   11.60
   1   3   6  285.57   11.50
   1   3   6  288.47   10.30
   1   3   6  288.67   10.40
  -2  -3  -6  204.48    9.70
  -2  -3  -6  217.88    8.60
  -2  -3  -6  195.08    7.80
   2   3   6  206.88    7.90
   2   3   6  195.18    8.50
   2   3   6  207.08    8.00
  -3  -3  -6   71.99    5.40
  -3  -3  -6   67.79    4.10
  -3  -3  -6   75.29    3.90
   3   3   6   73.79    4.10
   3   3   6   73.99    4.10
   3   3   6   80.79    4.10
  -4  -3  -6  682.83   27.60
  -4  -3  -6  689.83   25.80
  -4  -3  -6  734.73   26.10
   4   3   6  710.73   26.20
   4   3   6  712.93   26.20
  -5  -3  -6   57.69    4.30
  -5  -3  -6   60.09    5.70
  -5  -3  -6   65.09    4.30
   5   3   6   63.39    4.80
  -6  -3  -6  169.48    8.60
  -6  -3  -6  154.08    9.60
  -6  -3  -6  155.68    7.90
   6   3   6  163.48    8.70
  -7  -3  -6   21.70    3.80
  -7  -3  -6   22.10    3.50
  -7  -3  -6   28.20    5.10
   7   3   6   24.00    4.20
  -8  -3  -6    2.10    2.70
  -8  -3  -6    6.60    4.00
   8   3   6    1.70    3.40
  -9  -3  -6    3.20    4.40
  -9  -3  -6    3.10    4.20
   9   3   6    3.80    4.00
   8  -4  -6   28.20    7.10
   8  -4  -6   13.20    5.50
  -8   4   6   19.70    4.90
   7  -4  -6   81.39    7.10
   7  -4  -6   76.09    7.90
  -7   4   6   71.99    7.10
   6  -4  -6   10.00    3.70
   6  -4  -6   11.00    3.40
  -6   4   6   16.30    3.80
   5  -4  -6   99.09    6.50
   5  -4  -6   91.99    7.40
  -5   4   6  115.49    6.80
   4  -4  -6   -3.90    1.60
   4  -4  -6    0.50    2.40
  -4   4   6    0.10    1.70
   3  -4  -6    0.90    2.00
   3  -4  -6    2.30    1.50
  -3   4   6    3.00    1.60
  -3   4   6    0.30    1.00
  -3   4   6    0.70    1.30
   2  -4  -6 1611.44   59.29
   2  -4  -6 1563.04   58.19
  -2   4   6 1853.41   58.49
  -2   4   6 1668.13   58.29
  -2   4   6 1601.44   58.29
   1  -4  -6    4.10    1.00
  -1   4   6    3.40    1.00
  -1   4   6    5.60    1.10
  -1   4   6    4.30    1.70
   0  -4  -6    2.60    1.80
   0  -4  -6    5.40    1.90
   0   4   6    3.60    1.60
  -1  -4  -6   37.10    3.80
  -1  -4  -6   32.90    3.20
  -2  -4  -6   34.60    2.00
  -2  -4  -6   39.60    2.10
  -2  -4  -6   36.50    3.40
  -2  -4  -6   46.00    4.50
   2   4   6   42.20    3.70
   2   4   6   39.60    2.20
   2   4   6   39.00    2.20
  -3  -4  -6   12.40    2.20
  -3  -4  -6   15.70    1.80
  -3  -4  -6   13.90    3.10
   3   4   6   12.00    1.70
   3   4   6   15.00    1.90
  -4  -4  -6  388.76   16.00
  -4  -4  -6  403.96   17.50
  -4  -4  -6  412.96   15.70
   4   4   6  434.36   16.00
   4   4   6  407.56   15.90
  -5  -4  -6  126.99    8.30
  -5  -4  -6  145.49    7.20
  -5  -4  -6  140.99    6.90
   5   4   6  136.09    7.10
   5   4   6  135.99    7.10
  -6  -4  -6   57.79    6.30
  -6  -4  -6   50.09    4.60
  -6  -4  -6   53.19    4.60
   6   4   6   50.89    5.00
  -7  -4  -6    0.80    2.40
  -7  -4  -6    3.80    2.60
  -7  -4  -6    3.10    3.60
   7   4   6   -0.30    2.70
  -8  -4  -6   -2.40    3.40
  -8  -4  -6    0.20    2.80
  -8  -4  -6    0.60    2.90
   8   4   6   -1.80    2.90
  -9  -4  -6   26.60    6.00
   9   4   6   16.20    4.50
   8  -5  -6   37.20    6.90
  -8   5   6   28.00    5.50
   7  -5  -6   23.60    4.90
   7  -5  -6   22.30    5.20
  -7   5   6   18.70    4.40
   6  -5  -6   -5.60    3.00
   6  -5  -6   -5.20    2.60
  -6   5   6   -2.80    2.70
   5  -5  -6   12.60    3.70
   5  -5  -6   17.80    3.30
  -5   5   6   17.80    3.40
   4  -5  -6   25.20    3.90
   4  -5  -6   23.60    3.30
  -4   5   6   18.70    3.00
  -4   5   6   22.00    2.40
   3  -5  -6  397.06   16.00
   3  -5  -6  394.06   16.80
  -3   5   6  431.36   16.10
  -3   5   6  385.56   15.50
  -3   5   6  438.26   16.10
   2  -5  -6  398.36   15.80
   2  -5  -6  396.66   14.80
  -2   5   6  392.66   15.10
  -2   5   6  371.56   14.80
  -2   5   6  381.36   14.80
   1  -5  -6  233.78   10.80
  -1   5   6  224.88    9.10
  -1   5   6  238.18    9.10
  -1   5   6  255.07   10.30
   0  -5  -6  301.47   12.80
   0  -5  -6  317.17   10.70
   0  -5  -6  291.77   10.70
   0   5   6  297.67   10.80
   0   5   6  289.47   10.70
  -1  -5  -6   29.00    3.20
  -1  -5  -6   24.50    3.30
  -2  -5  -6  135.59    5.60
  -2  -5  -6  150.78    5.60
  -2  -5  -6  139.99    7.10
  -2  -5  -6  141.19    7.70
   2   5   6  143.19    5.60
   2   5   6  144.69    5.70
  -3  -5  -6   96.89    4.40
  -3  -5  -6   87.09    6.30
  -3  -5  -6   87.19    5.30
   3   5   6   92.79    4.40
   3   5   6   86.79    4.40
  -4  -5  -6  364.06   13.80
  -4  -5  -6  343.27   15.70
  -4  -5  -6  359.26   14.60
   4   5   6  346.87   13.80
   4   5   6  354.36   14.00
  -5  -5  -6  264.37   11.40
  -5  -5  -6  283.57   12.10
  -5  -5  -6  278.37   13.40
   5   5   6  265.77   11.60
   5   5   6  259.67   11.40
  -6  -5  -6   -0.60    2.80
  -6  -5  -6   -1.30    2.10
  -6  -5  -6    1.50    2.00
   6   5   6   -0.60    2.10
  -7  -5  -6    7.60    2.70
  -7  -5  -6    7.90    4.10
  -7  -5  -6    9.30    3.10
   7   5   6    6.50    3.00
  -8  -5  -6   10.00    3.50
  -8  -5  -6    4.80    3.10
  -8  -5  -6    8.40    4.50
   8   5   6   12.10    3.90
  -9  -5  -6    4.30    4.60
   9   5   6    7.30    4.00
   8  -6  -6    9.90    4.90
  -8   6   6   18.90    4.90
   7  -6  -6   11.40    4.80
  -7   6   6    1.90    3.80
   6  -6  -6    9.30    3.40
   6  -6  -6    6.20    3.70
  -6   6   6    0.90    2.90
   5  -6  -6    0.40    3.00
   5  -6  -6    3.90    2.70
  -5   6   6    0.20    2.40
   4  -6  -6  209.98   11.00
   4  -6  -6  222.08   10.10
  -4   6   6  214.48   10.20
   3  -6  -6  405.16   15.80
   3  -6  -6  397.66   16.60
  -3   6   6  395.46   15.90
  -3   6   6  392.06   15.80
   2  -6  -6  596.74   22.60
   2  -6  -6  558.74   21.60
  -2   6   6  600.04   21.70
  -2   6   6  578.94   21.70
   1  -6  -6    8.70    1.50
   1  -6  -6    4.00    2.20
   1  -6  -6    7.00    2.10
  -1   6   6    9.80    1.60
  -1   6   6    6.10    1.30
   0  -6  -6    0.70    1.80
   0  -6  -6    0.60    0.80
   0   6   6    0.20    0.80
   0   6   6    0.80    0.90
  -1  -6  -6  837.02   30.60
  -1  -6  -6  816.72   28.40
  -1  -6  -6  800.22   28.30
   1   6   6  791.72   28.40
   1   6   6  811.12   28.50
  -2  -6  -6    3.20    0.80
  -2  -6  -6    9.40    2.40
   2   6   6    5.50    1.20
   2   6   6    4.00    1.00
  -3  -6  -6 1028.60   37.40
  -3  -6  -6 1010.00   38.20
  -3  -6  -6 1008.80   35.90
   3   6   6 1027.50   36.10
   3   6   6  984.20   35.90
  -4  -6  -6   15.20    3.00
  -4  -6  -6   12.10    3.50
  -4  -6  -6   14.50    2.10
   4   6   6   12.60    2.00
   4   6   6   11.20    2.10
  -5  -6  -6  126.99    6.40
  -5  -6  -6  122.89    8.20
  -5  -6  -6  119.89    7.20
   5   6   6  127.89    6.70
   5   6   6  111.79    6.40
  -6  -6  -6   83.29    5.50
  -6  -6  -6   74.09    6.90
  -6  -6  -6   76.19    6.00
   6   6   6   77.39    5.70
  -7  -6  -6   11.10    3.20
  -7  -6  -6   14.70    3.60
  -7  -6  -6   14.00    4.70
   7   6   6   14.40    3.60
  -8  -6  -6   24.10    5.90
  -8  -6  -6   30.30    4.80
  -8  -6  -6   24.50    5.60
   8   6   6   23.70    4.60
  -9  -6  -6   14.20    4.30
   9   6   6   14.20    4.50
   7  -7  -6    7.10    4.20
  -7   7   6    6.10    3.90
   6  -7  -6   18.20    4.60
  -6   7   6   17.90    4.10
   5  -7  -6  105.69    7.10
   5  -7  -6  101.59    8.00
  -5   7   6  102.99    7.30
   4  -7  -6   76.89    5.70
   4  -7  -6   77.09    6.50
  -4   7   6   84.09    5.90
   3  -7  -6  102.19    6.80
   3  -7  -6  111.19    6.20
  -3   7   6  105.79    6.00
  -3   7   6  106.09    6.10
   2  -7  -6   23.40    2.70
   2  -7  -6   18.40    3.00
  -2   7   6   21.00    2.70
  -2   7   6   19.80    2.50
   1  -7  -6   -0.10    2.00
   1  -7  -6    4.00    1.40
   1  -7  -6    4.60    1.90
  -1   7   6    3.30    1.50
  -1   7   6    3.60    1.30
   0  -7  -6   33.70    4.10
   0  -7  -6   26.20    2.20
   0   7   6   29.70    2.30
   0   7   6   28.10    2.40
  -1  -7  -6   36.40    4.20
   1   7   6   27.90    2.20
   1   7   6   28.90    2.10
   1   7   6   27.90    2.90
  -2  -7  -6    6.80    2.60
   2   7   6    8.40    1.40
   2   7   6    8.80    1.60
  -3  -7  -6  189.68    9.40
  -3  -7  -6  191.18    7.90
   3   7   6  187.48    8.10
   3   7   6  188.38    8.00
  -4  -7  -6   31.50    3.10
  -4  -7  -6   40.40    4.50
   4   7   6   33.60    3.10
   4   7   6   31.80    3.30
  -5  -7  -6   21.40    3.80
  -5  -7  -6   28.10    3.20
   5   7   6   21.30    3.10
   5   7   6   22.90    3.00
  -6  -7  -6  104.89    7.40
  -6  -7  -6  103.09    6.20
   6   7   6   99.99    6.60
  -7  -7  -6   90.89    6.50
  -7  -7  -6  109.59    7.60
   7   7   6   82.39    6.80
  -8  -7  -6   15.20    4.10
   8   7   6   11.80    3.80
  -9  -7  -6    0.10    3.50
   9   7   6    2.30    3.70
   7  -8  -6    5.60    4.50
  -7   8   6   14.80    4.80
   6  -8  -6   21.30    5.10
  -6   8   6   26.20    4.90
   5  -8  -6  177.38   10.80
  -5   8   6  175.78    9.90
   4  -8  -6    7.20    2.70
   4  -8  -6   14.70    3.70
  -4   8   6    8.70    2.90
   3  -8  -6   47.00    4.50
   3  -8  -6   59.39    5.60
  -3   8   6   49.99    4.60
   2  -8  -6   32.50    3.40
   2  -8  -6   19.80    4.00
   2  -8  -6   29.50    3.70
  -2   8   6   27.80    3.10
  -2   8   6   34.10    3.50
   1  -8  -6   11.90    2.50
   1  -8  -6    8.20    2.90
   1  -8  -6    7.80    1.90
  -1   8   6   10.40    1.90
  -1   8   6    7.90    1.90
   0  -8  -6  193.98    8.10
   0  -8  -6  204.78   10.20
   0   8   6  192.28    8.30
   0   8   6  194.88    8.30
  -1  -8  -6  206.98   10.50
  -1  -8  -6  211.98    8.40
   1   8   6  207.58    8.50
   1   8   6  204.88    9.10
   1   8   6  201.78    8.60
  -2  -8  -6  206.38   10.20
  -2  -8  -6  197.58    8.20
   2   8   6  206.78    8.20
   2   8   6  191.78    8.20
   2   8   6  187.38    8.30
  -3  -8  -6   73.99    4.10
  -3  -8  -6   84.79    5.90
   3   8   6   74.19    4.40
   3   8   6   63.39    4.00
  -4  -8  -6    6.30    2.80
  -4  -8  -6    5.00    1.70
   4   8   6    1.30    1.60
   4   8   6    0.70    1.50
  -5  -8  -6   10.90    2.40
  -5  -8  -6    8.90    3.10
   5   8   6   14.60    2.80
   5   8   6    7.20    2.30
  -6  -8  -6   80.59    5.70
  -6  -8  -6   73.49    6.80
   6   8   6   73.39    5.70
  -7  -8  -6   31.70    5.10
   7   8   6   38.70    4.80
  -8  -8  -6    5.50    3.60
   8   8   6    2.10    3.30
  -9  -8  -6    5.00    4.10
   9   8   6    3.40    3.80
   6  -9  -6   -0.30    3.80
  -6   9   6   -2.10    3.40
   5  -9  -6   77.59    7.80
  -5   9   6   72.39    7.10
   4  -9  -6   -2.10    2.70
  -4   9   6   -0.10    2.30
   3  -9  -6    6.70    3.00
   3  -9  -6    5.80    2.60
  -3   9   6    7.20    2.70
   2  -9  -6   30.50    4.90
   2  -9  -6   33.10    3.60
   2  -9  -6   31.30    3.90
  -2   9   6   28.30    3.60
   1  -9  -6   87.49    5.00
   1  -9  -6   77.99    6.60
   1  -9  -6   93.69    5.60
  -1   9   6   84.39    5.10
  -1   9   6   78.89    5.00
   0  -9  -6  111.99    7.50
   0  -9  -6  115.49    5.60
   0   9   6  115.49    5.90
   0   9   6  110.99    5.90
  -1  -9  -6  185.18    8.00
  -1  -9  -6  192.58   10.20
   1   9   6  185.28    8.20
   1   9   6  182.98    9.60
   1   9   6  178.58    8.10
  -2  -9  -6   18.40    2.30
  -2  -9  -6   15.60    3.50
   2   9   6   19.00    2.10
   2   9   6   16.40    2.30
   2   9   6   29.70    3.10
  -3  -9  -6   36.60    3.40
  -3  -9  -6   36.20    4.70
   3   9   6   32.70    3.30
   3   9   6   36.20    3.40
  -4  -9  -6   82.09    6.70
   4   9   6   88.09    5.30
   4   9   6   88.59    5.50
  -5  -9  -6    5.40    3.10
  -5  -9  -6    0.40    1.80
   5   9   6   -0.40    1.90
  -6  -9  -6    5.80    3.40
   6   9   6    1.50    2.40
  -7  -9  -6    1.00    3.20
   7   9   6    0.30    2.60
  -8  -9  -6   -1.10    3.60
   8   9   6    7.40    3.60
  -9  -9  -6   22.50    5.80
   9   9   6   22.30    5.10
   6 -10  -6   52.29    7.40
  -6  10   6   47.50    6.80
   5 -10  -6   53.19    6.80
  -5  10   6   57.39    6.60
   4 -10  -6   25.10    4.70
  -4  10   6   25.50    4.50
   3 -10  -6   11.30    3.30
  -3  10   6   10.70    3.20
   2 -10  -6    1.90    2.20
   2 -10  -6    1.30    3.10
   2 -10  -6    3.30    3.80
  -2  10   6    6.70    2.60
   1 -10  -6  124.79    6.60
   1 -10  -6  108.89    8.10
   1 -10  -6  111.49    6.50
  -1  10   6  112.19    6.50
   0 -10  -6   11.40    2.40
   0 -10  -6    9.00    3.20
   0  10   6    7.00    2.10
  -1 -10  -6   39.20    5.20
  -1 -10  -6   47.20    3.90
   1  10   6   37.30    4.60
   1  10   6   37.80    3.80
   1  10   6   44.00    3.90
  -2 -10  -6   11.50    2.30
  -2 -10  -6    2.90    2.90
   2  10   6   10.60    2.50
   2  10   6   14.90    2.40
   2  10   6    8.60    1.60
  -3 -10  -6   69.29    6.80
  -3 -10  -6   66.59    4.60
   3  10   6   77.89    5.10
  -4 -10  -6   74.19    6.70
  -4 -10  -6   64.89    4.70
   4  10   6   56.69    4.90
  -5 -10  -6   70.99    7.10
   5  10   6   59.99    5.40
  -6 -10  -6   54.79    6.60
   6  10   6   45.40    5.10
  -7 -10  -6   53.59    6.90
   7  10   6   48.90    5.60
  -8 -10  -6    4.60    4.10
   8  10   6   -2.00    3.10
  -9 -10  -6    7.50    4.90
   9  10   6    6.00    4.30
   5 -11  -6   32.60    6.10
  -5  11   6   36.90    5.70
   4 -11  -6   36.40    5.50
  -4  11   6   30.70    5.10
   3 -11  -6  195.98   10.60
  -3  11   6  194.58   10.40
   2 -11  -6  126.49    9.50
   2 -11  -6  132.39    7.60
  -2  11   6  117.99    7.60
   1 -11  -6   10.70    4.00
   1 -11  -6   13.90    2.80
  -1  11   6   17.60    3.30
   0 -11  -6   31.10    5.00
   0  11   6   36.00    4.00
  -1 -11  -6  103.89    8.40
   1  11   6  113.69    6.40
  -2 -11  -6   -0.30    2.90
   2  11   6    0.70    1.80
  -3 -11  -6  484.05   21.80
   3  11   6  513.65   20.00
  -4 -11  -6    6.50    3.50
   4  11   6    7.10    2.50
  -5 -11  -6  178.88   11.40
   5  11   6  173.78    9.50
  -6 -11  -6    0.20    3.60
   6  11   6   -2.00    2.40
  -7 -11  -6   20.90    5.30
   7  11   6   14.60    4.00
  -8 -11  -6   36.90    6.70
   8  11   6   47.50    6.00
   4 -12  -6   32.00    5.50
  -4  12   6   27.60    5.00
   3 -12  -6   53.09    6.10
  -3  12   6   67.89    6.60
   2 -12  -6   84.39    6.30
   2 -12  -6   89.69    8.60
  -2  12   6   75.99    6.80
   1 -12  -6   30.10    3.80
   1 -12  -6   23.50    5.40
  -1  12   6   30.10    4.20
   0 -12  -6   -2.20    3.10
   0  12   6   -1.20    2.00
  -1 -12  -6   30.10    5.60
   1  12   6   39.30    4.50
  -2 -12  -6  223.78   12.50
   2  12   6  194.68   10.10
  -3 -12  -6  127.09    9.50
   3  12   6  136.49    7.90
  -4 -12  -6   80.49    8.10
   4  12   6   68.39    5.90
  -5 -12  -6   13.00    4.50
   5  12   6   18.60    3.60
  -6 -12  -6   13.90    4.90
   6  12   6    7.70    3.20
  -7 -12  -6   64.89    8.40
   7  12   6   68.59    7.00
  -8 -12  -6   20.70    6.00
   8  12   6   26.50    5.40
  -3  13   6    4.00    3.30
   2 -13  -6    4.00    4.20
  -2  13   6    0.70    3.00
   1 -13  -6   13.60    5.10
  -1  13   6   17.10    3.80
   0 -13  -6   66.59    7.70
   0  13   6   60.29    5.90
  -1 -13  -6  209.98   13.00
   1  13   6  213.38   10.90
  -2 -13  -6  299.87   15.90
   2  13   6  300.17   13.80
  -3 -13  -6  115.59    9.90
   3  13   6  106.79    7.40
  -4 -13  -6   12.30    4.70
   4  13   6    4.80    2.90
  -5 -13  -6   25.60    5.60
   5  13   6   28.10    4.40
  -6 -13  -6   26.90    6.20
   6  13   6   24.40    4.50
  -7 -13  -6   87.89   10.00
   7  13   6   73.09    7.40
   2 -14  -6   18.30    5.90
  -2  14   6   17.00    4.50
   1 -14  -6   15.30    5.70
  -1  14   6   22.40    4.40
   0 -14  -6   30.50    6.20
   0  14   6   40.50    5.20
  -1 -14  -6   37.60    6.80
   1  14   6   47.30    5.50
  -2 -14  -6   65.89    8.00
   2  14   6   59.79    6.00
  -3 -14  -6    7.00    4.30
   3  14   6    7.00    3.20
  -4 -14  -6   19.80    5.50
   4  14   6   24.40    4.60
  -5 -14  -6   11.20    4.90
   5  14   6   20.30    4.40
  -6 -14  -6   44.30    7.50
   6  14   6   30.40    5.20
   0 -15  -6   15.00    5.60
   0  15   6    8.50    3.70
  -1 -15  -6   29.10    6.30
   1  15   6   23.70    4.60
  -2 -15  -6   -3.90    4.10
   2  15   6    1.40    3.00
  -3 -15  -6   26.40    6.20
   3  15   6   34.60    5.30
  -4 -15  -6   49.60    7.60
   4  15   6   55.99    6.50
  -5 -15  -6   -0.40    4.70
   5  15   6    3.80    3.50
   5  10  -7   10.70    4.90
  -5 -10   7    5.10    4.60
  -5 -10   7    6.00    5.20
   4  10  -7   12.70    4.70
  -4 -10   7   15.60    5.30
  -4 -10   7   17.20    5.60
   3  10  -7    8.70    4.50
  -3 -10   7   10.50    4.70
  -3 -10   7    9.80    4.80
   2  10  -7    3.30    6.90
   2  10  -7   20.00    5.00
  -2 -10   7    8.50    4.70
  -2 -10   7   13.40    4.90
   1  10  -7   -0.80    3.50
   1  10  -7   -8.10    6.50
  -1 -10   7    2.80    4.30
   0  10  -7   -0.10    3.70
   0  10  -7    4.40    6.60
   0 -10   7    5.10    4.80
  -1  10  -7    3.10    5.70
  -1  10  -7    0.10    4.30
   1 -10   7    2.80    4.90
   6   9  -7    4.70    4.10
  -6  -9   7   -2.70    4.00
  -6  -9   7    7.30    4.90
   5   9  -7   22.60    5.40
  -5  -9   7   18.00    5.40
  -5  -9   7   25.00    5.90
   4   9  -7   64.39    7.60
  -4  -9   7   49.99    7.10
  -4  -9   7   47.80    7.00
   3   9  -7   78.59    8.00
  -3  -9   7   65.69    7.50
  -3  -9   7   64.69    7.60
   2   9  -7    6.10    4.10
  -2  -9   7    8.00    4.10
  -2  -9   7   13.30    4.70
   1   9  -7    0.30    3.40
   1   9  -7    3.70    4.70
  -1  -9   7    1.10    3.50
  -1  -9   7   -1.30    3.80
   0   9  -7    1.30    3.30
   0   9  -7    1.70    4.50
   0  -9   7    1.90    4.30
  -1   9  -7    5.00    4.10
  -1   9  -7    1.00    4.90
   1  -9   7    8.60    4.90
  -2   9  -7   30.30    8.90
  -2   9  -7   45.80    6.70
   2  -9   7   29.90    6.50
  -3   9  -7   12.80    6.40
  -3   9  -7   18.10    5.60
   3  -9   7   14.10    5.70
   7   8  -7   20.60    5.40
  -7  -8   7   12.80    5.80
  -7  -8   7    7.00    4.60
   6   8  -7    3.80    3.80
  -6  -8   7   -0.30    5.00
  -6  -8   7    4.70    4.10
   5   8  -7   69.19    7.40
  -5  -8   7   50.99    7.00
  -5  -8   7   56.69    7.50
   4   8  -7  112.89    9.00
  -4  -8   7  105.99    9.30
  -4  -8   7  128.49    9.40
   3   8  -7   42.70    5.80
  -3  -8   7   40.90    6.10
  -3  -8   7   40.80    6.20
   2   8  -7    0.70    3.40
  -2  -8   7    1.50    3.20
  -2  -8   7    0.60    3.50
   1   8  -7   94.59    8.10
   1   8  -7  109.19   10.00
  -1  -8   7   98.09    7.80
  -1  -8   7   99.79    8.50
   0   8  -7   18.50    6.10
   0   8  -7   22.10    4.70
   0  -8   7   21.30    4.20
   0  -8   7   31.50    5.90
  -1   8  -7   59.89    9.30
  -1   8  -7   53.19    6.60
   1  -8   7   48.70    6.60
  -2   8  -7   15.40    4.60
  -2   8  -7   28.00    6.60
   2  -8   7   29.40    6.20
  -3   8  -7   11.60    4.70
  -3   8  -7   10.00    6.10
   3  -8   7   17.10    5.40
  -4   8  -7    2.20    5.50
  -4   8  -7    6.10    4.20
   4  -8   7   18.10    6.00
   7   7  -7   26.40    5.70
  -7  -7   7   23.00    5.50
  -7  -7   7   26.40    6.40
   6   7  -7   24.60    5.30
  -6  -7   7   36.00    6.50
  -6  -7   7   30.80    5.50
   5   7  -7   40.70    5.80
  -5  -7   7   43.70    6.00
  -5  -7   7   39.30    6.30
   4   7  -7   66.59    7.00
  -4  -7   7   64.39    7.40
  -4  -7   7   67.19    7.10
   3   7  -7    3.40    3.20
  -3  -7   7    0.20    3.00
  -3  -7   7   -0.50    3.10
   2   7  -7   92.69    7.40
  -2  -7   7   82.19    7.90
  -2  -7   7   81.79    7.30
   1   7  -7  169.68   11.70
   1   7  -7  152.08    9.60
  -1  -7   7  165.18    9.30
  -1  -7   7  165.68   10.10
   0   7  -7   81.09    9.10
   0   7  -7   83.79    7.10
   0  -7   7   87.29    7.80
   0  -7   7   84.99    6.60
  -1   7  -7   66.09    9.10
  -1   7  -7   50.59    6.10
   1  -7   7   59.69    7.00
  -2   7  -7   22.30    4.70
  -2   7  -7   23.60    6.20
   2  -7   7   31.80    5.50
  -3   7  -7    6.90    4.80
  -3   7  -7    5.00    3.90
   3  -7   7    1.40    4.00
  -4   7  -7    7.60    5.10
  -4   7  -7    6.60    4.20
   4  -7   7    3.20    4.80
  -5   7  -7    6.90    5.70
  -5   7  -7    8.40    4.60
   5  -7   7    4.60    4.90
   8   6  -7   55.59    7.90
  -8  -6   7   68.39    7.80
   7   6  -7   49.00    6.90
  -7  -6   7   46.80    6.60
   6   6  -7   61.89    6.90
  -6  -6   7   64.19    7.20
   5   6  -7    4.80    3.60
  -5  -6   7   10.00    3.90
  -5  -6   7    1.00    3.80
   4   6  -7    8.00    3.40
  -4  -6   7    9.20    3.90
  -4  -6   7    6.60    3.60
   3   6  -7    3.20    3.10
  -3  -6   7    0.20    3.20
  -3  -6   7    2.10    3.20
   2   6  -7  395.36   17.10
   2   6  -7  365.06   18.10
  -2  -6   7  382.06   16.90
  -2  -6   7  384.46   17.40
   1   6  -7   61.39    7.50
   1   6  -7   82.19    6.80
  -1  -6   7   86.39    6.40
  -1  -6   7   73.09    6.80
   0   6  -7  156.98    9.40
   0   6  -7  165.38   11.20
   0  -6   7  156.08    8.60
   0  -6   7  174.48    9.80
  -1   6  -7   12.20    5.80
  -1   6  -7    6.00    3.10
   1  -6   7    7.20    3.70
   1  -6   7    4.20    2.50
  -2   6  -7   32.70    6.30
  -2   6  -7   40.10    5.20
   2  -6   7   25.00    5.00
  -3   6  -7   84.89    7.90
  -3   6  -7   67.99    8.80
   3  -6   7   72.59    7.40
  -4   6  -7   17.60    4.60
  -4   6  -7   20.40    6.10
   4  -6   7   15.90    5.10
  -5   6  -7   76.79    9.60
  -5   6  -7   76.59    8.30
   5  -6   7   59.29    7.80
  -6   6  -7   -4.00    5.10
  -6   6  -7    4.20    4.10
   6  -6   7    1.00    4.60
   8   5  -7   42.60    6.70
  -8  -5   7   36.20    6.30
   7   5  -7   51.89    6.80
  -7  -5   7   59.79    6.80
   6   5  -7    0.80    3.20
  -6  -5   7   -1.60    3.00
   5   5  -7   -0.70    2.60
  -5  -5   7    0.70    3.20
   4   5  -7   43.30    5.40
  -4  -5   7   44.00    5.30
   3   5  -7    7.30    3.00
  -3  -5   7    1.10    2.80
   2   5  -7  258.97   12.50
   2   5  -7  255.27   13.50
  -2  -5   7  271.87   12.60
  -2  -5   7  260.47   12.40
   1   5  -7   67.49    7.40
   1   5  -7   68.19    5.70
  -1  -5   7   59.59    5.80
  -1  -5   7   68.59    5.20
   0   5  -7   -2.80    2.10
   0   5  -7   -0.50    3.00
   0  -5   7    3.00    2.00
   0  -5   7    1.40    2.60
  -1   5  -7   15.30    3.40
  -1   5  -7   26.70    5.40
   1  -5   7   17.00    2.80
   1  -5   7   21.90    4.20
  -2   5  -7   19.90    3.90
  -2   5  -7    9.60    3.90
   2  -5   7   14.50    2.40
   2  -5   7   18.00    4.00
  -3   5  -7   24.10    5.60
  -3   5  -7   18.10    4.00
   3  -5   7   31.40    5.00
  -4   5  -7  115.89   10.10
  -4   5  -7  118.69    8.50
   4  -5   7  123.89    9.30
  -5   5  -7   42.10    7.90
  -5   5  -7   48.90    6.60
   5  -5   7   26.40    5.50
  -6   5  -7   -7.70    4.90
  -6   5  -7   -0.20    3.50
   6  -5   7    1.30    4.50
   8   4  -7   47.70    6.80
  -8  -4   7   55.09    7.10
   7   4  -7   10.50    4.10
  -7  -4   7   17.10    4.60
   6   4  -7   -2.00    3.00
  -6  -4   7   -1.30    2.80
   5   4  -7   52.79    5.70
  -5  -4   7   45.70    5.30
   4   4  -7   33.50    4.50
  -4  -4   7   39.00    4.80
   3   4  -7   49.10    5.60
   3   4  -7   40.70    4.70
  -3  -4   7   47.50    4.80
   2   4  -7    8.00    4.00
   2   4  -7    1.70    2.30
  -2  -4   7   -0.20    2.40
   1   4  -7    9.90    2.80
   1   4  -7   11.80    3.90
  -1  -4   7   11.80    2.70
  -1  -4   7   16.30    3.30
   0   4  -7  156.88    8.60
   0   4  -7  168.38   10.30
   0  -4   7  168.08    8.90
   0  -4   7  169.78    8.00
  -1   4  -7  147.69    7.80
  -1   4  -7  142.49    9.50
   1  -4   7  140.59    8.20
   1  -4   7  130.89    6.60
  -2   4  -7   71.69    7.80
  -2   4  -7   65.89    5.70
   2  -4   7   62.89    6.00
   2  -4   7   67.99    3.70
  -3   4  -7   17.40    4.60
  -3   4  -7   16.70    3.70
   3  -4   7   20.60    3.90
  -4   4  -7   39.90    6.60
  -4   4  -7   45.00    5.40
   4  -4   7   52.39    6.10
  -5   4  -7    7.40    3.60
  -5   4  -7    8.40    4.70
   5  -4   7    1.80    4.00
  -6   4  -7   13.50    4.20
  -6   4  -7    7.80    4.70
   6  -4   7    9.40    4.80
  -7   4  -7   15.80    5.80
  -7   4  -7   24.40    5.40
   7  -4   7   27.60    6.10
   8   3  -7   22.90    5.50
   8   3  -7   24.90    5.60
  -8  -3   7   36.60    5.80
   7   3  -7   -4.00    2.90
  -7  -3   7    4.70    3.40
   6   3  -7    5.00    3.20
  -6  -3   7    9.60    3.50
   5   3  -7  115.89    6.90
   5   3  -7  110.09    7.70
  -5  -3   7  106.09    7.30
   4   3  -7   24.00    3.70
   4   3  -7   22.40    3.70
  -4  -3   7   14.90    3.20
   3   3  -7  245.38   11.80
   3   3  -7  272.47   12.80
   2   3  -7    4.20    2.60
   2   3  -7    2.80    2.00
  -2  -3   7    9.80    2.70
   1   3  -7   23.60    4.10
   1   3  -7   32.10    3.70
  -1  -3   7   24.50    3.50
   0   3  -7  178.58   10.10
   0   3  -7  184.08    8.90
   0  -3   7  186.88    8.30
   0  -3   7  176.18    9.10
  -1   3  -7   46.30    5.50
  -1   3  -7   46.10    4.10
   1  -3   7   49.90    4.90
   1  -3   7   50.39    3.30
  -2   3  -7   26.20    5.30
  -2   3  -7   25.30    3.60
   2  -3   7   23.50    3.70
  -3   3  -7   13.00    3.20
  -3   3  -7   14.50    3.90
   3  -3   7   15.00    3.40
  -4   3  -7    6.60    3.00
  -4   3  -7    1.00    3.60
   4  -3   7    3.00    3.00
  -5   3  -7   16.80    4.00
  -5   3  -7   20.60    5.10
   5  -3   7   10.20    4.10
  -6   3  -7   58.69    6.70
  -6   3  -7   59.19    7.90
   6  -3   7   62.39    7.00
  -7   3  -7    3.50    4.50
  -7   3  -7    6.60    3.90
   7  -3   7    0.10    3.90
   9   2  -7   -4.50    3.80
   9   2  -7    2.50    6.00
  -9  -2   7   -0.10    4.10
   8   2  -7    4.00    3.90
   8   2  -7    0.20    4.60
  -8  -2   7   -4.80    3.30
   7   2  -7   15.80    4.30
   7   2  -7   11.60    4.50
  -7  -2   7   14.30    4.10
   6   2  -7   11.50    3.70
   6   2  -7    8.30    3.40
  -6  -2   7    8.30    3.20
   5   2  -7  103.89    6.80
   5   2  -7   91.19    5.80
  -5  -2   7   89.09    6.50
   4   2  -7   10.10    2.60
   4   2  -7    7.60    2.70
  -4  -2   7   12.50    2.90
   3   2  -7   45.60    4.40
   3   2  -7   44.50    4.30
  -3  -2   7   43.30    4.40
   2   2  -7   12.60    3.00
   2   2  -7   10.00    2.40
  -2  -2   7   13.10    2.50
   1   2  -7   43.40    4.80
   1   2  -7   43.20    4.00
  -1  -2   7   48.20    4.20
   0   2  -7  433.66   17.20
   0   2  -7  436.26   18.50
   0  -2   7  427.16   17.20
  -1   2  -7  288.37   11.90
  -1   2  -7  279.87   13.20
   1  -2   7  267.47   10.70
   1  -2   7  279.47   12.20
  -2   2  -7   18.70    3.80
  -2   2  -7   25.20    3.20
   2  -2   7   19.40    3.20
  -3   2  -7   -4.20    3.20
  -3   2  -7    1.60    2.00
   3  -2   7   -0.80    2.30
  -4   2  -7   77.99    6.00
  -4   2  -7   64.29    7.20
   4  -2   7   76.79    6.30
  -5   2  -7  144.39    8.40
  -5   2  -7  105.99    9.60
   5  -2   7  142.39    9.10
  -6   2  -7   57.49    6.30
  -6   2  -7   63.09    7.90
   6  -2   7   49.90    6.10
  -7   2  -7   22.10    5.70
  -7   2  -7   23.80    4.70
   7  -2   7   25.30    5.50
  -8   2  -7    7.20    5.20
  -8   2  -7    0.90    3.70
   8  -2   7    2.30    4.30
   9   1  -7    7.70    5.90
   9   1  -7    0.60    4.00
  -9  -1   7    3.80    4.20
   8   1  -7   13.40    4.30
   8   1  -7   21.30    5.70
  -8  -1   7   18.70    4.70
   7   1  -7   32.30    5.80
   7   1  -7   18.80    4.30
  -7  -1   7   24.70    4.70
   6   1  -7  158.38    9.90
   6   1  -7  171.28    9.40
  -6  -1   7  147.69    9.10
   5   1  -7   56.09    5.30
   5   1  -7   41.10    3.10
   5   1  -7   50.59    5.20
  -5  -1   7   37.60    4.50
   4   1  -7  138.29    6.80
   4   1  -7  127.99    7.20
  -4  -1   7  134.39    7.50
   3   1  -7  108.29    6.30
   3   1  -7  111.49    6.00
  -3  -1   7  108.69    6.20
   2   1  -7   22.70    3.00
   2   1  -7   28.00    3.60
  -2  -1   7   26.10    3.00
   1   1  -7  420.46   16.70
   1   1  -7  435.26   17.40
  -1  -1   7  442.16   16.70
  -1  -1   7  407.06   16.70
   0   1  -7   41.10    3.50
   0   1  -7   43.70    4.30
   0  -1   7   48.80    3.70
   0  -1   7   42.90    3.50
  -1   1  -7  245.18   10.20
  -1   1  -7  230.38   11.50
   1  -1   7  242.78   10.40
   1  -1   7  240.38   10.50
  -2   1  -7  127.59    8.20
  -2   1  -7  140.69    7.00
   2  -1   7  152.98    7.50
  -3   1  -7    2.70    2.50
  -3   1  -7    4.90    2.00
   3  -1   7   -1.20    2.00
  -4   1  -7   13.20    2.90
  -4   1  -7   13.30    3.80
   4  -1   7    9.60    3.10
  -5   1  -7   29.20    4.20
  -5   1  -7   22.30    4.80
   5  -1   7   22.80    4.20
  -6   1  -7   -1.80    2.50
  -6   1  -7    3.20    3.70
   6  -1   7    2.90    3.40
  -7   1  -7   27.60    4.90
  -7   1  -7   28.80    5.90
   7  -1   7   26.60    5.00
  -8   1  -7   -1.20    4.10
  -8   1  -7   -3.80    3.40
   8  -1   7   -5.10    3.50
   9   0  -7    6.90    5.80
   9   0  -7    1.80    4.40
  -9   0   7    5.20    4.30
   8   0  -7  126.79   10.70
   8   0  -7  107.09    9.10
  -8   0   7   99.49    8.50
   7   0  -7  118.69    8.40
   7   0  -7  117.19    9.40
  -7   0   7   79.19    7.70
   6   0  -7  133.09    9.30
   6   0  -7  147.79    8.90
  -6   0   7  144.99    8.50
   5   0  -7    2.80    2.20
   5   0  -7   -0.20    2.90
  -5   0   7   -1.10    2.20
   4   0  -7  155.08    6.40
   4   0  -7  145.89    7.90
  -4   0   7  151.78    7.90
   3   0  -7  147.09    6.50
   3   0  -7  135.49    6.90
  -3   0   7  126.39    6.90
  -3   0   7  139.09    7.00
   2   0  -7  993.70   34.50
   2   0  -7  929.41   34.20
  -2   0   7  925.51   34.30
  -2   0   7  918.91   34.20
   1   0  -7  149.39    6.60
   1   0  -7  128.29    7.60
  -1   0   7  145.69    6.60
  -1   0   7  138.89    6.70
   0   0  -7  665.83   26.40
   0   0  -7  681.33   25.00
   0   0   7  690.13   25.10
   0   0   7  684.73   25.00
  -1   0  -7  161.68    7.20
  -1   0  -7  140.39    8.50
   1   0   7  169.98    7.40
   1   0   7  152.78    7.30
   1   0   7  172.28    6.80
  -2   0  -7  340.07   14.90
  -2   0  -7  333.37   13.40
   2   0   7  340.67   13.40
   2   0   7  329.67   13.50
  -3   0  -7  529.75   20.40
  -3   0  -7  507.65   21.80
   3   0   7  537.85   20.60
   3   0   7  546.15   20.60
  -4   0  -7  131.99    6.80
  -4   0  -7  115.59    8.10
   4   0   7  110.09    7.00
  -5   0  -7  150.58    8.30
  -5   0  -7  153.48    9.80
   5   0   7  163.18    8.80
  -6   0  -7    1.00    2.40
  -6   0  -7   -1.40    3.20
   6   0   7   -0.90    2.90
  -7   0  -7   20.90    5.20
  -7   0  -7   26.80    4.50
   7   0   7   20.70    4.40
  -8   0  -7    5.40    4.50
  -8   0  -7   -1.30    3.50
   8   0   7    3.20    3.90
   9  -1  -7   41.50    7.50
  -9   1   7   33.80    6.20
   8  -1  -7   55.49    7.60
   8  -1  -7   38.70    6.30
  -8   1   7   42.90    6.40
   7  -1  -7   75.79    7.20
   7  -1  -7   71.49    7.60
  -7   1   7   75.19    7.40
   6  -1  -7    0.30    3.40
   6  -1  -7    2.40    2.80
  -6   1   7    2.20    3.00
   5  -1  -7   34.40    4.10
   5  -1  -7   27.20    4.50
  -5   1   7   37.60    4.40
   4  -1  -7  123.39    7.50
   4  -1  -7  124.89    6.90
  -4   1   7  123.49    6.80
   3  -1  -7   41.30    2.70
   3  -1  -7   38.50    3.60
  -3   1   7   38.30    3.70
  -3   1   7   32.90    3.40
   2  -1  -7   13.00    2.10
   2  -1  -7   12.90    2.10
  -2   1   7   13.40    2.00
  -2   1   7   12.00    2.00
  -2   1   7   14.50    2.30
   1  -1  -7  186.98    8.20
   1  -1  -7  182.78    9.00
  -1   1   7  198.98    8.90
  -1   1   7  219.88    8.30
   0  -1  -7   39.40    3.80
   0  -1  -7   37.80    2.70
   0   1   7   45.10    3.00
   0   1   7   37.70    2.80
  -1  -1  -7   22.20    3.80
  -1  -1  -7   21.10    2.20
   1   1   7   21.20    2.20
   1   1   7   18.90    2.10
   1   1   7   19.30    2.30
  -2  -1  -7  113.69    5.30
  -2  -1  -7  103.79    6.70
   2   1   7  105.69    4.60
   2   1   7  109.39    5.50
   2   1   7  101.99    5.30
  -3  -1  -7  230.68   11.60
  -3  -1  -7  257.67   10.20
   3   1   7  227.08   10.20
   3   1   7  234.68   10.10
  -4  -1  -7  185.58   10.00
  -4  -1  -7  174.88    8.40
   4   1   7  172.18    8.50
  -5  -1  -7   -0.10    2.70
  -5  -1  -7    4.70    2.30
   5   1   7    7.80    2.80
  -6  -1  -7    2.40    3.30
  -6  -1  -7   -2.20    2.20
   6   1   7    1.10    2.80
  -7  -1  -7   24.50    4.30
  -7  -1  -7   16.60    4.70
   7   1   7   15.40    4.00
  -8  -1  -7   23.70    4.50
  -8  -1  -7   25.10    5.70
   8   1   7   21.90    5.00
  -9  -1  -7    8.00    5.40
   9   1   7   13.20    5.10
   8  -2  -7   15.80    4.70
   8  -2  -7   26.80    6.10
  -8   2   7   16.60    4.90
   7  -2  -7    4.00    3.50
   7  -2  -7    2.00    3.90
  -7   2   7    4.00    3.40
   6  -2  -7   13.10    4.00
   6  -2  -7   18.50    3.70
  -6   2   7   11.10    3.40
   5  -2  -7  224.28   10.50
   5  -2  -7  205.38   11.10
  -5   2   7  217.08   10.60
   4  -2  -7  113.89    6.60
   4  -2  -7  118.79    7.50
  -4   2   7  121.39    6.60
   3  -2  -7  333.97   12.70
   3  -2  -7  272.57   11.30
   3  -2  -7  323.97   13.40
  -3   2   7  304.57   12.50
  -3   2   7  320.47   12.60
   2  -2  -7   96.69    4.90
   2  -2  -7  100.09    4.80
  -2   2   7   90.09    4.90
  -2   2   7   89.39    4.80
  -2   2   7   99.49    4.70
   1  -2  -7   95.99    4.30
   1  -2  -7   83.79    5.00
  -1   2   7   89.29    4.30
  -1   2   7   82.49    4.70
  -1   2   7   97.79    4.30
   0  -2  -7  254.27   10.80
   0  -2  -7  247.98    9.30
   0   2   7  229.28    9.40
   0   2   7  261.67    9.40
   0   2   7  239.18   11.10
  -1  -2  -7    6.40    2.20
  -1  -2  -7    6.90    1.20
   1   2   7    5.80    1.70
   1   2   7    5.80    1.30
   1   2   7    9.40    1.40
  -2  -2  -7 1032.40   37.70
  -2  -2  -7 1054.09   39.60
   2   2   7 1065.39   37.80
   2   2   7 1087.19   37.80
   2   2   7 1078.59   37.70
  -3  -2  -7  136.79    6.20
  -3  -2  -7  132.19    7.90
  -3  -2  -7  122.09    5.60
   3   2   7  142.59    6.40
   3   2   7  131.19    5.60
   3   2   7  135.49    6.30
  -4  -2  -7   38.90    2.60
  -4  -2  -7   36.70    4.90
  -4  -2  -7   38.10    3.50
   4   2   7   37.40    3.70
   4   2   7   38.60    3.70
  -5  -2  -7   42.10    4.10
  -5  -2  -7   32.90    5.10
  -5  -2  -7   39.00    2.90
   5   2   7   36.60    4.20
  -6  -2  -7    4.40    1.80
  -6  -2  -7    7.90    3.60
  -6  -2  -7    3.30    2.40
   6   2   7    2.00    2.80
  -7  -2  -7   11.00    3.30
  -7  -2  -7    9.30    4.40
   7   2   7   12.80    3.60
  -8  -2  -7   24.60    5.70
  -8  -2  -7   29.60    4.90
   8   2   7   21.60    5.00
  -9  -2  -7   -0.40    4.40
   9   2   7   12.90    4.80
   8  -3  -7    0.40    4.80
  -8   3   7    1.40    3.60
   7  -3  -7    1.50    3.20
   7  -3  -7    4.20    4.10
  -7   3   7   -3.70    2.80
   6  -3  -7   19.70    4.10
   6  -3  -7   26.30    4.80
  -6   3   7   31.20    4.50
   5  -3  -7  133.89    7.60
   5  -3  -7  135.49    8.30
  -5   3   7  122.39    7.50
   4  -3  -7   21.00    3.10
   4  -3  -7   19.80    3.60
  -4   3   7   24.40    3.10
   3  -3  -7  310.97   13.70
   3  -3  -7  333.17   12.80
  -3   3   7  308.67   11.60
  -3   3   7  331.37   12.90
  -3   3   7  305.07   12.70
   2  -3  -7    1.60    1.30
   2  -3  -7    2.00    1.30
  -2   3   7    1.40    1.10
  -2   3   7    0.50    1.10
  -2   3   7   -0.50    1.20
   1  -3  -7   21.00    2.70
  -1   3   7   20.70    1.80
  -1   3   7   21.40    1.80
  -1   3   7   20.20    2.50
   0  -3  -7  630.54   23.80
   0  -3  -7  669.63   23.80
   0  -3  -7  711.03   25.70
   0   3   7  674.43   23.90
   0   3   7  725.73   24.00
  -1  -3  -7   29.00    1.70
  -1  -3  -7   31.00    3.60
  -1  -3  -7   38.50    3.30
   1   3   7   34.20    3.10
   1   3   7   31.50    1.90
   1   3   7   33.40    2.00
  -2  -3  -7  518.65   21.30
  -2  -3  -7  543.25   19.90
   2   3   7  509.65   19.30
   2   3   7  563.74   20.00
   2   3   7  534.65   19.30
  -3  -3  -7   20.60    3.50
  -3  -3  -7   24.00    2.50
  -3  -3  -7   30.30    2.50
   3   3   7   25.60    2.50
   3   3   7   29.70    2.70
   3   3   7   30.00    2.60
  -4  -3  -7   93.19    6.60
  -4  -3  -7  105.89    5.40
  -4  -3  -7   90.39    5.00
   4   3   7  103.09    5.60
   4   3   7  109.09    5.60
  -5  -3  -7   58.09    6.30
  -5  -3  -7   56.19    4.00
  -5  -3  -7   56.99    4.30
   5   3   7   62.69    4.70
  -6  -3  -7    9.30    2.40
  -6  -3  -7    5.80    3.70
  -6  -3  -7    4.20    2.30
   6   3   7    2.90    2.60
  -7  -3  -7   35.70    4.60
  -7  -3  -7   17.10    4.80
   7   3   7   34.50    4.80
  -8  -3  -7   35.20    6.30
  -8  -3  -7   23.10    4.30
   8   3   7   18.90    4.50
  -9  -3  -7    1.10    4.70
   9   3   7    2.40    4.10
   8  -4  -7   -1.30    4.60
  -8   4   7    1.90    3.90
   7  -4  -7   14.30    4.70
   7  -4  -7   16.30    4.30
  -7   4   7    7.00    3.80
   6  -4  -7   21.90    4.60
   6  -4  -7   19.40    3.80
  -6   4   7   23.00    4.30
   5  -4  -7   16.90    3.20
   5  -4  -7   14.10    3.60
  -5   4   7   13.50    3.20
   4  -4  -7   33.70    3.60
   4  -4  -7   34.90    4.30
  -4   4   7   38.00    4.20
  -4   4   7   32.30    3.80
   3  -4  -7   10.70    2.80
   3  -4  -7   10.40    2.10
  -3   4   7    7.90    1.90
  -3   4   7   12.00    1.50
  -3   4   7   11.80    2.20
   2  -4  -7   38.70    2.80
  -2   4   7   40.70    2.90
  -2   4   7   33.30    2.80
  -2   4   7   34.50    2.70
   1  -4  -7  371.06   15.70
   1  -4  -7  470.25   17.10
  -1   4   7  439.46   15.90
  -1   4   7  432.56   15.90
  -1   4   7  497.85   17.20
   0  -4  -7  178.98    8.40
   0  -4  -7  177.68    8.50
  -1  -4  -7  556.64   21.80
  -1  -4  -7  562.94   21.30
  -2  -4  -7  385.86   15.20
  -2  -4  -7  378.96   13.90
  -2  -4  -7  392.06   13.90
  -2  -4  -7  401.66   16.40
   2   4   7  378.86   14.10
   2   4   7  394.46   14.10
  -3  -4  -7    2.90    2.30
  -3  -4  -7    1.00    1.60
  -3  -4  -7    1.70    1.10
   3   4   7   -0.90    1.10
   3   4   7    2.10    1.20
  -4  -4  -7  199.28    8.40
  -4  -4  -7  184.58    8.50
  -4  -4  -7  190.88   10.40
   4   4   7  205.48    8.60
   4   4   7  191.68    8.50
  -5  -4  -7   59.69    6.50
  -5  -4  -7   61.79    4.50
  -5  -4  -7   61.09    4.30
   5   4   7   61.09    4.70
   5   4   7   54.39    4.60
  -6  -4  -7  111.39    8.50
  -6  -4  -7  118.89    6.80
  -6  -4  -7  121.79    6.90
   6   4   7  124.39    7.30
  -7  -4  -7   90.99    6.30
  -7  -4  -7   78.39    7.70
  -7  -4  -7   91.69    6.30
   7   4   7  101.99    7.30
  -8  -4  -7   28.80    6.00
   8   4   7   29.50    5.00
  -9  -4  -7   -1.10    4.50
   9   4   7    4.00    3.70
   8  -5  -7   32.20    6.80
  -8   5   7   19.00    5.10
   7  -5  -7   37.50    6.10
  -7   5   7   35.30    5.50
   6  -5  -7   38.40    5.70
   6  -5  -7   38.50    5.00
  -6   5   7   40.90    5.10
   5  -5  -7   10.60    3.10
   5  -5  -7    9.00    3.40
  -5   5   7    9.20    2.80
   4  -5  -7   99.29    5.90
   4  -5  -7   97.29    6.80
  -4   5   7   87.79    4.20
  -4   5   7   97.59    5.90
   3  -5  -7   73.29    4.60
   3  -5  -7   83.59    6.00
  -3   5   7   84.19    4.90
  -3   5   7   82.29    4.90
   2  -5  -7  271.87   12.10
   2  -5  -7  273.27   11.00
  -2   5   7  301.67   11.50
  -2   5   7  270.37   10.90
  -2   5   7  273.87   11.00
   1  -5  -7 1054.59   38.20
  -1   5   7 1103.99   38.30
  -1   5   7 1114.39   38.30
   0  -5  -7   32.10    3.70
   0  -5  -7   37.40    3.90
  -1  -5  -7  403.16   16.30
  -1  -5  -7  381.16   15.70
  -2  -5  -7   27.40    1.60
  -2  -5  -7   25.00    1.50
  -2  -5  -7   35.60    3.60
  -2  -5  -7   39.20    4.50
   2   5   7   26.50    1.70
   2   5   7   26.00    1.80
  -3  -5  -7   27.50    3.30
  -3  -5  -7   28.30    2.10
  -3  -5  -7   34.40    4.50
   3   5   7   28.40    2.40
   3   5   7   27.60    2.40
  -4  -5  -7  329.37   12.50
  -4  -5  -7  314.77   13.20
  -4  -5  -7  317.47   14.70
   4   5   7  315.77   12.60
   4   5   7  299.27   12.50
  -5  -5  -7  197.88    9.10
  -5  -5  -7  172.08   10.30
  -5  -5  -7  188.28    8.50
   5   5   7  177.28    8.50
   5   5   7  175.48    8.70
  -6  -5  -7   88.39    5.80
  -6  -5  -7   86.89    6.10
  -6  -5  -7   82.89    7.40
   6   5   7   92.19    6.10
  -7  -5  -7  102.89    6.70
  -7  -5  -7   89.59    8.50
  -7  -5  -7   93.69    6.70
   7   5   7   89.39    6.80
  -8  -5  -7   -2.10    2.60
  -8  -5  -7   -5.40    3.50
   8   5   7   -0.50    2.90
  -9  -5  -7    0.10    4.40
   9   5   7    0.60    3.60
   8  -6  -7   45.60    7.40
   7  -6  -7   39.30    6.30
  -7   6   7   32.70    5.50
   6  -6  -7    3.80    3.50
  -6   6   7    9.50    3.50
   5  -6  -7   11.70    3.20
   5  -6  -7   15.20    4.00
  -5   6   7    7.90    3.00
   4  -6  -7    1.10    2.00
   4  -6  -7    1.50    2.50
  -4   6   7    3.90    2.20
   3  -6  -7  288.87   12.40
   3  -6  -7  285.67   13.30
  -3   6   7  286.27   12.30
  -3   6   7  307.57   12.40
  -3   6   7  321.87   12.40
   2  -6  -7 1537.15   54.59
   2  -6  -7 1471.45   53.19
  -2   6   7 1472.85   53.29
  -2   6   7 1553.14   53.29
   1  -6  -7  376.86   16.00
  -1   6   7  385.16   13.90
  -1   6   7  362.76   13.90
   0  -6  -7  226.58   10.60
   0   6   7  217.98    8.30
   0   6   7  230.88    8.30
  -1  -6  -7   61.49    4.80
  -2  -6  -7   50.09    4.40
  -2  -6  -7   49.50    2.30
  -2  -6  -7   49.10    4.80
  -2  -6  -7   48.40    2.30
   2   6   7   44.60    2.40
   2   6   7   44.80    2.30
  -3  -6  -7  437.66   17.00
  -3  -6  -7  394.46   17.60
   3   6   7  414.36   15.30
   3   6   7  397.06   15.20
  -4  -6  -7  171.68    7.40
  -4  -6  -7  155.98    9.60
  -4  -6  -7  170.48    8.60
   4   6   7  169.08    7.60
   4   6   7  173.88    7.50
  -5  -6  -7  342.57   15.00
  -5  -6  -7  357.46   16.70
  -5  -6  -7  346.57   14.20
   5   6   7  362.46   14.50
   5   6   7  351.86   14.30
  -6  -6  -7   11.00    4.20
  -6  -6  -7   15.00    3.30
  -6  -6  -7   14.50    2.80
   6   6   7    9.90    2.90
  -7  -6  -7   -0.40    2.70
  -7  -6  -7    1.00    2.40
  -7  -6  -7    3.20    3.90
   7   6   7    4.40    3.00
  -8  -6  -7   10.60    4.70
  -8  -6  -7    9.60    3.70
   8   6   7    8.40    3.60
  -9  -6  -7   18.40    6.10
   9   6   7   18.50    4.70
   7  -7  -7   11.50    5.00
  -7   7   7   11.80    4.50
   6  -7  -7    4.50    3.80
  -6   7   7    4.80    3.30
   5  -7  -7   -0.90    3.10
  -5   7   7    0.80    2.50
   4  -7  -7   27.10    3.60
   4  -7  -7   19.50    3.90
  -4   7   7   25.00    3.60
   3  -7  -7  113.09    5.90
   3  -7  -7   98.99    6.70
  -3   7   7   94.49    5.70
  -3   7   7   98.59    5.90
   2  -7  -7  340.17   13.70
   2  -7  -7  360.06   15.00
  -2   7   7  359.06   13.80
  -2   7   7  341.07   13.80
   1  -7  -7   30.50    4.00
   1  -7  -7   33.60    2.50
  -1   7   7   32.30    2.70
  -1   7   7   33.10    2.50
   0  -7  -7   65.19    5.60
   0  -7  -7   80.09    3.50
   0   7   7   71.69    3.60
   0   7   7   78.39    3.60
  -1  -7  -7   65.69    2.80
  -1  -7  -7   66.09    5.10
   1   7   7   63.09    3.10
   1   7   7   63.49    3.00
  -2  -7  -7  192.78    7.40
  -2  -7  -7  187.28    9.60
   2   7   7  189.68    7.50
   2   7   7  197.48    7.60
  -3  -7  -7  102.09    6.50
   3   7   7   99.79    4.60
   3   7   7   90.29    4.70
  -4  -7  -7  397.86   17.70
  -4  -7  -7  385.56   16.50
  -4  -7  -7  395.36   15.00
   4   7   7  402.26   15.20
   4   7   7  368.66   15.00
  -5  -7  -7   40.10    3.60
  -5  -7  -7   47.80    5.20
  -5  -7  -7   61.89    6.90
   5   7   7   54.19    4.30
   5   7   7   45.80    4.10
  -6  -7  -7   -1.80    2.50
  -6  -7  -7   -1.30    1.80
  -6  -7  -7   -0.90    3.30
   6   7   7    0.00    2.10
  -7  -7  -7   84.19    8.90
  -7  -7  -7   70.19    6.60
   7   7   7   72.29    6.20
  -8  -7  -7   19.00    4.50
   8   7   7   10.80    3.80
  -9  -7  -7   28.80    7.00
   9   7   7   25.30    5.00
   7  -8  -7   -5.60    3.80
  -7   8   7    3.10    4.10
   6  -8  -7   34.50    6.10
  -6   8   7   53.99    6.20
   5  -8  -7    9.50    3.80
  -5   8   7   11.60    3.40
   4  -8  -7  110.69    7.90
  -4   8   7  118.69    7.20
   3  -8  -7  229.68   11.40
   3  -8  -7  225.48   10.50
  -3   8   7  237.78   10.60
   2  -8  -7  182.28    9.20
   2  -8  -7  182.38    8.10
  -2   8   7  171.68    8.10
  -2   8   7  174.68    8.20
   1  -8  -7   16.80    3.50
   1  -8  -7   16.70    2.10
  -1   8   7   15.90    2.20
  -1   8   7   15.70    2.10
   0  -8  -7  228.38   11.50
   0   8   7  235.38    9.30
   0   8   7  232.78    9.40
  -1  -8  -7  147.99    6.30
  -1  -8  -7  164.98    8.80
   1   8   7  159.68    6.50
   1   8   7  153.28    6.50
  -2  -8  -7  442.06   18.60
   2   8   7  451.85   16.50
   2   8   7  436.36   16.40
  -3  -8  -7  171.38    9.20
  -3  -8  -7  158.88    6.90
   3   8   7  154.58    7.10
   3   8   7  162.18    7.00
  -4  -8  -7  219.58    9.40
  -4  -8  -7  225.68   11.30
   4   8   7  221.88    9.50
   4   8   7  229.38    9.70
  -5  -8  -7   -0.60    1.60
  -5  -8  -7    2.20    3.00
   5   8   7   -0.10    1.80
  -6  -8  -7   25.20    4.40
   6   8   7   25.20    3.70
  -7  -8  -7   48.30    6.00
   7   8   7   38.40    4.90
  -8  -8  -7    6.80    3.90
   8   8   7    2.10    3.20
  -9  -8  -7    2.50    4.10
   9   8   7    3.50    3.70
   6  -9  -7    1.50    4.00
  -6   9   7    1.10    3.50
   5  -9  -7    9.00    4.10
  -5   9   7   12.80    3.90
   4  -9  -7   63.79    6.50
  -4   9   7   63.19    5.90
   3  -9  -7   95.69    7.00
  -3   9   7  106.29    6.50
   2  -9  -7   16.60    4.10
   2  -9  -7   19.40    3.00
   2  -9  -7   17.90    3.50
  -2   9   7   19.90    3.10
   1  -9  -7    2.60    1.70
   1  -9  -7   -2.10    2.30
  -1   9   7    2.20    1.70
  -1   9   7    1.50    1.50
   0  -9  -7  151.58    8.90
   0  -9  -7  139.49    6.50
   0   9   7  152.58    6.80
   0   9   7  146.09    6.80
  -1  -9  -7  159.48    9.20
  -1  -9  -7  141.09    6.30
   1   9   7  154.18    6.60
   1   9   7  145.09    6.60
  -2  -9  -7    9.40    3.10
  -2  -9  -7   11.30    1.80
   2   9   7   11.00    2.00
   2   9   7   12.80    1.90
  -3  -9  -7   17.60    2.20
  -3  -9  -7   15.90    3.60
   3   9   7   20.60    2.50
   3   9   7   19.20    2.40
  -4  -9  -7   91.69    7.00
   4   9   7   90.09    5.40
   4   9   7   89.59    6.60
  -5  -9  -7  181.88   10.40
   5   9   7  171.48    8.60
  -6  -9  -7  212.78   11.60
   6   9   7  199.38   10.30
  -7  -9  -7   59.59    6.80
   7   9   7   57.09    5.90
  -8  -9  -7    2.10    3.80
   8   9   7    1.90    3.20
  -9  -9  -7   -2.00    3.80
   9   9   7    2.40    3.50
   6 -10  -7   16.90    5.20
  -6  10   7   17.10    5.00
   5 -10  -7  102.49    9.10
  -5  10   7  117.89    8.70
   4 -10  -7   23.10    4.60
  -4  10   7   26.10    4.30
   3 -10  -7   26.20    4.30
  -3  10   7   32.20    4.20
   2 -10  -7   92.19    8.00
   2 -10  -7   96.49    6.80
  -2  10   7  103.29    6.20
   1 -10  -7    9.40    3.60
  -1  10   7    8.80    2.40
   0 -10  -7  181.48    8.70
   0 -10  -7  189.48   10.70
   0  10   7  183.38    8.50
  -1 -10  -7  127.79    6.10
  -1 -10  -7  124.29    8.60
   1  10   7  135.49    6.90
   1  10   7  125.89    6.40
  -2 -10  -7  100.59    5.20
  -2 -10  -7   96.29    7.40
   2  10   7   91.89    5.60
   2  10   7  100.89    5.40
  -3 -10  -7   60.29    4.70
  -3 -10  -7   65.89    6.60
   3  10   7   57.69    4.30
  -4 -10  -7    0.90    2.90
   4  10   7    2.60    2.00
  -5 -10  -7   12.70    4.10
   5  10   7   19.20    3.30
  -6 -10  -7  127.29    9.40
   6  10   7  119.79    7.50
  -7 -10  -7   91.29    8.30
   7  10   7   78.39    6.90
  -8 -10  -7   15.20    4.80
   8  10   7    8.10    3.80
  -9 -10  -7   -0.20    4.00
   9  10   7    2.00    3.90
   5 -11  -7    2.90    3.90
  -5  11   7    7.10    3.90
   4 -11  -7    4.30    3.50
  -4  11   7    4.20    3.20
   3 -11  -7  232.98   12.00
  -3  11   7  234.28   11.70
   2 -11  -7   90.99    6.90
   2 -11  -7   87.89    8.50
  -2  11   7  106.49    6.70
   1 -11  -7  304.47   15.60
  -1  11   7  310.87   13.40
   0 -11  -7   -0.20    2.90
   0  11   7    0.00    1.80
  -1 -11  -7   84.09    7.50
   1  11   7   63.79    4.70
  -2 -11  -7   16.70    4.10
   2  11   7   22.30    3.10
  -3 -11  -7   11.20    3.80
   3  11   7   13.90    2.70
  -4 -11  -7  103.79    8.20
   4  11   7  108.49    6.50
  -5 -11  -7  182.28   11.30
   5  11   7  179.48    9.40
  -6 -11  -7   76.99    8.00
   6  11   7   79.29    6.50
  -7 -11  -7   87.69    9.00
   7  11   7   79.89    7.00
  -8 -11  -7   -4.80    3.70
   8  11   7   -0.30    3.10
   4 -12  -7   23.40    4.90
  -4  12   7   25.60    4.80
   3 -12  -7   49.50    5.80
  -3  12   7   51.29    5.90
   2 -12  -7  202.28   13.10
   2 -12  -7  212.68   11.00
  -2  12   7  216.18   11.00
   1 -12  -7   88.39    8.80
  -1  12   7   97.19    6.40
   0 -12  -7  113.59    8.80
   0  12   7  110.39    6.80
  -1 -12  -7   15.50    4.30
   1  12   7   15.50    3.00
  -2 -12  -7   13.20    4.20
   2  12   7    7.30    2.60
  -3 -12  -7  298.97   15.60
   3  12   7  306.07   13.50
  -4 -12  -7  102.99    8.60
   4  12   7   91.29    6.60
  -5 -12  -7   80.79    8.30
   5  12   7   68.89    5.90
  -6 -12  -7   -4.00    3.60
   6  12   7    1.80    2.80
  -7 -12  -7    2.50    4.60
   7  12   7   -1.30    2.90
  -8 -12  -7   -9.20    3.80
   8  12   7    0.10    3.50
  -3  13   7   42.90    5.80
   2 -13  -7   57.39    7.60
  -2  13   7   53.79    6.00
   1 -13  -7   48.10    7.20
  -1  13   7   42.60    5.10
   0 -13  -7    6.60    4.10
   0  13   7    5.40    2.70
  -1 -13  -7   83.99    8.50
   1  13   7   84.59    6.20
  -2 -13  -7  209.18   12.70
   2  13   7  199.18   10.10
  -3 -13  -7  281.17   15.40
   3  13   7  280.27   12.90
  -4 -13  -7  140.09   10.30
   4  13   7  120.69    7.70
  -5 -13  -7    4.50    4.00
   5  13   7    0.50    2.50
  -6 -13  -7    3.80    4.30
   6  13   7    6.60    3.20
  -7 -13  -7   43.20    7.30
   7  13   7   26.30    5.10
   2 -14  -7   -2.70    4.70
  -2  14   7    4.70    3.50
   1 -14  -7   -5.20    3.80
  -1  14   7    1.00    2.80
   0 -14  -7   33.30    6.40
   0  14   7   33.40    4.80
  -1 -14  -7   38.70    6.50
   1  14   7   41.30    5.10
  -2 -14  -7   98.19    9.70
   2  14   7  109.39    7.10
  -3 -14  -7   59.99    7.80
   3  14   7   61.09    6.10
  -4 -14  -7   17.70    5.60
   4  14   7   18.20    3.90
  -5 -14  -7    6.80    4.80
   5  14   7    6.40    3.20
  -6 -14  -7   13.00    5.40
   6  14   7   11.50    3.60
   0 -15  -7   20.00    6.00
   0  15   7   23.90    4.70
  -1 -15  -7   47.30    7.30
   1  15   7   40.20    5.30
  -2 -15  -7   41.50    7.30
   2  15   7   33.30    4.90
  -3 -15  -7    4.40    4.40
   3  15   7   -1.70    2.90
  -4 -15  -7    8.70    5.10
   4  15   7    7.40    3.40
  -5 -15  -7   20.30    6.20
   5  15   7   19.00    4.30
   3  10  -8   -1.70    3.90
   3  10  -8   -1.10    5.50
  -3 -10   8    4.30    4.50
  -3 -10   8    5.00    4.60
   2  10  -8   57.49    9.60
   2  10  -8   50.59    7.30
  -2 -10   8   65.19    8.20
   1  10  -8   23.00    7.40
   1  10  -8   22.20    5.70
  -1 -10   8   29.50    6.40
   0  10  -8   30.90    8.20
   0 -10   8   32.50    7.00
   5   9  -8   -1.10    4.00
  -5  -9   8    3.30    4.80
  -5  -9   8   -1.90    4.20
   4   9  -8   -2.50    3.30
  -4  -9   8    4.10    4.60
  -4  -9   8   -3.60    4.20
   3   9  -8   31.70    6.00
   3   9  -8   30.70    8.60
  -3  -9   8   37.40    6.40
  -3  -9   8   29.80    5.90
   2   9  -8   26.80    7.30
   2   9  -8   38.70    6.00
  -2  -9   8   30.10    6.20
  -2  -9   8   31.20    5.50
   1   9  -8   46.80    6.70
   1   9  -8   50.79    8.80
  -1  -9   8   60.39    7.50
   0   9  -8   -7.70    6.10
   0   9  -8   -1.10    3.30
   0  -9   8   -0.60    4.60
  -1   9  -8    1.40    5.90
  -1   9  -8   -2.60    3.80
   1  -9   8    0.40    4.40
  -2   9  -8   23.60    7.20
  -2   9  -8   33.30    6.40
   2  -9   8   28.50    6.80
   6   8  -8   -1.70    3.60
  -6  -8   8    1.40    4.80
  -6  -8   8    1.20    4.40
   5   8  -8   42.70    6.40
  -5  -8   8   45.50    6.90
  -5  -8   8   44.10    7.20
   4   8  -8   35.60    5.70
  -4  -8   8   31.70    5.80
  -4  -8   8   32.10    6.10
   3   8  -8  163.88   12.00
   3   8  -8  149.49   10.20
  -3  -8   8  138.59   10.50
  -3  -8   8  148.19   10.60
   2   8  -8   31.70    5.50
   2   8  -8   26.40    6.40
  -2  -8   8   25.70    5.10
  -2  -8   8   25.10    5.40
   1   8  -8    1.50    4.90
   1   8  -8    7.80    3.90
  -1  -8   8    2.20    3.90
  -1  -8   8    1.50    3.50
   0   8  -8    8.30    5.60
   0   8  -8   13.40    4.10
   0  -8   8    5.40    4.40
  -1   8  -8   23.70    6.90
  -1   8  -8   24.10    5.10
   1  -8   8   22.40    5.60
  -2   8  -8   49.60    8.70
  -2   8  -8   48.00    6.60
   2  -8   8   48.90    7.70
  -3   8  -8   30.20    6.10
  -3   8  -8   23.60    7.10
   3  -8   8   38.20    6.80
   7   7  -8   24.00    5.50
  -7  -7   8    8.80    5.40
   6   7  -8   -2.00    3.80
  -6  -7   8   -1.10    3.70
  -6  -7   8    4.10    5.10
   5   7  -8  143.59    9.80
  -5  -7   8  134.59   10.00
  -5  -7   8  125.39   10.70
   4   7  -8   61.69    7.00
  -4  -7   8   71.79    7.70
  -4  -7   8   50.99    6.90
   3   7  -8  183.88   12.70
   3   7  -8  176.88   10.80
  -3  -7   8  190.98   11.30
  -3  -7   8  176.48   11.10
   2   7  -8    7.00    3.60
   2   7  -8    6.80    4.80
  -2  -7   8    2.90    3.60
  -2  -7   8    7.60    3.70
   1   7  -8    5.40    4.60
   1   7  -8    1.20    3.10
  -1  -7   8    2.70    3.10
  -1  -7   8    5.30    4.10
   0   7  -8   20.00    4.50
   0   7  -8   21.60    5.90
   0  -7   8   30.80    5.40
   0  -7   8   26.80    4.20
  -1   7  -8   13.00    3.90
  -1   7  -8   10.10    5.50
   1  -7   8   11.40    4.80
  -2   7  -8   35.90    5.90
  -2   7  -8   28.60    6.50
   2  -7   8   48.60    6.80
  -3   7  -8   26.20    6.80
  -3   7  -8   42.80    6.30
   3  -7   8   40.90    6.50
  -4   7  -8    0.50    5.30
  -4   7  -8   -0.90    3.50
   4  -7   8    0.60    5.00
   7   6  -8   11.00    4.60
  -7  -6   8   19.90    5.20
   6   6  -8  140.89   10.30
   5   6  -8   15.20    4.40
  -5  -6   8   18.20    5.00
  -5  -6   8   14.50    4.50
   4   6  -8  314.87   16.10
   4   6  -8  315.37   15.20
  -4  -6   8  297.57   15.40
  -4  -6   8  314.57   15.60
   3   6  -8   14.00    3.90
   3   6  -8    5.80    4.30
  -3  -6   8    8.70    3.80
  -3  -6   8   16.30    4.20
   2   6  -8    4.50    3.10
   2   6  -8    4.00    4.20
  -2  -6   8    7.50    3.80
  -2  -6   8    4.80    3.10
   1   6  -8  338.37   18.20
   1   6  -8  343.17   15.80
  -1  -6   8  340.97   16.00
  -1  -6   8  332.57   15.30
   0   6  -8   35.70    5.00
   0   6  -8   27.30    6.00
   0  -6   8   35.50    5.00
   0  -6   8   23.90    3.90
  -1   6  -8   78.59    7.00
  -1   6  -8  100.89    9.50
   1  -6   8   90.09    8.10
  -2   6  -8   46.10    7.40
  -2   6  -8   43.00    5.80
   2  -6   8   46.10    6.30
  -3   6  -8    5.00    4.80
  -3   6  -8    9.10    3.90
   3  -6   8    6.60    4.30
  -4   6  -8    2.60    4.80
  -4   6  -8   -2.50    3.20
   4  -6   8   -2.70    4.40
  -5   6  -8   24.40    5.70
  -5   6  -8   29.90    8.10
   5  -6   8   19.50    5.60
   8   5  -8   31.60    6.20
  -8  -5   8   14.40    5.10
   7   5  -8   34.60    6.00
  -7  -5   8   40.50    6.40
   6   5  -8   14.80    4.50
  -6  -5   8   13.00    4.10
   5   5  -8   37.80    5.70
   5   5  -8   23.40    4.70
   4   5  -8    3.10    3.40
   4   5  -8    3.90    3.10
  -4  -5   8    2.10    3.00
   3   5  -8    9.00    6.20
   3   5  -8   14.00    3.50
  -3  -5   8   16.10    4.10
   2   5  -8  307.17   14.20
   2   5  -8  304.07   15.60
  -2  -5   8  312.37   14.10
  -2  -5   8  282.57   14.20
   1   5  -8   22.80    4.10
   1   5  -8   27.90    5.50
  -1  -5   8    9.30    3.40
  -1  -5   8   18.20    3.40
   0   5  -8  195.98   10.70
   0   5  -8  196.58   12.50
   0  -5   8  209.48    9.80
   0  -5   8  208.08   11.20
  -1   5  -8   19.90    5.50
  -1   5  -8   14.30    3.60
   1  -5   8   14.60    2.70
   1  -5   8   12.80    3.80
  -2   5  -8   59.79    6.20
  -2   5  -8   61.39    8.00
   2  -5   8   61.49    6.40
  -3   5  -8   32.30    5.30
  -3   5  -8   29.70    6.50
   3  -5   8   32.70    5.50
  -4   5  -8   44.30    5.80
  -4   5  -8   19.50    6.10
   4  -5   8   27.90    5.60
  -5   5  -8   38.80    7.80
  -5   5  -8   39.50    6.00
   5  -5   8   25.00    5.70
  -6   5  -8   20.70    6.60
  -6   5  -8   14.50    4.50
   6  -5   8   30.30    6.50
   8   4  -8   10.10    5.00
  -8  -4   8   21.70    5.40
   7   4  -8   47.50    6.50
  -7  -4   8   31.00    5.60
   6   4  -8    0.20    3.50
  -6  -4   8    2.40    3.30
   5   4  -8   13.40    3.80
   5   4  -8    8.10    3.60
  -5  -4   8    8.70    3.40
   4   4  -8    3.70    2.70
   4   4  -8    0.70    4.50
   3   4  -8    9.60    3.90
   3   4  -8   12.40    3.30
  -3  -4   8   11.20    3.40
   2   4  -8   77.39    6.10
   2   4  -8   74.89    6.90
  -2  -4   8   73.99    6.00
   1   4  -8   97.39    6.70
   1   4  -8   85.29    7.60
  -1  -4   8  113.59    6.60
  -1  -4   8   95.69    6.80
   0   4  -8   22.30    3.80
   0   4  -8   18.20    4.40
   0  -4   8   21.10    2.90
   0  -4   8   20.30    3.90
  -1   4  -8    9.30    2.80
  -1   4  -8    2.10    3.20
   1  -4   8    4.30    2.00
   1  -4   8    6.20    3.10
  -2   4  -8   40.30    4.90
  -2   4  -8   45.80    6.80
   2  -4   8   34.70    4.80
  -3   4  -8   -1.90    2.50
  -3   4  -8   -4.20    4.20
   3  -4   8    3.80    3.20
  -4   4  -8  153.18   11.70
  -4   4  -8  160.68    9.60
   4  -4   8  151.78   10.10
  -5   4  -8    4.20    3.70
  -5   4  -8    9.80    5.70
   5  -4   8    0.10    4.20
  -6   4  -8   10.90    5.80
  -6   4  -8   13.80    4.50
   6  -4   8    8.10    4.60
   8   3  -8   20.50    5.10
  -8  -3   8   27.70    5.50
   7   3  -8    9.40    4.10
  -7  -3   8    7.80    3.80
   6   3  -8    1.80    3.00
  -6  -3   8    3.20    3.10
   5   3  -8   59.89    6.00
   5   3  -8   52.59    5.80
  -5  -3   8   68.09    6.30
   4   3  -8   12.40    3.20
   4   3  -8    6.70    3.20
  -4  -3   8    8.40    3.10
   3   3  -8   83.89    6.20
   3   3  -8   86.19    6.60
  -3  -3   8   87.59    6.30
   2   3  -8   70.99    5.40
   2   3  -8   75.39    6.80
  -2  -3   8   71.39    5.60
   1   3  -8  235.18   12.90
   1   3  -8  244.58   11.20
  -1  -3   8  229.98   11.30
   0   3  -8    2.30    3.90
   0   3  -8    9.90    2.70
   0  -3   8   12.10    2.90
   0  -3   8    6.50    2.10
  -1   3  -8   -1.10    2.80
  -1   3  -8    1.40    1.90
   1  -3   8    2.50    2.60
   1  -3   8   -0.50    1.50
  -2   3  -8   65.99    6.60
  -2   3  -8   76.29    5.80
   2  -3   8   78.69    6.20
  -3   3  -8    3.00    2.70
  -3   3  -8    4.50    3.40
   3  -3   8    0.20    2.70
  -4   3  -8   36.80    6.30
  -4   3  -8   39.10    5.00
   4  -3   8   33.00    5.00
  -5   3  -8   15.30    5.40
  -5   3  -8   13.70    3.70
   5  -3   8   13.50    4.50
  -6   3  -8    5.00    3.60
  -6   3  -8    0.90    4.30
   6  -3   8    4.00    4.00
  -7   3  -8    3.50    3.90
  -7   3  -8    9.40    5.40
   7  -3   8    3.70    4.60
   8   2  -8   23.10    5.90
   8   2  -8   19.90    5.20
  -8  -2   8   27.20    5.30
   7   2  -8    5.10    3.70
  -7  -2   8    5.90    3.50
   6   2  -8   -2.30    2.90
  -6  -2   8   -3.60    2.90
   5   2  -8   55.79    5.80
   5   2  -8   50.89    4.90
  -5  -2   8   60.09    5.90
   4   2  -8   14.80    3.40
   4   2  -8   14.60    3.10
  -4  -2   8   15.40    3.30
   3   2  -8   66.49    5.90
   3   2  -8   70.09    5.20
  -3  -2   8   68.59    5.30
   2   2  -8   55.09    4.50
   2   2  -8   56.19    5.20
  -2  -2   8   57.79    4.90
   1   2  -8    1.50    1.90
   1   2  -8    1.80    2.40
  -1  -2   8   -0.10    2.00
   0   2  -8  154.28    9.10
   0   2  -8  172.98    8.10
   0  -2   8  154.48    8.20
  -1   2  -8  120.59    7.90
  -1   2  -8  121.69    6.40
   1  -2   8  101.69    5.20
   1  -2   8  107.39    6.60
  -2   2  -8  114.79    6.50
  -2   2  -8   97.79    8.10
   2  -2   8  100.89    6.50
  -3   2  -8   50.19    5.10
  -3   2  -8   51.49    6.60
   3  -2   8   51.49    5.20
  -4   2  -8    8.00    3.90
  -4   2  -8    1.90    2.60
   4  -2   8    4.20    3.00
  -5   2  -8   15.60    4.90
  -5   2  -8    8.70    3.30
   5  -2   8    5.00    3.60
  -6   2  -8   36.90    5.30
  -6   2  -8   24.70    5.90
   6  -2   8   19.00    4.50
  -7   2  -8   11.80    5.50
  -7   2  -8   19.10    4.50
   7  -2   8   20.20    5.10
   8   1  -8   21.60    5.00
   8   1  -8   12.90    5.60
  -8  -1   8   13.00    4.70
   7   1  -8    1.80    3.40
   7   1  -8    4.10    4.40
  -7  -1   8    7.90    3.80
   6   1  -8   57.79    6.00
  -6  -1   8   40.90    5.30
   5   1  -8   94.79    6.80
   5   1  -8  102.69    6.00
  -5  -1   8   90.19    6.80
   4   1  -8  163.58    7.90
   4   1  -8  170.48    8.80
  -4  -1   8  168.28    8.70
   3   1  -8   17.50    2.90
   3   1  -8   19.40    3.10
  -3  -1   8   15.20    3.00
   2   1  -8   23.50    3.10
   2   1  -8   23.80    3.40
  -2  -1   8   24.10    3.10
   1   1  -8  105.49    6.80
   1   1  -8  117.79    6.20
  -1  -1   8  120.59    6.20
  -1  -1   8  105.19    6.20
   0   1  -8  255.57   12.40
   0   1  -8  270.07   11.40
   0  -1   8  273.97   11.50
   0  -1   8  271.17   11.50
  -1   1  -8  229.78   11.50
  -1   1  -8  220.18    9.80
   1  -1   8  221.98   10.10
   1  -1   8  223.48   10.20
  -2   1  -8   27.10    3.30
  -2   1  -8   28.20    4.50
   2  -1   8   31.80    3.70
  -3   1  -8   82.89    5.50
  -3   1  -8   76.69    6.60
   3  -1   8   82.79    5.90
  -4   1  -8   51.19    6.60
  -4   1  -8   57.29    5.00
   4  -1   8   54.99    5.40
  -5   1  -8   22.60    5.50
  -5   1  -8   31.20    4.40
   5  -1   8   15.90    4.10
  -6   1  -8    5.00    3.10
  -6   1  -8    8.30    4.50
   6  -1   8    2.10    3.60
  -7   1  -8    0.70    3.10
  -7   1  -8    5.00    4.60
   7  -1   8    8.00    3.80
  -8   1  -8    4.10    4.80
   8  -1   8    8.40    4.90
   8   0  -8   22.80    4.80
   8   0  -8   28.80    6.60
  -8   0   8   27.30    5.20
   7   0  -8   57.19    7.20
   7   0  -8   52.39    5.90
  -7   0   8   43.10    5.90
   6   0  -8  209.68   10.90
   6   0  -8  212.08   11.90
  -6   0   8  194.68   10.80
   5   0  -8  188.18    9.70
  -5   0   8  169.78    9.50
   4   0  -8  137.09    6.50
   4   0  -8  140.99    7.80
  -4   0   8  164.28    7.90
   3   0  -8  124.39    6.30
   3   0  -8  117.69    6.70
  -3   0   8  131.89    6.80
   2   0  -8   90.79    5.60
   2   0  -8   93.59    5.30
  -2   0   8   90.69    5.40
  -2   0   8   94.99    5.30
   1   0  -8    3.20    2.00
   1   0  -8    3.60    1.80
  -1   0   8    4.30    1.90
  -1   0   8    2.60    1.70
   0   0  -8  471.05   19.10
   0   0  -8  431.56   17.60
   0   0   8  473.65   17.80
   0   0   8  474.85   17.80
  -1   0  -8   38.90    4.60
  -1   0  -8   50.69    3.50
   1   0   8   41.50    3.60
   1   0   8   52.09    4.00
   1   0   8   48.10    3.20
  -2   0  -8  126.49    7.90
  -2   0  -8  128.39    6.50
   2   0   8  125.39    6.60
   2   0   8  122.19    6.60
  -3   0  -8   25.50    4.30
  -3   0  -8   32.60    3.40
   3   0   8   23.30    3.30
  -4   0  -8   23.30    3.30
  -4   0  -8   20.50    4.40
   4   0   8   18.80    3.50
  -5   0  -8  103.89    6.90
  -5   0  -8   93.59    8.10
   5   0   8  106.29    7.30
  -6   0  -8   45.30    6.60
  -6   0  -8   51.19    5.30
   6   0   8   40.40    5.40
  -7   0  -8   29.60    4.90
  -7   0  -8   22.00    5.70
   7   0   8   20.30    4.60
  -8   0  -8    0.40    4.60
   8   0   8    0.30    3.70
   8  -1  -8   15.80    6.10
  -8   1   8   25.90    5.20
   7  -1  -8   86.79    8.70
   7  -1  -8   81.19    7.20
  -7   1   8   85.49    7.70
   6  -1  -8   40.80    5.10
   6  -1  -8   27.50    5.20
  -6   1   8   35.40    4.70
   5  -1  -8    1.20    2.90
   5  -1  -8   -0.60    2.20
  -5   1   8   -2.30    2.30
   4  -1  -8   -0.30    1.90
  -4   1   8    2.20    2.20
   3  -1  -8    5.00    1.60
   3  -1  -8    3.90    1.90
  -3   1   8    7.70    2.00
  -3   1   8    4.20    1.90
   2  -1  -8    5.10    1.90
   2  -1  -8    3.30    1.80
  -2   1   8    5.80    1.70
  -2   1   8    6.30    1.80
   1  -1  -8  236.58    9.20
   1  -1  -8  225.78   10.10
  -1   1   8  217.98    9.30
  -1   1   8  207.08    9.20
   0  -1  -8   84.69    5.40
   0  -1  -8   77.89    4.10
   0   1   8   75.99    4.40
   0   1   8   67.69    4.20
  -1  -1  -8  350.16   15.30
  -1  -1  -8  345.97   13.60
   1   1   8  351.96   13.80
   1   1   8  335.47   13.80
   1   1   8  385.76   13.80
  -2  -1  -8   12.50    3.10
  -2  -1  -8    7.80    1.80
   2   1   8    5.80    1.80
   2   1   8    7.10    1.30
   2   1   8    9.00    1.90
  -3  -1  -8    3.10    1.60
  -3  -1  -8    0.10    2.20
   3   1   8    2.60    1.90
   3   1   8    3.60    1.90
  -4  -1  -8  262.07   11.50
  -4  -1  -8  270.27   13.40
   4   1   8  260.47   11.80
  -5  -1  -8   83.19    5.70
  -5  -1  -8   81.29    7.30
   5   1   8   78.59    6.20
  -6  -1  -8    1.40    2.50
  -6  -1  -8    0.70    3.40
   6   1   8    1.00    2.70
  -7  -1  -8    0.30    3.70
  -7  -1  -8    1.50    2.90
   7   1   8   -0.10    3.20
  -8  -1  -8    1.10    4.40
   8   1   8   -1.30    3.50
   8  -2  -8   64.19    8.30
  -8   2   8   59.49    7.20
   7  -2  -8   52.39    6.30
   7  -2  -8   57.49    7.50
  -7   2   8   53.79    6.40
   6  -2  -8   47.00    5.40
   6  -2  -8   47.20    6.50
  -6   2   8   47.40    5.50
   5  -2  -8    8.60    2.90
   5  -2  -8    3.60    3.40
  -5   2   8    5.40    2.80
   4  -2  -8   65.79    4.90
   4  -2  -8   64.19    5.80
  -4   2   8   62.69    4.90
   3  -2  -8   76.99    4.80
   3  -2  -8   74.39    4.00
  -3   2   8   84.69    5.00
  -3   2   8   86.69    4.80
   2  -2  -8  148.19    6.50
   2  -2  -8  123.89    6.50
  -2   2   8  146.19    6.50
  -2   2   8  147.89    6.60
  -2   2   8  134.69    6.50
   1  -2  -8  347.37   13.90
   1  -2  -8  406.66   15.10
  -1   2   8  357.46   14.00
   0  -2  -8   94.39    5.80
   0  -2  -8   92.99    4.40
   0   2   8   90.49    4.50
   0   2   8   98.59    4.50
  -1  -2  -8   80.99    5.70
  -1  -2  -8   86.59    4.10
   1   2   8   89.79    4.30
   1   2   8   83.19    4.20
   1   2   8   82.69    4.70
  -2  -2  -8   12.10    3.10
  -2  -2  -8   13.40    1.80
   2   2   8   12.10    1.80
   2   2   8   10.80    1.90
   2   2   8   11.30    1.70
  -3  -2  -8    0.90    2.20
  -3  -2  -8    2.90    1.50
   3   2   8    2.80    1.70
   3   2   8    1.00    1.00
   3   2   8    0.80    1.50
  -4  -2  -8  155.88    9.60
  -4  -2  -8  161.68    7.70
  -4  -2  -8  175.98    6.70
   4   2   8  157.28    8.00
   4   2   8  167.08    8.20
  -5  -2  -8   21.30    4.40
  -5  -2  -8   14.70    1.80
  -5  -2  -8   13.40    2.90
   5   2   8   14.10    3.10
  -6  -2  -8    0.80    2.30
  -6  -2  -8   -0.60    3.20
   6   2   8   -0.20    2.60
  -7  -2  -8   -1.20    3.60
  -7  -2  -8    3.20    2.70
   7   2   8    3.00    2.90
  -8  -2  -8    6.10    4.30
   8   2   8    7.10    4.10
  -9  -2  -8   16.30    6.10
   9   2   8    6.60    4.50
   8  -3  -8   19.50    5.80
  -8   3   8    5.30    4.30
   7  -3  -8   54.29    7.00
  -7   3   8   45.60    5.90
   6  -3  -8   11.70    4.20
   6  -3  -8   11.80    3.30
  -6   3   8    7.70    3.30
   5  -3  -8   21.30    4.30
   5  -3  -8   26.10    3.80
  -5   3   8   24.00    3.70
   4  -3  -8   94.79    5.80
   4  -3  -8   94.19    6.80
  -4   3   8   86.89    5.70
  -4   3   8   84.99    5.50
   3  -3  -8  323.77   12.80
  -3   3   8  314.97   12.80
  -3   3   8  292.67   11.80
  -3   3   8  330.97   12.80
   2  -3  -8    1.00    1.30
   2  -3  -8    0.50    1.40
  -2   3   8    1.50    1.20
  -2   3   8    2.20    1.30
  -2   3   8    1.50    1.40
   1  -3  -8  208.58    9.00
  -1   3   8  174.08    7.70
  -1   3   8  203.68    7.80
   0  -3  -8  288.07   12.20
   0  -3  -8  264.27   10.30
   0  -3  -8  299.67   10.30
   0   3   8  269.67   10.40
   0   3   8  283.67   10.40
  -1  -3  -8   41.30    2.30
  -1  -3  -8   41.50    4.10
   1   3   8   45.10    2.60
   1   3   8   47.70    2.50
  -2  -3  -8  166.18    8.70
  -2  -3  -8  153.78    7.10
   2   3   8  167.28    6.70
   2   3   8  152.08    7.10
   2   3   8  155.78    6.60
  -3  -3  -8  183.18    7.80
  -3  -3  -8  174.18    7.60
  -3  -3  -8  180.08    9.60
   3   3   8  187.68    7.80
   3   3   8  182.98    7.80
   3   3   8  181.78    7.90
  -4  -3  -8    2.80    2.70
  -4  -3  -8    1.50    1.50
  -4  -3  -8    4.20    1.60
   4   3   8    4.40    1.90
   4   3   8    2.90    1.80
  -5  -3  -8   21.90    4.30
  -5  -3  -8   16.10    2.80
  -5  -3  -8   16.60    2.30
   5   3   8   19.60    3.20
  -6  -3  -8   14.10    2.50
  -6  -3  -8   16.60    3.10
  -6  -3  -8   11.90    4.20
   6   3   8   14.40    3.30
  -7  -3  -8   13.20    4.60
  -7  -3  -8   11.90    3.40
   7   3   8   13.60    3.80
  -8  -3  -8   45.40    7.20
   8   3   8   39.20    5.50
  -9  -3  -8    6.90    5.20
   9   3   8   16.30    4.90
   8  -4  -8    5.30    4.80
  -8   4   8    3.90    3.90
   7  -4  -8    9.70    4.40
  -7   4   8   -0.50    3.30
   6  -4  -8    4.10    3.20
   6  -4  -8   -1.60    3.20
  -6   4   8    3.40    3.00
   5  -4  -8   61.69    5.40
   5  -4  -8   68.09    6.70
  -5   4   8   65.19    5.50
   4  -4  -8  144.39    8.80
   4  -4  -8  151.28    7.60
  -4   4   8  140.99    7.60
  -4   4   8  154.88    7.70
   3  -4  -8  131.39    7.80
   3  -4  -8  144.49    6.80
  -3   4   8  131.69    6.70
  -3   4   8  147.49    6.10
  -3   4   8  144.99    6.90
   2  -4  -8   79.09    4.30
  -2   4   8   99.19    4.80
  -2   4   8   77.69    4.40
  -2   4   8   87.29    4.40
   1  -4  -8   13.10    1.40
   1  -4  -8   10.30    2.30
  -1   4   8   12.30    1.50
  -1   4   8   12.70    1.50
   0  -4  -8  110.79    6.20
  -1  -4  -8  232.78   11.10
  -1  -4  -8  251.77   10.60
  -2  -4  -8  235.98    8.90
  -2  -4  -8  234.28   10.30
  -2  -4  -8  248.08   11.50
   2   4   8  245.78    9.10
   2   4   8  239.08    9.10
  -3  -4  -8  309.07   12.20
  -3  -4  -8  287.07   11.30
  -3  -4  -8  300.17   13.80
   3   4   8  287.07   11.50
   3   4   8  297.17   11.50
  -4  -4  -8    1.00    1.30
  -4  -4  -8   -0.70    1.60
  -4  -4  -8    5.50    2.90
   4   4   8    0.40    1.50
   4   4   8   -0.20    1.50
  -5  -4  -8   60.29    4.40
  -5  -4  -8   64.89    4.60
  -5  -4  -8   65.59    6.40
   5   4   8   67.79    5.00
   5   4   8   67.39    4.80
  -6  -4  -8   10.50    4.00
  -6  -4  -8    9.60    2.70
  -6  -4  -8    9.70    2.60
   6   4   8    9.40    3.00
  -7  -4  -8   44.10    6.00
  -7  -4  -8   36.50    6.20
   7   4   8   32.30    4.70
  -8  -4  -8   28.00    5.90
   8   4   8   30.60    5.00
  -9  -4  -8   17.30    5.70
   9   4   8   26.90    5.30
   8  -5  -8   -2.70    4.30
  -8   5   8    1.20    4.20
   7  -5  -8   16.70    5.00
  -7   5   8   13.00    4.40
   6  -5  -8   28.80    5.10
  -6   5   8   31.10    4.80
   5  -5  -8  154.38    9.60
   5  -5  -8  159.18    8.60
  -5   5   8  158.28    8.80
   4  -5  -8   47.10    5.50
   4  -5  -8   37.60    3.90
  -4   5   8   27.80    3.60
   3  -5  -8   77.89    4.70
   3  -5  -8   80.49    6.10
  -3   5   8   78.19    4.90
  -3   5   8   77.29    4.70
  -3   5   8   78.59    4.30
   2  -5  -8   38.90    2.90
  -2   5   8   35.70    2.90
  -2   5   8   38.20    3.40
  -2   5   8   42.20    2.90
   1  -5  -8   46.00    2.40
  -1   5   8   45.20    2.50
  -1   5   8   38.50    2.50
   0  -5  -8  590.44   22.80
   0  -5  -8  573.14   22.60
  -1  -5  -8  470.55   18.90
  -1  -5  -8  487.55   19.50
  -2  -5  -8  620.34   24.20
  -2  -5  -8  600.84   23.00
   2   5   8  591.94   21.30
   2   5   8  606.04   21.30
  -3  -5  -8  165.48    7.90
  -3  -5  -8  162.68    9.10
   3   5   8  157.58    6.70
   3   5   8  159.38    6.70
  -4  -5  -8   47.30    3.30
  -4  -5  -8   49.70    4.20
  -4  -5  -8   50.59    5.90
   4   5   8   50.39    3.60
   4   5   8   42.70    3.60
  -5  -5  -8   78.49    5.40
  -5  -5  -8   78.59    5.00
  -5  -5  -8   78.79    7.00
   5   5   8   76.79    5.30
   5   5   8   93.39    5.50
  -6  -5  -8   13.20    4.20
  -6  -5  -8   18.60    3.10
  -6  -5  -8   18.90    3.50
   6   5   8   13.70    3.20
  -7  -5  -8   48.20    4.80
  -7  -5  -8   46.10    6.80
   7   5   8   50.49    5.40
  -8  -5  -8   29.00    6.10
   8   5   8   25.20    4.50
  -9  -5  -8   11.00    5.50
   9   5   8   -0.50    3.60
   7  -6  -8   36.80    6.20
  -7   6   8   37.40    5.80
   6  -6  -8   85.59    8.10
  -6   6   8   87.79    7.00
   5  -6  -8    6.50    3.50
  -5   6   8   13.10    3.20
   4  -6  -8   11.10    3.50
   4  -6  -8    9.40    2.70
  -4   6   8    6.60    2.50
   3  -6  -8   84.29    6.40
   3  -6  -8   87.99    5.10
  -3   6   8   86.69    5.20
  -3   6   8   76.99    4.90
  -3   6   8   95.69    5.20
   2  -6  -8  213.48    9.00
  -2   6   8  227.28    9.10
  -2   6   8  217.38    9.10
   1  -6  -8 1220.48   39.30
  -1   6   8 1103.39   39.40
  -1   6   8 1038.30   39.30
   0  -6  -8  163.68    8.50
  -1  -6  -8  481.85   19.30
  -1  -6  -8  479.75   19.70
  -2  -6  -8  369.46   16.00
  -2  -6  -8  354.66   15.10
  -3  -6  -8   18.20    4.00
  -3  -6  -8   23.70    1.90
  -3  -6  -8   19.10    3.10
   3   6   8   23.40    2.00
   3   6   8   21.50    2.10
  -4  -6  -8  195.88    9.50
  -4  -6  -8  179.68   10.70
  -4  -6  -8  203.48    8.30
   4   6   8  193.58    8.40
   4   6   8  191.08    8.30
  -5  -6  -8  295.87   13.10
  -5  -6  -8  292.67   14.80
  -5  -6  -8  285.37   12.00
   5   6   8  298.77   12.40
   5   6   8  285.97   12.30
  -6  -6  -8   11.40    4.30
  -6  -6  -8    8.10    2.40
  -6  -6  -8    7.80    2.90
   6   6   8    8.10    2.60
  -7  -6  -8  115.79    7.70
  -7  -6  -8  126.89    9.90
   7   6   8  118.99    7.90
  -8  -6  -8   -2.90    3.90
   8   6   8   -2.80    2.80
  -9  -6  -8    3.20    4.90
   9   6   8    0.00    3.60
   7  -7  -8   57.99    7.40
  -7   7   8   61.29    6.90
   6  -7  -8   27.00    5.20
  -6   7   8   24.00    4.70
   5  -7  -8    0.70    3.10
  -5   7   8    4.50    2.90
   4  -7  -8    1.90    3.00
  -4   7   8    5.10    2.50
   3  -7  -8   26.50    4.20
   3  -7  -8   33.50    3.40
  -3   7   8   36.40    3.60
   2  -7  -8   95.59    6.40
   2  -7  -8  103.69    5.20
  -2   7   8  103.69    5.30
  -2   7   8   99.09    5.20
   1  -7  -8  191.68    8.30
   1  -7  -8  220.98   11.00
  -1   7   8  225.08    8.60
  -1   7   8  224.48    8.60
   0  -7  -8   79.29    6.00
   0   7   8   86.29    3.70
   0   7   8   86.29    3.70
  -1  -7  -8   20.90    3.30
  -2  -7  -8    3.40    2.30
   2   7   8    1.60    0.80
   2   7   8   -0.20    0.70
  -3  -7  -8  170.38   10.00
  -3  -7  -8  183.38    7.20
  -3  -7  -8  170.08    9.10
   3   7   8  186.08    7.30
   3   7   8  183.08    7.40
  -4  -7  -8  327.47   14.40
  -4  -7  -8  324.57   12.60
  -4  -7  -8  313.27   15.40
   4   7   8  323.57   12.60
   4   7   8  322.37   12.80
  -5  -7  -8  173.48    8.00
  -5  -7  -8  175.78    9.50
  -5  -7  -8  168.78   10.60
   5   7   8  181.68    8.50
  -6  -7  -8   12.40    4.40
  -6  -7  -8   20.80    3.90
   6   7   8   18.70    3.20
  -7  -7  -8    8.30    4.60
  -7  -7  -8    7.90    3.40
   7   7   8    2.60    2.70
  -8  -7  -8    4.40    3.40
  -8  -7  -8    6.50    4.70
   8   7   8    3.00    3.20
  -9  -7  -8   42.70    7.30
   9   7   8   29.40    5.20
   7  -8  -8   12.50    5.20
   6  -8  -8    7.00    4.20
  -6   8   8    3.30    3.50
   5  -8  -8   29.10    5.10
  -5   8   8   26.80    4.40
   4  -8  -8    5.70    3.30
  -4   8   8    2.70    2.50
   3  -8  -8  211.78   11.00
  -3   8   8  207.18    9.80
   2  -8  -8  275.57   12.40
   2  -8  -8  270.47   11.00
  -2   8   8  268.57   11.20
  -2   8   8  256.97   11.80
   1  -8  -8  335.57   15.60
  -1   8   8  350.56   13.30
  -1   8   8  344.67   13.30
   0  -8  -8  174.28    7.10
   0  -8  -8  166.48    9.60
   0   8   8  178.48    7.30
   0   8   8  196.78    7.30
  -1  -8  -8   63.39    5.50
   1   8   8   62.79    3.20
   1   8   8   69.29    3.20
  -2  -8  -8  306.47   14.10
  -2  -8  -8  285.07   11.10
   2   8   8  312.47   11.50
   2   8   8  317.37   11.40
  -3  -8  -8  139.89    6.00
  -3  -8  -8  145.39    8.50
   3   8   8  138.19    6.10
   3   8   8  149.09    6.30
  -4  -8  -8  207.18   10.60
  -4  -8  -8  195.48    8.40
   4   8   8  200.48    8.60
   4   8   8  204.98    8.80
  -5  -8  -8    7.10    3.00
   5   8   8    5.30    2.20
  -6  -8  -8   -0.20    2.90
   6   8   8    2.00    2.30
  -7  -8  -8   15.60    4.20
   7   8   8   16.50    3.70
  -8  -8  -8    4.50    3.60
   8   8   8    3.50    3.20
   9   8   8   15.50    4.60
   6  -9  -8    1.50    3.90
  -6   9   8    1.90    3.50
   5  -9  -8    4.70    3.60
  -5   9   8    6.10    3.20
   4  -9  -8   19.90    4.30
  -4   9   8   14.60    3.50
   3  -9  -8  153.38    9.10
  -3   9   8  136.69    7.70
   2  -9  -8  176.08    9.30
  -2   9   8  175.88    8.30
   1  -9  -8   44.40    3.90
   1  -9  -8   41.20    5.30
  -1   9   8   41.00    3.40
   0  -9  -8  172.18    9.80
   0   9   8  168.08    7.30
   0   9   8  167.08    7.30
  -1  -9  -8   82.09    4.00
  -1  -9  -8   87.99    6.70
   1   9   8   87.99    4.30
   1   9   8   88.99    4.30
  -2  -9  -8   80.69    3.90
  -2  -9  -8   84.29    6.60
   2   9   8   84.69    4.20
   2   9   8   86.39    4.20
  -3  -9  -8   11.40    3.30
   3   9   8    9.10    1.80
   3   9   8    6.80    1.70
  -4  -9  -8   47.40    5.70
   4   9   8   49.50    3.90
  -5  -9  -8  211.38   11.60
   5   9   8  226.48   10.10
  -6  -9  -8  133.59    9.20
   6   9   8  133.19    7.80
  -7  -9  -8  146.49    9.90
   7   9   8  151.18    8.70
  -8  -9  -8   22.30    4.90
   8   9   8   13.50    4.00
  -9  -9  -8   17.40    5.00
   9   9   8   16.00    4.40
   5 -10  -8    3.70    3.80
  -5  10   8   10.60    3.80
   4 -10  -8    0.40    3.00
  -4  10   8    0.80    2.80
   3 -10  -8   26.00    4.60
  -3  10   8   32.20    4.10
   2 -10  -8    0.40    2.30
   2 -10  -8    5.00    3.60
  -2  10   8    3.30    2.20
   1 -10  -8   54.59    6.30
  -1  10   8   56.39    4.20
   0 -10  -8   83.19    7.10
   0  10   8   86.79    4.80
  -1 -10  -8  216.08   11.70
   1  10   8  215.38    9.00
  -2 -10  -8   81.09    6.80
   2  10   8   77.39    4.50
  -3 -10  -8  126.99    8.60
   3  10   8  106.79    5.80
  -4 -10  -8   56.69    6.30
   4  10   8   53.79    4.30
  -5 -10  -8    2.50    3.00
   5  10   8    1.60    2.20
  -6 -10  -8   69.59    7.50
   6  10   8   59.89    5.60
  -7 -10  -8   75.79    8.10
   7  10   8   82.49    6.80
  -8 -10  -8   12.40    4.90
   8  10   8   12.80    4.00
   5 -11  -8    3.50    4.20
  -5  11   8    7.80    4.10
   4 -11  -8   57.09    6.60
  -4  11   8   55.99    6.00
   3 -11  -8   88.29    7.40
  -3  11   8   82.19    6.40
   2 -11  -8   -1.70    3.60
   2 -11  -8    5.30    2.80
  -2  11   8    4.00    2.50
   1 -11  -8  388.36   18.30
  -1  11   8  379.36   15.70
   0 -11  -8   21.00    4.50
   0  11   8   30.30    3.30
  -1 -11  -8  193.28   11.20
   1  11   8  176.58    8.30
  -2 -11  -8    2.00    3.00
   2  11   8    6.80    2.00
  -3 -11  -8   20.30    4.50
   3  11   8   14.70    2.70
  -4 -11  -8    4.10    3.40
   4  11   8    1.80    1.90
  -5 -11  -8   62.29    7.10
   5  11   8   56.39    5.30
  -6 -11  -8  104.69    9.10
   6  11   8  103.59    7.20
  -7 -11  -8  159.28   11.20
   7  11   8  150.68    9.40
  -8 -11  -8    4.00    4.60
   8  11   8    1.70    3.00
   4 -12  -8   21.50    5.10
  -4  12   8   15.90    4.10
   3 -12  -8    6.70    3.50
  -3  12   8    3.70    3.20
   2 -12  -8   98.19    9.70
   2 -12  -8  102.09    7.30
  -2  12   8  109.29    7.00
   1 -12  -8   48.70    6.70
  -1  12   8   41.40    4.50
   0 -12  -8  145.29   10.10
   0  12   8  141.49    7.60
  -1 -12  -8   -2.10    2.90
   1  12   8    1.30    1.90
  -2 -12  -8   30.10    5.60
   2  12   8   23.90    3.20
  -3 -12  -8  122.29    9.20
   3  12   8  117.69    6.80
  -4 -12  -8   22.50    5.20
   4  12   8   29.10    3.80
  -5 -12  -8  141.39   10.50
   5  12   8  148.49    8.20
  -6 -12  -8   43.70    6.70
   6  12   8   39.50    5.00
  -7 -12  -8   35.90    6.60
   7  12   8   23.60    4.50
  -8 -12  -8    4.30    4.70
   8  12   8    4.90    3.90
  -3  13   8   67.29    6.70
   2 -13  -8   85.89    9.40
  -2  13   8  110.59    7.40
   1 -13  -8  167.68   11.60
  -1  13   8  154.58    8.80
   0 -13  -8   28.10    5.80
   0  13   8   32.40    4.20
  -1 -13  -8    9.30    4.30
   1  13   8    9.70    2.70
  -2 -13  -8   47.10    6.80
   2  13   8   55.89    4.90
  -3 -13  -8   48.10    7.00
   3  13   8   54.99    5.10
  -4 -13  -8  124.39   10.00
   4  13   8  132.49    7.70
  -5 -13  -8   20.20    5.30
   5  13   8   18.30    3.60
  -6 -13  -8   13.90    5.00
   6  13   8    6.30    3.10
  -7 -13  -8   10.90    5.40
   7  13   8    5.20    3.50
   2 -14  -8   49.99    7.80
  -2  14   8   55.79    6.10
   1 -14  -8   11.20    5.20
  -1  14   8   10.60    3.50
   0 -14  -8   10.40    4.90
   0  14   8    3.20    2.70
  -1 -14  -8   15.20    5.10
   1  14   8   16.70    3.50
  -2 -14  -8   51.09    7.70
   2  14   8   56.39    5.30
  -3 -14  -8   64.69    8.10
   3  14   8   52.89    5.40
  -4 -14  -8  108.19   10.20
   4  14   8  114.19    7.60
  -5 -14  -8    1.10    4.10
   5  14   8    4.70    2.90
  -6 -14  -8   -3.70    4.00
   6  14   8    7.90    3.40
   0 -15  -8    3.50    4.50
   0  15   8   -2.70    2.70
  -1 -15  -8   26.00    6.00
   1  15   8   30.60    4.40
  -2 -15  -8   26.70    6.50
   2  15   8   33.20    4.60
  -3 -15  -8   39.20    7.00
   3  15   8   38.30    5.00
  -4 -15  -8   10.60    5.30
   4  15   8   11.70    3.50
  -5 -15  -8    3.90    4.70
   5  15   8   -0.20    3.10
   3   9  -9   -1.30    3.70
   3   9  -9    9.50    6.00
  -3  -9   9   -1.60    4.00
  -3  -9   9    2.30    4.50
   2   9  -9    4.00    6.30
   2   9  -9    4.40    4.30
  -2  -9   9    8.20    5.30
   1   9  -9   60.49   10.30
   1   9  -9   74.99    8.50
  -1  -9   9   80.59    8.90
   0   9  -9   10.20    6.90
   0   9  -9   18.50    5.00
   0  -9   9    2.30    5.30
   5   8  -9   19.90    6.50
   5   8  -9    5.60    4.70
  -5  -8   9    1.50    4.80
  -5  -8   9   12.00    5.30
   4   8  -9   22.00    7.80
   4   8  -9    2.30    3.60
  -4  -8   9   -3.00    4.00
  -4  -8   9    5.20    4.40
   3   8  -9   17.80    6.70
   3   8  -9   19.30    4.90
  -3  -8   9   14.70    4.90
  -3  -8   9   12.30    4.90
   2   8  -9   38.10    6.10
   2   8  -9   30.60    7.40
  -2  -8   9   44.90    6.60
  -2  -8   9   35.30    5.70
   1   8  -9   69.59    9.60
   1   8  -9   61.99    7.40
  -1  -8   9   79.49    8.30
   0   8  -9    3.20    3.80
   0   8  -9    3.50    5.80
   0  -8   9   15.30    5.30
  -1   8  -9    3.00    4.10
  -1   8  -9    7.50    7.50
   1  -8   9    3.70    4.60
  -2   8  -9   15.70    5.00
  -2   8  -9   15.10    6.80
   2  -8   9   24.60    6.60
   6   7  -9    5.60    4.20
  -6  -7   9   -4.00    4.40
  -6  -7   9   -1.30    4.00
   5   7  -9   34.00    8.00
   5   7  -9   14.80    4.80
  -5  -7   9   11.90    5.40
  -5  -7   9   12.10    5.00
   4   7  -9   72.89    8.00
   4   7  -9   71.69    8.90
  -4  -7   9   68.19    7.90
  -4  -7   9   70.89    7.90
   3   7  -9   20.30    6.20
   3   7  -9   15.30    4.20
  -3  -7   9   13.40    4.50
  -3  -7   9    5.70    4.60
   2   7  -9  146.99   12.30
   2   7  -9  160.98   10.40
  -2  -7   9  165.78   10.40
  -2  -7   9  135.59    9.60
   1   7  -9    7.60    3.80
   1   7  -9    1.30    5.40
  -1  -7   9    7.70    4.40
  -1  -7   9    6.60    3.40
   0   7  -9   24.10    6.80
   0   7  -9   25.00    5.00
   0  -7   9   20.40    5.20
  -1   7  -9    8.80    4.20
  -1   7  -9    8.90    5.70
   1  -7   9    9.30    5.00
  -2   7  -9   -2.70    3.60
  -2   7  -9    0.00    4.90
   2  -7   9    5.40    5.00
  -3   7  -9   28.40    7.80
  -3   7  -9   38.30    6.50
   3  -7   9   37.70    6.70
   7   6  -9    0.50    4.10
   6   6  -9   74.29    8.30
  -6  -6   9   89.19    8.60
   5   6  -9   -0.60    3.50
   5   6  -9    5.50    4.50
  -5  -6   9    0.50    4.00
  -5  -6   9    4.90    4.00
   4   6  -9  295.67   15.20
   4   6  -9  308.97   16.90
  -4  -6   9  298.17   15.70
  -4  -6   9  312.17   15.60
   3   6  -9    3.70    5.00
   3   6  -9    7.70    3.50
  -3  -6   9   -2.10    3.30
  -3  -6   9   -1.60    3.30
   2   6  -9  182.48   12.80
   2   6  -9  186.18   11.20
  -2  -6   9  190.38   10.80
  -2  -6   9  192.68   11.60
   1   6  -9   80.79    9.60
   1   6  -9   94.89    7.50
  -1  -6   9   78.69    7.10
  -1  -6   9   88.89    7.70
   0   6  -9   -3.70    2.80
   0   6  -9    0.10    4.60
   0  -6   9   -2.00    3.50
   0  -6   9    0.90    3.00
  -1   6  -9   56.49    8.60
  -1   6  -9   46.60    6.00
   1  -6   9   53.09    6.80
  -2   6  -9   43.40    6.00
  -2   6  -9   32.10    7.10
   2  -6   9   47.10    6.60
  -3   6  -9   23.20    5.00
  -3   6  -9   12.30    5.80
   3  -6   9   21.40    5.50
  -4   6  -9   15.90    5.00
  -4   6  -9   15.90    7.10
   4  -6   9   12.00    5.30
   7   5  -9    6.10    4.10
  -7  -5   9    7.40    4.50
   6   5  -9   42.20    6.20
   5   5  -9   56.79    6.80
   5   5  -9   57.39    7.30
  -5  -5   9   67.69    7.00
   4   5  -9   44.30    6.50
   4   5  -9   39.00    5.50
  -4  -5   9   41.90    5.80
   3   5  -9  192.78   12.00
   3   5  -9  167.08   10.10
  -3  -5   9  159.98   10.10
   2   5  -9   89.69    9.30
   2   5  -9   61.89    6.30
  -2  -5   9   60.89    6.60
  -2  -5   9   68.59    6.40
   1   5  -9    6.10    3.20
   1   5  -9    0.10    4.40
  -1  -5   9    2.80    3.20
  -1  -5   9    5.50    2.90
   0   5  -9  276.07   15.60
   0   5  -9  268.57   13.40
   0  -5   9  251.47   12.00
   0  -5   9  282.97   13.60
  -1   5  -9    3.10    2.90
  -1   5  -9   10.80    4.90
   1  -5   9    8.80    4.00
  -2   5  -9  111.89   10.30
   2  -5   9  121.89    8.90
  -3   5  -9    0.00    5.20
  -3   5  -9   -0.20    3.00
   3  -5   9    4.00    3.90
  -4   5  -9    0.60    4.50
  -4   5  -9   -1.30    3.20
   4  -5   9    1.70    4.30
  -5   5  -9   21.40    7.40
  -5   5  -9   42.50    6.50
   5  -5   9   19.60    5.50
   7   4  -9   26.40    5.60
  -7  -4   9   26.20    5.30
   6   4  -9   11.00    4.30
  -6  -4   9   15.80    4.40
   5   4  -9    6.90    4.40
   5   4  -9   10.20    3.90
   4   4  -9   16.70    4.50
   4   4  -9   19.30    4.10
  -4  -4   9   25.00    4.40
   3   4  -9    8.10    6.70
   3   4  -9    2.80    2.70
  -3  -4   9   -2.00    3.00
   2   4  -9  143.69   10.00
   2   4  -9  134.89    8.20
  -2  -4   9  129.59    8.40
   1   4  -9  192.18   11.90
   1   4  -9  186.18   10.30
  -1  -4   9  211.08   10.10
  -1  -4   9  192.08   10.40
   0   4  -9   50.39    5.50
   0   4  -9   45.20    6.90
   0  -4   9   45.10    4.40
   0  -4   9   48.60    5.60
  -1   4  -9   52.99    7.50
  -1   4  -9   55.69    5.60
   1  -4   9   51.29    5.90
   1  -4   9   44.80    4.10
  -2   4  -9   -5.60    3.50
  -2   4  -9    4.10    3.00
   2  -4   9   -1.40    3.10
  -3   4  -9    1.80    3.00
  -3   4  -9    2.20    4.40
   3  -4   9    4.70    3.50
  -4   4  -9   69.89    6.90
  -4   4  -9   49.99    8.60
   4  -4   9   62.39    7.30
  -5   4  -9   27.20    5.20
  -5   4  -9   21.70    6.30
   5  -4   9   12.70    4.90
  -6   4  -9   24.90    5.40
  -6   4  -9   22.60    6.70
   6  -4   9   22.80    5.80
   8   3  -9   24.70    7.10
  -8  -3   9   17.40    5.10
   7   3  -9   26.70    5.50
  -7  -3   9   30.20    5.30
   6   3  -9    7.40    3.70
  -6  -3   9   10.90    3.90
   5   3  -9   -0.80    2.90
   5   3  -9    3.30    6.40
  -5  -3   9   -1.30    2.90
   4   3  -9    0.80    2.60
   4   3  -9    4.20    4.70
   3   3  -9    0.60    2.50
   3   3  -9    0.00    2.90
  -3  -3   9   -0.60    2.60
   2   3  -9  192.98    9.90
   2   3  -9  185.98   10.80
  -2  -3   9  181.78    9.80
   1   3  -9  354.36   15.40
   1   3  -9  363.06   16.80
  -1  -3   9  334.27   15.40
   0   3  -9   20.90    4.70
   0   3  -9   29.40    4.10
   0  -3   9   29.90    3.50
   0  -3   9   23.80    4.00
  -1   3  -9   30.10    5.40
  -1   3  -9   35.00    4.10
   1  -3   9   34.60    4.70
   1  -3   9   31.20    3.10
  -2   3  -9    9.80    3.00
  -2   3  -9   11.40    4.20
   2  -3   9    8.70    3.50
  -3   3  -9  -11.30    4.30
  -3   3  -9   -2.70    2.60
   3  -3   9    0.20    3.00
  -4   3  -9  193.88   10.60
  -4   3  -9  189.28   13.00
   4  -3   9  171.18   10.70
  -5   3  -9   18.70    4.20
  -5   3  -9   20.00    6.10
   5  -3   9   20.00    5.00
  -6   3  -9    7.50    5.60
  -6   3  -9    5.20    3.90
   6  -3   9   10.70    4.70
   7  -3   9   -1.00    4.60
  -8  -2   9   19.00    5.10
   7   2  -9   38.10    5.70
  -7  -2   9   38.40    5.80
   6   2  -9    2.40    3.20
  -6  -2   9    2.10    3.30
   5   2  -9   10.50    3.40
  -5  -2   9    0.80    2.90
   4   2  -9   76.69    6.10
   4   2  -9   74.29    5.90
  -4  -2   9   73.89    6.30
   3   2  -9   69.59    5.60
   3   2  -9   72.49    5.80
  -3  -2   9   62.99    5.60
   2   2  -9  139.19    8.50
   2   2  -9  150.08    8.00
  -2  -2   9  135.39    8.00
   1   2  -9  167.28    9.80
   1   2  -9  178.68    8.90
  -1  -2   9  172.78    9.10
   0   2  -9    1.50    2.10
   0   2  -9   -1.30    2.80
   0  -2   9   -4.20    2.00
  -1   2  -9   83.89    5.50
  -1   2  -9   76.39    6.80
   1  -2   9   73.29    5.90
   1  -2   9   76.29    4.40
  -2   2  -9   64.99    7.30
  -2   2  -9   69.99    5.40
   2  -2   9   65.29    5.90
  -3   2  -9  102.89    6.90
  -3   2  -9   93.39    8.50
   3  -2   9  100.89    7.20
  -4   2  -9  145.29   10.60
  -4   2  -9  134.49    8.40
   4  -2   9  138.49    9.10
  -5   2  -9  130.59    8.40
  -5   2  -9  121.79   10.30
   5  -2   9   95.39    8.50
  -6   2  -9    2.10    3.40
  -6   2  -9   -0.90    4.00
   6  -2   9   -3.80    3.40
  -7   2  -9    0.10    4.80
   7  -2   9   -0.10    4.20
  -8  -1   9   43.70    6.30
   7   1  -9   47.40    6.20
  -7  -1   9   55.09    6.40
   6   1  -9   -0.40    3.00
  -6  -1   9   -1.50    2.80
   5   1  -9   68.39    6.30
  -5  -1   9   58.59    6.00
   4   1  -9  234.28   11.70
   4   1  -9  234.78   10.90
  -4  -1   9  265.67   11.80
   3   1  -9  143.99    8.10
   3   1  -9  162.58    8.20
  -3  -1   9  156.18    8.30
   2   1  -9   98.39    5.70
   2   1  -9   72.09    6.50
  -2  -1   9   87.59    5.80
   1   1  -9    1.80    2.40
   1   1  -9    0.90    1.80
  -1  -1   9    1.40    2.20
  -1  -1   9   -2.40    2.00
   0   1  -9   32.40    4.60
   0   1  -9   37.80    3.60
   0  -1   9   29.00    3.50
   0  -1   9   26.80    3.50
  -1   1  -9  116.79    8.30
  -1   1  -9  109.49    6.30
   1  -1   9  124.69    6.90
  -2   1  -9   38.80    4.00
  -2   1  -9   38.80    5.60
   2  -1   9   25.30    3.70
  -3   1  -9   75.39    5.50
  -3   1  -9   82.29    7.30
   3  -1   9   81.09    6.10
  -4   1  -9   75.39    6.00
  -4   1  -9   79.49    7.90
   4  -1   9   92.79    6.60
  -5   1  -9   57.19    5.80
  -5   1  -9   57.99    7.70
   5  -1   9   49.90    5.90
  -6   1  -9    6.00    4.60
  -6   1  -9    8.30    3.50
   6  -1   9    4.60    3.70
  -7   1  -9   14.20    5.40
   7  -1   9   11.80    4.50
   8   0  -9   -1.80    4.70
  -8   0   9   -0.20    4.10
   7   0  -9   -0.10    3.50
   7   0  -9    5.40    4.40
  -7   0   9    1.80    3.40
   6   0  -9  163.68    9.60
  -6   0   9  160.68    9.70
   5   0  -9  172.18    9.40
  -5   0   9  161.38    9.10
   4   0  -9  563.44   19.60
   4   0  -9  485.85   20.50
  -4   0   9  468.65   20.40
   3   0  -9   81.69    5.10
   3   0  -9   69.59    5.20
  -3   0   9   83.89    5.50
   2   0  -9  264.67   11.70
   2   0  -9  249.38   11.10
  -2   0   9  261.97   11.20
  -2   0   9  250.37   11.20
   1   0  -9   58.09    4.90
   1   0  -9   54.69    4.10
  -1   0   9   50.59    4.30
  -1   0   9   60.29    4.20
   0   0  -9  200.48   10.30
   0   0  -9  206.18    9.00
   0   0   9  201.48    9.20
   0   0   9  202.08    9.10
  -1   0  -9  385.76   17.30
  -1   0  -9  394.76   15.70
   1   0   9  426.86   15.90
   1   0   9  383.86   15.80
   1   0   9  389.36   15.20
  -2   0  -9   90.99    5.60
  -2   0  -9   97.19    7.50
   2   0   9  115.39    6.10
   2   0   9  104.99    6.10
  -3   0  -9   57.39    6.70
  -3   0  -9   44.50    4.40
   3   0   9   49.90    4.80
  -4   0  -9   17.00    3.10
  -4   0  -9   18.30    4.70
   4   0   9   11.30    3.30
  -5   0  -9    4.10    3.90
  -5   0  -9   11.00    3.20
   5   0   9    9.30    3.40
  -6   0  -9   34.90    4.70
  -6   0  -9   39.60    6.70
   6   0   9   28.70    5.00
  -7   0  -9   30.40    6.70
   7   0   9   30.00    5.50
  -8   0  -9   10.50    5.60
   8   0   9    9.20    4.90
   8  -1  -9    0.10    5.00
  -8   1   9   -0.30    3.90
   7  -1  -9    9.90    4.80
  -7   1   9    5.80    3.60
   6  -1  -9   24.70    4.30
   6  -1  -9   17.10    4.60
  -6   1   9   17.70    4.10
   5  -1  -9   41.60    4.80
  -5   1   9   36.80    4.80
   4  -1  -9    3.10    2.20
   4  -1  -9    2.20    1.40
  -4   1   9   -0.60    2.10
   3  -1  -9   40.20    4.00
   3  -1  -9   37.80    3.40
  -3   1   9   39.50    3.90
  -3   1   9   46.00    3.90
   2  -1  -9    2.10    1.70
   2  -1  -9    3.10    1.90
  -2   1   9    2.20    1.60
  -2   1   9    1.80    1.90
   1  -1  -9   11.00    2.10
   1  -1  -9    9.80    2.60
  -1   1   9   11.60    2.30
  -1   1   9    8.50    2.00
   0  -1  -9  354.36   15.30
   0  -1  -9  354.36   13.70
   0   1   9  334.87   13.90
   0   1   9  368.16   14.00
  -1  -1  -9  352.66   16.10
  -1  -1  -9  360.26   14.30
   1   1   9  376.76   14.40
   1   1   9  397.66   14.50
   1   1   9  344.27   14.40
  -2  -1  -9   84.29    6.60
  -2  -1  -9   83.89    4.90
   2   1   9   83.89    5.20
   2   1   9   82.79    5.10
   2   1   9   97.69    4.40
  -3  -1  -9    5.40    2.80
  -3  -1  -9    9.40    2.20
   3   1   9    4.20    2.10
   3   1   9    1.80    2.10
  -4  -1  -9   98.99    7.80
  -4  -1  -9   93.29    5.80
   4   1   9   95.29    6.50
  -5  -1  -9   65.39    7.40
  -5  -1  -9   69.19    5.40
   5   1   9   55.89    5.70
  -6  -1  -9  115.29    9.50
  -6  -1  -9  115.99    7.50
   6   1   9  112.09    8.10
  -7  -1  -9    2.70    4.70
   7   1   9   14.60    4.40
  -8  -1  -9   -5.00    4.20
   8   1   9    5.60    3.90
   8  -2  -9   14.90    6.30
  -8   2   9   20.80    5.00
   7  -2  -9   79.59    8.70
  -7   2   9   82.39    7.70
   6  -2  -9   88.59    8.10
   6  -2  -9   66.69    6.40
  -6   2   9   76.49    6.80
   5  -2  -9   34.90    4.20
   5  -2  -9   42.30    5.70
  -5   2   9   31.20    4.30
   4  -2  -9   -1.00    2.00
  -4   2   9   -1.10    2.10
   3  -2  -9    6.80    1.80
   3  -2  -9   10.00    2.20
  -3   2   9    5.60    2.20
  -3   2   9    7.40    2.10
   2  -2  -9   63.79    4.20
   2  -2  -9   75.09    4.70
  -2   2   9   73.39    4.30
  -2   2   9   66.69    4.20
   1  -2  -9  310.17   12.60
   1  -2  -9  274.37   11.10
  -1   2   9  271.47   11.20
  -1   2   9  281.37   11.30
   0  -2  -9  187.78    7.80
   0  -2  -9  181.08    9.40
   0   2   9  190.58    8.00
   0   2   9  196.68    7.90
  -1  -2  -9  177.28    7.50
  -1  -2  -9  195.28    9.70
   1   2   9  188.18    7.80
   1   2   9  173.78    7.70
  -2  -2  -9    7.10    1.70
  -2  -2  -9    8.10    3.10
   2   2   9    6.80    1.70
   2   2   9    5.00    1.70
   2   2   9    8.10    1.90
  -3  -2  -9   13.20    2.10
  -3  -2  -9   10.60    3.30
   3   2   9   10.50    2.20
   3   2   9    9.60    2.20
   3   2   9    6.90    1.40
  -4  -2  -9  138.49    9.10
  -4  -2  -9  150.08    7.40
   4   2   9  154.28    7.70
   4   2   9  146.09    7.60
  -5  -2  -9   15.30    4.30
  -5  -2  -9   14.10    2.90
   5   2   9   11.50    3.00
  -6  -2  -9   57.29    7.50
  -6  -2  -9   62.39    5.70
   6   2   9   55.29    5.70
  -7  -2  -9   -2.10    3.80
   7   2   9    1.80    3.20
  -8  -2  -9    2.20    4.50
   8   2   9   -5.00    3.00
   8  -3  -9   11.50    5.80
  -8   3   9   12.40    4.90
   7  -3  -9  119.79   10.60
  -7   3   9  115.59    8.80
   6  -3  -9   51.69    6.70
  -6   3   9   44.50    5.50
   5  -3  -9   20.20    3.60
   5  -3  -9   17.10    4.30
  -5   3   9   14.60    3.30
   4  -3  -9   31.60    3.70
  -4   3   9   25.70    3.50
  -4   3   9   27.30    4.40
   3  -3  -9   19.00    2.30
   3  -3  -9   19.50    2.70
  -3   3   9   16.50    2.30
  -3   3   9   18.70    2.70
  -3   3   9   21.20    2.80
   2  -3  -9   51.69    3.40
   2  -3  -9   39.20    3.60
  -2   3   9   52.19    3.40
  -2   3   9   44.90    3.40
  -2   3   9   46.40    3.50
   1  -3  -9   94.69    5.60
  -1   3   9   88.89    4.40
   0  -3  -9   12.20    1.50
   0  -3  -9   12.10    2.70
   0   3   9   10.50    1.40
   0   3   9   10.60    1.50
  -1  -3  -9   65.09    5.20
  -1  -3  -9   63.99    3.10
   1   3   9   56.69    3.30
   1   3   9   62.89    3.30
  -2  -3  -9  111.89    7.30
  -2  -3  -9  110.99    5.00
   2   3   9  113.59    5.80
   2   3   9  121.59    5.40
   2   3   9  118.29    5.40
  -3  -3  -9   17.30    3.80
  -3  -3  -9   15.00    2.00
  -3  -3  -9    8.00    1.80
   3   3   9   13.40    2.10
   3   3   9   10.90    1.90
   3   3   9   14.80    2.20
  -4  -3  -9   92.39    4.60
  -4  -3  -9   80.59    4.90
  -4  -3  -9   74.69    6.70
   4   3   9   85.19    5.20
   4   3   9   82.69    5.10
  -5  -3  -9   87.09    7.60
  -5  -3  -9   85.39    4.70
  -5  -3  -9  103.19    5.90
   5   3   9   87.09    6.00
  -6  -3  -9    2.80    3.80
  -6  -3  -9    4.80    2.50
   6   3   9    2.60    2.60
  -7  -3  -9    1.10    4.10
   7   3   9   -0.90    2.80
  -8  -3  -9    6.10    4.80
   8   3   9    2.60    3.60
  -9  -3  -9    8.50    5.80
   9   3   9    4.60    4.50
   8  -4  -9   15.40    6.40
  -8   4   9   11.40    4.70
   7  -4  -9   68.49    8.30
  -7   4   9   72.49    7.20
   6  -4  -9    5.30    4.40
  -6   4   9    1.90    3.10
   5  -4  -9    4.00    2.70
   5  -4  -9    3.40    3.50
  -5   4   9    4.10    2.70
   4  -4  -9  123.39    6.90
   4  -4  -9  124.09    8.10
  -4   4   9  121.99    6.90
   3  -4  -9  132.79    6.50
  -3   4   9  131.19    6.60
  -3   4   9  125.39    5.90
  -3   4   9  137.69    6.60
   2  -4  -9  216.58    8.90
   2  -4  -9  224.88    9.60
  -2   4   9  220.08    9.50
  -2   4   9  207.28    9.00
  -2   4   9  221.18    9.00
   1  -4  -9  118.99    6.40
   1  -4  -9  107.99    4.90
  -1   4   9  112.59    5.00
  -1   4   9  122.39    5.10
   0  -4  -9   21.60    3.30
   0   4   9   15.90    1.40
   0   4   9   20.90    1.50
  -1  -4  -9    9.40    2.80
  -2  -4  -9  133.79    6.60
  -2  -4  -9  129.39    7.90
  -2  -4  -9  133.49    5.30
   2   4   9  128.19    5.50
   2   4   9  126.79    5.50
  -3  -4  -9   37.00    5.00
  -3  -4  -9   38.70    2.70
  -3  -4  -9   42.00    3.60
   3   4   9   38.30    2.90
   3   4   9   40.50    3.10
  -4  -4  -9  127.89    6.40
  -4  -4  -9  120.09    8.40
  -4  -4  -9  122.49    6.00
   4   4   9  121.49    6.30
   4   4   9  130.09    6.30
  -5  -4  -9   12.50    2.50
  -5  -4  -9    8.60    3.50
  -5  -4  -9   16.10    2.50
   5   4   9   12.80    2.70
  -6  -4  -9    4.40    2.70
  -6  -4  -9    1.90    3.70
   6   4   9    3.70    2.60
  -7  -4  -9    8.00    4.40
   7   4   9   11.60    3.50
  -8  -4  -9    2.20    4.50
   8   4   9   -0.80    3.30
  -9  -4  -9   15.80    5.90
   9   4   9   10.80    4.40
   7  -5  -9   -1.40    4.40
  -7   5   9   -2.40    3.40
   6  -5  -9   -2.70    3.70
  -6   5   9    0.30    2.90
   5  -5  -9  100.69    8.40
  -5   5   9  109.29    7.10
   4  -5  -9  125.29    8.50
   4  -5  -9  129.19    7.20
  -4   5   9  138.69    7.20
   3  -5  -9  333.87   13.00
  -3   5   9  328.37   13.10
  -3   5   9  336.77   13.10
  -3   5   9  294.37   12.60
   2  -5  -9   95.69    4.80
  -2   5   9   95.39    5.00
  -2   5   9  107.99    4.90
   1  -5  -9   39.10    4.00
   1  -5  -9   31.50    2.00
  -1   5   9   29.70    2.10
  -1   5   9   31.10    2.20
   0  -5  -9   33.20    4.10
  -1  -5  -9  293.57   13.00
  -1  -5  -9  273.57   12.30
  -2  -5  -9  168.68    9.30
  -2  -5  -9  170.48    8.40
  -3  -5  -9  512.65   21.80
  -3  -5  -9  505.05   20.00
  -3  -5  -9  518.45   18.70
   3   5   9  532.85   18.90
   3   5   9  502.55   18.80
  -4  -5  -9   10.00    3.60
  -4  -5  -9    7.00    2.40
  -4  -5  -9   10.90    1.80
   4   5   9   13.50    2.20
   4   5   9   12.40    2.10
  -5  -5  -9   40.60    4.00
  -5  -5  -9   39.20    3.50
  -5  -5  -9   39.00    5.50
   5   5   9   32.60    3.60
  -6  -5  -9   40.70    6.50
  -6  -5  -9   39.10    4.30
   6   5   9   44.80    4.60
  -7  -5  -9    6.70    4.20
   7   5   9    1.60    2.80
  -8  -5  -9   11.50    5.20
   8   5   9   17.80    4.30
  -9  -5  -9    5.00    5.40
   9   5   9    1.40    3.60
   7  -6  -9   15.00    5.40
  -7   6   9   11.10    4.50
   6  -6  -9   45.70    7.00
  -6   6   9   74.09    6.90
   5  -6  -9  102.19    8.40
  -5   6   9   94.79    6.90
   4  -6  -9  269.67   12.90
  -4   6   9  232.48   11.20
   3  -6  -9    5.80    2.00
  -3   6   9    8.20    2.50
  -3   6   9    7.40    2.30
   2  -6  -9   60.29    3.80
  -2   6   9   87.59    4.30
  -2   6   9   85.29    4.40
   1  -6  -9   96.59    3.80
  -1   6   9   80.19    3.80
  -1   6   9   81.49    3.90
   0  -6  -9    9.10    2.70
   0  -6  -9   11.10    2.90
  -1  -6  -9  824.22   32.10
  -1  -6  -9  849.72   31.70
  -2  -6  -9  186.68   10.30
  -2  -6  -9  194.58    9.40
  -3  -6  -9  441.16   17.40
  -3  -6  -9  423.96   18.60
  -3  -6  -9  419.06   15.30
   3   6   9  415.26   15.50
   3   6   9  411.16   15.40
  -4  -6  -9    2.40    2.20
  -4  -6  -9    5.70    1.50
  -4  -6  -9    6.70    3.50
   4   6   9    8.20    1.90
   4   6   9    6.10    1.80
  -5  -6  -9   50.59    4.90
  -5  -6  -9   47.80    6.40
  -5  -6  -9   52.89    4.50
   5   6   9   44.60    4.00
  -6  -6  -9   64.09    7.80
  -6  -6  -9   50.09    5.00
   6   6   9   46.30    4.60
  -7  -6  -9   29.40    4.40
  -7  -6  -9   23.10    5.80
   7   6   9   29.00    4.30
  -8  -6  -9   13.50    5.40
   8   6   9   18.50    4.20
  -9  -6  -9   10.10    5.80
   9   6   9   12.20    4.40
   7  -7  -9   48.30    7.10
  -7   7   9   52.49    6.80
   6  -7  -9   24.00    5.70
  -6   7   9   28.50    4.80
   5  -7  -9   71.99    7.50
  -5   7   9   51.79    5.30
   4  -7  -9    1.70    3.30
  -4   7   9    1.10    2.40
   3  -7  -9    1.50    2.50
  -3   7   9    2.10    1.90
   2  -7  -9   70.39    3.90
  -2   7   9   62.89    3.90
  -2   7   9   67.89    4.00
   1  -7  -9    1.90    1.00
  -1   7   9    3.20    1.10
  -1   7   9    2.30    1.10
   0  -7  -9   60.49    5.50
  -1  -7  -9  106.49    6.90
  -2  -7  -9  260.07   12.90
  -2  -7  -9  266.67   12.20
  -3  -7  -9   78.09    6.60
  -3  -7  -9   65.19    3.20
  -3  -7  -9   71.29    5.60
   3   7   9   69.19    3.50
   3   7   9   71.99    3.50
  -4  -7  -9   87.99    6.50
  -4  -7  -9  106.99    8.00
   4   7   9  104.89    5.20
   4   7   9  104.99    5.30
  -5  -7  -9  111.99    8.80
  -5  -7  -9  115.19    7.40
   5   7   9  110.89    6.20
  -6  -7  -9   40.80    6.50
  -6  -7  -9   44.10    5.10
   6   7   9   39.10    4.30
  -7  -7  -9    9.60    4.70
  -7  -7  -9   13.20    3.70
   7   7   9   18.70    3.80
  -8  -7  -9    8.60    5.30
   8   7   9   12.80    3.80
  -9  -7  -9    0.70    5.00
   9   7   9    7.10    3.90
   6  -8  -9   31.40    5.70
  -6   8   9   16.90    4.30
   5  -8  -9   29.10    5.50
  -5   8   9   14.40    3.80
   4  -8  -9   -2.20    3.10
  -4   8   9    5.80    2.60
   3  -8  -9    8.90    3.30
  -3   8   9   11.30    2.60
  -2   8   9  234.58    9.80
   1  -8  -9  297.87   11.30
   1  -8  -9  294.97   14.30
  -1   8   9  299.97   11.50
  -1   8   9  295.37   11.50
   0  -8  -9  112.09    7.30
   0   8   9  100.69    4.30
  -1  -8  -9   12.90    3.20
  -2  -8  -9   34.30    4.40
  -3  -8  -9   -0.70    2.30
  -3  -8  -9    1.80    1.00
   3   8   9    0.30    1.00
   3   8   9    1.20    1.10
  -4  -8  -9  121.79    9.00
  -4  -8  -9  130.19    8.20
   4   8   9  136.29    6.30
  -5  -8  -9   34.60    5.90
  -5  -8  -9   43.80    5.20
   5   8   9   45.30    3.90
  -6  -8  -9    2.20    3.00
  -6  -8  -9    2.40    3.80
   6   8   9    2.70    2.20
  -7  -8  -9   10.10    5.20
  -7  -8  -9   15.10    4.20
   7   8   9    5.90    3.10
  -8  -8  -9   12.30    5.40
  -8  -8  -9   10.90    4.20
   8   8   9    7.70    3.60
   9   8   9    1.70    3.60
   6  -9  -9    4.60    4.50
  -6   9   9    1.60    3.60
   5  -9  -9    5.00    3.80
  -5   9   9    7.50    3.40
   4  -9  -9   -2.30    3.10
  -4   9   9   -0.80    2.40
   3  -9  -9   -1.50    2.70
  -3   9   9    2.20    2.30
  -2   9   9  189.48    8.70
   1  -9  -9  172.48   10.40
  -1   9   9  165.48    7.30
   0  -9  -9    4.80    2.90
   0   9   9    0.20    1.10
   0   9   9    2.00    1.20
  -1  -9  -9  174.88   10.00
   1   9   9  180.68    7.00
   1   9   9  181.48    7.00
  -2  -9  -9   34.50    4.60
   2   9   9   32.30    2.20
   2   9   9   29.80    2.20
  -3  -9  -9  106.49    7.20
   3   9   9   97.39    4.70
   3   9   9   87.69    4.40
  -4  -9  -9   22.90    4.40
   4   9   9   26.90    2.90
  -5  -9  -9    6.50    3.30
   5   9   9    1.10    1.90
  -6  -9  -9   41.70    5.60
   6   9   9   47.90    4.80
  -7  -9  -9   -4.30    3.20
   7   9   9    2.20    2.50
  -8  -9  -9   -0.60    3.70
   8   9   9    5.40    3.50
   5 -10  -9   -2.80    3.70
  -5  10   9    0.70    3.10
   4 -10  -9   -0.70    3.20
  -4  10   9    0.20    2.60
   3 -10  -9    3.20    2.90
  -3  10   9   -0.20    2.30
  -2  10   9  101.79    5.90
   1 -10  -9   47.50    6.10
  -1  10   9   43.30    3.60
   0 -10  -9    8.90    3.70
   0  10   9    9.70    1.90
  -1 -10  -9   75.99    7.10
   1  10   9   60.99    3.60
  -2 -10  -9   21.00    4.30
   2  10   9   19.90    2.10
  -3 -10  -9  176.08   10.50
   3  10   9  179.08    7.70
  -4 -10  -9   98.79    7.90
   4  10   9   89.19    5.30
  -5 -10  -9   73.79    7.50
   5  10   9   76.89    5.30
  -6 -10  -9    4.20    3.50
   6  10   9   -1.40    2.10
  -7 -10  -9    2.70    3.80
   7  10   9    2.10    2.80
  -8 -10  -9   21.00    5.40
   8  10   9   20.90    4.40
   5 -11  -9   78.39    8.50
   4 -11  -9    4.80    3.90
  -4  11   9    8.00    3.30
   3 -11  -9   28.50    4.90
  -3  11   9   24.50    3.90
  -2  11   9    4.90    2.40
   1 -11  -9    7.30    3.70
  -1  11   9    5.30    2.10
   0 -11  -9   82.09    8.00
   0  11   9   84.79    4.90
  -1 -11  -9   59.09    6.90
   1  11   9   70.89    4.30
  -2 -11  -9   45.70    6.00
   2  11   9   40.80    3.20
  -3 -11  -9  161.58   10.40
   3  11   9  163.18    7.60
  -4 -11  -9   48.10    6.30
   4  11   9   49.80    4.10
  -5 -11  -9   10.20    4.30
   5  11   9   16.40    3.10
  -6 -11  -9   25.40    5.30
   6  11   9   37.20    4.60
  -7 -11  -9   86.29    8.70
   7  11   9   73.69    6.60
  -8 -11  -9   38.80    6.90
   8  11   9   32.20    5.10
   4 -12  -9   11.60    4.50
  -4  12   9   13.60    4.00
   3 -12  -9   65.59    6.80
  -3  12   9   56.79    5.70
   2 -12  -9    6.30    4.30
  -2  12   9    0.60    2.50
   1 -12  -9    9.40    4.10
  -1  12   9    5.50    2.40
   0 -12  -9   75.49    7.90
   0  12   9   81.79    5.30
  -1 -12  -9   61.09    7.10
   1  12   9   74.49    4.80
  -2 -12  -9   59.79    7.10
   2  12   9   47.10    3.90
  -3 -12  -9    1.50    3.50
   3  12   9    1.80    1.90
  -4 -12  -9   -6.20    2.80
   4  12   9    1.80    2.00
  -5 -12  -9   37.50    6.20
   5  12   9   35.30    4.20
  -6 -12  -9   59.99    7.50
   6  12   9   43.60    5.00
  -7 -12  -9   93.79    9.40
   7  12   9   81.39    7.10
   3 -13  -9    1.00    3.40
  -3  13   9   -1.50    2.80
   2 -13  -9   45.10    7.30
  -2  13   9   31.60    4.50
   1 -13  -9  224.68   13.40
  -1  13   9  201.58   10.30
   0 -13  -9   92.59    9.40
   0  13   9   90.09    5.90
  -1 -13  -9  103.19    8.90
   1  13   9   89.89    5.80
  -2 -13  -9   20.10    5.10
   2  13   9   16.70    3.00
  -3 -13  -9    0.60    3.50
   3  13   9    2.20    2.20
  -4 -13  -9    3.30    3.90
   4  13   9   15.20    3.10
  -5 -13  -9   47.40    7.00
   5  13   9   37.70    4.50
  -6 -13  -9   16.40    4.90
   6  13   9   19.30    3.90
  -7 -13  -9   38.80    6.70
   7  13   9   31.00    4.90
   2 -14  -9   40.70    7.50
  -2  14   9   50.89    5.80
   1 -14  -9   84.89    9.20
  -1  14   9   70.99    6.30
   0 -14  -9   17.00    5.20
   0  14   9   18.70    3.50
  -1 -14  -9   -0.20    3.80
   1  14   9    2.20    2.30
  -2 -14  -9    4.60    4.20
   2  14   9    2.30    2.40
  -3 -14  -9   31.30    6.00
   3  14   9   29.90    4.00
  -4 -14  -9   40.10    6.80
   4  14   9   39.80    4.70
  -5 -14  -9   25.00    6.20
   5  14   9   18.70    3.70
  -6 -14  -9   12.90    5.30
   6  14   9   24.50    4.30
   0 -15  -9    4.60    4.90
   0  15   9    8.50    3.20
  -1 -15  -9    1.20    4.30
   1  15   9    5.30    2.90
  -2 -15  -9   -1.20    3.80
   2  15   9    3.10    2.60
  -3 -15  -9   33.90    6.80
   3  15   9   49.30    5.10
  -4 -15  -9    8.00    4.90
   4  15   9    8.70    3.10
  -5 -15  -9   10.70    5.20
   5  15   9   13.40    3.90
   4   8 -10    9.20    6.40
   4   8 -10   10.90    4.40
  -4  -8  10    0.20    4.70
  -4  -8  10   15.80    5.20
   3   8 -10    9.40    4.80
   3   8 -10   19.60    7.60
  -3  -8  10   16.50    5.50
  -3  -8  10   16.90    5.60
   2   8 -10    2.10    6.00
   2   8 -10   -6.80    3.10
  -2  -8  10    0.30    4.50
   1   8 -10   43.70    9.30
   1   8 -10   52.39    7.20
  -1  -8  10   48.60    7.30
   0   8 -10   25.60    7.80
   0   8 -10   40.70    6.30
   0  -8  10   23.60    6.30
  -1   8 -10   10.90    6.70
  -1   8 -10    5.90    4.30
   1  -8  10   12.70    5.60
   5   7 -10    0.20    3.70
  -5  -7  10   -1.60    4.50
  -5  -7  10   -2.20    4.20
   4   7 -10   15.40    7.40
   4   7 -10   14.90    4.80
  -4  -7  10    7.90    4.70
  -4  -7  10   13.10    5.00
   3   7 -10   11.40    6.40
   3   7 -10   15.80    4.80
  -3  -7  10    6.40    4.60
  -3  -7  10   15.30    4.80
   2   7 -10    6.20    5.70
   2   7 -10   -6.20    3.10
  -2  -7  10    9.20    4.10
  -2  -7  10    4.20    4.40
   1   7 -10   75.09    7.80
   1   7 -10   59.39    8.90
  -1  -7  10   66.29    7.90
   0   7 -10   63.19    9.30
   0   7 -10   64.29    7.20
   0  -7  10   68.09    8.10
  -1   7 -10    8.20    4.20
  -1   7 -10    4.80    6.90
   1  -7  10    0.10    4.30
  -2   7 -10   -5.80    3.30
  -2   7 -10    3.00    5.70
   2  -7  10   -2.70    4.50
   3  -7  10    9.10    5.30
   6   6 -10   24.10    5.60
  -6  -6  10   35.40    6.50
   5   6 -10   29.70    5.50
  -5  -6  10   29.40    5.90
  -5  -6  10   24.00    5.60
   4   6 -10   32.00    6.90
   4   6 -10   24.00    5.30
  -4  -6  10   16.90    5.00
  -4  -6  10   31.10    5.70
   3   6 -10   32.40    7.00
   3   6 -10   39.50    5.70
  -3  -6  10   27.80    5.40
  -3  -6  10   43.40    6.50
   2   6 -10   18.00    6.20
   2   6 -10   14.00    4.30
  -2  -6  10   19.40    4.40
  -2  -6  10   17.60    4.80
   1   6 -10   65.89    9.20
   1   6 -10   65.59    7.00
  -1  -6  10   68.79    7.60
  -1  -6  10   67.59    6.50
   0   6 -10   16.00    6.00
   0   6 -10   13.60    4.10
   0  -6  10   22.60    4.90
  -1   6 -10   15.10    4.30
  -1   6 -10   17.00    6.10
   1  -6  10   19.50    5.10
  -2   6 -10    8.00    4.00
  -2   6 -10    0.40    5.00
   2  -6  10    2.50    4.70
  -3   6 -10   13.50    6.80
  -3   6 -10   13.50    4.70
   3  -6  10   25.20    5.60
  -4   6 -10   16.80    7.90
  -4   6 -10    6.30    4.10
   4  -6  10    8.00    5.70
   6   5 -10    4.00    4.00
  -6  -5  10    3.30    4.20
   5   5 -10   24.10    5.00
  -5  -5  10   28.00    5.30
   4   5 -10  103.99    9.80
   4   5 -10  128.89    9.00
  -4  -5  10  118.69    9.00
   3   5 -10    8.60    5.50
   3   5 -10   12.00    3.70
  -3  -5  10   12.40    4.10
  -3  -5  10    3.80    3.70
   2   5 -10   45.20    5.90
   2   5 -10   51.29    7.60
  -2  -5  10   58.39    6.20
  -2  -5  10   58.29    6.70
   1   5 -10   -0.90    4.60
   1   5 -10   -1.20    2.50
  -1  -5  10   -2.20    3.20
  -1  -5  10   -1.30    2.60
   0   5 -10    4.70    4.80
   0   5 -10    8.80    3.60
   0  -5  10   -1.60    3.50
  -1   5 -10   20.50    4.40
  -1   5 -10   21.00    6.00
   1  -5  10   19.60    5.10
  -2   5 -10   43.20    5.80
  -2   5 -10   39.10    7.40
   2  -5  10   38.40    6.00
  -3   5 -10    7.90    5.20
  -3   5 -10   10.20    4.30
   3  -5  10    7.20    4.30
  -4   5 -10    9.50    8.20
  -4   5 -10    5.50    4.00
   4  -5  10   16.90    5.40
  -5   5 -10    0.90    6.40
   5  -5  10   11.20    5.30
  -7  -4  10   -1.10    3.80
   6   4 -10    8.70    4.40
  -6  -4  10    5.50    4.00
   5   4 -10   43.70    6.00
  -5  -4  10   32.10    5.60
   4   4 -10   37.10    5.10
   4   4 -10   28.90    5.70
  -4  -4  10   38.30    5.60
   3   4 -10    8.80    3.50
   3   4 -10    2.00    4.60
  -3  -4  10    3.70    3.30
   2   4 -10   16.00    3.70
   2   4 -10   13.20    4.90
  -2  -4  10   13.00    4.10
   1   4 -10  118.59    9.80
   1   4 -10  135.29    8.50
  -1  -4  10  120.99    7.80
  -1  -4  10  126.39    8.50
   0   4 -10   77.69    8.60
   0   4 -10   97.59    7.20
   0  -4  10   83.99    7.30
   0  -4  10   88.39    6.10
  -1   4 -10   43.50    6.80
  -1   4 -10   38.70    4.90
   1  -4  10   41.40    5.80
  -2   4 -10   11.40    3.70
  -2   4 -10   11.80    4.90
   2  -4  10   22.60    4.70
  -3   4 -10    8.70    3.80
  -3   4 -10   17.30    6.30
   3  -4  10   17.20    4.50
  -4   4 -10    4.00    5.50
  -4   4 -10   -1.30    3.00
   4  -4  10    8.30    4.30
  -5   4 -10   -1.40    5.80
  -5   4 -10    2.20    5.90
   5  -4  10    5.20    4.80
  -7  -3  10   10.50    4.30
   6   3 -10   31.70    5.40
  -6  -3  10   30.50    5.50
   5   3 -10   11.20    4.00
  -5  -3  10   18.30    4.40
   4   3 -10   98.49    7.60
   4   3 -10  102.79    8.40
  -4  -3  10  105.89    7.70
   3   3 -10   35.80    5.60
   3   3 -10   26.20    4.30
  -3  -3  10   19.80    4.30
   2   3 -10    9.60    5.50
   2   3 -10    4.20    2.70
  -2  -3  10   11.00    3.70
   1   3 -10  247.48   12.00
   1   3 -10  245.78   13.50
  -1  -3  10  228.08   11.90
   0   3 -10   83.79    8.50
   0   3 -10   75.19    6.10
   0  -3  10   70.29    5.30
   0  -3  10   69.49    6.50
  -1   3 -10   59.19    5.60
  -1   3 -10   46.80    8.00
   1  -3  10   59.69    6.00
   1  -3  10   55.79    4.40
  -2   3 -10    1.50    3.70
  -2   3 -10    1.10    2.60
   2  -3  10    3.10    3.30
  -3   3 -10    4.60    3.30
  -3   3 -10   -5.00    4.10
   3  -3  10   -3.10    3.00
  -4   3 -10   60.69    8.70
  -4   3 -10   66.09    6.80
   4  -3  10   62.49    7.20
  -5   3 -10   17.60    6.20
  -5   3 -10   12.50    4.40
   5  -3  10   10.20    4.70
  -6   3 -10   20.60    6.60
   6  -3  10   17.30    5.60
  -7  -2  10   21.00    4.90
   6   2 -10   16.10    4.50
  -6  -2  10   12.10    3.90
   5   2 -10    3.30    3.10
  -5  -2  10    1.30    3.10
   4   2 -10    1.50    2.70
   4   2 -10    3.20    2.90
   3   2 -10    1.70    3.30
   3   2 -10   -2.10    2.20
  -3  -2  10   -1.40    2.60
   2   2 -10  194.38   10.70
   2   2 -10  202.48   10.00
  -2  -2  10  178.18    9.80
   1   2 -10  238.28   11.50
   1   2 -10  240.68   12.80
  -1  -2  10  251.47   11.90
   0   2 -10   93.79    7.80
   0   2 -10   95.39    6.30
   0  -2  10   96.79    6.70
  -1   2 -10    1.90    3.40
  -1   2 -10    0.20    2.10
   1  -2  10    0.30    2.60
   1  -2  10    3.20    1.90
  -2   2 -10    6.80    3.90
  -2   2 -10   14.50    3.20
   2  -2  10   -0.40    2.80
  -3   2 -10   44.90    5.10
  -3   2 -10   29.40    5.70
   3  -2  10   33.90    4.90
  -4   2 -10   72.19    6.60
  -4   2 -10   70.99    9.00
   4  -2  10   71.89    7.10
  -5   2 -10  134.69   11.40
   5  -2  10  140.79    9.80
  -6   2 -10    0.70    4.90
   6  -2  10   13.30    4.60
   7  -2  10    7.70    5.10
  -7  -1  10   69.09    7.50
   6   1 -10   18.90    4.20
  -6  -1  10   14.40    4.00
   5   1 -10   10.80    3.60
  -5  -1  10   11.10    3.50
   4   1 -10  106.99    6.90
   4   1 -10   71.89    6.90
  -4  -1  10  124.69    7.50
   3   1 -10   33.80    4.40
   3   1 -10   36.40    4.60
  -3  -1  10   34.40    4.30
   2   1 -10  408.86   17.70
   2   1 -10  396.16   16.70
  -2  -1  10  407.16   17.00
   1   1 -10   63.89    4.90
   1   1 -10   64.09    6.10
  -1  -1  10   54.09    5.20
   0   1 -10   54.29    6.10
   0   1 -10   59.39    4.70
   0  -1  10   56.99    5.00
  -1   1 -10   18.20    3.10
  -1   1 -10   14.50    4.00
   1  -1  10   19.10    3.40
  -2   1 -10   22.80    5.00
  -2   1 -10   16.60    3.10
   2  -1  10   17.70    3.50
  -3   1 -10    4.50    2.70
  -3   1 -10    4.20    3.60
   3  -1  10    0.10    2.80
  -4   1 -10   51.09    5.40
  -4   1 -10   34.50    6.10
   4  -1  10   41.60    5.30
  -5   1 -10   56.69    5.80
  -5   1 -10   56.19    8.40
   5  -1  10   57.39    6.50
  -6   1 -10    8.00    5.20
   6  -1  10    8.00    4.10
  -7   1 -10    7.10    5.40
   7  -1  10    4.10    4.40
  -8   0  10    8.80    4.50
  -7   0  10   44.40    6.00
  -6   0  10   17.90    4.10
   5   0 -10   12.30    3.30
  -5   0  10   20.70    3.90
   4   0 -10  394.56   15.80
   4   0 -10  382.96   16.60
  -4   0  10  381.96   16.50
   3   0 -10   56.39    4.90
   3   0 -10   65.39    5.00
  -3   0  10   57.79    5.30
   2   0 -10  435.76   17.00
   2   0 -10  405.76   17.50
  -2   0  10  407.56   17.00
  -2   0  10  434.76   17.20
   1   0 -10   19.00    2.80
   1   0 -10   14.70    3.40
  -1   0  10   18.20    3.00
  -1   0  10   18.10    3.00
   0   0 -10   -2.90    2.60
   0   0 -10    3.00    2.00
   0   0  10   -0.60    2.00
   0   0  10    2.80    2.20
  -1   0 -10  219.38    9.40
  -1   0 -10  190.08   11.00
   1   0  10  181.98    8.70
   1   0  10  216.38    9.60
   1   0  10  206.48    9.60
  -2   0 -10  158.98    7.70
  -2   0 -10  156.78    9.70
   2   0  10  154.18    7.90
   2   0  10  140.89    7.80
   2   0  10  130.99    6.00
  -3   0 -10   83.69    7.70
  -3   0 -10   95.19    5.80
   3   0  10   85.99    6.20
  -4   0 -10   80.99    9.00
  -4   0 -10   85.29    6.10
   4   0  10   84.69    6.70
  -5   0 -10   41.60    6.80
  -5   0 -10   37.60    4.60
   5   0  10   28.90    4.70
  -6   0 -10    1.00    4.20
   6   0  10    0.40    3.40
  -7   0 -10   -0.50    4.60
   7   0  10   12.10    4.60
   8  -1 -10   -6.20    4.60
  -8   1  10    7.00    4.70
  -7   1  10    1.10    3.90
  -6   1  10   -1.20    3.00
   5  -1 -10   38.20    4.70
  -5   1  10   25.70    4.00
   4  -1 -10    8.70    2.80
   4  -1 -10   11.90    2.20
  -4   1  10    6.20    2.80
   3  -1 -10  105.69    6.10
   3  -1 -10  108.49    6.40
  -3   1  10  104.19    6.30
  -3   1  10  104.89    6.30
   2  -1 -10   19.00    3.20
   2  -1 -10   18.30    2.80
  -2   1  10   13.10    2.70
  -2   1  10   10.00    2.40
   1  -1 -10   24.90    4.00
   1  -1 -10   25.40    3.00
  -1   1  10   27.30    3.20
  -1   1  10   23.60    2.90
   0  -1 -10  278.27   11.40
   0  -1 -10  273.77   13.10
   0   1  10  278.17   11.60
   0   1  10  276.17   11.60
  -1  -1 -10  123.59    6.10
  -1  -1 -10  105.59    7.70
   1   1  10  114.89    6.20
   1   1  10  120.79    6.30
  -2  -1 -10  110.49    8.20
  -2  -1 -10  119.39    6.30
   2   1  10  130.49    5.80
   2   1  10  125.59    6.60
   2   1  10  123.29    6.60
  -3  -1 -10   17.60    2.90
  -3  -1 -10   22.50    4.50
   3   1  10   19.20    3.10
   3   1  10   17.90    3.10
  -4  -1 -10   -0.10    3.30
  -4  -1 -10    3.30    2.10
   4   1  10   -0.40    2.50
  -5  -1 -10   33.30    5.90
  -5  -1 -10   27.70    4.00
   5   1  10   23.00    4.00
  -6  -1 -10   41.20    6.90
   6   1  10   41.20    5.40
  -7  -1 -10   11.10    5.40
   7   1  10    5.20    3.80
  -8  -1 -10    8.70    5.40
   8   1  10   -4.20    3.80
   8  -2 -10    3.70    5.20
  -8   2  10    1.70    3.90
   7  -2 -10    6.90    4.90
  -7   2  10   12.30    4.00
  -6   2  10   23.90    4.50
   5  -2 -10   46.30    6.50
  -5   2  10   48.80    5.20
   4  -2 -10   59.19    5.00
  -4   2  10   74.89    5.30
   3  -2 -10    2.60    2.10
   3  -2 -10    3.60    1.90
  -3   2  10    4.80    2.20
  -3   2  10    4.10    2.30
   2  -2 -10    0.20    1.80
   2  -2 -10   -1.30    1.50
  -2   2  10    2.10    1.80
  -2   2  10    0.50    1.60
   1  -2 -10   13.60    3.00
   1  -2 -10   12.10    2.00
  -1   2  10    9.90    2.00
  -1   2  10    8.50    2.10
   0  -2 -10  217.98    9.20
   0  -2 -10  219.98   11.00
   0   2  10  213.88    9.30
   0   2  10  237.08    9.30
  -1  -2 -10  235.38    9.50
  -1  -2 -10  235.58   11.80
   1   2  10  219.28    9.70
   1   2  10  235.78    9.70
  -2  -2 -10   27.30    2.80
  -2  -2 -10   28.20    4.50
   2   2  10   24.00    2.80
   2   2  10   28.70    2.90
   2   2  10   27.70    2.90
  -3  -2 -10    3.30    1.80
  -3  -2 -10   -0.20    2.60
   3   2  10    0.40    1.70
   3   2  10    1.80    1.20
   3   2  10   -0.50    1.80
  -4  -2 -10   13.30    2.60
  -4  -2 -10   16.00    4.50
   4   2  10   15.70    2.90
  -5  -2 -10   13.10    4.60
  -5  -2 -10   23.70    3.50
   5   2  10   18.30    3.50
  -6  -2 -10   48.90    7.30
   6   2  10   48.70    5.50
  -7  -2 -10   30.70    6.60
   7   2  10   21.50    4.70
  -8  -2 -10    3.20    5.00
   8   2  10    6.50    4.20
   7  -3 -10   23.60    6.00
  -7   3  10   19.30    4.70
   6  -3 -10   37.60    6.30
  -6   3  10   44.70    5.40
  -5   3  10   46.60    5.00
   4  -3 -10   -1.50    2.00
  -4   3  10    1.60    2.20
   3  -3 -10    2.50    1.70
   3  -3 -10   -0.70    1.60
  -3   3  10   -1.80    1.60
  -3   3  10   -1.10    1.40
  -3   3  10    3.00    1.90
   2  -3 -10   47.80    4.10
   2  -3 -10   46.20    3.50
  -2   3  10   44.50    3.50
  -2   3  10   54.59    3.70
   1  -3 -10   17.90    2.00
   1  -3 -10   23.30    3.40
  -1   3  10   19.60    2.30
  -1   3  10   23.70    2.50
   0  -3 -10   37.70    4.50
   0  -3 -10   22.80    2.10
   0   3  10   24.40    2.40
   0   3  10   30.50    2.40
  -1  -3 -10   22.30    3.90
   1   3  10   23.90    2.20
   1   3  10   18.80    2.10
  -2  -3 -10   18.70    2.00
  -2  -3 -10   21.40    4.00
   2   3  10   16.60    2.10
   2   3  10   15.40    2.20
  -3  -3 -10    0.70    1.30
  -3  -3 -10   -0.30    2.50
   3   3  10    1.80    1.60
   3   3  10    0.90    1.50
   3   3  10    0.10    1.50
  -4  -3 -10   75.69    4.70
  -4  -3 -10   78.49    7.00
   4   3  10   71.39    5.10
  -5  -3 -10   16.30    4.60
   5   3  10   23.50    3.60
  -6  -3 -10   38.40    6.50
   6   3  10   42.10    5.00
  -7  -3 -10   14.20    5.50
   7   3  10   20.60    4.20
  -8  -3 -10    2.60    4.60
   8   3  10    0.30    3.80
   7  -4 -10   50.09    7.50
  -7   4  10   43.70    6.10
   6  -4 -10   44.20    6.60
  -6   4  10   53.69    5.80
   5  -4 -10   19.90    4.60
  -5   4  10   18.30    3.50
  -4   4  10   34.40    4.00
   3  -4 -10    3.00    1.90
  -3   4  10    2.70    1.80
  -3   4  10    3.00    2.80
  -3   4  10    0.50    1.80
   2  -4 -10   94.09    5.60
   2  -4 -10   83.39    4.70
  -2   4  10   96.39    4.80
  -2   4  10   92.59    4.90
   1  -4 -10   78.39    3.70
   1  -4 -10   70.59    5.30
  -1   4  10   75.69    3.80
   0  -4 -10  175.88    9.00
   0  -4 -10  170.98    6.60
   0   4  10  175.38    6.90
   0   4  10  175.08    6.80
  -1  -4 -10    9.80    3.00
   1   4  10    8.70    1.20
   1   4  10   10.60    1.30
  -2  -4 -10    1.20    0.90
  -2  -4 -10   -2.60    2.00
   2   4  10    0.80    1.20
   2   4  10    0.70    1.10
  -3  -4 -10   46.90    3.00
  -3  -4 -10   57.99    6.30
  -3  -4 -10   46.10    3.90
   3   4  10   43.00    3.30
   3   4  10   43.00    3.30
  -4  -4 -10   51.59    6.20
  -4  -4 -10   65.19    4.30
  -4  -4 -10   52.59    3.80
   4   4  10   61.39    6.20
   4   4  10   59.79    4.30
  -5  -4 -10  158.38    7.50
  -5  -4 -10  157.58   10.60
   5   4  10  165.98    8.20
  -6  -4 -10   39.70    6.50
   6   4  10   32.80    4.30
  -7  -4 -10   12.30    5.20
   7   4  10    6.40    3.30
  -8  -4 -10    0.40    4.50
   8   4  10   -2.80    3.20
   7  -5 -10   55.89    8.60
  -7   5  10   65.29    7.10
   6  -5 -10   25.50    5.40
  -6   5  10   16.00    4.10
   5  -5 -10    0.70    3.70
  -5   5  10    0.20    2.70
  -4   5  10  141.09    7.70
   3  -5 -10   75.79    5.10
  -3   5  10   63.39    4.50
  -2   5  10  212.78    9.00
  -2   5  10  224.08    9.10
   1  -5 -10  207.98    8.00
   1  -5 -10  211.08   10.20
  -1   5  10  200.78    8.10
  -1   5  10  221.98    8.20
   0  -5 -10   98.19    6.40
  -1  -5 -10   23.20    3.90
  -2  -5 -10   52.29    5.90
  -2  -5 -10   51.99    4.50
   2   5  10   55.49    2.70
  -3  -5 -10   88.59    4.10
  -3  -5 -10   86.39    5.50
  -3  -5 -10   84.79    7.10
   3   5  10   86.29    4.40
   3   5  10   92.49    4.40
  -4  -5 -10   44.70    4.10
  -4  -5 -10   41.10    5.80
  -4  -5 -10   41.20    3.10
   4   5  10   49.40    3.70
   4   5  10   44.80    3.80
  -5  -5 -10  110.29    6.20
  -5  -5 -10   94.99    8.40
   5   5  10   91.49    5.90
  -6  -5 -10   14.00    4.70
   6   5  10   16.70    3.30
  -7  -5 -10   -0.20    4.20
   7   5  10   -1.30    2.70
  -8  -5 -10    5.00    4.90
   8   5  10    2.20    3.30
   7  -6 -10   -1.80    4.90
  -7   6  10    0.50    3.60
   6  -6 -10   -3.90    4.20
  -6   6  10   -0.20    3.00
   5  -6 -10   91.19    8.50
  -5   6  10   87.19    6.50
  -4   6  10  185.18    9.00
  -3   6  10  273.07   11.50
  -2   6  10  235.08    9.90
  -2   6  10  252.97    9.90
  -1   6  10  257.57    9.00
  -1   6  10  214.08    8.80
   0  -6 -10   29.50    4.20
  -1  -6 -10  129.69    7.50
  -1  -6 -10  123.99    7.90
  -2  -6 -10  225.18   10.80
  -2  -6 -10  224.68   11.70
  -3  -6 -10  276.87   10.40
  -3  -6 -10  285.17   12.60
  -3  -6 -10  287.57   14.10
   3   6  10  282.77   10.80
   3   6  10  290.07   10.80
  -4  -6 -10   62.29    7.00
  -4  -6 -10   59.29    5.00
   4   6  10   57.79    4.40
   4   6  10   62.09    3.80
  -5  -6 -10   18.20    3.30
  -5  -6 -10   11.90    4.10
   5   6  10   15.50    2.60
  -6  -6 -10   12.80    5.00
  -6  -6 -10   10.10    3.00
   6   6  10    3.30    2.40
  -7  -6 -10   20.80    5.80
   7   6  10   24.30    4.00
  -8  -6 -10   17.50    6.00
   8   6  10   14.50    4.00
   7  -7 -10    6.90    5.40
   6  -7 -10   10.30    5.00
  -6   7  10    6.90    3.70
   5  -7 -10  103.19    8.60
  -5   7  10   78.99    6.70
   4  -7 -10   29.30    5.00
  -4   7  10   27.80    3.90
  -3   7  10   48.00    4.10
  -2   7  10    1.90    1.50
  -1   7  10   26.80    2.10
  -1   7  10   30.70    2.20
   0  -7 -10   31.20    4.40
  -1  -7 -10  222.58   11.20
  -1  -7 -10  198.98   10.50
  -2  -7 -10  367.06   17.00
  -2  -7 -10  385.66   16.30
  -3  -7 -10  278.77   13.90
  -3  -7 -10  246.88   12.20
   3   7  10  265.17    9.90
   3   7  10  264.87    9.90
  -4  -7 -10   37.40    5.80
  -4  -7 -10   40.40    4.60
   4   7  10   33.30    3.00
  -5  -7 -10   10.90    4.60
  -5  -7 -10    6.20    2.90
   5   7  10    8.10    2.20
  -6  -7 -10   45.00    7.10
  -6  -7 -10   44.20    5.30
   6   7  10   44.90    4.60
  -7  -7 -10   29.90    6.90
  -7  -7 -10   41.70    7.00
   7   7  10   30.60    4.40
  -8  -7 -10   12.40    5.60
   8   7  10    8.50    3.80
   6  -8 -10   37.40    6.90
  -6   8  10   34.60    5.40
   5  -8 -10  110.59    9.50
  -5   8  10  107.29    7.30
   4  -8 -10   67.29    7.00
  -4   8  10   63.29    5.40
  -3   8  10   25.20    3.10
  -2   8  10   32.50    3.00
  -1   8  10  105.79    4.90
  -1   8  10  112.09    5.00
   0  -8 -10  178.48   10.20
  -1  -8 -10  340.87   15.60
  -2  -8 -10  246.98   12.00
  -3  -8 -10   76.59    6.20
  -3  -8 -10   78.89    6.80
   3   8  10   75.99    3.50
  -4  -8 -10    1.20    3.40
  -4  -8 -10   -0.10    2.60
   4   8  10   -1.10    1.30
  -5  -8 -10   46.90    6.70
  -5  -8 -10   41.80    5.20
   5   8  10   44.50    4.00
  -6  -8 -10   22.30    4.40
  -6  -8 -10   18.90    5.50
   6   8  10   17.70    3.30
  -7  -8 -10    7.40    5.00
  -7  -8 -10    2.30    3.10
   7   8  10    8.20    3.10
  -8  -8 -10   16.10    6.10
   8   8  10   12.90    3.80
   6  -9 -10    6.40    5.00
  -6   9  10   15.30    4.20
   5  -9 -10   48.10    6.70
  -5   9  10   40.40    5.10
   4  -9 -10   19.60    4.60
  -4   9  10   21.30    3.70
  -3   9  10   -0.70    2.10
  -2   9  10   82.19    4.90
  -1   9  10  141.99    6.20
   0  -9 -10   39.20    5.20
  -1  -9 -10   18.60    4.00
  -2  -9 -10   12.80    3.60
  -3  -9 -10  106.39    8.00
   3   9  10  116.79    4.90
   3   9  10  114.79    4.90
  -4  -9 -10  183.18   10.50
   4   9  10  186.18    8.00
  -5  -9 -10  179.28   10.50
   5   9  10  177.08    8.40
  -6  -9 -10   14.70    4.10
   6   9  10   13.20    2.90
  -7  -9 -10   15.50    4.10
   7   9  10   12.00    3.20
   8   9  10   11.70    3.80
   5 -10 -10   11.70    4.60
  -5  10  10    9.00    3.80
   4 -10 -10    9.30    4.00
  -4  10  10    4.90    3.10
  -3  10  10   29.00    3.80
  -2  10  10  126.99    6.70
   1 -10 -10  210.88   11.90
  -1  10  10  189.48    8.40
   0 -10 -10   89.59    7.80
   0  10  10   92.49    4.40
  -1 -10 -10   16.10    4.10
  -2 -10 -10    7.00    3.30
  -3 -10 -10    4.80    3.20
   3  10  10    3.90    1.40
  -4 -10 -10  190.78   11.30
   4  10  10  201.08    8.60
  -5 -10 -10  141.99    9.50
   5  10  10  129.59    7.00
  -6 -10 -10   23.40    5.00
   6  10  10   22.30    3.40
  -7 -10 -10    0.20    3.40
   7  10  10   -0.80    2.60
  -8 -10 -10    3.10    4.20
   8  10  10    1.60    3.20
   4 -11 -10   15.60    4.60
  -4  11  10   10.80    3.50
  -3  11  10  120.39    7.40
  -2  11  10   31.10    3.70
   1 -11 -10  106.39    8.80
  -1  11  10  108.29    5.80
   0 -11 -10    1.20    3.30
   0  11  10    0.10    1.50
  -1 -11 -10   69.39    7.30
   1  11  10   81.39    4.20
  -2 -11 -10   40.20    5.80
   2  11  10   47.50    3.10
  -3 -11 -10  260.27   13.70
   3  11  10  248.68   10.10
  -4 -11 -10  183.48   11.40
   4  11  10  186.68    8.40
  -5 -11 -10  149.88   10.20
   5  11  10  127.09    7.10
  -6 -11 -10    8.60    4.30
   6  11  10    8.00    2.90
  -7 -11 -10    5.90    4.30
   7  11  10    6.60    3.10
  -8 -11 -10   31.30    6.00
   8  11  10   32.60    4.90
   4 -12 -10   53.99    6.90
  -4  12  10   47.70    5.70
  -3  12  10    7.60    3.20
  -2  12  10  166.88    8.60
   1 -12 -10   -7.10    3.30
  -1  12  10    4.30    2.20
   0 -12 -10    0.10    3.50
   0  12  10    2.80    1.90
  -1 -12 -10  278.17   14.90
   1  12  10  269.57   11.00
  -2 -12 -10   85.79    8.40
   2  12  10   74.59    4.50
  -3 -12 -10  166.78   10.70
   3  12  10  142.29    7.00
  -4 -12 -10   55.99    7.00
   4  12  10   53.39    4.20
  -5 -12 -10    1.00    3.60
   5  12  10    1.80    2.10
  -6 -12 -10    9.90    4.80
   6  12  10   15.20    3.30
  -7 -12 -10   13.30    5.10
   7  12  10   22.50    4.10
  -3  13  10   10.10    3.70
  -2  13  10    0.10    2.40
   1 -13 -10    0.80    4.10
  -1  13  10   12.40    3.10
   0 -13 -10  153.48   11.20
   0  13  10  151.88    7.80
  -1 -13 -10  127.39   10.10
   1  13  10  134.29    6.80
  -2 -13 -10   78.39    8.10
   2  13  10   74.29    4.80
  -3 -13 -10   34.20    6.00
   3  13  10   18.10    2.80
  -4 -13 -10    0.10    3.60
   4  13  10    0.60    2.10
  -5 -13 -10   14.40    4.90
   5  13  10   16.40    3.20
  -6 -13 -10   41.70    7.00
   6  13  10   37.30    4.60
  -7 -13 -10   48.30    7.40
   7  13  10   44.20    5.50
   1 -14 -10   43.20    7.20
  -1  14  10   37.70    4.60
   0 -14 -10   94.29    9.90
   0  14  10   80.89    6.00
  -1 -14 -10   10.10    4.60
   1  14  10    9.40    2.70
  -2 -14 -10   28.30    6.00
   2  14  10   27.30    3.50
  -3 -14 -10    5.70    4.60
   3  14  10    3.90    2.30
  -4 -14 -10    1.70    4.20
   4  14  10    2.40    2.30
  -5 -14 -10   11.40    4.80
   5  14  10   18.80    3.50
  -6 -14 -10   10.70    5.20
   6  14  10    5.90    3.00
   0 -15 -10   41.50    7.30
   0  15  10   44.60    5.00
  -1 -15 -10   -5.20    4.00
   1  15  10    5.60    2.70
  -2 -15 -10    1.90    3.90
   2  15  10    3.80    2.50
  -3 -15 -10   21.70    5.80
   3  15  10   30.80    4.10
  -4 -15 -10   10.40    5.30
   4  15  10   12.30    3.20
   4   7 -11    3.00    4.60
   4   7 -11   12.00    6.80
  -4  -7  11    8.10    5.00
  -4  -7  11    7.10    5.30
   3   7 -11   -0.40    6.00
   3   7 -11   -6.00    3.60
  -3  -7  11    4.20    4.20
  -3  -7  11    6.40    4.80
   2   7 -11    6.40    6.40
   2   7 -11    4.10    4.10
  -2  -7  11   18.00    5.50
   1   7 -11   -7.50    5.70
   1   7 -11    3.30    3.90
  -1  -7  11    4.00    4.60
   0   7 -11   31.80    7.90
   0   7 -11   30.80    5.60
   0  -7  11   32.20    6.50
  -1   7 -11   17.30    5.40
  -1   7 -11   22.70    7.30
   1  -7  11   28.50    6.20
  -5  -6  11    2.80    4.90
  -5  -6  11    5.90    5.00
   4   6 -11   -8.80    5.20
   4   6 -11    0.10    3.60
  -4  -6  11   -1.70    4.00
  -4  -6  11    4.80    4.40
   3   6 -11   10.20    4.20
   3   6 -11   13.70    6.70
  -3  -6  11   15.50    4.90
  -3  -6  11    9.70    4.80
   2   6 -11   22.60    6.50
   2   6 -11   18.60    4.90
  -2  -6  11   22.80    4.90
  -2  -6  11   17.50    5.20
   1   6 -11   -0.20    5.10
   1   6 -11   -1.10    3.50
  -1  -6  11   -2.40    4.10
   0   6 -11  118.09    9.20
   0   6 -11  138.89   12.00
   0  -6  11  119.99    9.90
  -1   6 -11    5.60    6.60
  -1   6 -11    2.90    3.90
   1  -6  11   -1.60    4.00
  -2   6 -11    3.90    4.80
  -2   6 -11   -2.10    5.50
   2  -6  11   -2.00    4.80
  -3   6 -11   26.40    7.70
   3  -6  11   26.60    6.20
  -6  -5  11    3.40    4.40
  -5  -5  11   10.80    4.80
   4   5 -11  118.19    9.20
   4   5 -11  106.89    9.90
  -4  -5  11  104.89    9.50
   3   5 -11    3.90    4.80
   3   5 -11    2.00    3.20
  -3  -5  11   -4.70    3.30
  -3  -5  11   -5.10    3.20
   2   5 -11   13.50    5.80
   2   5 -11   21.60    4.70
  -2  -5  11   16.40    4.80
  -2  -5  11   17.90    4.50
   1   5 -11    2.20    3.20
   1   5 -11    2.80    4.70
  -1  -5  11   13.40    4.50
  -1  -5  11    6.60    4.40
   0   5 -11   39.30    5.50
   0   5 -11   38.50    7.30
   0  -5  11   41.50    6.10
  -1   5 -11    0.00    4.80
  -1   5 -11    5.20    3.50
   1  -5  11    4.00    4.30
  -2   5 -11   50.89    6.30
  -2   5 -11   38.40    7.40
   2  -5  11   40.90    6.60
  -3   5 -11    2.10    5.90
   3  -5  11    5.70    4.80
  -4   5 -11   53.09    9.90
   4  -5  11   25.70    6.10
  -5  -4  11   48.60    6.50
   4   4 -11   13.40    4.00
   4   4 -11   18.60    5.20
  -4  -4  11   14.50    4.80
   3   4 -11   93.79   10.00
   3   4 -11   93.89    7.60
  -3  -4  11   97.69    7.80
   2   4 -11   58.09    6.30
   2   4 -11   58.99    7.70
  -2  -4  11   65.79    7.00
   1   4 -11   86.39    9.00
   1   4 -11   71.69    6.40
  -1  -4  11   72.79    6.50
  -1  -4  11   75.09    7.30
   0   4 -11   21.40    6.00
   0   4 -11   15.80    4.00
   0  -4  11   16.40    4.40
  -1   4 -11    4.10    4.70
  -1   4 -11    3.30    3.20
   1  -4  11   -1.40    3.60
  -2   4 -11   64.39    6.60
  -2   4 -11   49.40    8.10
   2  -4  11   62.89    7.20
  -3   4 -11    0.60    5.20
  -3   4 -11    7.60    6.20
   3  -4  11    2.20    3.80
  -4   4 -11    2.60    7.40
   4  -4  11    4.10    4.60
  -5   4 -11    2.90    6.10
   5  -4  11   -1.40    4.60
  -6  -3  11   -3.40    3.50
  -5  -3  11   45.70    6.20
   4   3 -11   68.69    6.70
   4   3 -11   65.69    7.90
  -4  -3  11   61.59    6.50
   3   3 -11   99.09    8.50
   3   3 -11   94.39    7.40
  -3  -3  11  109.49    8.10
   2   3 -11    9.10    4.60
   2   3 -11    5.50    3.10
  -2  -3  11    7.40    3.70
   1   3 -11   47.30    5.40
   1   3 -11   52.39    7.40
  -1  -3  11   49.80    5.60
   0   3 -11   75.99    6.70
   0   3 -11   61.29    7.70
   0  -3  11   66.19    6.50
   0  -3  11   83.89    5.90
  -1   3 -11   22.40    4.10
  -1   3 -11   32.10    6.30
   1  -3  11   25.80    4.90
  -2   3 -11   35.80    7.10
  -2   3 -11   26.70    4.40
   2  -3  11   35.40    5.40
  -3   3 -11   -3.50    5.00
  -3   3 -11    2.70    3.40
   3  -3  11   -2.70    3.50
  -4   3 -11    2.80    5.00
   4  -3  11    2.10    4.10
  -5   3 -11    0.20    5.70
   5  -3  11    2.10    4.50
  -7  -2  11   -1.30    3.80
  -6  -2  11   10.40    4.30
  -5  -2  11   41.50    5.70
   4   2 -11   15.60    4.00
   4   2 -11   18.60    4.10
  -4  -2  11   14.50    3.90
   3   2 -11   26.80    4.10
   3   2 -11   16.50    4.20
  -3  -2  11   21.70    4.10
   2   2 -11   -3.10    3.50
   2   2 -11    0.80    2.40
  -2  -2  11    0.00    2.80
   1   2 -11   18.20    3.70
   1   2 -11    7.30    6.60
  -1  -2  11   22.20    4.10
   0   2 -11  237.88   11.00
   0   2 -11  194.08   13.70
   0  -2  11  195.18   10.60
  -1   2 -11   69.09    5.70
  -1   2 -11   52.09    8.00
   1  -2  11   70.99    6.50
  -2   2 -11   23.80    5.70
  -2   2 -11   20.90    3.90
   2  -2  11   19.00    4.10
  -3   2 -11    5.60    4.70
  -3   2 -11    5.80    3.20
   3  -2  11    2.80    3.50
  -4   2 -11   -2.90    4.50
   4  -2  11   -2.50    3.10
  -5   2 -11   18.10    6.30
   5  -2  11   19.50    5.10
  -6   2 -11    7.50    5.90
   6  -2  11   11.30    4.80
  -7  -1  11   46.30    6.30
  -6  -1  11   44.70    5.90
  -5  -1  11   34.30    5.20
   4   1 -11    3.20    2.80
   4   1 -11   -2.70    3.00
   3   1 -11    2.10    3.10
   3   1 -11    6.50    2.80
  -3  -1  11    9.60    3.20
   2   1 -11   16.60    4.10
   2   1 -11   24.30    3.70
  -2  -1  11   14.70    3.70
   1   1 -11  209.38   11.60
   1   1 -11  212.68   10.30
  -1  -1  11  209.88   10.60
   0   1 -11  115.99    8.60
   0   1 -11  110.59    6.90
   0  -1  11  119.09    7.40
  -1   1 -11   58.59    7.30
  -1   1 -11   64.09    5.20
   1  -1  11   54.49    5.40
  -2   1 -11   98.59    6.30
  -2   1 -11   70.09    9.00
   2  -1  11   89.79    6.90
  -3   1 -11   49.70    7.10
  -3   1 -11   54.69    5.30
   3  -1  11   43.60    5.30
  -4   1 -11    5.80    4.70
   4  -1  11   -1.70    3.20
  -5   1 -11   16.20    6.00
   5  -1  11   17.40    4.50
  -6   1 -11    9.70    6.10
   6  -1  11    7.10    4.20
  -7   0  11   58.39    6.90
  -6   0  11   43.10    5.80
  -5   0  11   -0.90    2.70
   4   0 -11    4.90    2.90
  -4   0  11    1.50    2.90
   3   0 -11   32.30    4.10
   3   0 -11   19.50    4.20
  -3   0  11   24.70    4.00
   2   0 -11   22.00    3.90
   2   0 -11   27.40    3.70
  -2   0  11   26.90    3.90
   1   0 -11  583.84   22.60
   1   0 -11  581.44   24.10
  -1   0  11  579.44   22.90
   0   0 -11    4.40    3.20
   0   0 -11    3.10    2.00
   0   0  11    2.40    2.40
  -1   0 -11   -0.70    1.90
  -1   0 -11    1.50    3.20
   1   0  11    0.10    2.30
  -2   0 -11   20.00    3.20
  -2   0 -11   11.90    3.90
   2   0  11   13.70    3.30
  -3   0 -11    2.80    2.30
  -3   0 -11  -13.40    3.50
   3   0  11    0.80    2.60
  -4   0 -11  103.69    9.50
   4   0  11  122.09    8.00
  -5   0 -11   75.89    9.40
   5   0  11  101.99    7.90
  -6   0 -11   23.80    6.30
   6   0  11   12.10    4.50
  -7   0 -11   -2.00    4.80
   7   0  11   -0.70    3.90
  -7   1  11    2.20    3.80
  -6   1  11    9.00    3.80
  -5   1  11   30.10    4.60
  -4   1  11   -3.60    2.30
   3  -1 -11  154.18    8.30
   3  -1 -11  158.88    8.30
  -3   1  11  157.48    8.50
   2  -1 -11   47.60    4.20
   2  -1 -11   49.60    5.20
  -2   1  11   52.99    4.50
   1  -1 -11  395.06   15.20
   1  -1 -11  372.26   16.60
  -1   1  11  363.96   15.20
  -1   1  11  365.86   15.30
   0  -1 -11   10.40    2.30
   0  -1 -11   18.20    3.90
   0   1  11   12.50    2.60
   0   1  11   11.50    2.50
  -1  -1 -11   29.60    3.30
  -1  -1 -11   28.20    4.80
   1   1  11   27.90    3.50
   1   1  11   27.90    3.50
  -2  -1 -11   87.79    7.60
  -2  -1 -11   86.89    5.50
   2   1  11   99.99    6.00
  -3  -1 -11   26.80    5.10
  -3  -1 -11   31.40    3.70
   3   1  11   22.90    3.60
  -4  -1 -11   25.60    5.50
   4   1  11   21.30    4.00
  -5  -1 -11   30.30    6.30
   5   1  11   27.80    4.50
  -6  -1 -11    4.00    4.40
   6   1  11    6.70    3.60
  -7  -1 -11    1.50    5.00
   7   1  11   10.60    4.50
  -7   2  11    1.00    3.90
  -6   2  11    3.00    3.20
  -5   2  11   37.60    4.80
  -4   2  11   52.49    5.00
   3  -2 -11  117.89    6.60
   3  -2 -11  110.99    6.50
  -3   2  11  113.79    6.50
   2  -2 -11  173.18    9.10
   2  -2 -11  179.68    8.30
  -2   2  11  177.18    8.50
   1  -2 -11   -1.40    1.40
   1  -2 -11    3.40    2.50
  -1   2  11    1.10    1.70
  -1   2  11    1.40    1.80
   0  -2 -11   60.09    4.00
   0  -2 -11   64.09    5.70
   0   2  11   51.59    4.20
   0   2  11   69.99    4.20
  -1  -2 -11  110.49    7.80
  -1  -2 -11  103.59    5.50
   1   2  11  113.39    5.90
   1   2  11  112.79    5.90
  -2  -2 -11   36.20    3.40
  -2  -2 -11   34.20    5.30
   2   2  11   34.60    3.60
   2   2  11   28.70    3.30
   2   2  11   37.60    3.50
  -3  -2 -11   15.50    2.60
  -3  -2 -11   18.10    4.40
   3   2  11   18.60    3.00
  -4  -2 -11    1.20    3.70
   4   2  11    7.10    2.80
  -5  -2 -11   -0.50    3.90
   5   2  11   -2.40    2.60
  -6  -2 -11   11.60    5.20
   6   2  11   10.20    3.50
  -7  -2 -11   24.60    6.40
   7   2  11   20.00    4.60
  -8  -2 -11   17.60    6.70
   8   2  11   20.90    5.10
  -7   3  11    4.00    3.80
  -6   3  11    5.10    3.40
  -5   3  11   15.20    3.70
  -4   3  11   35.90    4.10
   3  -3 -11    2.90    2.10
  -3   3  11    2.80    2.20
   2  -3 -11    3.80    1.80
   2  -3 -11    0.60    2.10
  -2   3  11    3.30    1.90
  -2   3  11    2.40    1.90
   1  -3 -11  100.89    6.70
   1  -3 -11  106.69    5.30
  -1   3  11  107.99    5.60
  -1   3  11  111.79    5.40
   0  -3 -11   79.19    6.30
   0   3  11   86.19    4.40
   0   3  11   80.09    4.50
  -1  -3 -11  228.28   11.70
   1   3  11  225.38    9.30
   1   3  11  224.38    9.30
  -2  -3 -11    9.60    1.80
  -2  -3 -11   16.80    4.00
   2   3  11    8.80    1.90
   2   3  11   13.70    2.20
  -3  -3 -11   21.10    2.60
  -3  -3 -11   18.00    4.40
   3   3  11   13.00    2.50
  -4  -3 -11    1.20    3.20
   4   3  11    0.30    2.10
  -5  -3 -11    2.10    3.80
   5   3  11    2.00    2.50
  -6  -3 -11   38.50    6.50
   6   3  11   38.70    5.10
  -7  -3 -11   18.30    6.00
   7   3  11   21.80    4.40
  -8  -3 -11    4.60    5.10
   8   3  11    1.70    4.00
   7  -4 -11    6.50    5.30
  -7   4  11    0.10    3.60
  -6   4  11   21.30    4.30
  -5   4  11   21.60    3.80
  -4   4  11   14.80    3.10
   3  -4 -11   10.70    2.40
  -3   4  11    6.00    2.20
   2  -4 -11   52.19    3.80
   2  -4 -11   49.20    4.50
  -2   4  11   44.10    3.80
  -2   4  11   47.80    3.60
   1  -4 -11   12.70    1.70
   1  -4 -11   11.20    3.10
  -1   4  11   12.20    2.00
  -1   4  11   10.60    1.70
   0  -4 -11  171.78    6.80
   0  -4 -11  181.38    9.70
   0   4  11  178.48    7.10
   0   4  11  173.68    7.10
  -1  -4 -11    8.60    3.20
  -1  -4 -11    8.80    1.20
   1   4  11   11.00    1.50
   1   4  11   10.90    1.50
  -2  -4 -11  157.98    6.70
  -2  -4 -11  162.58    9.80
   2   4  11  166.48    7.00
   2   4  11  173.58    7.10
  -3  -4 -11   65.89    6.50
  -3  -4 -11   65.79    5.10
   3   4  11   62.49    4.10
   3   4  11   65.19    4.10
  -4  -4 -11    0.20    3.00
  -4  -4 -11    1.40    1.80
   4   4  11    1.80    1.90
  -5  -4 -11  154.28   10.90
   5   4  11  161.98    8.30
  -6  -4 -11   29.50    6.00
   6   4  11   22.10    3.70
  -7  -4 -11   56.99    8.30
   7   4  11   55.39    6.00
  -8  -4 -11   -1.00    4.70
   8   4  11   -0.20    3.30
   7  -5 -11   80.49    9.00
  -7   5  11   53.19    6.70
   6  -5 -11   38.40    6.60
  -6   5  11   37.10    5.20
  -5   5  11   48.60    5.20
  -4   5  11    0.20    2.20
  -3   5  11   27.20    3.30
   2  -5 -11   69.89    5.10
  -2   5  11   59.09    3.90
   1  -5 -11  235.28    9.30
   1  -5 -11  252.97   11.80
  -1   5  11  264.57    9.60
  -1   5  11  242.88    9.50
   0  -5 -11   55.79    5.70
  -1  -5 -11  156.18    9.20
  -2  -5 -11   33.30    4.90
   2   5  11   28.50    2.00
   2   5  11   27.10    2.10
  -3  -5 -11   40.00    4.20
  -3  -5 -11   43.00    6.00
   3   5  11   31.00    2.70
   3   5  11   36.70    2.80
  -4  -5 -11  128.89    9.30
  -4  -5 -11  124.89    7.00
   4   5  11  130.59    6.40
  -5  -5 -11   19.30    5.00
  -5  -5 -11   16.00    2.90
   5   5  11   18.90    3.10
  -6  -5 -11   62.89    8.40
   6   5  11   60.79    5.40
  -7  -5 -11    2.90    4.80
   7   5  11    0.10    2.80
  -8  -5 -11   -0.40    4.60
   8   5  11    2.80    3.50
   7  -6 -11   22.80    6.40
   6  -6 -11   88.29    9.00
  -6   6  11   75.19    7.10
  -5   6  11    6.70    3.10
  -4   6  11    9.20    2.80
  -3   6  11  288.77   12.00
  -2   6  11   36.30    3.10
   1  -6 -11  339.57   14.70
  -1   6  11  335.17   12.40
  -1   6  11  334.87   12.30
   0  -6 -11  103.59    7.20
  -1  -6 -11    2.10    2.80
  -2  -6 -11   75.19    5.80
  -2  -6 -11   78.89    6.70
  -3  -6 -11  119.19    8.50
  -3  -6 -11  115.99    7.00
   3   6  11  112.09    5.00
   3   6  11  119.09    5.10
  -4  -6 -11   30.20    5.30
  -4  -6 -11   25.50    3.60
   4   6  11   29.90    2.90
  -5  -6 -11  136.69    7.50
  -5  -6 -11  127.99    9.80
   5   6  11  118.89    6.70
  -6  -6 -11    1.00    4.10
   6   6  11   -1.50    2.10
  -7  -6 -11   -3.30    4.00
   7   6  11    1.10    2.70
  -8  -6 -11   22.90    6.50
   8   6  11   23.60    4.40
   6  -7 -11   12.00    5.20
  -6   7  11    5.80    3.50
  -5   7  11    5.10    2.90
  -4   7  11   56.49    5.00
  -3   7  11   21.40    3.00
  -2   7  11   23.60    2.50
  -1  -7 -11   82.09    7.00
  -1  -7 -11   83.89    6.50
  -2  -7 -11  149.09    8.70
  -2  -7 -11  159.28    9.80
  -3  -7 -11  140.39    8.40
  -3  -7 -11  158.38   10.10
  -4  -7 -11   46.60    6.30
  -4  -7 -11   44.20    4.80
   4   7  11   42.20    3.20
  -5  -7 -11    9.40    3.30
  -5  -7 -11    0.70    4.00
   5   7  11    6.20    2.20
  -6  -7 -11   -0.90    2.60
  -6  -7 -11    3.60    4.40
   6   7  11    5.60    2.60
  -7  -7 -11   24.30    6.40
   7   7  11   32.20    4.50
  -8  -7 -11   12.20    6.00
   8   7  11   11.80    3.80
   6  -8 -11    1.90    4.40
  -6   8  11    5.10    3.70
   5  -8 -11   72.29    7.90
  -5   8  11   66.29    6.20
  -4   8  11  136.79    7.80
  -3   8  11   60.69    4.60
  -2   8  11   35.00    3.00
  -1   8  11    3.90    1.20
   0  -8 -11   20.90    4.10
  -1  -8 -11  220.78   11.30
  -2  -8 -11  161.38    9.50
  -2  -8 -11  177.18   10.50
  -3  -8 -11   50.79    5.50
  -3  -8 -11   49.90    6.50
  -4  -8 -11    4.20    3.90
  -4  -8 -11    2.70    2.90
   4   8  11    6.40    1.70
  -5  -8 -11    5.30    3.10
  -5  -8 -11    8.00    4.40
   5   8  11    5.50    2.20
  -6  -8 -11    2.50    3.10
  -6  -8 -11    5.50    4.50
   6   8  11    0.00    2.30
  -7  -8 -11   22.10    6.40
   7   8  11   21.60    3.70
  -8  -8 -11    3.90    5.20
   8   8  11    6.10    3.40
   5  -9 -11   32.80    6.20
  -5   9  11   34.00    5.00
  -4   9  11   80.19    5.90
  -3   9  11    5.50    2.40
  -2   9  11    3.80    1.80
  -1   9  11   13.20    1.70
   0  -9 -11   29.90    4.90
  -1  -9 -11   18.80    4.20
  -2  -9 -11    3.30    3.00
  -3  -9 -11   68.69    6.20
  -4  -9 -11   73.49    7.10
   4   9  11   65.89    3.80
  -5  -9 -11  145.79   11.10
  -5  -9 -11  153.28    9.70
   5   9  11  165.58    7.60
  -6  -9 -11   28.90    6.60
  -6  -9 -11   42.00    5.60
   6   9  11   31.80    3.90
  -7  -9 -11   40.10    7.70
  -7  -9 -11   54.79    6.40
   7   9  11   46.10    5.10
  -8  -9 -11    8.30    5.50
   8   9  11    4.00    3.20
   5 -10 -11    7.50    4.50
  -5  10  11    9.70    3.60
  -4  10  11   -0.90    2.50
  -3  10  11   11.70    2.80
  -2  10  11   71.79    4.70
  -1  10  11   67.69    3.90
   0 -10 -11   80.09    7.40
  -1 -10 -11   96.59    8.00
  -2 -10 -11  154.08    9.70
  -3 -10 -11   27.90    4.80
  -4 -10 -11    6.40    3.80
   4  10  11    8.40    1.70
  -5 -10 -11   70.09    7.50
   5  10  11   89.69    5.30
  -6 -10 -11   47.30    6.10
   6  10  11   38.20    4.20
  -7 -10 -11   13.70    4.30
   7  10  11    9.10    3.30
   8  10  11    4.90    3.30
  -4  11  11    5.70    3.30
  -3  11  11   49.99    4.90
  -2  11  11   70.59    4.90
   1 -11 -11  103.99    9.10
  -1  11  11  101.59    5.40
   0 -11 -11   25.70    5.00
   0  11  11   28.50    2.40
  -1 -11 -11    5.70    3.60
  -2 -11 -11   -4.70    2.60
  -3 -11 -11   23.90    4.90
  -4 -11 -11  100.89    8.70
   4  11  11  101.19    5.10
  -5 -11 -11  165.28   10.90
   5  11  11  167.48    8.00
  -6 -11 -11   10.40    4.50
   6  11  11    6.40    2.80
  -7 -11 -11    0.00    3.80
   7  11  11   -2.80    2.40
  -3  12  11   22.50    3.90
  -2  12  11   75.29    5.50
   1 -12 -11  110.49    9.90
  -1  12  11  106.79    5.90
   0 -12 -11    6.90    4.10
   0  12  11    5.70    1.70
  -1 -12 -11   17.30    4.60
   1  12  11   29.60    2.40
  -2 -12 -11  113.19    9.00
  -3 -12 -11   78.59    8.30
   3  12  11   89.09    4.40
  -4 -12 -11  180.88   11.40
   4  12  11  161.78    7.60
  -5 -12 -11   47.20    6.80
   5  12  11   37.00    3.70
  -6 -12 -11    4.50    3.90
   6  12  11    5.40    2.60
  -7 -12 -11   12.50    4.80
   7  12  11    3.70    3.00
  -2  13  11   13.40    3.20
   1 -13 -11   79.59    9.30
  -1  13  11   69.19    5.10
   0 -13 -11    8.00    4.50
   0  13  11   11.50    2.50
  -1 -13 -11   60.79    7.60
   1  13  11   55.99    4.00
  -2 -13 -11   71.99    7.90
   2  13  11   69.99    4.30
  -3 -13 -11   58.09    7.40
   3  13  11   56.99    4.00
  -4 -13 -11   52.39    7.10
   4  13  11   41.00    3.70
  -5 -13 -11    0.20    3.90
   5  13  11    4.60    2.30
  -6 -13 -11    6.70    4.60
   6  13  11   15.00    3.40
   1 -14 -11   -2.50    4.20
  -1  14  11    0.60    2.50
   0 -14 -11   14.00    5.10
   0  14  11   21.70    3.30
  -1 -14 -11   63.19    8.10
   1  14  11   63.49    4.90
  -2 -14 -11   52.59    7.40
   2  14  11   49.40    5.30
  -3 -14 -11   15.70    5.00
   3  14  11   12.40    3.50
  -4 -14 -11   32.10    6.60
   4  14  11   32.80    3.70
  -5 -14 -11    8.70    4.80
   5  14  11    4.80    2.70
  -1 -15 -11   38.70    7.10
  -2 -15 -11    2.00    3.90
  -3 -15 -11   -4.40    3.60
  -4 -15 -11   12.60    5.10
   3   6 -12   -8.20    5.00
  -3  -6  12    3.00    4.10
  -3  -6  12    6.20    4.90
   2   6 -12    3.50    5.90
  -2  -6  12   -1.70    4.30
   1   6 -12   11.90    6.50
  -1  -6  12   16.00    5.50
   0   6 -12   34.70    8.30
   0  -6  12   39.90    6.70
  -1   6 -12   11.50    6.30
   1  -6  12   12.30    5.30
  -5  -5  12   15.40    5.60
  -4  -5  12   -2.30    3.60
   3   5 -12   -1.40    6.60
  -3  -5  12    1.30    4.10
  -3  -5  12    5.30    4.70
   2   5 -12   15.60    5.90
  -2  -5  12   17.50    5.30
  -2  -5  12   22.90    5.20
   1   5 -12   19.00    6.30
  -1  -5  12   11.20    4.80
   0   5 -12   27.10    7.10
   0  -5  12   29.30    5.80
  -1   5 -12    8.70    6.90
   1  -5  12   22.50    5.40
  -2   5 -12   -2.90    5.20
   2  -5  12    0.90    4.80
  -3   5 -12   10.20    7.10
   3  -5  12    6.10    4.90
  -5  -4  12   -2.30    4.40
  -4  -4  12    8.00    4.70
   3   4 -12   38.30    6.70
  -3  -4  12   38.90    6.10
   2   4 -12    8.40    4.90
  -2  -4  12    8.90    4.10
   1   4 -12    0.20    4.60
  -1  -4  12    2.30    4.00
   0   4 -12   28.50    6.40
   0  -4  12   26.40    5.30
  -1   4 -12    0.70    4.70
   1  -4  12   -3.90    3.80
  -2   4 -12   10.00    6.20
   2  -4  12   16.70    5.10
  -3   4 -12   17.50    8.10
   3  -4  12   26.20    5.60
  -4   4 -12    6.90    6.70
   4  -4  12   17.40    6.00
  -5  -3  12   -0.60    3.80
  -4  -3  12   81.09    8.00
   3   3 -12   37.80    6.40
  -3  -3  12   56.29    6.40
   2   3 -12   36.60    7.30
  -2  -3  12   40.00    5.90
   1   3 -12   -2.10    4.10
  -1  -3  12    0.90    3.60
   0   3 -12   22.00    6.00
   0  -3  12   34.10    5.20
  -1   3 -12    7.20    6.40
   1  -3  12    8.10    4.00
  -2   3 -12   71.59    9.90
   2  -3  12   85.39    8.00
  -3   3 -12   29.20    7.20
   3  -3  12   15.50    4.80
  -4   3 -12   -7.90    5.90
   4  -3  12    3.20    4.30
  -5   3 -12    4.80    6.40
   5  -3  12    3.60    5.00
  -6  -2  12    1.90    3.80
  -4  -2  12  156.68   10.00
   3   2 -12   23.30    5.20
  -3  -2  12   30.40    5.00
   2   2 -12    3.60    4.10
  -2  -2  12   11.50    3.80
   1   2 -12    0.10    4.40
  -1  -2  12    1.30    3.20
   0   2 -12   -6.10    3.80
   0  -2  12   -1.50    2.90
  -1   2 -12   92.89   10.00
   1  -2  12   75.99    7.20
  -2   2 -12   87.29    9.90
   2  -2  12   89.59    7.80
  -3   2 -12   53.99    8.80
   3  -2  12   61.29    6.60
  -4   2 -12    3.60    4.60
   4  -2  12    4.90    4.00
  -5   2 -12    1.10    5.40
   5  -2  12    6.80    4.60
  -6  -1  12   19.30    4.90
  -5  -1  12   95.79    8.00
  -4  -1  12   83.89    7.00
   3   1 -12   38.60    5.30
  -3  -1  12   45.70    5.40
   2   1 -12   11.30    3.80
  -2  -1  12    6.10    3.20
   1   1 -12   48.70    6.60
  -1  -1  12   53.39    5.50
   0   1 -12   95.09    8.30
   0  -1  12  106.89    7.20
  -1   1 -12   25.40    5.50
   1  -1  12   20.70    4.30
  -2   1 -12  125.89   10.40
   2  -1  12  138.29    8.70
  -3   1 -12    7.20    4.80
   3  -1  12    8.40    3.70
  -4   1 -12   24.20    6.60
   4  -1  12   20.50    4.60
  -5   1 -12   15.10    6.30
   5  -1  12    8.20    4.50
  -6   1 -12    6.40    6.20
   6  -1  12    7.70    4.60
  -7   0  12   38.10    6.00
  -6   0  12   66.49    6.90
  -5   0  12   60.69    6.50
   3   0 -12    5.70    3.00
  -3   0  12   -1.40    2.60
   2   0 -12   16.50    4.00
  -2   0  12   19.80    3.70
   1   0 -12   -1.70    4.50
  -1   0  12   26.90    4.00
   0   0 -12  268.87   15.10
   0   0  12  305.17   13.20
  -1   0 -12  122.39   10.10
   1   0  12  139.19    8.10
  -2   0 -12   12.50    4.70
   2   0  12   12.80    3.60
  -3   0 -12    7.80    4.80
   3   0  12    6.70    3.20
  -4   0 -12   38.50    7.20
   4   0  12   26.20    4.70
  -5   0 -12   20.80    6.20
   5   0  12   14.30    4.20
  -6   0 -12   27.00    7.10
   6   0  12   31.80    5.90
  -7   1  12   19.70    5.00
  -6   1  12   19.30    4.50
  -5   1  12   12.00    3.60
  -4   1  12    2.00    2.90
   3  -1 -12    2.80    2.40
  -3   1  12   -2.00    2.30
   2  -1 -12   39.50    5.40
  -2   1  12   49.00    4.80
   1  -1 -12  202.78   11.10
  -1   1  12  198.88    9.80
   0  -1 -12  198.38   11.50
   0   1  12  205.58    9.70
  -1  -1 -12    2.80    3.50
   1   1  12    5.50    2.50
  -2  -1 -12   18.30    5.50
   2   1  12   20.30    3.30
  -3  -1 -12    6.40    4.40
   3   1  12    0.10    2.50
  -4  -1 -12   55.79    7.90
   4   1  12   52.39    5.50
  -5  -1 -12   66.49    8.80
   5   1  12   64.39    6.50
  -6  -1 -12    0.80    4.80
   6   1  12    6.90    4.00
  -7  -1 -12   -1.80    5.30
   7   1  12   -3.50    3.90
  -7   2  12    8.70    4.20
  -6   2  12   28.60    4.90
  -5   2  12    3.30    3.10
  -4   2  12   81.09    6.00
   3  -2 -12   66.19    5.30
  -3   2  12   65.99    5.40
   2  -2 -12   77.39    6.10
  -2   2  12   72.39    5.40
   1  -2 -12  296.47   13.50
  -1   2  12  251.47   11.70
   0  -2 -12   31.20    4.90
   0   2  12   34.80    3.70
  -1  -2 -12   42.90    5.90
   1   2  12   39.90    3.80
  -2  -2 -12   47.20    6.40
   2   2  12   37.70    3.90
  -3  -2 -12   -0.20    3.70
   3   2  12    3.30    2.40
  -4  -2 -12   11.70    4.80
   4   2  12   14.40    3.30
  -5  -2 -12   57.19    8.10
   5   2  12   35.40    4.80
  -6  -2 -12    2.10    4.80
   6   2  12   -2.30    2.90
  -7  -2 -12    2.90    5.40
   7   2  12    0.80    3.90
  -7   3  12    8.40    4.50
  -6   3  12    2.60    3.30
  -5   3  12   10.10    3.30
  -4   3  12   57.79    5.30
   3  -3 -12   32.30    3.90
  -3   3  12   35.10    3.90
   2  -3 -12   17.20    3.40
  -2   3  12   20.70    2.90
   1  -3 -12   70.89    5.90
  -1   3  12   69.09    4.70
   0  -3 -12  206.38   11.30
   0   3  12  226.58    9.30
  -1  -3 -12   74.79    7.00
   1   3  12   77.69    4.60
  -2  -3 -12  122.89    8.70
   2   3  12  115.69    6.10
  -3  -3 -12   17.50    4.80
   3   3  12   15.10    2.80
  -4  -3 -12   28.60    5.40
   4   3  12   35.00    4.10
  -5  -3 -12    6.60    4.50
   5   3  12    8.30    3.00
  -6  -3 -12    0.60    4.60
   6   3  12   -3.50    2.90
  -7  -3 -12   13.50    5.90
   7   3  12   16.40    4.20
  -6   4  12    5.30    3.60
  -5   4  12   31.10    4.60
  -4   4  12   29.00    3.90
  -3   4  12   53.99    4.50
   2  -4 -12    9.50    2.90
   1  -4 -12   45.50    5.10
  -1   4  12   46.30    3.50
   0  -4 -12  346.27   16.00
   0   4  12  345.67   13.30
   0   4  12  358.56   13.30
  -1  -4 -12   71.59    6.40
   1   4  12   58.79    3.60
   1   4  12   66.49    3.60
  -2  -4 -12  155.78    9.80
   2   4  12  144.09    6.60
  -3  -4 -12   13.50    4.50
   3   4  12   14.10    2.40
  -4  -4 -12   28.20    5.60
   4   4  12   34.60    3.50
  -5  -4 -12    0.40    4.00
   5   4  12    3.00    2.60
  -6  -4 -12   12.30    5.50
   6   4  12    6.70    3.00
  -7  -4 -12   29.50    6.70
   7   4  12   27.20    4.70
  -6   5  12   18.30    4.30
  -5   5  12   62.39    5.90
  -4   5  12   10.00    2.90
  -3   5  12   36.20    3.70
   2  -5 -12   -1.10    2.20
  -2   5  12    0.00    1.60
   1  -5 -12  101.89    7.00
  -1   5  12   96.39    4.80
  -1   5  12   97.49    5.00
   0  -5 -12   74.99    6.50
  -1  -5 -12  280.67   13.90
  -2  -5 -12    7.50    3.70
   2   5  12    5.00    1.20
   2   5  12    6.20    1.30
  -3  -5 -12  115.89    8.60
   3   5  12  104.09    5.20
  -4  -5 -12   19.50    3.20
  -4  -5 -12   27.50    5.70
   4   5  12   18.10    2.60
  -5  -5 -12    0.40    3.50
   5   5  12    0.70    2.10
  -6  -5 -12   57.09    8.30
   6   5  12   50.69    5.20
  -7  -5 -12    8.80    5.30
   7   5  12    4.70    3.00
  -8  -5 -12    8.50    5.80
   8   5  12    4.70    3.70
  -6   6  12   62.59    6.50
  -5   6  12    7.10    3.20
  -4   6  12    5.50    2.70
  -3   6  12    8.10    2.40
  -2   6  12    1.00    1.60
   1  -6 -12  305.67   13.70
  -1   6  12  288.27   11.00
   0  -6 -12   30.60    4.80
  -1  -6 -12  119.59    8.30
  -2  -6 -12    1.30    3.10
  -3  -6 -12    0.80    2.30
  -3  -6 -12    4.70    3.50
   3   6  12    1.60    1.20
  -4  -6 -12   24.00    3.60
  -4  -6 -12   26.40    5.70
   4   6  12   25.50    2.80
  -5  -6 -12  107.19    9.00
   5   6  12  110.19    6.20
  -6  -6 -12   15.20    5.40
   6   6  12   24.40    3.70
  -7  -6 -12   29.70    6.70
   7   6  12   19.60    3.80
  -8  -6 -12    6.30    5.50
   8   6  12    0.00    3.40
  -6   7  12   27.50    5.10
  -5   7  12    2.50    3.10
  -4   7  12    3.90    2.60
  -3   7  12   20.60    2.90
  -2   7  12    8.10    1.80
   0  -7 -12   19.10    4.10
  -1  -7 -12   37.70    5.40
  -2  -7 -12   21.80    3.90
  -2  -7 -12   26.80    5.00
  -3  -7 -12    4.70    2.90
  -3  -7 -12    7.10    4.10
  -4  -7 -12   25.80    5.60
  -4  -7 -12   18.10    3.60
   4   7  12   18.40    2.20
  -5  -7 -12   41.50    4.80
  -5  -7 -12   49.00    7.40
   5   7  12   49.30    4.00
  -6  -7 -12    9.60    5.10
   6   7  12    5.00    2.50
  -7  -7 -12    2.10    4.90
   7   7  12    2.60    2.90
  -8  -7 -12   13.90    6.60
   8   7  12    7.70    3.70
  -5   8  12   -1.50    2.90
  -4   8  12   21.60    3.60
  -3   8  12  115.89    6.30
  -2   8  12   68.29    4.00
  -1  -8 -12    9.40    4.00
  -1  -8 -12   17.60    3.90
  -2  -8 -12   35.60    5.60
  -2  -8 -12   33.30    4.70
  -3  -8 -12   36.30    6.00
  -3  -8 -12   31.30    4.50
  -4  -8 -12    3.00    2.70
  -4  -8 -12    3.30    3.70
   4   8  12   -0.10    1.30
  -5  -8 -12    1.30    2.80
  -5  -8 -12    6.90    4.60
   5   8  12    6.00    2.10
  -6  -8 -12   -0.10    4.10
  -6  -8 -12    0.10    3.90
   6   8  12    1.40    2.30
  -7  -8 -12    0.20    4.80
   7   8  12    0.90    2.60
  -8  -8 -12    4.10    5.50
   8   8  12    5.90    3.30
  -5   9  12   -2.90    3.00
  -4   9  12   41.40    4.60
  -3   9  12   23.70    3.20
  -2   9  12   10.40    2.10
  -1  -9 -12   63.49    6.80
  -2  -9 -12   51.79    6.10
  -3  -9 -12   10.10    4.40
  -3  -9 -12    7.70    3.50
  -4  -9 -12    2.40    3.60
  -4  -9 -12   -1.00    2.80
  -5  -9 -12    6.30    3.50
  -5  -9 -12    5.30    4.40
   5   9  12    6.80    2.00
  -6  -9 -12    2.50    3.40
  -6  -9 -12   -6.30    3.80
   6   9  12    2.90    2.20
  -7  -9 -12   16.30    6.40
   7   9  12   11.50    3.40
   8   9  12    6.70    3.60
  -4  10  12   27.50    4.10
  -3  10  12   10.00    2.80
  -2  10  12    1.00    1.90
   0 -10 -12    6.60    3.70
  -1 -10 -12   38.20    5.50
  -2 -10 -12  197.68   11.60
  -3 -10 -12   96.19    7.90
  -4 -10 -12   34.50    5.50
  -5 -10 -12    8.80    3.90
   5  10  12    4.40    2.00
  -6 -10 -12   12.80    4.30
   6  10  12   19.70    3.20
  -7 -10 -12   24.90    7.70
   7  10  12   25.70    4.20
  -4  11  12    9.90    3.30
  -3  11  12    2.20    2.40
  -2  11  12    5.10    2.10
  -1  11  12   65.59    3.80
   0 -11 -12   -5.30    2.70
  -1 -11 -12  189.38   11.60
  -2 -11 -12   39.40    6.00
  -3 -11 -12   63.89    7.00
  -4 -11 -12   23.00    5.00
  -5 -11 -12   16.80    4.80
   5  11  12   16.20    2.50
  -6 -11 -12   43.60    6.30
   6  11  12   44.20    4.40
  -7 -11 -12    7.90    4.60
   7  11  12   14.10    3.30
  -3  12  12   14.40    3.40
  -2  12  12   10.30    2.70
   0 -12 -12   55.99    7.50
  -1 -12 -12   24.30    5.30
  -2 -12 -12   -5.10    3.00
  -3 -12 -12   13.40    4.40
  -4 -12 -12   38.90    6.20
  -5 -12 -12   62.99    7.60
  -6 -12 -12   18.60    5.30
   6  12  12   17.50    3.20
  -2  13  12   79.99    6.00
   0 -13 -12   73.39    8.40
  -1 -13 -12    3.90    4.40
  -2 -13 -12    4.10    4.00
  -3 -13 -12   44.50    6.70
  -4 -13 -12   43.20    6.70
  -5 -13 -12   66.29    8.20
  -6 -13 -12    3.90    4.40
   1 -14 -12    3.80    4.50
   0 -14 -12   15.40    5.40
  -1 -14 -12   35.10    6.60
  -2 -14 -12   11.60    5.20
  -3 -14 -12   61.39    7.80
  -4 -14 -12   35.30    6.40
  -5 -14 -12    4.30    4.70
  -1 -15 -12   33.80    7.00
  -2 -15 -12   11.20    5.10
  -3 -15 -12    3.50    4.60
   3   5 -13   -4.50    5.20
  -3  -5  13   -2.20    5.40
  -3  -5  13    2.30    4.70
   2   5 -13   -6.00    5.10
  -2  -5  13    4.90    4.90
   1   5 -13    9.10    6.00
  -1  -5  13   15.30    5.30
   0   5 -13   21.20    6.80
   0  -5  13   25.30    5.90
  -1   5 -13   25.60    7.20
   1  -5  13   28.90    6.10
  -4  -4  13    2.50    4.30
   3   4 -13   -3.40    5.10
  -3  -4  13    7.10    4.60
   2   4 -13    5.80    6.30
  -2  -4  13    8.20    4.40
   1   4 -13   29.70    7.30
  -1  -4  13   52.69    7.00
   0   4 -13   15.50    6.90
   0  -4  13   15.80    5.10
  -1   4 -13    4.70    7.30
   1  -4  13   17.50    5.10
  -2   4 -13    8.40    6.70
   2  -4  13    3.10    4.90
  -3   4 -13   -0.70    6.10
   3  -4  13   -3.60    4.60
  -5  -3  13   15.00    5.20
  -4  -3  13   16.70    5.20
   3   3 -13    4.50    4.50
  -3  -3  13   -2.10    4.00
   2   3 -13   20.00    5.90
  -2  -3  13   30.90    5.50
   1   3 -13   14.40    5.70
  -1  -3  13   20.20    5.00
   0   3 -13   11.00    5.70
   0  -3  13    4.20    3.90
  -1   3 -13   -3.60    4.50
   1  -3  13   -1.70    3.80
  -2   3 -13    5.00    5.90
   2  -3  13   11.60    4.70
  -3   3 -13   30.70    8.00
   3  -3  13   14.10    5.30
  -4   3 -13    5.70    6.10
   4  -3  13   13.60    5.40
  -5  -2  13    0.60    3.70
  -4  -2  13   95.19    8.50
   3   2 -13   24.90    5.40
  -3  -2  13   31.80    5.20
   2   2 -13   14.80    4.90
  -2  -2  13   29.10    5.10
   1   2 -13   -7.30    4.10
  -1  -2  13    2.60    3.60
   0   2 -13   -4.60    4.80
   0  -2  13    4.00    3.60
  -1   2 -13   -3.10    3.70
   1  -2  13   -2.60    3.30
  -2   2 -13   42.30    7.70
   2  -2  13   37.50    5.90
  -3   2 -13   55.69    8.80
   3  -2  13   42.60    6.20
  -4   2 -13   15.20    6.60
   4  -2  13   16.50    5.00
  -6  -1  13   -4.60    3.50
  -4  -1  13   81.89    7.60
   3   1 -13   81.79    7.60
  -3  -1  13   95.19    7.50
   2   1 -13    8.30    4.20
  -2  -1  13    9.60    3.70
   1   1 -13    3.30    3.60
  -1  -1  13   -1.00    3.10
   0   1 -13   11.50    4.60
   0  -1  13   10.30    3.70
  -1   1 -13    8.40    4.80
   1  -1  13    7.10    3.70
  -2   1 -13   20.70    6.60
   2  -1  13   31.50    5.10
  -3   1 -13   18.30    6.10
   3  -1  13   24.90    4.90
  -4   1 -13   -2.30    4.60
   4  -1  13    2.90    3.80
  -5   1 -13   -2.00    5.50
   5  -1  13    1.00    4.10
  -6   0  13    1.30    3.90
  -5   0  13   40.20    5.60
  -4   0  13   77.89    6.80
   3   0 -13   56.59    6.40
  -3   0  13   54.39    5.90
   2   0 -13    4.10    3.50
  -2   0  13    4.00    3.20
   1   0 -13   48.40    6.50
  -1   0  13   55.59    5.40
   0   0 -13    2.30    3.80
   0   0  13   -1.20    2.60
  -1   0 -13  192.88   12.70
   1   0  13  199.38   10.30
  -2   0 -13   49.90    7.60
   2   0  13   51.09    5.50
  -3   0 -13   67.29    9.10
   3   0  13   67.79    6.60
  -4   0 -13   14.00    5.60
   4   0  13   14.70    4.10
  -5   0 -13   -4.90    4.80
   5   0  13    5.60    4.10
  -6   0 -13   18.50    7.20
   6   0  13   15.90    5.10
  -6   1  13    2.90    3.50
  -5   1  13   25.00    4.70
   3  -1 -13    3.10    3.00
  -3   1  13    5.90    3.10
   2  -1 -13    1.00    2.90
  -2   1  13    2.70    2.80
   1  -1 -13   56.39    6.70
  -1   1  13   54.59    5.10
   0  -1 -13    0.80    3.30
   0   1  13   -0.80    2.50
  -1  -1 -13  188.78   11.90
   1   1  13  198.88    9.80
  -2  -1 -13    8.50    4.70
   2   1  13    4.70    2.70
  -3  -1 -13   -2.40    4.00
   3   1  13    1.20    2.70
  -4  -1 -13   29.30    6.60
   4   1  13   32.70    4.90
  -5  -1 -13   17.10    6.20
   5   1  13   13.50    4.10
  -6  -1 -13   14.60    6.50
   6   1  13   16.40    4.90
  -6   2  13   46.60    6.10
  -5   2  13    9.20    3.60
  -4   2  13    9.30    3.50
  -3   2  13   20.20    3.60
   2  -2 -13   45.30    5.60
  -2   2  13   49.60    4.80
   1  -2 -13   24.90    4.90
  -1   2  13   28.10    3.70
   0  -2 -13   87.09    8.00
   0   2  13  105.99    6.10
  -1  -2 -13   11.60    4.30
   1   2  13    8.10    2.60
  -2  -2 -13    4.00    3.80
   2   2  13    4.30    2.50
  -3  -2 -13   17.00    5.30
   3   2  13   15.20    3.30
  -4  -2 -13   10.00    5.10
   4   2  13    3.20    2.90
  -5  -2 -13   62.79    8.90
   5   2  13   44.20    5.50
  -6  -2 -13   10.80    6.10
   6   2  13   20.10    4.40
  -6   3  13    4.50    3.70
  -5   3  13   11.70    3.70
  -4   3  13   56.29    5.30
   2  -3 -13   46.00    5.30
  -2   3  13   44.10    4.40
   1  -3 -13    1.10    2.80
  -1   3  13    5.10    2.30
   0  -3 -13  137.49    9.20
   0   3  13  147.89    7.10
  -1  -3 -13   19.00    4.80
   1   3  13   32.90    3.30
  -2  -3 -13   27.70    5.30
   2   3  13   25.00    3.20
  -3  -3 -13    5.60    3.90
   3   3  13    8.40    2.50
  -4  -3 -13    8.40    4.50
   4   3  13    5.70    2.80
  -5  -3 -13   52.39    7.80
   5   3  13   44.10    5.00
  -6  -3 -13   10.30    5.60
   6   3  13    5.80    3.50
  -7  -3 -13   -0.50    5.30
   7   3  13   -3.00    3.30
  -6   4  13    3.20    3.30
  -5   4  13    3.30    3.10
  -4   4  13  130.69    7.70
  -3   4  13    9.60    2.70
   2  -4 -13  163.98    9.30
  -2   4  13  181.28    8.20
   1  -4 -13    0.70    2.80
  -1   4  13   -1.10    1.80
   0  -4 -13  164.98    9.70
   0   4  13  149.69    7.00
  -1  -4 -13  249.68   13.30
   1   4  13  250.87   10.00
  -2  -4 -13   54.99    6.80
   2   4  13   47.20    3.70
  -3  -4 -13  103.79    8.90
   3   4  13  105.99    5.80
  -4  -4 -13   31.00    6.00
   4   4  13   18.50    3.00
  -5  -4 -13   42.20    7.50
   5   4  13   43.00    4.60
  -6  -4 -13    9.40    5.30
   6   4  13    9.20    3.20
  -7  -4 -13    4.10    5.50
   7   4  13    2.60    3.50
  -6   5  13   -1.40    3.30
  -5   5  13   61.19    6.00
  -4   5  13   40.50    4.60
  -3   5  13  119.69    6.60
   2  -5 -13   13.80    3.60
   1  -5 -13  162.28    9.20
  -1   5  13  149.29    6.80
   0  -5 -13  115.99    8.20
   0   5  13  108.59    4.80
  -1  -5 -13   87.69    7.60
  -2  -5 -13  169.08   10.80
   2   5  13  171.48    7.00
  -3  -5 -13   11.10    4.40
   3   5  13   12.30    2.10
  -4  -5 -13   39.20    6.20
   4   5  13   45.30    3.90
  -5  -5 -13    5.90    4.60
   5   5  13   13.00    2.90
  -6  -5 -13    1.20    4.70
   6   5  13    2.00    2.80
  -7  -5 -13    2.10    5.30
   7   5  13    8.90    3.50
  -6   6  13    6.00    3.90
  -5   6  13   68.99    6.30
  -4   6  13   33.40    4.20
  -3   6  13   29.10    3.40
  -2   6  13   27.50    2.90
   1  -6 -13    3.60    2.90
   0  -6 -13  106.99    8.10
  -1  -6 -13  358.66   16.90
  -2  -6 -13   31.30    5.40
  -3  -6 -13   72.09    8.00
   3   6  13   64.29    3.50
  -4  -6 -13    2.60    2.40
  -4  -6 -13    7.60    4.40
   4   6  13    3.20    1.70
  -5  -6 -13    2.20    4.20
   5   6  13    3.40    2.10
  -6  -6 -13   80.19    9.40
   6   6  13   72.19    5.90
  -7  -6 -13   28.00    7.10
   7   6  13   30.30    4.60
  -5   7  13   13.80    3.60
  -4   7  13    1.90    2.50
  -3   7  13   -0.10    2.00
  -2   7  13    2.20    1.60
   0  -7 -13  265.67   13.50
  -1  -7 -13   48.60    6.50
  -2  -7 -13   52.79    7.00
  -3  -7 -13    0.00    3.70
  -3  -7 -13   -2.70    2.30
  -4  -7 -13    0.00    2.50
  -4  -7 -13    0.40    3.60
   4   7  13    3.20    1.40
  -5  -7 -13   57.89    8.10
   5   7  13   67.79    4.60
  -6  -7 -13   16.20    5.60
   6   7  13   21.30    3.40
  -7  -7 -13   25.20    6.70
   7   7  13   21.80    3.90
  -5   8  13   31.80    4.70
  -4   8  13   -2.50    2.40
  -3   8  13    9.90    2.40
  -2   8  13  108.59    5.30
  -1  -8 -13   11.00    4.00
  -2  -8 -13    1.30    3.50
  -2  -8 -13   -2.00    2.60
  -3  -8 -13    5.60    3.20
  -3  -8 -13   10.20    4.60
  -4  -8 -13   -0.90    2.60
  -4  -8 -13    0.60    4.10
  -5  -8 -13   45.80    5.30
  -5  -8 -13   42.90    7.60
   5   8  13   43.90    3.80
  -6  -8 -13   26.60    6.60
   6   8  13   17.20    3.10
  -7  -8 -13   -0.70    5.30
   7   8  13    7.10    3.00
  -4   9  13    1.40    2.80
  -3   9  13    7.90    2.40
  -2   9  13   38.30    3.10
  -1  -9 -13   94.89    7.80
  -2  -9 -13  117.99    8.40
  -3  -9 -13  101.29    8.90
  -3  -9 -13   82.99    7.30
  -4  -9 -13   38.70    7.00
  -4  -9 -13   42.70    5.40
  -5  -9 -13   45.30    7.50
  -5  -9 -13   31.70    5.10
   5   9  13   36.90    3.30
  -6  -9 -13    8.90    5.40
   6   9  13   12.90    2.80
  -7  -9 -13   -2.40    5.00
   7   9  13   -0.70    2.70
  -4  10  13   21.20    3.70
  -3  10  13   51.29    4.50
  -2  10  13   31.40    4.30
  -1 -10 -13    4.90    3.70
  -2 -10 -13   90.99    7.90
  -3 -10 -13   80.29    7.40
  -4 -10 -13   71.29    7.30
  -5 -10 -13    8.50    3.80
  -6 -10 -13    4.80    3.80
  -6 -10 -13   -7.70    4.10
   6  10  13   -0.30    1.90
   7  10  13   19.90    3.80
  -3  11  13   29.00    3.70
  -1 -11 -13   78.09    8.00
  -2 -11 -13  110.09    8.90
  -3 -11 -13  146.99   10.20
  -4 -11 -13    2.80    3.60
  -5 -11 -13    3.50    3.50
  -6 -11 -13   38.50    6.30
   0 -12 -13   60.69    7.60
  -1 -12 -13   64.99    7.80
  -2 -12 -13  124.19   10.00
  -3 -12 -13   13.40    4.60
  -4 -12 -13   -2.40    3.40
  -5 -12 -13   10.40    4.30
  -6 -12 -13    3.60    4.20
   0 -13 -13   40.10    6.90
  -1 -13 -13   55.89    7.60
  -2 -13 -13    7.40    4.30
  -3 -13 -13    3.30    4.30
  -4 -13 -13   21.50    5.60
  -5 -13 -13   63.79    8.00
   0 -14 -13   26.40    6.20
  -1 -14 -13   -1.30    3.90
  -2 -14 -13    2.20    4.40
  -3 -14 -13   19.20    5.50
  -4 -14 -13    7.30    4.60
   2   4 -14    1.70    5.30
  -2  -4  14    0.70    4.40
   1   4 -14   10.50    6.00
  -1  -4  14    7.30    4.70
   0   4 -14   14.50    6.90
   0  -4  14   25.10    5.90
  -1   4 -14   14.10    6.90
   1  -4  14   21.80    5.50
  -4  -3  14   11.90    4.90
  -3  -3  14    7.00    4.50
   2   3 -14    4.60    5.20
  -2  -3  14   19.00    5.00
   1   3 -14   -4.90    5.50
  -1  -3  14    3.50    4.20
   0   3 -14   48.00    9.20
   0  -3  14   65.89    7.50
  -1   3 -14    8.10    5.90
   1  -3  14   -1.00    4.00
  -2   3 -14   -0.60    5.60
   2  -3  14    7.30    4.90
  -4  -2  14    9.30    4.50
  -3  -2  14   18.00    5.10
   2   2 -14   12.00    4.60
  -2  -2  14    6.60    4.20
   1   2 -14   16.90    5.40
  -1  -2  14   21.00    4.80
   0   2 -14   27.50    6.30
   0  -2  14   28.50    5.20
  -1   2 -14   18.70    6.00
   1  -2  14   26.60    5.20
  -2   2 -14  -12.00    5.20
   2  -2  14    0.30    4.00
  -3   2 -14   -0.10    5.40
   3  -2  14   -0.90    4.00
  -5  -1  14    2.50    4.00
  -4  -1  14   32.00    5.60
  -3  -1  14   29.60    5.10
   2   1 -14   15.00    4.40
  -2  -1  14   15.30    4.50
   1   1 -14   13.50    4.90
  -1  -1  14   11.30    4.20
   0   1 -14   27.70    6.10
   0  -1  14   34.00    5.10
  -1   1 -14   27.20    6.30
   1  -1  14   36.10    5.40
  -2   1 -14    1.00    4.40
   2  -1  14   -0.20    3.60
  -3   1 -14   -4.60    5.40
   3  -1  14   -1.60    3.60
  -4   1 -14   13.30    6.60
   4  -1  14   11.80    4.40
  -5   0  14    5.40    3.90
  -4   0  14   14.50    4.50
  -3   0  14  111.09    8.30
   2   0 -14    5.90    3.70
  -2   0  14   10.50    3.70
   1   0 -14    2.80    4.20
  -1   0  14   16.40    3.90
   0   0 -14    3.70    4.80
   0   0  14    5.00    3.40
  -1   0 -14   -1.00    4.00
   1   0  14   -0.60    3.00
  -2   0 -14   74.79    9.40
   2   0  14   76.69    6.90
  -3   0 -14   52.79    8.60
   3   0  14   38.80    5.50
  -4   0 -14    4.80    6.20
   4   0  14    5.30    4.00
  -5   0 -14    1.80    5.80
   5   0  14    0.10    4.00
  -5   1  14    7.50    3.80
  -4   1  14   64.49    6.40
  -3   1  14   48.30    5.60
   2  -1 -14   20.30    4.80
  -2   1  14   23.00    4.10
   1  -1 -14    3.20    3.60
  -1   1  14    2.60    3.00
   0  -1 -14    0.30    3.70
   0   1  14    6.60    3.10
  -1  -1 -14   16.10    5.10
   1   1  14   25.20    4.00
  -2  -1 -14    5.10    4.80
   2   1  14   20.70    3.90
  -3  -1 -14   51.19    8.00
   3   1  14   46.10    5.40
  -4  -1 -14    6.90    5.30
   4   1  14    6.40    3.80
  -5  -1 -14   -0.70    5.30
   5   1  14    7.20    3.90
  -5   2  14   12.90    4.10
  -3   2  14   17.00    3.70
   2  -2 -14   -2.20    2.80
  -2   2  14    0.90    2.70
   1  -2 -14    9.30    3.90
  -1   2  14    6.90    2.90
   0  -2 -14    6.90    3.90
   0   2  14    8.10    2.80
  -1  -2 -14   10.00    4.40
   1   2  14   12.10    3.00
  -2  -2 -14   44.40    6.90
   2   2  14   41.20    4.40
  -3  -2 -14    1.50    4.00
   3   2  14    5.90    2.90
  -4  -2 -14    8.70    5.20
   4   2  14    7.10    3.30
  -5  -2 -14   26.40    7.00
   5   2  14   20.80    4.40
  -6  -2 -14   13.00    6.70
   6   2  14   16.70    4.60
  -5   3  14   24.30    4.40
  -4   3  14   -3.30    2.80
  -3   3  14    3.50    2.80
   2  -3 -14   82.29    6.80
  -2   3  14   75.39    5.70
   1  -3 -14   19.50    4.30
  -1   3  14   19.20    3.10
   0  -3 -14    7.00    3.70
   0   3  14   10.80    2.70
  -1  -3 -14   24.20    5.20
   1   3  14   25.20    3.30
  -2  -3 -14   28.10    5.80
   2   3  14   30.20    3.50
  -3  -3 -14    1.00    3.80
   3   3  14    3.60    2.50
  -4  -3 -14   20.00    6.00
   4   3  14   14.80    3.30
  -5  -3 -14   34.40    7.40
   5   3  14   24.40    4.20
  -6  -3 -14   16.50    6.60
   6   3  14   11.00    3.90
  -5   4  14   25.00    4.50
  -4   4  14   19.60    3.70
   2  -4 -14   67.69    6.30
  -2   4  14   78.09    5.40
   1  -4 -14   32.90    5.00
  -1   4  14   39.80    3.70
   0  -4 -14   43.20    6.00
   0   4  14   43.80    3.80
  -1  -4 -14   28.60    5.40
   1   4  14   23.70    2.70
  -2  -4 -14   12.50    4.50
   2   4  14    9.80    2.30
  -3  -4 -14   19.50    5.30
   3   4  14   17.60    2.80
  -4  -4 -14   41.60    6.80
   4   4  14   29.20    3.80
  -5  -4 -14   32.90    7.10
   5   4  14   21.00    3.80
  -6  -4 -14   24.20    6.90
   6   4  14   16.80    3.90
  -5   5  14    2.40    3.30
  -4   5  14    6.10    2.90
  -3   5  14  262.07   11.60
   2  -5 -14    4.70    3.20
  -2   5  14    3.70    2.30
   1  -5 -14  222.68   12.10
  -1   5  14  231.38    9.40
   0  -5 -14    0.00    3.00
   0   5  14    0.20    1.30
  -1  -5 -14   73.79    7.20
   1   5  14   65.99    3.60
  -2  -5 -14  190.38   11.80
   2   5  14  180.78    7.60
  -3  -5 -14   10.00    4.70
   3   5  14    6.80    1.90
  -4  -5 -14   15.50    5.40
   4   5  14   21.30    3.00
  -5  -5 -14   26.10    6.40
   5   5  14   16.90    3.10
  -6  -5 -14    5.60    5.60
   6   5  14    1.50    3.10
   7   5  14    3.30    3.30
  -5   6  14   26.80    4.30
  -4   6  14   58.79    5.30
  -3   6  14   80.49    5.40
   2  -6 -14  110.39   10.20
  -2   6  14   95.79    5.30
   1  -6 -14   -1.40    3.10
   0  -6 -14   84.39    7.30
  -1  -6 -14  344.47   17.00
  -2  -6 -14   32.80    6.00
  -3  -6 -14  274.17   14.70
   3   6  14  234.58    9.50
  -4  -6 -14    7.10    4.70
   4   6  14    4.40    1.80
  -5  -6 -14   34.10    6.90
   5   6  14   20.10    3.10
  -6  -6 -14   25.30    6.90
   6   6  14   26.20    3.80
  -7  -6 -14    9.70    6.20
   7   6  14    4.10    3.20
  -5   7  14   -0.60    3.20
  -4   7  14   35.10    4.10
  -3   7  14    0.90    2.10
   1  -7 -14   -2.10    2.90
   0  -7 -14    6.30    3.60
  -1  -7 -14  235.98   13.50
  -2  -7 -14   87.19    8.70
  -3  -7 -14    6.50    4.30
  -4  -7 -14   -1.10    4.10
   4   7  14   -0.60    1.30
  -5  -7 -14    6.50    4.70
   5   7  14    3.00    2.00
  -6  -7 -14   11.40    5.70
   6   7  14   20.20    3.30
  -7  -7 -14   19.90    6.80
   7   7  14   29.10    4.40
  -4   8  14   18.60    3.60
  -3   8  14    2.10    2.10
   0  -8 -14   82.29    7.20
  -1  -8 -14   81.89    8.10
  -2  -8 -14   -2.00    3.70
  -3  -8 -14   10.50    3.70
  -3  -8 -14    7.00    4.50
  -4  -8 -14    2.90    3.00
  -4  -8 -14   -1.40    4.00
  -5  -8 -14   27.90    6.80
   5   8  14   22.00    2.90
  -6  -8 -14    9.30    5.70
   6   8  14   12.60    2.90
  -7  -8 -14   40.40    8.70
   7   8  14   31.60    4.30
  -4   9  14    1.60    2.70
  -3   9  14    4.90    2.50
  -2  -9 -14   82.39    8.20
  -2  -9 -14   69.69    7.20
  -3  -9 -14   78.89    7.00
  -3  -9 -14   70.99    8.50
  -4  -9 -14   16.80    5.50
  -4  -9 -14   16.80    4.30
  -5  -9 -14   46.70    7.90
  -5  -9 -14   54.89    8.40
  -6  -9 -14   30.00    7.30
  -2 -10 -14    3.40    3.40
  -3 -10 -14   22.80    4.70
  -4 -10 -14   17.40    4.50
  -4 -10 -14   18.60    6.20
  -5 -10 -14   45.50    6.10
  -5 -10 -14   49.80    8.40
  -6 -10 -14   12.70    6.50
  -1 -11 -14   26.00    5.40
  -2 -11 -14   41.20    6.10
  -3 -11 -14   56.59    7.20
  -4 -11 -14   14.50    4.60
  -5 -11 -14    2.90    3.70
  -1 -12 -14   44.40    6.70
  -2 -12 -14   67.49    7.80
  -3 -12 -14   59.29    7.60
  -4 -12 -14   11.20    4.60
  -5 -12 -14   10.00    4.30
  -1 -13 -14   14.30    5.30
  -2 -13 -14   41.70    6.70
  -3 -13 -14    7.40    4.60
  -4 -13 -14    1.10    3.90
  -5 -13 -14    9.70    4.90
  -1 -14 -14    8.70    4.70
  -2 -14 -14   41.50    7.20
  -3 -14 -14    2.20    4.20
   1   3 -15    3.00    4.90
  -1  -3  15    3.10    4.60
   0   3 -15   31.70    7.00
   0  -3  15   28.80    6.10
  -3  -2  15   -2.90    4.00
   2   2 -15    1.80    4.50
  -2  -2  15    6.60    4.30
   1   2 -15   10.30    4.80
  -1  -2  15    8.20    4.50
   0   2 -15   32.50    7.00
   0  -2  15   33.30    6.10
  -1   2 -15   29.40    7.00
   1  -2  15   37.00    5.80
  -2   2 -15   29.20    7.40
   2  -2  15   38.40    6.20
  -4  -1  15    2.40    4.20
  -3  -1  15    2.30    4.20
   2   1 -15    9.90    5.20
  -2  -1  15   19.90    4.70
   1   1 -15   -6.90    3.90
  -1  -1  15    4.10    3.90
   0   1 -15   34.70    7.40
   0  -1  15   39.40    5.70
  -1   1 -15   21.90    7.30
   1  -1  15   46.40    6.00
  -2   1 -15    3.20    5.30
   2  -1  15    6.00    4.10
  -3   1 -15   -1.50    5.10
   3  -1  15    1.20    4.00
  -4   0  15    2.40    4.00
  -3   0  15   91.89    7.90
   2   0 -15    8.50    4.20
  -2   0  15    5.40    3.70
   1   0 -15   77.49    8.70
  -1   0  15   75.09    6.90
   0   0 -15    5.50    4.50
   0   0  15    2.50    3.70
  -1   0 -15   38.20    7.20
   1   0  15   32.60    5.10
  -2   0 -15   28.70    6.90
   2   0  15   32.30    5.00
  -3   0 -15    3.50    5.50
   3   0  15    6.40    4.20
  -4   0 -15   10.10    6.50
   4   0  15   10.90    4.50
  -4   1  15   17.50    4.40
  -3   1  15   77.49    6.90
   2  -1 -15   20.20    4.90
  -2   1  15   13.40    3.90
   1  -1 -15    0.90    3.60
  -1   1  15   -1.30    3.00
   0  -1 -15    2.10    4.00
   0   1  15    4.30    3.30
  -1  -1 -15   17.20    5.60
   1   1  15   11.60    3.40
  -2  -1 -15   25.10    6.30
   2   1  15   28.30    4.40
  -3  -1 -15   58.69    8.90
   3   1  15   46.20    5.60
  -4  -1 -15    5.70    6.10
   4   1  15    2.00    3.50
  -4   2  15   39.30    5.20
  -3   2  15   44.70    5.40
   2  -2 -15    5.40    3.80
  -2   2  15    9.10    3.60
   1  -2 -15   -1.70    3.10
  -1   2  15   -0.10    2.80
   0  -2 -15    1.30    3.70
   0   2  15   -1.60    2.60
  -1  -2 -15    5.80    4.10
   1   2  15   -0.60    2.60
  -2  -2 -15   40.80    7.10
   2   2  15   43.80    4.90
  -3  -2 -15   13.90    5.90
   3   2  15   10.30    3.40
  -4  -2 -15    7.00    5.80
   4   2  15    6.20    3.40
  -5  -2 -15    5.30    5.80
   5   2  15    4.80    3.80
  -5   3  15    1.40    3.70
  -4   3  15    7.30    3.50
  -3   3  15   19.50    3.90
   2  -3 -15   19.50    6.50
  -2   3  15   11.30    3.40
   1  -3 -15   -2.40    3.10
  -1   3  15    0.40    2.60
   0  -3 -15   43.10    6.60
   0   3  15   45.70    4.50
  -1  -3 -15    3.40    3.90
   1   3  15    2.70    2.40
  -2  -3 -15   64.09    8.30
   2   3  15   49.40    4.80
  -3  -3 -15   11.60    5.30
   3   3  15    6.60    2.80
  -4  -3 -15   -4.70    4.40
   4   3  15    1.30    2.90
  -5  -3 -15   31.40    7.20
   5   3  15   16.00    4.10
  -5   4  15   11.20    3.80
  -3   4  15   -1.20    2.70
  -2   4  15   -0.60    2.50
   1  -4 -15   62.79    6.90
  -1   4  15   53.09    4.70
   0  -4 -15    9.10    4.10
   0   4  15   15.10    2.60
  -1  -4 -15   33.20    5.90
   1   4  15   30.10    3.10
  -2  -4 -15   28.30    5.80
   2   4  15   26.40    3.20
  -3  -4 -15   14.10    5.20
   3   4  15    7.20    2.50
  -4  -4 -15   10.10    5.60
   4   4  15    1.80    2.60
  -5  -4 -15   22.50    6.90
   5   4  15    7.40    3.20
  -6  -4 -15    7.10    5.80
   6   4  15    3.40    3.40
  -5   5  15   14.70    4.10
  -4   5  15   -0.20    2.90
  -3   5  15    9.10    2.80
  -2   5  15   36.50    3.80
   1  -5 -15   87.19    7.60
  -1   5  15   93.69    5.20
   0  -5 -15   36.10    5.90
   0   5  15   22.00    2.40
  -1  -5 -15   35.70    6.10
   1   5  15   36.20    2.80
  -2  -5 -15    4.50    4.00
   2   5  15    2.40    1.60
  -3  -5 -15   13.50    5.30
   3   5  15    6.00    2.00
  -4  -5 -15    6.90    4.60
   4   5  15   13.90    2.90
  -5  -5 -15    9.10    5.70
   5   5  15    5.20    2.80
  -6  -5 -15    9.00    6.20
   6   5  15    4.50    3.30
  -4   6  15    0.90    2.60
  -2   6  15   41.00    3.60
   1  -6 -15   87.49    7.90
   0  -6 -15   22.10    4.90
  -1  -6 -15    7.80    4.20
  -2  -6 -15   27.90    5.60
  -3  -6 -15   64.99    8.50
  -4  -6 -15   17.80    5.60
   4   6  15   20.30    2.70
  -5  -6 -15   28.20    6.80
   5   6  15   23.60    3.40
  -6  -6 -15    1.70    5.60
   6   6  15    0.80    2.60
  -4   7  15    7.10    3.10
  -3   7  15   51.09    4.30
   1  -7 -15   31.90    5.20
   0  -7 -15    2.70    3.90
  -1  -7 -15    9.30    4.40
  -2  -7 -15   75.39    8.50
  -3  -7 -15   48.00    7.60
  -4  -7 -15    9.00    5.20
  -5  -7 -15   -6.00    4.40
   5   7  15    1.20    2.50
  -6  -7 -15   -1.00    5.00
   6   7  15    0.80    2.40
  -4   8  15   50.99    4.90
   0  -8 -15    1.10    3.60
  -1  -8 -15    7.00    4.30
  -2  -8 -15   64.69    8.40
  -3  -8 -15    5.70    4.70
  -4  -8 -15   -2.70    4.10
  -5  -8 -15    4.20    5.50
  -6  -8 -15    0.40    5.30
  -2  -9 -15   15.30    5.00
  -3  -9 -15   -0.10    3.00
  -3  -9 -15   -0.70    4.30
  -4  -9 -15    2.20    3.30
  -4  -9 -15    5.60    5.10
  -5  -9 -15    4.90    5.10
  -6  -9 -15   17.10    6.60
  -3 -10 -15    4.00    3.60
  -4 -10 -15    8.40    4.00
  -4 -10 -15    9.60    5.50
  -5 -10 -15   16.70    6.30
  -2 -11 -15   51.69    6.90
  -3 -11 -15    7.50    4.30
  -4 -11 -15   12.90    4.70
  -5 -11 -15   11.90    4.60
  -2 -12 -15   35.30    6.20
  -3 -12 -15   40.10    6.50
  -4 -12 -15   -0.50    3.90
  -1 -13 -15   11.40    5.00
  -2 -13 -15   36.80    6.60
  -3 -13 -15   21.20    5.80
  -2  -1  16    7.70    4.60
   1   1 -16    5.10    5.10
  -1  -1  16   -4.00    3.80
   0   1 -16   15.70    6.00
   0  -1  16    8.90    4.70
  -1   1 -16   15.90    6.40
   1  -1  16    6.00    4.40
  -3   0  16    4.00    4.30
  -2   0  16   10.60    4.20
   1   0 -16   50.79    7.90
  -1   0  16   66.79    6.70
   0   0 -16   35.10    7.00
   0   0  16   33.60    5.40
  -1   0 -16   25.00    7.00
   1   0  16   39.20    5.50
  -2   0 -16   -0.20    4.90
   2   0  16   -0.70    3.50
  -3   1  16   24.80    5.10
  -2   1  16   17.50    4.30
   1  -1 -16    5.50    4.60
  -1   1  16   11.90    4.00
   0  -1 -16   10.30    5.10
   0   1  16    7.90    3.80
  -1  -1 -16    1.10    4.90
   1   1  16    0.90    3.40
  -2  -1 -16   -0.10    4.90
   2   1  16    3.90    3.60
  -3  -1 -16   22.40    6.90
   3   1  16   13.70    4.30
  -4   2  16   33.10    5.40
  -3   2  16   26.00    4.50
  -2   2  16   33.60    4.80
   1  -2 -16   -0.70    3.70
  -1   2  16    0.60    3.10
   0  -2 -16    0.80    4.00
   0   2  16   -3.50    3.00
  -1  -2 -16    2.40    4.30
   1   2  16    0.10    3.00
  -2  -2 -16   12.20    5.50
   2   2  16   17.00    3.90
  -3  -2 -16   37.10    7.90
   3   2  16   32.60    4.80
  -4  -2 -16   13.80    6.50
   4   2  16   16.70    4.30
  -4   3  16   27.10    4.80
  -3   3  16   19.60    4.20
  -2   3  16   10.10    3.40
   1  -3 -16    5.70    4.00
  -1   3  16    1.10    2.80
   0  -3 -16    3.20    3.90
   0   3  16    0.60    2.70
  -1  -3 -16    2.40    4.30
   1   3  16   -0.10    2.40
  -2  -3 -16   32.40    6.90
   2   3  16   31.10    4.00
  -3  -3 -16   47.30    7.70
   3   3  16   33.00    4.50
  -4  -3 -16    7.00    5.70
   4   3  16    2.30    3.00
  -4   4  16   48.90    5.30
  -3   4  16   17.10    3.80
  -2   4  16    2.50    2.90
   1  -4 -16    6.30    4.00
  -1   4  16    2.30    2.40
   0  -4 -16   11.30    4.40
   0   4  16   11.80    2.70
  -1  -4 -16   23.90    5.60
   1   4  16   14.70    2.80
  -2  -4 -16   54.59    7.70
   2   4  16   58.09    4.90
  -3  -4 -16   21.20    6.20
   3   4  16   28.90    3.60
  -4  -4 -16    4.90    5.10
   4   4  16    8.00    3.00
  -5  -4 -16    2.50    5.50
   5   4  16    2.60    3.20
  -3   5  16   61.19    5.50
  -2   5  16   17.00    3.20
   1  -5 -16   -1.20    3.40
  -1   5  16    1.30    2.60
   0  -5 -16   26.80    5.80
  -1  -5 -16   21.10    5.40
  -2  -5 -16   32.60    6.50
  -3  -5 -16   24.10    5.90
   3   5  16   27.30    3.20
  -4  -5 -16    8.70    5.30
   4   5  16    0.30    2.40
  -5  -5 -16    0.70    5.20
   5   5  16    4.90    2.80
  -4   6  16   29.90    4.40
  -3   6  16   10.30    3.70
   1  -6 -16  182.68   11.50
   0  -6 -16    8.70    4.10
  -1  -6 -16   84.09    9.00
  -2  -6 -16    0.30    3.90
  -3  -6 -16    6.00    4.90
  -4  -6 -16   20.00    6.30
  -5  -6 -16   58.59    9.20
   1  -7 -16   28.70    7.00
   0  -7 -16   82.29    8.80
  -1  -7 -16   -4.50    3.20
  -2  -7 -16    6.50    4.70
  -3  -7 -16   19.10    5.90
  -4  -7 -16    7.90    5.30
  -5  -7 -16   25.30    7.00
   0  -8 -16    6.50    4.20
  -1  -8 -16   -2.80    3.80
  -2  -8 -16    4.50    4.40
  -3  -8 -16   37.10    7.50
  -4  -8 -16   24.10    6.90
  -5  -8 -16   14.70    6.30
  -1  -9 -16   38.80    6.70
  -2  -9 -16   64.99    8.50
  -3  -9 -16   80.59    9.80
  -4  -9 -16   23.60    6.60
  -5  -9 -16   -4.00    5.20
  -3 -10 -16   48.60    8.10
  -4 -10 -16   -0.80    4.70
  -5 -10 -16   10.30    6.00
  -3 -11 -16   -0.70    3.70
  -4 -11 -16    5.90    4.10
  -3 -12 -16   11.90    4.80
   1  -1 -17   14.10    5.50
  -1   1  17   13.90    4.40
   0  -1 -17   10.30    5.00
   0   1  17   14.60    4.50
  -1  -1 -17   23.60    6.80
   1   1  17   26.50    5.00
  -2   2  17   23.70    4.70
   1  -2 -17    2.40    4.50
  -1   2  17    7.80    3.60
   0  -2 -17   34.20    6.80
   0   2  17   20.40    4.30
  -1  -2 -17   -2.60    4.30
   1   2  17   -0.10    3.20
  -2  -2 -17    2.90    5.50
   2   2  17    5.60    3.50
  -2   3  17   19.90    4.20
   1  -3 -17   14.70    4.90
  -1   3  17    8.40    3.30
   0  -3 -17   10.10    4.70
   0   3  17    9.90    3.20
  -1  -3 -17   -4.60    3.80
   1   3  17    2.00    2.80
  -2  -3 -17    5.40    5.10
   2   3  17    0.10    3.00
  -3  -3 -17   17.60    6.50
   3   3  17   17.40    4.00
  -3   4  17   92.69    7.10
  -2   4  17   14.80    3.60
  -1   4  17    4.90    2.80
   0  -4 -17    4.00    4.40
   0   4  17    0.90    3.00
  -1  -4 -17   -0.70    4.00
   1   4  17   -0.20    3.60
  -2  -4 -17   11.50    5.00
   2   4  17   13.00    3.70
  -3  -4 -17   39.80    7.90
   3   4  17   41.40    4.40
   0  -5 -17   -1.40    4.00
  -1  -5 -17    5.70    4.60
  -2  -5 -17   15.10    5.60
  -3  -5 -17   41.30    7.50
  -4  -5 -17    4.60    5.30
   0  -6 -17    7.20    4.60
  -1  -6 -17   42.30    6.90
  -2  -6 -17   33.70    6.90
  -3  -6 -17   17.90    6.20
  -4  -6 -17    3.20    5.30
   0  -7 -17   55.29    7.70
  -1  -7 -17    0.30    4.10
  -2  -7 -17   18.40    5.80
  -3  -7 -17    0.00    4.70
  -4  -7 -17    3.20    4.90
   0  -8 -17    7.30    4.50
  -1  -8 -17    3.80    4.40
  -2  -8 -17   -0.20    4.60
  -3  -8 -17   19.70    6.30
  -4  -8 -17    3.10    5.10
  -1  -9 -17   -0.50    4.20
  -2  -9 -17   28.90    6.70
  -3  -9 -17   33.10    7.40
  -4  -9 -17   30.50    7.70
  -3 -10 -17   84.59   10.50
   0  -4 -18   20.80    5.70
  -1  -4 -18    1.40    4.60
   0  -5 -18   -2.20    4.20
  -1  -5 -18    2.90    4.60
  -2  -5 -18   11.50    5.70
   0  -6 -18   13.30    5.40
  -1  -6 -18   16.80    5.90
  -2  -6 -18    6.30    5.20
   0  -7 -18    4.00    4.90
  -1  -7 -18    1.50    4.90
  -2  -7 -18    0.10    4.80
  -1  -8 -18    6.70    4.80
  -2  -8 -18   -2.40    4.90
   0   0   0    0.00    0.00


_computing_structure_solution     'SHELXT 2014/4 (Sheldrick, 2014)'
_computing_structure_solution     'SHELXT 2014/5 (Sheldrick, 2014)'
_computing_structure_solution     'SHELXT 2014/5 (Sheldrick, 2014)'
;
_shelx_hkl_checksum              3537
_shelx_fab_file
;
-10 -5 1 0.0937 0.1723
-10 -4 1 0.2673 -0.1875
-10 -4 2 -0.0285 0.2723
-10 -3 1 0.6040 -0.1864
-10 -3 2 -0.4138 0.1581
-10 -2 1 0.7753 -0.2445
-10 -2 2 -1.0735 0.1748
-10 -1 1 -0.8052 -0.2917
-10 -1 2 0.2336 0.1087
-9 -9 1 -0.0452 -0.2500
-9 -8 1 -0.6592 -0.3742
-9 -8 2 -0.1310 0.1912
-9 -7 1 -0.7690 -0.1947
-9 -7 2 0.6268 -0.0479
-9 -7 3 0.5236 0.0653
-9 -6 1 0.3520 -0.0783
-9 -6 2 0.3103 -0.0052
-9 -6 3 0.5191 -0.1442
-9 -6 4 0.3517 0.2131
-9 -5 1 0.2407 -0.0259
-9 -5 2 1.4260 0.0537
-9 -5 3 -0.3057 -0.0219
-9 -5 4 -0.3448 -0.0820
-9 -5 5 -0.2417 0.2545
-9 -4 1 0.6838 0.1702
-9 -4 2 0.4122 -0.0867
-9 -4 3 0.2507 0.0474
-9 -4 4 -0.8909 0.0700
-9 -4 5 -0.5558 -0.1014
-9 -4 6 0.3059 0.1539
-9 -3 1 0.4281 0.2959
-9 -3 2 -0.1481 -0.1734
-9 -3 3 -0.0533 0.1147
-9 -3 4 -0.8018 0.0378
-9 -3 5 -0.1554 -0.1209
-9 -3 6 0.5441 0.1389
-9 -2 1 0.9295 0.3530
-9 -2 2 -0.1159 -0.2458
-9 -2 3 -1.4344 0.1123
-9 -2 4 0.5104 0.0507
-9 -2 5 -0.1341 -0.0614
-9 -2 6 0.3672 -0.0307
-9 -2 7 0.6994 0.1081
-9 -1 1 -0.5152 0.2939
-9 -1 2 0.4547 -0.2082
-9 -1 3 -0.9109 0.0570
-9 -1 4 -0.5486 0.0662
-9 -1 5 1.3241 -0.0725
-9 -1 6 -0.0289 0.0102
-9 -1 7 -0.0514 -0.0237
-9 0 1 -1.4307 0.0684
-9 0 2 -0.7961 -0.0747
-9 0 3 0.7732 0.0095
-9 0 4 -0.3879 0.0315
-9 0 5 0.4825 -0.0295
-9 0 6 0.3636 -0.0240
-9 0 7 -0.2893 -0.0316
-9 1 1 -0.1161 -0.1575
-9 1 2 -0.5774 0.0482
-9 1 3 0.0356 0.0187
-9 1 4 0.7941 -0.0399
-9 1 5 0.1219 0.0072
-9 1 6 -0.4474 0.0202
-9 1 7 0.1095 -0.1231
-9 2 1 -1.2267 -0.2338
-9 2 2 1.0886 0.0833
-9 2 3 -0.0300 0.0111
-9 2 4 -0.0651 -0.0128
-9 2 5 0.8471 0.0669
-9 2 6 -0.9337 -0.1451
-9 3 1 0.9962 -0.3097
-9 3 2 -0.8032 0.1705
-9 3 3 1.2151 0.0184
-9 3 4 0.0070 -0.0151
-9 3 5 -0.5803 0.0526
-9 4 1 0.9784 -0.1168
-9 4 2 0.0354 0.0410
-9 4 3 0.3036 0.1522
-8 -10 1 -0.1463 0.5193
-8 -10 2 -1.6809 -0.3023
-8 -9 1 -1.9723 0.4179
-8 -9 2 0.4542 -0.0476
-8 -9 3 -0.7684 -0.0107
-8 -9 4 0.7486 -0.0992
-8 -8 1 -1.2107 0.3496
-8 -8 2 -0.7053 -0.2546
-8 -8 3 0.7535 0.1134
-8 -8 4 1.1855 0.0775
-8 -8 5 -0.0476 -0.3566
-8 -7 1 -0.5835 0.2569
-8 -7 2 0.0319 -0.2443
-8 -7 3 0.6500 0.0076
-8 -7 4 1.5063 0.0522
-8 -7 5 -0.4794 -0.0057
-8 -7 6 -0.6074 -0.1832
-8 -6 1 -0.5726 0.0035
-8 -6 2 1.2441 -0.0366
-8 -6 3 1.0196 -0.0647
-8 -6 4 0.1826 -0.0176
-8 -6 5 -0.1438 0.0492
-8 -6 6 -1.3717 0.0479
-8 -6 7 -0.0277 -0.1340
-8 -5 1 0.7695 -0.2512
-8 -5 2 0.7061 0.0990
-8 -5 3 1.4524 -0.0147
-8 -5 4 -0.6633 -0.0580
-8 -5 5 -0.9373 0.0497
-8 -5 6 -0.5312 0.0519
-8 -5 7 -0.2649 -0.0594
-8 -5 8 0.7639 -0.0059
-8 -4 1 0.1768 -0.4241
-8 -4 2 1.9535 0.1651
-8 -4 3 -0.2660 0.0476
-8 -4 4 -0.5092 -0.0906
-8 -4 5 -1.5894 0.0708
-8 -4 6 0.2849 0.0106
-8 -4 7 0.5565 0.0157
-8 -4 8 0.2303 -0.0856
-8 -3 1 2.6439 -0.4092
-8 -3 2 -0.2309 0.1982
-8 -3 3 -0.6346 -0.0204
-8 -3 4 -0.2361 -0.0119
-8 -3 5 -1.3575 0.0712
-8 -3 6 0.0877 -0.0538
-8 -3 7 1.9801 0.0474
-8 -3 8 -0.2527 0.0043
-8 -3 9 0.0279 -0.0451
-8 -2 1 0.7022 -0.3152
-8 -2 2 0.6964 0.2361
-8 -2 3 -1.3799 -0.0954
-8 -2 4 -1.4010 0.0232
-8 -2 5 0.8501 0.0978
-8 -2 6 0.4390 -0.1032
-8 -2 7 0.6329 0.0398
-8 -2 8 0.4677 0.0567
-8 -2 9 -0.5727 -0.1670
-8 -1 1 -0.9621 -0.2021
-8 -1 2 -0.1877 0.2122
-8 -1 3 -1.3012 -0.0753
-8 -1 4 0.1758 -0.0207
-8 -1 5 -0.3633 0.1027
-8 -1 6 1.8345 -0.0564
-8 -1 7 0.0796 -0.0669
-8 -1 8 -0.7086 0.0339
-8 -1 9 -0.2526 -0.0107
-8 0 1 0.5829 -0.0229
-8 0 2 -2.4719 0.0539
-8 0 3 0.2842 -0.0094
-8 0 4 0.2213 -0.0022
-8 0 5 0.4515 0.0179
-8 0 6 0.7527 -0.0288
-8 0 7 0.0301 -0.0707
-8 0 8 -0.8587 0.0039
-8 0 9 -0.7644 0.0027
-8 0 10 0.3464 -0.0437
-8 1 1 0.3666 0.2230
-8 1 2 -1.3252 -0.1366
-8 1 3 -0.5211 0.0093
-8 1 4 1.7648 0.0649
-8 1 5 -0.1049 -0.0546
-8 1 6 0.2914 -0.0416
-8 1 7 -0.6110 -0.0072
-8 1 8 -0.5271 -0.0500
-8 1 9 -0.0873 0.1002
-8 1 10 0.0648 -0.0546
-8 2 1 -1.1351 0.2637
-8 2 2 -0.2110 -0.2139
-8 2 3 0.6164 0.0920
-8 2 4 0.8034 0.0355
-8 2 5 0.0758 -0.0863
-8 2 6 -0.0328 0.0219
-8 2 7 -1.0775 -0.0202
-8 2 8 -0.1104 -0.0365
-8 2 9 0.7967 0.1425
-8 2 10 -0.2621 -0.0257
-8 3 1 -0.9302 0.2406
-8 3 2 0.5441 -0.2260
-8 3 3 1.1609 0.1251
-8 3 4 0.1426 0.0643
-8 3 5 -0.3725 -0.0964
-8 3 6 -0.3048 0.0262
-8 3 7 -0.1649 -0.0398
-8 3 8 -0.5480 0.0820
-8 3 9 1.2720 0.0036
-8 4 1 0.4946 0.1901
-8 4 2 0.7794 -0.1305
-8 4 3 0.6710 0.1134
-8 4 4 0.0300 0.0767
-8 4 5 -0.9424 -0.1288
-8 4 6 0.0215 0.0397
-8 4 7 -0.3679 -0.0067
-8 4 8 0.8894 -0.0396
-8 4 9 -0.0484 0.2110
-8 5 1 0.3189 0.0518
-8 5 2 1.5136 0.0654
-8 5 3 -0.4310 0.0596
-8 5 4 -0.3081 0.0238
-8 5 5 -0.4948 -0.1093
-8 5 6 -0.5886 -0.0348
-8 5 7 1.1085 0.0329
-8 5 8 -0.2234 0.0502
-8 6 1 0.4619 -0.1382
-8 6 2 0.3648 0.1914
-8 6 3 -0.0129 0.0452
-8 6 4 -1.1306 -0.1184
-8 6 5 -0.1089 -0.0753
-8 6 6 0.2384 0.0196
-8 6 7 0.2882 -0.0652
-7 -12 1 0.6547 -0.1097
-7 -11 1 0.2185 -0.5131
-7 -11 2 -0.7191 0.1597
-7 -11 3 -0.9455 0.2441
-7 -10 1 -0.0561 -0.4072
-7 -10 2 -1.5429 0.2553
-7 -10 3 -0.4782 -0.1037
-7 -10 4 -0.0574 0.1772
-7 -9 1 -1.0899 -0.3451
-7 -9 2 -1.5199 0.2899
-7 -9 3 -0.3026 -0.0682
-7 -9 4 0.9093 -0.0695
-7 -9 5 0.9921 0.1237
-7 -9 6 -0.0182 -0.1105
-7 -8 1 -1.6824 -0.2854
-7 -8 2 -1.7442 0.2823
-7 -8 3 1.3249 -0.0678
-7 -8 4 0.7807 -0.0809
-7 -8 5 0.9184 0.0299
-7 -8 6 0.2205 0.0083
-7 -8 7 -1.4969 -0.0207
-7 -7 1 -1.1038 -0.0612
-7 -7 2 -0.3860 0.0866
-7 -7 3 1.1194 -0.0719
-7 -7 4 1.4702 0.0088
-7 -7 5 0.6172 -0.0046
-7 -7 6 -1.3149 -0.0441
-7 -7 7 -0.7289 0.0665
-7 -7 8 -0.2130 -0.0025
-7 -6 1 -1.9803 0.1821
-7 -6 2 1.8844 -0.0597
-7 -6 3 1.8131 -0.0739
-7 -6 4 -0.0486 0.0200
-7 -6 5 0.3973 0.0351
-7 -6 6 -1.6265 -0.0236
-7 -6 7 -1.2150 -0.0366
-7 -6 8 1.2173 0.0980
-7 -6 9 -0.4369 -0.1205
-7 -5 1 -0.6536 0.3504
-7 -5 2 1.7897 -0.2226
-7 -5 3 1.9087 0.0354
-7 -5 4 0.2796 0.0355
-7 -5 5 -2.6239 -0.0752
-7 -5 6 0.1977 0.0764
-7 -5 7 -1.1791 0.0041
-7 -5 8 1.1833 -0.0903
-7 -5 9 1.0071 0.0508
-7 -4 1 2.6323 0.4144
-7 -4 2 1.0158 -0.3102
-7 -4 3 0.7259 0.0956
-7 -4 4 -0.6340 0.0607
-7 -4 5 -1.7918 -0.0991
-7 -4 6 -1.2693 0.0409
-7 -4 7 1.4156 0.0531
-7 -4 8 1.0577 -0.0816
-7 -4 9 -0.0859 0.0233
-7 -4 10 0.6615 0.0522
-7 -3 1 2.2392 0.3990
-7 -3 2 2.2979 -0.3235
-7 -3 3 -1.0883 0.0985
-7 -3 4 -2.4166 0.0884
-7 -3 5 -0.1202 -0.1009
-7 -3 6 -0.3346 0.0336
-7 -3 7 1.1037 0.0444
-7 -3 8 1.8104 -0.0305
-7 -3 9 -0.6387 -0.0224
-7 -3 10 -0.5767 0.0905
-7 -2 1 -0.0841 0.2375
-7 -2 2 1.3116 -0.1939
-7 -2 3 -1.6515 0.0757
-7 -2 4 -1.9404 0.0347
-7 -2 5 -0.2761 -0.0343
-7 -2 6 1.5111 0.0558
-7 -2 7 0.8445 -0.0316
-7 -2 8 1.1830 -0.0072
-7 -2 9 -1.1079 0.0505
-7 -2 10 -1.0804 -0.0691
-7 -2 11 0.1812 0.0130
-7 -1 1 2.0642 0.0049
-7 -1 2 -3.8600 -0.0461
-7 -1 3 0.8284 0.0551
-7 -1 4 -2.0787 0.0168
-7 -1 5 0.7458 0.0005
-7 -1 6 2.0255 0.0110
-7 -1 7 0.4442 -0.0106
-7 -1 8 -0.1009 -0.0445
-7 -1 9 -1.2014 0.0627
-7 -1 10 -0.7916 -0.1128
-7 -1 11 0.1584 0.0775
-7 0 1 0.9976 -0.2310
-7 0 2 -1.6424 0.1181
-7 0 3 -2.6975 0.0223
-7 0 4 1.5810 -0.0262
-7 0 5 1.3616 0.0369
-7 0 6 0.1731 -0.0159
-7 0 7 1.0845 -0.0384
-7 0 8 -1.6726 -0.0447
-7 0 9 -0.8378 0.0267
-7 0 10 -0.2421 0.0305
-7 0 11 0.4613 -0.1084
-7 0 12 0.6032 0.1489
-7 1 1 -3.5347 -0.3771
-7 1 2 1.1553 0.2202
-7 1 3 -1.4470 -0.0229
-7 1 4 0.3664 -0.0385
-7 1 5 2.7651 0.0460
-7 1 6 -0.3418 -0.0596
-7 1 7 -1.2542 -0.0389
-7 1 8 -0.3400 0.0220
-7 1 9 -0.7754 -0.0537
-7 1 10 -0.1265 0.1198
-7 1 11 1.6455 -0.0783
-7 1 12 -0.2366 0.0807
-7 2 1 -3.0243 -0.3854
-7 2 2 -0.9472 0.2624
-7 2 3 2.2460 -0.0929
-7 2 4 0.1498 -0.0130
-7 2 5 0.8025 0.0530
-7 2 6 -0.1932 -0.0922
-7 2 7 -1.2135 -0.0150
-7 2 8 -0.8316 0.0468
-7 2 9 0.1948 -0.0078
-7 2 10 1.2122 0.0730
-7 2 11 0.1561 -0.0395
-7 2 12 0.1190 0.0666
-7 3 1 -0.0771 -0.3147
-7 3 2 -0.0695 0.2394
-7 3 3 0.6671 -0.1074
-7 3 4 1.9290 0.0200
-7 3 5 -0.6689 0.0516
-7 3 6 -1.1441 -0.1095
-7 3 7 -0.7400 0.0220
-7 3 8 0.5183 0.0748
-7 3 9 -0.0816 -0.0267
-7 3 10 1.4493 0.0663
-7 3 11 -0.0829 -0.0209
-7 3 12 -0.5151 -0.0123
-7 4 1 -0.0466 -0.1882
-7 4 2 2.0198 0.1740
-7 4 3 0.3905 -0.0483
-7 4 4 0.3559 0.0286
-7 4 5 -0.5989 0.0253
-7 4 6 -1.5182 -0.0999
-7 4 7 0.6243 0.0360
-7 4 8 0.0945 0.0918
-7 4 9 0.8090 -0.0727
-7 4 10 0.5002 0.0796
-7 4 11 -0.2395 -0.0444
-7 5 1 -0.6256 0.0312
-7 5 2 2.1673 0.0679
-7 5 3 0.5021 0.0295
-7 5 4 -0.5882 0.0192
-7 5 5 -1.3670 -0.0457
-7 5 6 -0.0407 -0.0558
-7 5 7 -0.1003 0.0210
-7 5 8 1.7617 0.0639
-7 5 9 -0.4695 -0.0267
-7 5 10 -0.0193 0.0300
-7 5 11 -0.3947 -0.1085
-7 6 1 1.8678 0.2384
-7 6 2 -0.1470 -0.0770
-7 6 3 0.6062 0.0757
-7 6 4 -1.3702 0.0079
-7 6 5 -0.7435 -0.1333
-7 6 6 0.1648 -0.0176
-7 6 7 0.8654 0.0506
-7 6 8 0.2319 0.0124
-7 6 9 0.6591 0.0100
-7 6 10 -1.4345 0.0215
-7 6 11 -0.1672 -0.1311
-7 7 1 1.4522 0.2888
-7 7 2 0.6200 -0.1364
-7 7 3 -2.0702 0.0267
-7 7 4 0.3224 -0.0164
-7 7 5 -1.0800 -0.1550
-7 7 6 0.9665 0.0238
-7 7 7 0.6950 0.1006
-7 7 8 0.0604 -0.0518
-7 7 9 -0.4910 0.0917
-7 7 10 -0.4911 -0.0958
-7 8 1 -0.4779 0.2759
-7 8 2 0.4897 -0.0670
-7 8 3 -1.1589 -0.0888
-7 8 4 -1.0532 -0.0581
-7 8 5 1.1092 -0.0559
-7 8 6 -0.0094 0.0803
-7 8 7 0.7885 0.0042
-7 8 8 -0.0826 0.1365
-6 -12 1 2.6392 0.4330
-6 -12 2 -1.5947 -0.1315
-6 -11 1 -0.2286 0.3815
-6 -11 2 0.5009 -0.1880
-6 -11 3 -1.6645 0.0747
-6 -11 4 -0.7270 -0.0888
-6 -10 1 -0.4146 0.3589
-6 -10 2 -0.9719 -0.2511
-6 -10 3 -1.4923 0.0926
-6 -10 4 0.1280 0.1354
-6 -10 5 0.6690 -0.2245
-6 -10 6 0.7271 0.1030
-6 -9 1 -0.5805 0.2927
-6 -9 2 -2.5563 -0.2592
-6 -9 3 -0.3321 0.1221
-6 -9 4 0.6539 0.0710
-6 -9 5 1.3421 -0.0698
-6 -9 6 0.4630 -0.0878
-6 -9 7 -0.1104 0.1180
-6 -8 1 -1.8817 0.0957
-6 -8 2 -0.9342 -0.0656
-6 -8 3 -1.0800 0.0667
-6 -8 4 2.7553 -0.0729
-6 -8 5 0.6639 0.0776
-6 -8 6 0.3423 -0.0343
-6 -8 7 -1.4213 -0.0651
-6 -8 8 -0.0042 0.1104
-6 -7 1 -2.9403 -0.1930
-6 -7 2 0.0272 0.0864
-6 -7 3 1.2824 0.0728
-6 -7 4 1.8728 -0.0991
-6 -7 5 0.8050 0.0002
-6 -7 6 -1.3184 0.0740
-6 -7 7 -0.4838 -0.0130
-6 -7 8 -1.6804 -0.0818
-6 -7 9 1.5059 0.1875
-6 -6 1 -1.6418 -0.3979
-6 -6 2 0.4565 0.1964
-6 -6 3 2.8321 0.0049
-6 -6 4 1.6790 -0.0575
-6 -6 5 -1.0850 0.0309
-6 -6 6 -1.2204 -0.0004
-6 -6 7 -1.4290 0.0042
-6 -6 8 0.2471 0.0410
-6 -6 9 0.9239 -0.1025
-6 -6 10 0.4025 0.1084
-6 -5 1 1.0668 -0.4883
-6 -5 2 1.2976 0.3234
-6 -5 3 3.0572 -0.1030
-6 -5 4 0.3226 -0.0556
-6 -5 5 -2.1158 0.1175
-6 -5 6 -2.0167 -0.0629
-6 -5 7 0.4392 -0.0336
-6 -5 8 -0.0705 0.0619
-6 -5 9 1.8450 -0.0381
-6 -5 10 0.0856 -0.0808
-6 -5 11 -0.6369 0.1177
-6 -4 1 3.8489 -0.4888
-6 -4 2 3.0242 0.3897
-6 -4 3 0.3744 -0.1637
-6 -4 4 -0.6682 -0.0477
-6 -4 5 -2.2123 0.1279
-6 -4 6 -2.4957 -0.0929
-6 -4 7 2.1660 -0.0203
-6 -4 8 0.9137 0.0579
-6 -4 9 1.0567 -0.0516
-6 -4 10 -0.5195 -0.0368
-6 -3 1 1.6317 -0.3094
-6 -3 2 3.5258 0.2643
-6 -3 3 -0.4590 -0.1356
-6 -3 4 -3.9212 -0.0097
-6 -3 5 -0.9277 0.0566
-6 -3 6 0.0227 -0.0542
-6 -3 7 0.7950 -0.0128
-6 -3 8 2.7872 0.0476
-6 -3 9 -0.2133 -0.0530
-6 -3 10 -1.1537 0.0430
-6 -3 11 -0.7183 -0.0030
-6 -2 1 2.2972 -0.0132
-6 -2 2 -1.1223 0.0434
-6 -2 3 -0.5107 -0.0829
-6 -2 4 -3.2293 0.0408
-6 -2 5 -1.8632 0.0144
-6 -2 6 2.7590 -0.0468
-6 -2 7 2.2753 0.0128
-6 -2 8 -0.3091 0.0620
-6 -2 9 0.3748 -0.0919
-6 -2 10 -1.5872 0.0808
-6 -2 11 -0.9824 0.0031
-6 -2 12 0.8913 -0.0500
-6 -1 1 3.6847 0.2520
-6 -1 2 -2.3704 -0.1312
-6 -1 3 -4.5639 -0.0091
-6 -1 4 0.5970 0.0463
-6 -1 5 -0.0401 -0.0085
-6 -1 6 1.6952 0.0063
-6 -1 7 3.0087 -0.0071
-6 -1 8 -1.1692 0.0096
-6 -1 9 -1.4386 -0.0087
-6 -1 10 -0.8714 0.0307
-6 -1 11 -0.4569 -0.0450
-6 -1 12 1.1624 0.0353
-6 -1 13 0.1813 -0.0288
-6 0 1 -2.0610 0.4295
-6 0 2 0.1055 -0.2908
-6 0 3 -4.8013 0.1122
-6 0 4 0.8956 0.0464
-6 0 5 2.9353 -0.0742
-6 0 6 1.6170 0.0682
-6 0 7 -0.2591 -0.0263
-6 0 8 -0.2560 -0.0499
-6 0 9 -2.5505 0.0490
-6 0 10 -0.0861 0.0074
-6 0 11 0.4026 -0.0533
-6 0 12 1.1310 0.0354
-6 0 13 -0.1773 -0.0058
-6 1 1 -4.3058 0.4716
-6 1 2 -2.8115 -0.3615
-6 1 3 1.3304 0.1865
-6 1 4 -0.0463 0.0478
-6 1 5 2.5470 -0.1264
-6 1 6 2.0595 0.0757
-6 1 7 -1.9293 -0.0189
-6 1 8 -2.1499 -0.0645
-6 1 9 -0.3937 0.0402
-6 1 10 0.3958 0.0353
-6 1 11 0.5439 -0.0373
-6 1 12 1.1355 -0.0085
-6 1 13 -0.3572 0.0361
-6 2 1 -0.7151 0.4000
-6 2 2 -3.4679 -0.3049
-6 2 3 2.1867 0.1445
-6 2 4 2.8621 0.0619
-6 2 5 0.1194 -0.1170
-6 2 6 -0.0876 0.0223
-6 2 7 -1.1710 -0.0075
-6 2 8 -2.1897 -0.0188
-6 2 9 -0.0012 0.0541
-6 2 10 1.8457 -0.0361
-6 2 11 0.2139 0.0302
-6 2 12 0.8070 0.0302
-6 2 13 -0.9302 -0.1133
-6 3 1 -1.0838 0.1716
-6 3 2 0.9546 -0.1545
-6 3 3 0.1076 0.1327
-6 3 4 3.8423 -0.0134
-6 3 5 -1.0974 -0.0760
-6 3 6 -1.6915 0.0379
-6 3 7 -1.4010 -0.0217
-6 3 8 -0.0734 -0.0198
-6 3 9 0.8346 0.1033
-6 3 10 0.7712 -0.0463
-6 3 11 1.2245 -0.0007
-6 3 12 -0.6629 -0.0559
-6 3 13 -1.0693 0.1515
-6 4 1 -1.2705 -0.0673
-6 4 2 2.0039 -0.0021
-6 4 3 2.7355 0.0943
-6 4 4 -1.3825 -0.0347
-6 4 5 0.6790 -0.0349
-6 4 6 -2.6383 0.0102
-6 4 7 -0.5937 -0.0114
-6 4 8 0.6966 0.0194
-6 4 9 1.9264 0.0721
-6 4 10 0.0409 -0.0783
-6 4 11 -0.0434 0.0027
-6 4 12 -0.3414 0.0549
-6 4 13 -1.1487 -0.1440
-6 5 1 1.2969 -0.2386
-6 5 2 0.6680 0.1762
-6 5 3 2.3961 0.0019
-6 5 4 -1.1418 -0.0435
-6 5 5 -2.1903 0.0160
-6 5 6 -0.1163 -0.0267
-6 5 7 -0.2429 -0.0233
-6 5 8 1.6660 0.0573
-6 5 9 0.7588 0.0326
-6 5 10 0.1378 -0.0830
-6 5 11 -1.0020 -0.0049
-6 5 12 -0.4851 0.0558
-6 5 13 -0.3378 -0.0617
-6 6 1 2.3108 -0.3127
-6 6 2 0.9686 0.2775
-6 6 3 -0.1485 -0.0571
-6 6 4 -1.0442 -0.0681
-6 6 5 -1.1394 0.0270
-6 6 6 -0.8984 -0.0668
-6 6 7 2.0685 0.0247
-6 6 8 0.5464 0.0497
-6 6 9 0.3337 -0.0373
-6 6 10 -0.3675 -0.0285
-6 6 11 -1.5497 0.0714
-6 6 12 0.1762 -0.1517
-6 6 13 0.1871 0.1984
-6 7 1 1.7237 -0.2994
-6 7 2 0.6410 0.3222
-6 7 3 -0.8012 -0.1380
-6 7 4 -1.8596 -0.1052
-6 7 5 -0.0511 0.0607
-6 7 6 0.3845 -0.0822
-6 7 7 1.1638 0.0416
-6 7 8 0.8087 0.0552
-6 7 9 -0.9714 -0.0414
-6 7 10 -0.3442 -0.0106
-6 7 11 -1.0822 0.0043
-6 7 12 0.5410 0.0506
-6 8 1 0.5454 -0.2410
-6 8 2 -0.5226 0.1908
-6 8 3 -0.2554 -0.1207
-6 8 4 -1.8375 -0.0908
-6 8 5 0.2144 0.0144
-6 8 6 1.4224 -0.0186
-6 8 7 0.7026 0.0717
-6 8 8 -0.6795 0.0444
-6 8 9 0.0622 -0.0815
-6 8 10 -1.3949 0.0441
-6 8 11 0.1319 0.0140
-6 9 1 0.8025 -0.0901
-6 9 2 -1.3958 0.0190
-6 9 3 -0.5500 -0.0928
-6 9 4 -0.6405 -0.0633
-6 9 5 0.9114 0.0558
-6 9 6 0.5940 0.0314
-6 9 7 0.2487 0.0253
-6 9 8 -0.0052 0.0226
-6 9 9 -1.4435 0.0525
-6 9 10 0.2036 -0.1686
-6 10 2 -1.4025 -0.1041
-6 10 3 0.1339 -0.0309
-6 10 4 -0.3345 0.0070
-6 10 5 1.0125 0.0431
-6 10 6 0.4046 0.0559
-6 10 7 -0.3041 0.0404
-5 -13 1 1.2515 -0.5579
-5 -13 2 -0.0007 0.4308
-5 -12 1 0.4679 -0.4036
-5 -12 2 1.1395 0.1248
-5 -12 3 -1.1245 0.0259
-5 -12 4 -0.6146 0.0867
-5 -11 1 1.0704 -0.3886
-5 -11 2 -0.1241 0.2641
-5 -11 3 -1.3696 -0.0923
-5 -11 4 -1.0273 -0.1544
-5 -11 5 0.4659 0.3512
-5 -10 1 0.2918 -0.4111
-5 -10 2 -1.9305 0.2734
-5 -10 3 -0.6493 -0.0676
-5 -10 4 -0.9704 -0.0925
-5 -10 5 0.7916 0.0453
-5 -10 6 1.2200 0.0932
-5 -10 7 0.0168 -0.1950
-5 -9 1 -1.0665 -0.1183
-5 -9 2 -2.4420 0.0638
-5 -9 3 -1.0186 -0.0665
-5 -9 4 0.6999 0.0747
-5 -9 5 1.4220 -0.0636
-5 -9 6 0.7822 -0.0331
-5 -9 7 -0.1060 0.0862
-5 -9 8 -0.7677 -0.0708
-5 -8 1 -2.3884 0.2299
-5 -8 2 -1.5933 -0.1384
-5 -8 3 -0.6220 -0.0391
-5 -8 4 1.6986 0.0981
-5 -8 5 2.2712 -0.0187
-5 -8 6 -0.1650 -0.0545
-5 -8 7 -1.2203 0.0143
-5 -8 8 -0.4229 0.0988
-5 -8 9 -0.5982 -0.1199
-5 -7 1 -4.1535 0.4490
-5 -7 2 -1.0513 -0.2551
-5 -7 3 2.7755 0.0294
-5 -7 4 1.1483 0.0985
-5 -7 5 1.6919 -0.0860
-5 -7 6 -0.9229 0.0593
-5 -7 7 -1.7272 0.0166
-5 -7 8 -1.0412 -0.0551
-5 -7 9 1.2004 0.1065
-5 -7 10 -0.1096 -0.0610
-5 -6 1 -2.3986 0.5727
-5 -6 2 0.1545 -0.3763
-5 -6 3 3.4098 0.1453
-5 -6 4 2.9319 0.0970
-5 -6 5 -1.2112 -0.1496
-5 -6 6 -2.0238 0.1033
-5 -6 7 -1.2446 0.0401
-5 -6 8 -0.0254 -0.0877
-5 -6 9 0.7912 0.0292
-5 -6 10 1.2016 0.1181
-5 -6 11 -0.2149 -0.2489
-5 -5 1 1.8713 0.5907
-5 -5 2 3.0049 -0.4274
-5 -5 3 2.8703 0.2178
-5 -5 4 0.9156 0.0660
-5 -5 5 -1.5049 -0.1288
-5 -5 6 -3.2468 0.0660
-5 -5 7 -1.0168 0.0303
-5 -5 8 2.3080 -0.0684
-5 -5 9 0.4678 0.0357
-5 -5 10 0.7847 -0.0456
-5 -5 11 -0.3544 0.0325
-5 -5 12 -0.7668 -0.1109
-5 -4 1 0.5034 0.3938
-5 -4 2 7.8151 -0.2964
-5 -4 3 0.9760 0.1964
-5 -4 4 -2.2720 0.0102
-5 -4 5 -2.5747 -0.0997
-5 -4 6 -1.8303 0.0628
-5 -4 7 -0.1210 -0.0083
-5 -4 8 3.0253 -0.0834
-5 -4 9 0.9444 0.0782
-5 -4 10 -0.3324 -0.0573
-5 -4 11 -1.3467 -0.0396
-5 -4 12 0.4652 0.0455
-5 -3 1 2.8866 0.0722
-5 -3 2 3.2281 -0.0794
-5 -3 3 1.4372 0.1212
-5 -3 4 -4.3376 -0.0521
-5 -3 5 -4.4658 -0.0564
-5 -3 6 1.2149 0.0575
-5 -3 7 1.8251 -0.0571
-5 -3 8 1.7675 -0.0277
-5 -3 9 1.5217 0.0559
-5 -3 10 -2.3264 -0.0377
-5 -3 11 -0.3731 -0.0457
-5 -3 12 -0.7555 0.1153
-5 -3 13 1.3426 -0.0754
-5 -2 1 8.6050 -0.2747
-5 -2 2 -1.3892 0.1476
-5 -2 3 -3.6343 0.0168
-5 -2 4 -2.5799 -0.1014
-5 -2 5 -2.8253 0.0245
-5 -2 6 1.7674 0.0085
-5 -2 7 3.8985 -0.0499
-5 -2 8 0.9651 0.0226
-5 -2 9 -1.0040 0.0219
-5 -2 10 -0.9679 -0.0370
-5 -2 11 -2.0002 0.0543
-5 -2 13 0.4296 0.0318
-5 -1 1 3.9265 -0.5377
-5 -1 2 0.0263 0.3422
-5 -1 3 -7.6293 -0.1209
-5 -1 4 -2.6186 -0.0749
-5 -1 5 2.3878 0.0831
-5 -1 6 2.2081 -0.0455
-5 -1 7 2.6951 -0.0071
-5 -1 8 0.8635 0.0346
-5 -1 9 -3.1702 0.0028
-5 -1 10 -1.4218 -0.0294
-5 -1 11 0.9079 0.0776
-5 -1 12 -0.4579 -0.0481
-5 -1 14 -0.1459 -0.0023
-5 0 1 -4.3562 -0.6488
-5 0 2 -2.9491 0.4483
-5 0 3 -2.1627 -0.2193
-5 0 4 -4.0001 -0.0136
-5 0 5 5.5135 0.1106
-5 0 6 3.7186 -0.0896
-5 0 7 -0.2063 0.0256
-5 0 8 -1.3898 0.0478
-5 0 9 -1.6299 -0.0505
-5 0 10 -2.2287 0.0284
-5 0 11 1.6942 0.0324
-5 0 12 1.3810 -0.0391
-5 0 13 -0.2084 -0.0097
-5 0 14 -0.3548 0.0386
-5 1 1 -1.8922 -0.5344
-5 1 2 -8.5309 0.3986
-5 1 3 1.3979 -0.2182
-5 1 4 2.2222 0.0154
-5 1 5 2.4323 0.1323
-5 1 6 3.1743 -0.1253
-5 1 7 -0.7715 0.0201
-5 1 8 -4.2584 0.0793
-5 1 9 -0.6334 -0.0939
-5 1 10 0.2856 0.0516
-5 1 11 1.1367 0.0419
-5 1 12 0.7735 -0.1024
-5 1 13 0.8057 0.0474
-5 1 14 -1.9839 0.0211
-5 2 1 0.0028 -0.2670
-5 2 2 -2.9533 0.2320
-5 2 3 -1.8394 -0.1262
-5 2 4 7.1160 0.0240
-5 2 5 2.0423 0.0695
-5 2 6 -1.6323 -0.0822
-5 2 7 -1.5511 0.0118
-5 2 8 -2.1795 0.0394
-5 2 9 -1.4233 -0.0450
-5 2 10 1.8684 0.0463
-5 2 11 2.3439 0.0004
-5 2 12 -0.6771 -0.0847
-5 2 13 -0.7365 0.0928
-5 2 14 0.0987 -0.0813
-5 3 1 -5.8890 0.0444
-5 3 2 2.7035 0.0336
-5 3 3 3.2875 -0.0352
-5 3 4 0.4642 0.0378
-5 3 5 3.7850 0.0143
-5 3 6 -3.9860 -0.0689
-5 3 7 -2.9313 0.0143
-5 3 8 -0.3280 0.0498
-5 3 9 1.1241 -0.0258
-5 3 10 1.1797 0.0018
-5 3 11 1.5255 0.0110
-5 3 12 -0.6890 -0.0472
-5 3 13 -0.6231 0.0108
-5 3 14 -1.3675 0.0321
-5 3 15 1.4738 -0.0247
-5 4 1 -0.7337 0.3280
-5 4 2 -0.0075 -0.1654
-5 4 3 5.4700 0.0617
-5 4 4 0.5323 0.0365
-5 4 5 -2.1423 -0.0367
-5 4 6 -1.7001 -0.0395
-5 4 7 -2.6501 0.0335
-5 4 8 1.0848 0.0177
-5 4 9 2.2026 0.0007
-5 4 10 1.3267 0.0017
-5 4 11 -0.7043 -0.0342
-5 4 12 -0.2297 -0.0264
-5 4 13 -0.9942 0.0497
-5 4 14 -0.3298 0.0025
-5 4 15 0.8062 -0.0116
-5 5 1 2.1767 0.5007
-5 5 2 2.5222 -0.3043
-5 5 3 0.4411 0.1672
-5 5 4 1.5469 -0.0074
-5 5 5 -4.1039 -0.0936
-5 5 6 -1.6258 0.0455
-5 5 7 0.7256 0.0166
-5 5 8 0.7122 -0.0241
-5 5 9 2.5213 0.0257
-5 5 10 0.3422 0.0011
-5 5 11 -1.1322 -0.0690
-5 5 12 -1.4824 0.0153
-5 5 13 0.6973 0.0673
-5 5 14 -0.7003 -0.0441
-5 5 15 1.2913 0.0471
-5 6 1 1.4669 0.5078
-5 6 2 3.1578 -0.3084
-5 6 3 -0.4051 0.1968
-5 6 4 -1.9064 -0.0506
-5 6 5 -1.6136 -0.1226
-5 6 6 -1.2541 0.0972
-5 6 7 1.7396 -0.0076
-5 6 8 2.2355 -0.0342
-5 6 9 0.2496 0.0516
-5 6 10 -0.9542 -0.0638
-5 6 11 -0.1180 -0.0205
-5 6 12 -1.5329 0.0857
-5 6 13 -0.2330 -0.0545
-5 6 14 1.9368 0.0681
-5 7 1 0.5264 0.3670
-5 7 2 1.4244 -0.2729
-5 7 3 -0.2368 0.1733
-5 7 4 -2.9679 -0.0522
-5 7 5 -0.9283 -0.1446
-5 7 6 1.5330 0.0970
-5 7 7 0.5398 0.0248
-5 7 8 1.9602 -0.0644
-5 7 9 -0.2456 0.0588
-5 7 10 -2.0294 -0.0593
-5 7 11 -0.0606 0.0211
-5 7 12 -0.8897 0.0137
-5 7 13 1.6046 0.0813
-5 7 14 -0.8304 -0.1120
-5 8 1 1.8386 0.2150
-5 8 2 -0.4221 -0.1934
-5 8 3 -2.3849 0.0608
-5 8 4 0.3504 -0.0602
-5 8 5 -1.4291 -0.0519
-5 8 6 1.6229 0.0564
-5 8 7 1.8110 -0.0076
-5 8 8 -0.2971 0.0165
-5 8 9 -1.1070 0.0169
-5 8 10 -0.7658 -0.0629
-5 8 11 -0.3838 0.0534
-5 8 12 0.0954 0.0673
-5 8 13 0.9668 -0.1067
-5 9 1 0.3771 -0.0142
-5 9 2 -0.6312 -0.0271
-5 9 3 -1.5778 -0.0414
-5 9 4 -0.5939 -0.0617
-5 9 5 1.1044 0.0051
-5 9 6 0.6524 0.0626
-5 9 7 0.7381 0.0210
-5 9 8 -0.1414 -0.0181
-5 9 9 -1.8168 -0.0243
-5 9 10 0.0163 0.0991
-5 9 11 0.1576 -0.1251
-5 9 12 0.3142 0.1260
-5 10 1 -1.7051 -0.2839
-5 10 2 0.1589 0.1151
-5 10 3 -1.1927 -0.0752
-5 10 4 0.1648 -0.0314
-5 10 5 0.6317 0.0522
-5 10 6 1.1619 0.0524
-5 10 7 -0.3371 -0.0025
-5 10 8 -0.9927 -0.0003
-5 10 9 0.0770 0.0282
-5 10 10 -0.8935 -0.0907
-5 10 11 1.1557 0.1488
-5 11 1 -0.1666 -0.2101
-5 11 2 -1.1437 0.1087
-5 11 3 -0.0903 -0.1035
-5 11 4 0.9392 0.0520
-5 11 5 -0.1171 0.0875
-5 11 6 0.7695 -0.0307
-5 11 7 -0.4518 0.0220
-5 11 8 -0.6348 0.0232
-5 11 9 -0.2705 -0.0922
-4 -13 1 1.4609 0.5367
-4 -13 2 0.3459 -0.1982
-4 -12 1 0.6389 0.3850
-4 -12 2 1.1923 -0.2539
-4 -12 3 -0.5420 0.3035
-4 -12 4 -1.1122 -0.2642
-4 -11 1 1.6305 0.4731
-4 -11 2 -0.8557 -0.3714
-4 -11 3 -0.6255 0.1434
-4 -11 4 -0.8291 0.1539
-4 -11 5 -0.7952 -0.1991
-4 -11 6 1.3072 -0.0598
-4 -10 1 0.9528 0.1758
-4 -10 2 -1.4445 -0.1337
-4 -10 3 -1.6910 0.0701
-4 -10 4 -0.6057 -0.0537
-4 -10 5 0.6125 0.0012
-4 -10 6 1.1017 0.0614
-4 -10 7 0.3576 -0.2024
-4 -9 1 -1.2014 -0.2033
-4 -9 2 -1.3179 0.0908
-4 -9 3 -3.0363 -0.0001
-4 -9 4 1.7169 -0.0903
-4 -9 5 0.9617 0.0022
-4 -9 6 0.9895 0.0554
-4 -9 7 0.2735 -0.0204
-4 -9 8 -1.1604 -0.1139
-4 -8 1 -3.4714 -0.4916
-4 -8 2 -2.9016 0.2194
-4 -8 3 0.4919 -0.0562
-4 -8 4 0.8378 -0.0697
-4 -8 5 2.7872 0.0728
-4 -8 6 0.2571 -0.0599
-4 -8 7 -1.3935 0.0396
-4 -8 8 -0.9135 0.0526
-4 -8 9 0.0103 -0.1096
-4 -8 10 0.1055 0.1553
-4 -7 1 -3.0014 -0.6453
-4 -7 2 -3.3336 0.4076
-4 -7 3 2.3515 -0.1925
-4 -7 4 3.5909 -0.0602
-4 -7 5 0.2557 0.2015
-4 -7 6 0.2261 -0.1023
-4 -7 7 -2.5661 -0.0400
-4 -7 8 -0.7150 0.1214
-4 -7 9 0.1904 -0.0061
-4 -7 10 1.3419 -0.0975
-4 -7 11 0.1250 0.1760
-4 -6 1 -3.4511 -0.7046
-4 -6 2 1.9553 0.5097
-4 -6 3 2.1136 -0.2346
-4 -6 4 4.0866 -0.0113
-4 -6 5 -0.2131 0.1680
-4 -6 6 -3.1189 -0.0720
-4 -6 7 -1.2376 -0.0363
-4 -6 8 -0.5768 0.1065
-4 -6 9 1.4654 -0.0606
-4 -6 10 1.2090 0.0031
-4 -6 11 -0.2952 0.0779
-4 -5 1 -1.5381 -0.4814
-4 -5 2 5.3468 0.4043
-4 -5 3 4.5714 -0.1916
-4 -5 4 0.5554 0.0525
-4 -5 5 -1.2819 0.0962
-4 -5 6 -3.9554 -0.0815
-4 -5 7 -1.5382 0.0175
-4 -5 8 2.4032 0.0491
-4 -5 9 1.1288 -0.0803
-4 -5 10 0.8097 0.0763
-4 -5 11 -0.4527 -0.0841
-4 -5 12 -0.9636 0.0234
-4 -4 1 0.4905 -0.0976
-4 -4 2 6.5405 0.1626
-4 -4 3 4.9603 -0.0908
-4 -4 4 -2.1803 0.0787
-4 -4 5 -5.2921 0.0406
-4 -4 6 -0.8733 -0.1065
-4 -4 7 -0.8323 0.0421
-4 -4 8 2.5805 0.0349
-4 -4 9 3.0707 -0.0823
-4 -4 10 -1.3800 0.0100
-4 -4 11 -1.2125 0.0506
-4 -4 12 -0.5321 -0.1728
-4 -4 13 0.2715 0.1503
-4 -3 1 10.7051 0.2896
-4 -3 2 2.3230 -0.0978
-4 -3 3 1.5545 0.0226
-4 -3 4 -3.3584 0.0691
-4 -3 5 -6.3738 -0.0354
-4 -3 6 -0.7665 -0.0575
-4 -3 7 4.3881 0.0170
-4 -3 8 1.4031 0.0106
-4 -3 9 1.0236 -0.0339
-4 -3 10 -0.5308 -0.0119
-4 -3 11 -2.4557 -0.0042
-4 -3 12 -0.6744 0.0170
-4 -3 13 1.9607 -0.0661
-4 -3 14 -0.3838 0.1522
-4 -2 1 10.7076 0.6119
-4 -2 2 4.6945 -0.3450
-4 -2 3 -7.4675 0.1439
-4 -2 4 -4.6676 0.0388
-4 -2 5 -1.4188 -0.1207
-4 -2 6 -0.5988 0.0221
-4 -2 7 5.1712 0.0236
-4 -2 8 3.6370 -0.0606
-4 -2 9 -3.2274 0.0331
-4 -2 10 -1.0294 0.0207
-4 -2 11 -1.2354 -0.0706
-4 -2 12 0.0413 0.0608
-4 -2 13 1.1946 0.0394
-4 -2 14 0.9907 -0.0469
-4 -1 1 2.8436 0.7281
-4 -1 2 0.4754 -0.5004
-4 -1 3 -6.2267 0.2585
-4 -1 4 -8.4213 -0.0277
-4 -1 5 2.9414 -0.1480
-4 -1 6 5.0853 0.0848
-4 -1 7 1.6387 0.0199
-4 -1 8 1.5449 -0.0833
-4 -1 9 -1.9601 0.0827
-4 -1 10 -3.6984 -0.0213
-4 -1 11 0.4702 -0.0015
-4 -1 12 1.5569 0.0070
-4 -1 13 0.5610 0.0722
-4 -1 14 0.4822 -0.0968
-4 -1 15 -0.7687 0.1056
-4 0 1 -1.2987 0.6306
-4 0 2 -8.9072 -0.4890
-4 0 3 -3.2958 0.2595
-4 0 4 -2.1145 -0.0499
-4 0 5 0.9955 -0.1310
-4 0 6 8.5939 0.1131
-4 0 7 1.3609 0.0010
-4 0 8 -3.8821 -0.0669
-4 0 9 -1.7555 0.0939
-4 0 10 -1.6175 -0.0427
-4 0 11 0.6816 0.0081
-4 0 13 1.0846 -0.0313
-4 0 14 -1.3800 0.0169
-4 0 15 -0.2216 -0.0090
-4 1 1 2.5414 0.3377
-4 1 2 -11.0435 -0.3014
-4 1 3 -5.0536 0.1752
-4 1 4 6.6513 -0.0600
-4 1 5 3.5556 -0.0752
-4 1 6 2.5266 0.1118
-4 1 7 1.2875 -0.0340
-4 1 8 -4.4029 -0.0364
-4 1 9 -4.0195 0.0896
-4 1 10 1.9659 -0.0550
-4 1 11 0.7767 -0.0095
-4 1 12 2.4015 0.0777
-4 1 14 -0.5442 0.0195
-4 1 15 -1.1346 0.0580
-4 2 1 -8.7287 -0.0267
-4 2 2 -0.0754 -0.0394
-4 2 3 -2.9282 0.0445
-4 2 4 5.3368 -0.0503
-4 2 5 7.7520 -0.0006
-4 2 6 -1.4725 0.0550
-4 2 7 -4.3817 -0.0346
-4 2 8 -1.6791 -0.0189
-4 2 9 -2.0278 0.0675
-4 2 10 1.4637 -0.0446
-4 2 11 3.3122 -0.0078
-4 2 12 -0.6899 0.0309
-4 2 13 -0.1700 -0.0352
-4 2 15 -1.1270 0.1118
-4 2 16 1.3493 -0.1356
-4 3 1 -8.0292 -0.3729
-4 3 2 -1.1173 0.2084
-4 3 3 7.2637 -0.0621
-4 3 4 2.0758 -0.0386
-4 3 5 2.7514 0.0471
-4 3 6 -0.7348 -0.0073
-4 3 7 -6.6762 -0.0154
-4 3 8 -1.6640 0.0053
-4 3 9 2.4256 0.0171
-4 3 10 1.4787 -0.0107
-4 3 11 1.2802 -0.0081
-4 3 12 0.8692 -0.0053
-4 3 13 -3.1131 -0.0314
-4 3 14 0.1992 0.0423
-4 3 15 0.5773 -0.0311
-4 3 16 0.0263 0.0165
-4 4 1 0.4044 -0.5613
-4 4 2 -0.6270 0.3935
-4 4 3 5.5864 -0.1744
-4 4 4 5.7722 0.0015
-4 4 5 -5.2462 0.0664
-4 4 6 -2.2114 -0.0516
-4 4 7 -2.7202 -0.0118
-4 4 8 -1.0187 0.0415
-4 4 9 3.3189 -0.0086
-4 4 10 2.5819 -0.0064
-4 4 11 -0.4677 -0.0325
-4 4 12 -1.4593 0.0253
-4 4 13 -0.1420 -0.0470
-4 4 14 -1.1689 0.0674
-4 4 16 1.4610 0.0468
-4 5 1 0.9374 -0.5659
-4 5 2 5.6632 0.4456
-4 5 3 0.9930 -0.2212
-4 5 4 0.9684 0.0298
-4 5 5 -2.2772 0.0646
-4 5 6 -5.9671 -0.0854
-4 5 7 0.8926 0.0169
-4 5 8 2.3268 0.0632
-4 5 9 1.6000 -0.0607
-4 5 10 1.8808 0.0176
-4 5 11 -0.9471 -0.0158
-4 5 12 -2.4742 -0.0292
-4 5 13 -0.0951 0.0444
-4 5 14 1.5546 -0.0123
-4 5 15 -1.1056 0.0568
-4 6 1 1.4619 -0.3958
-4 6 2 3.9258 0.3718
-4 6 3 1.8524 -0.2095
-4 6 4 -4.3795 0.0338
-4 6 5 -1.9518 0.0518
-4 6 6 -1.5500 -0.0942
-4 6 7 0.4037 0.0504
-4 6 8 4.0125 0.0459
-4 6 9 0.9536 -0.0779
-4 6 10 -0.4386 0.0327
-4 6 11 -1.8286 -0.0231
-4 6 12 -0.3222 -0.0110
-4 6 13 -0.7925 0.0687
-4 6 14 1.0520 -0.0365
-4 6 15 1.2120 0.0483
-4 6 16 -0.8384 -0.0357
-4 7 1 2.7321 -0.1244
-4 7 2 0.3282 0.1760
-4 7 3 -0.2492 -0.1528
-4 7 4 -2.1978 0.0621
-4 7 5 -3.6977 -0.0002
-4 7 6 1.9301 -0.0921
-4 7 7 2.0862 0.0913
-4 7 8 1.6318 0.0347
-4 7 9 0.6019 -0.1132
-4 7 10 -1.6646 0.0483
-4 7 11 -2.1999 0.0164
-4 7 12 1.1003 -0.0109
-4 7 13 -0.2271 0.0055
-4 7 14 0.5857 0.0997
-4 7 15 0.6729 -0.1375
-4 8 1 2.9379 0.1109
-4 8 2 -0.8095 -0.0113
-4 8 3 -2.0955 -0.0683
-4 8 4 -1.4565 0.0154
-4 8 5 -0.3482 -0.0054
-4 8 6 0.7650 -0.0193
-4 8 7 3.5793 0.0306
-4 8 8 -0.7454 0.0158
-4 8 9 -0.5474 -0.0373
-4 8 10 -1.3528 0.0180
-4 8 11 -1.1556 -0.0039
-4 8 12 0.6050 0.0225
-4 8 13 0.7816 0.0591
-4 8 14 0.8558 -0.0827
-4 8 15 -1.0164 0.0310
-4 9 1 -0.3141 0.2749
-4 9 2 0.3815 -0.1606
-4 9 3 -2.1052 0.0229
-4 9 4 -1.8010 -0.0203
-4 9 5 2.1956 -0.0196
-4 9 6 1.1867 0.0312
-4 9 7 0.2267 0.0300
-4 9 8 0.6282 -0.0072
-4 9 9 -1.9212 -0.0392
-4 9 10 -1.5282 0.0401
-4 9 11 1.0471 0.0478
-4 9 12 0.6089 -0.0750
-4 9 13 -0.2174 0.0577
-4 9 14 1.0555 0.0181
-4 10 1 0.3184 0.3388
-4 10 2 -2.3385 -0.3222
-4 10 3 -0.0342 0.1458
-4 10 4 0.0871 -0.0165
-4 10 5 0.0843 -0.0571
-4 10 6 2.3492 0.0704
-4 10 7 -0.6672 0.0297
-4 10 8 -1.3593 -0.0321
-4 10 9 -0.2149 0.0146
-4 10 10 -0.4383 0.0004
-4 10 11 -0.0081 -0.0071
-4 10 12 1.6363 0.0703
-4 10 13 -0.1008 -0.1107
-4 11 1 -0.8218 0.3688
-4 11 2 0.0201 -0.2931
-4 11 3 -1.5056 0.1087
-4 11 4 1.2958 0.0007
-4 11 5 0.8941 -0.0128
-4 11 6 -0.3142 0.0739
-4 11 7 0.1489 -0.0213
-4 11 8 -0.9000 -0.0290
-4 11 9 -0.8155 0.0771
-4 11 10 0.7617 -0.0817
-4 11 11 0.8036 0.0696
-4 11 12 -0.1446 -0.1092
-4 12 1 -0.2324 0.0735
-4 12 2 -1.3931 -0.1206
-4 12 3 1.5541 0.1219
-4 12 4 -0.5959 -0.0315
-4 12 5 0.9548 -0.0184
-4 12 6 -0.1644 0.0807
-4 12 7 -0.5469 0.0005
-4 12 8 -0.3339 -0.0494
-4 12 9 0.0634 -0.0273
-4 12 10 0.4467 0.1311
-3 -14 1 0.2363 -0.6556
-3 -13 1 0.8646 -0.3780
-3 -13 2 0.7549 0.0451
-3 -13 3 0.1091 0.1331
-3 -12 1 0.7954 -0.3241
-3 -12 2 1.1133 0.3301
-3 -12 3 -0.2727 -0.2261
-3 -12 4 -0.8804 0.0158
-3 -12 5 -0.2251 0.3207
-3 -11 1 1.1376 -0.2232
-3 -11 2 0.1885 0.2164
-3 -11 3 -1.1701 -0.0650
-3 -11 4 -0.6155 0.0975
-3 -11 5 -0.7458 -0.1960
-3 -11 6 0.9766 0.2649
-3 -10 1 1.8615 0.1851
-3 -10 2 -1.5142 -0.0341
-3 -10 3 -1.9466 -0.0661
-3 -10 4 -0.8631 0.1401
-3 -10 5 1.2242 -0.0598
-3 -10 6 0.1148 -0.1360
-3 -10 7 1.1610 0.1174
-3 -10 8 -0.7674 -0.0281
-3 -9 1 -1.6375 0.5102
-3 -9 2 -1.5874 -0.2691
-3 -9 3 -2.0945 0.0426
-3 -9 4 -0.4887 0.0568
-3 -9 5 2.5108 -0.0766
-3 -9 6 0.8719 -0.0235
-3 -9 7 -0.3337 0.0442
-3 -9 8 -0.2389 -0.0404
-3 -9 9 -1.2219 0.0419
-3 -8 1 -2.5355 0.6265
-3 -8 2 -4.8795 -0.3882
-3 -8 3 1.0727 0.1433
-3 -8 4 1.0141 -0.0238
-3 -8 5 1.9678 -0.0952
-3 -8 6 1.3385 0.1027
-3 -8 7 -1.3631 -0.0241
-3 -8 8 -1.3967 -0.0332
-3 -8 9 -0.2962 0.0750
-3 -8 10 0.7090 -0.0231
-3 -7 1 -4.4670 0.6027
-3 -7 2 -1.9673 -0.4975
-3 -7 3 -0.3528 0.2458
-3 -7 4 5.4906 -0.0063
-3 -7 5 1.0058 -0.1499
-3 -7 6 -1.1083 0.1312
-3 -7 7 -1.2925 0.0449
-3 -7 8 -2.0077 -0.1072
-3 -7 9 0.8782 0.0628
-3 -7 10 0.9296 0.0800
-3 -7 11 0.5522 -0.1329
-3 -6 1 -5.2534 0.4248
-3 -6 2 1.7363 -0.4101
-3 -6 3 3.7318 0.2335
-3 -6 4 2.4294 -0.0300
-3 -6 5 2.4666 -0.0606
-3 -6 6 -4.3722 0.0851
-3 -6 7 -1.8038 0.0024
-3 -6 8 -0.1831 -0.0512
-3 -6 9 0.9090 0.0781
-3 -6 10 1.8091 -0.0633
-3 -6 11 0.3019 0.0900
-3 -6 12 -1.0111 -0.1136
-3 -5 1 -6.2949 0.0672
-3 -5 2 4.7374 -0.1672
-3 -5 3 8.1606 0.1647
-3 -5 4 0.4698 -0.0679
-3 -5 5 -3.0754 0.0066
-3 -5 6 -1.6703 0.0705
-3 -5 7 -3.6949 -0.0521
-3 -5 8 1.8433 -0.0359
-3 -5 9 3.2084 0.0998
-3 -5 10 -0.2606 -0.0513
-3 -5 11 0.1843 -0.0645
-3 -5 12 -1.2436 0.1126
-3 -5 13 -0.5969 -0.1624
-3 -4 1 4.6785 -0.3374
-3 -4 2 3.2384 0.1257
-3 -4 3 7.2014 0.0465
-3 -4 4 0.1836 -0.0654
-3 -4 5 -6.7608 0.0331
-3 -4 6 -4.0137 0.0258
-3 -4 7 2.6439 -0.0452
-3 -4 8 0.3726 -0.0156
-3 -4 9 3.7426 0.0443
-3 -4 10 0.3788 -0.0229
-3 -4 11 -2.8930 -0.0379
-3 -4 12 -0.3649 0.0010
-3 -4 13 -0.1181 -0.0397
-3 -3 1 12.7074 -0.6198
-3 -3 2 9.4518 0.3686
-3 -3 3 -2.9854 -0.1205
-3 -3 4 -2.5666 -0.0057
-3 -3 5 -4.4735 0.0663
-3 -3 6 -4.5426 -0.0719
-3 -3 7 4.4259 -0.0096
-3 -3 8 4.4880 0.0369
-3 -3 9 -0.3840 -0.0316
-3 -3 10 -0.3831 -0.0067
-3 -3 11 -2.1005 0.0026
-3 -3 12 -1.4718 -0.0616
-3 -3 13 1.0543 0.0800
-3 -3 14 1.3025 -0.0807
-3 -2 1 6.0186 -0.7322
-3 -2 2 10.1098 0.5494
-3 -2 3 -3.3441 -0.2745
-3 -2 4 -12.3616 0.0439
-3 -2 5 -0.7945 0.0995
-3 -2 6 2.2805 -0.1208
-3 -2 7 2.3862 -0.0142
-3 -2 8 4.8658 0.0883
-3 -2 9 -0.4148 -0.0589
-3 -2 10 -4.6806 -0.0112
-3 -2 11 -0.0486 0.0080
-3 -2 12 -0.2052 0.0184
-3 -2 13 0.7257 -0.0496
-3 -2 14 2.0030 0.1053
-3 -2 15 -0.9193 -0.0631
-3 -1 1 2.7678 -0.6207
-3 -1 2 -2.2148 0.5746
-3 -1 3 -3.8797 -0.3015
-3 -1 4 -8.2331 0.0489
-3 -1 5 -3.6487 0.0859
-3 -1 6 8.8230 -0.1011
-3 -1 7 4.5238 -0.0004
-3 -1 8 -1.1638 0.0746
-3 -1 9 -0.5182 -0.0613
-3 -1 10 -4.1529 0.0297
-3 -1 11 -1.3710 -0.0111
-3 -1 12 2.9005 0.0086
-3 -1 13 1.1471 0.0084
-3 -1 14 -0.3698 0.0383
-3 -1 15 0.5487 -0.0358
-3 0 1 8.8252 -0.3114
-3 0 2 -11.5658 0.3872
-3 0 3 -9.9816 -0.1937
-3 0 4 0.5434 0.0416
-3 0 5 1.8261 0.0324
-3 0 6 5.6622 -0.0862
-3 0 7 6.0008 0.0703
-3 0 8 -3.8988 0.0271
-3 0 9 -5.0415 -0.0787
-3 0 10 0.3792 0.0727
-3 0 11 -1.1111 -0.0072
-3 0 12 2.9263 -0.0320
-3 0 13 1.5644 0.0434
-3 0 14 -0.8215 0.0074
-3 0 15 -1.3806 -0.0247
-3 0 16 -0.1245 0.0465
-3 1 1 -3.3245 0.1051
-3 1 2 -3.5816 0.0794
-3 1 3 -12.9174 -0.0526
-3 1 4 4.0158 0.0198
-3 1 5 9.9290 0.0005
-3 1 6 2.4479 -0.0638
-3 1 7 -0.3832 0.0796
-3 1 8 -2.0222 0.0260
-3 1 9 -6.2951 -0.0884
-3 1 10 -0.0289 0.0617
-3 1 11 4.5745 0.0066
-3 1 12 -0.0668 -0.0298
-3 1 13 0.9500 0.0068
-3 1 14 -1.1921 0.0448
-3 1 15 -1.4385 -0.0563
-3 1 16 0.0145 0.0539
-3 2 1 -17.3267 0.4794
-3 2 2 -3.3659 -0.2279
-3 2 3 1.5512 0.0750
-3 2 4 1.2439 -0.0109
-3 2 5 10.3538 -0.0325
-3 2 6 2.4436 0.0074
-3 2 7 -6.3354 0.0179
-3 2 8 -4.7545 0.0238
-3 2 9 0.4097 -0.0427
-3 2 10 -0.1695 0.0062
-3 2 11 2.9043 0.0126
-3 2 12 2.8097 -0.0041
-3 2 13 -2.4136 -0.0096
-3 2 14 -1.7298 0.0067
-3 2 15 0.1302 0.0239
-3 2 16 0.0718 -0.0514
-3 3 1 -4.2422 0.7045
-3 3 2 -8.9654 -0.4555
-3 3 3 7.6881 0.1729
-3 3 4 9.3757 -0.0433
-3 3 5 -0.2857 -0.0636
-3 3 6 0.1994 0.0820
-3 3 7 -5.5569 -0.0258
-3 3 8 -5.3044 -0.0321
-3 3 9 1.5804 0.0329
-3 3 10 5.0622 -0.0202
-3 3 11 -0.0247 0.0025
-3 3 12 0.3768 -0.0228
-3 3 14 -1.7730 -0.0266
-3 3 15 0.5534 -0.0342
-3 3 16 0.6223 0.0754
-3 4 1 -2.2173 0.6643
-3 4 2 4.0541 -0.5414
-3 4 3 2.4464 0.2433
-3 4 4 8.5633 -0.0471
-3 4 5 -1.0588 -0.1197
-3 4 6 -7.3119 0.1257
-3 4 7 -2.5640 -0.0102
-3 4 8 -1.4536 -0.0958
-3 4 9 2.7527 0.0724
-3 4 10 3.7873 -0.0118
-3 4 11 0.9516 -0.0160
-3 4 12 -2.6922 -0.0013
-3 4 13 -0.8706 -0.0042
-3 4 15 0.8921 -0.0219
-3 4 16 1.3803 -0.0486
-3 5 1 -2.1653 0.4534
-3 5 2 7.5060 -0.4507
-3 5 3 5.2846 0.1860
-3 5 4 -1.0975 -0.0078
-3 5 5 -1.3321 -0.0969
-3 5 6 -6.7814 0.0728
-3 5 7 -2.6314 -0.0134
-3 5 8 4.1440 -0.0309
-3 5 9 2.7611 0.0357
-3 5 10 1.4173 -0.0274
-3 5 11 -0.6130 0.0078
-3 5 12 -1.5808 0.0155
-3 5 13 -2.1178 -0.0468
-3 5 14 1.3857 0.0397
-3 5 15 1.2744 0.0264
-3 5 16 -0.2493 -0.1033
-3 6 1 2.4843 0.1273
-3 6 2 3.6566 -0.2232
-3 6 3 3.9688 0.0908
-3 6 4 -3.2793 -0.0130
-3 6 5 -5.5139 -0.0443
-3 6 6 -1.5947 0.0559
-3 6 7 0.0428 -0.0382
-3 6 8 3.6803 -0.0038
-3 6 9 3.7329 0.0478
-3 6 10 -1.2497 -0.0349
-3 6 11 -1.9522 -0.0075
-3 6 12 -1.0880 0.0052
-3 6 13 -0.3552 0.0349
-3 6 14 1.1065 -0.0395
-3 6 16 -0.3761 0.0596
-3 7 1 4.6511 -0.2286
-3 7 2 1.6487 0.0583
-3 7 3 -0.9984 -0.0057
-3 7 4 -2.7104 -0.0383
-3 7 5 -4.4355 0.0061
-3 7 6 0.0268 0.0419
-3 7 7 3.9680 -0.0303
-3 7 8 2.0765 -0.0030
-3 7 9 0.9945 0.0436
-3 7 10 -1.5498 -0.0321
-3 7 11 -1.8839 -0.0056
-3 7 12 -1.3694 0.0143
-3 7 13 1.9074 0.0261
-3 7 14 0.2880 -0.0127
-3 7 15 0.4833 -0.0021
-3 8 1 2.0615 -0.5079
-3 8 2 1.8603 0.2811
-3 8 3 -4.0342 -0.0922
-3 8 4 -2.7813 -0.0136
-3 8 5 0.1599 0.0277
-3 8 6 0.7095 -0.0061
-3 8 7 3.1636 0.0141
-3 8 8 2.2222 0.0056
-3 8 9 -2.0146 0.0072
-3 8 10 -1.8567 -0.0137
-3 8 11 -0.8635 -0.0104
-3 8 12 0.0423 0.0619
-3 8 13 1.4869 -0.0506
-3 8 14 0.1474 0.0407
-3 9 1 -0.1836 -0.5721
-3 9 2 -1.1487 0.3592
-3 9 3 -1.4906 -0.1535
-3 9 4 -2.2606 0.0278
-3 9 5 1.1986 0.0493
-3 9 6 2.5999 -0.0337
-3 9 7 1.2936 -0.0038
-3 9 8 -0.3068 0.0469
-3 9 9 -1.7289 0.0013
-3 9 10 -1.3962 -0.0395
-3 9 11 -0.3330 0.0169
-3 9 12 1.2728 0.0545
-3 9 13 0.6135 -0.0445
-3 9 14 0.2742 -0.0405
-3 10 1 0.1444 -0.4581
-3 10 2 -2.2020 0.3803
-3 10 3 -1.0926 -0.1842
-3 10 4 0.3528 0.0270
-3 10 5 1.1585 0.0643
-3 10 6 1.4306 -0.0436
-3 10 7 0.6566 0.0272
-3 10 8 -1.6234 0.0174
-3 10 9 -1.5607 -0.0277
-3 10 10 -0.0594 0.0476
-3 10 11 0.4144 -0.0191
-3 10 12 0.9764 -0.0566
-3 10 13 0.6235 0.1073
-3 11 1 -0.6382 -0.3151
-3 11 2 -1.3280 0.3270
-3 11 3 -0.1906 -0.1285
-3 11 4 0.4921 0.0099
-3 11 5 1.4472 0.0349
-3 11 6 0.1319 -0.0292
-3 11 7 -0.2915 0.0506
-3 11 8 -1.4065 -0.0012
-3 11 9 -0.6548 0.0036
-3 11 10 0.5663 -0.0233
-3 11 11 0.7398 -0.0150
-3 11 12 0.5546 0.0827
-3 11 13 0.1093 -0.1747
-3 12 1 -1.0995 -0.0281
-3 12 2 -0.1696 0.0979
-3 12 3 0.0138 -0.0241
-3 12 4 0.7596 -0.0222
-3 12 5 0.6167 0.0284
-3 12 6 -0.4162 -0.0008
-3 12 7 -0.3433 0.0321
-3 12 8 -1.0691 0.0147
-3 12 9 0.5423 -0.0502
-3 12 10 0.1943 0.0314
-3 12 11 1.0059 -0.0336
-3 12 12 0.0427 -0.0539
-3 13 2 -0.1678 -0.0124
-3 13 3 0.2362 -0.0009
-3 13 4 0.5617 -0.0178
-3 13 5 0.3410 0.0202
-3 13 6 -0.6784 0.0169
-3 13 7 -0.4972 0.0173
-3 13 8 0.3052 -0.0093
-3 13 9 0.0833 0.0311
-3 13 10 0.4523 -0.1968
-2 -14 1 0.0326 0.7041
-2 -13 1 0.4774 0.1270
-2 -13 2 0.7117 -0.1214
-2 -13 3 0.3592 0.0128
-2 -12 1 1.2279 0.0503
-2 -12 2 0.6671 -0.2493
-2 -12 3 -0.0913 0.1018
-2 -12 4 -0.5206 0.1495
-2 -12 5 -0.5667 -0.2093
-2 -11 1 2.0464 -0.1755
-2 -11 2 -0.0824 0.0598
-2 -11 3 -0.5067 -0.0011
-2 -11 4 -1.4147 -0.0715
-2 -11 5 -0.0455 0.1961
-2 -11 6 0.4671 -0.0834
-2 -10 1 0.7645 -0.5502
-2 -10 2 -0.1116 0.2957
-2 -10 3 -2.6525 -0.0014
-2 -10 4 -0.3889 -0.0638
-2 -10 5 0.2016 0.0585
-2 -10 6 1.0207 -0.0702
-2 -10 7 0.5342 0.1020
-2 -10 8 -0.1732 -0.2341
-2 -9 1 -0.2118 -0.6652
-2 -9 2 -3.4426 0.4472
-2 -9 3 -0.6885 -0.1401
-2 -9 4 -1.3647 -0.0167
-2 -9 5 1.9488 0.1021
-2 -9 6 1.7320 -0.1349
-2 -9 7 -0.2037 -0.0036
-2 -9 8 -1.2700 0.1284
-2 -9 9 0.1811 -0.1466
-2 -8 1 -2.5880 -0.6087
-2 -8 2 -3.5893 0.4993
-2 -8 3 -2.3166 -0.2011
-2 -8 4 3.6021 -0.0267
-2 -8 5 0.3804 0.1064
-2 -8 6 2.3841 -0.0687
-2 -8 7 -1.5667 -0.0401
-2 -8 8 -1.0679 0.0946
-2 -8 9 -0.9109 -0.0051
-2 -8 10 0.6384 -0.0454
-2 -7 1 -5.8467 -0.3961
-2 -7 2 -1.7929 0.4016
-2 -7 3 0.1854 -0.1714
-2 -7 4 3.3525 0.0134
-2 -7 5 3.7915 0.0367
-2 -7 6 -2.4345 -0.0271
-2 -7 7 -0.6697 0.0355
-2 -7 8 -2.0070 0.0189
-2 -7 9 0.1696 -0.0429
-2 -7 10 1.0679 0.0615
-2 -7 11 0.8082 -0.0208
-2 -6 1 -8.2176 -0.0232
-2 -6 2 -0.5899 0.1552
-2 -6 3 6.4445 -0.0948
-2 -6 4 2.0312 0.0599
-2 -6 5 1.6383 0.0097
-2 -6 6 -1.3747 -0.0346
-2 -6 7 -5.1657 0.0304
-2 -6 8 1.2864 0.0392
-2 -6 9 0.4122 -0.0555
-2 -6 10 1.8690 0.0174
-2 -6 11 0.3602 0.0187
-2 -6 12 -0.4801 0.0001
-2 -5 1 -2.7744 0.4197
-2 -5 2 0.9409 -0.1767
-2 -5 3 7.6275 0.0283
-2 -5 4 4.6852 0.0665
-2 -5 5 -4.9200 -0.0350
-2 -5 6 -2.2533 -0.0139
-2 -5 7 -2.4191 0.0188
-2 -5 8 -0.2920 0.0014
-2 -5 9 3.8354 -0.0304
-2 -5 10 0.8486 0.0224
-2 -5 11 -0.3936 0.0149
-2 -5 12 -0.8886 -0.0745
-2 -5 13 -1.0499 0.0592
-2 -4 1 9.8752 0.7389
-2 -4 2 6.3054 -0.4250
-2 -4 3 3.2940 0.1153
-2 -4 4 2.6032 0.0189
-2 -4 5 -5.4599 -0.0508
-2 -4 6 -6.6188 0.0216
-2 -4 7 1.9199 -0.0225
-2 -4 8 2.8324 -0.0214
-2 -4 9 1.2788 0.0258
-2 -4 10 2.0761 -0.0097
-2 -4 11 -2.1740 -0.0256
-2 -4 12 -1.6858 0.0250
-2 -4 13 -0.0875 -0.0759
-2 -4 14 0.5377 0.0642
-2 -3 1 1.2076 0.8070
-2 -3 2 18.1053 -0.6131
-2 -3 3 -0.8859 0.2346
-2 -3 4 -7.2776 -0.0215
-2 -3 5 -2.7938 -0.1187
-2 -3 6 -3.7850 0.0775
-2 -3 7 0.4921 -0.0064
-2 -3 8 7.9350 -0.0684
-2 -3 9 -0.3064 0.0455
-2 -3 10 -1.1668 0.0053
-2 -3 11 -1.6044 -0.0273
-2 -3 12 -1.6959 -0.0195
-2 -3 13 0.5250 0.0183
-2 -3 14 1.0136 -0.0009
-2 -2 1 6.3373 0.6557
-2 -2 2 4.8722 -0.6098
-2 -2 3 3.2409 0.2528
-2 -2 4 -12.2627 -0.0406
-2 -2 5 -7.6190 -0.0877
-2 -2 6 6.5237 0.0734
-2 -2 7 2.3200 -0.0245
-2 -2 8 3.2340 -0.0353
-2 -2 9 2.3091 0.0637
-2 -2 10 -4.8751 -0.0405
-2 -2 11 -2.1494 -0.0009
-2 -2 12 0.7895 0.0082
-2 -2 13 0.5274 0.0078
-2 -2 14 1.4613 -0.0197
-2 -2 15 0.3576 0.0500
-2 -1 1 10.4927 0.2919
-2 -1 2 -2.3934 -0.3581
-2 -1 3 -8.9582 0.2034
-2 -1 4 -3.6547 -0.0497
-2 -1 5 -6.4748 -0.0453
-2 -1 6 5.8308 0.0725
-2 -1 7 10.2593 -0.0243
-2 -1 8 -2.0659 -0.0202
-2 -1 9 -2.5942 0.0487
-2 -1 10 -1.7375 -0.0109
-2 -1 11 -3.2169 -0.0173
-2 -1 12 2.1805 0.0182
-2 -1 13 2.2135 0.0011
-2 -1 14 0.2287 0.0090
-2 -1 15 -0.2620 -0.0115
-2 -1 16 -0.7235 0.0279
-2 0 1 15.0817 -0.1309
-2 0 2 -6.0056 -0.0033
-2 0 3 -16.7350 0.1146
-2 0 4 -1.9990 -0.0169
-2 0 5 7.7509 -0.0366
-2 0 6 1.7646 0.0593
-2 0 7 6.4653 -0.0103
-2 0 8 1.2160 0.0001
-2 0 9 -9.0043 0.0229
-2 0 10 -1.5161 -0.0022
-2 0 11 1.9880 -0.0156
-2 0 12 0.8091 0.0177
-2 0 13 2.2056 0.0049
-2 0 14 0.5202 -0.0288
-2 0 15 -2.2274 0.0452
-2 0 16 -0.0377 -0.0004
-2 1 1 -18.7533 -0.4120
-2 1 2 1.1949 0.3117
-2 1 3 -10.2956 -0.0456
-2 1 4 -4.6352 0.0557
-2 1 5 13.2109 -0.0255
-2 1 6 8.6288 -0.0016
-2 1 7 -4.9500 0.0170
-2 1 8 -2.5543 0.0304
-2 1 9 -2.7970 -0.0155
-2 1 10 -4.4838 -0.0170
-2 1 11 5.1562 0.0141
-2 1 12 1.8480 -0.0069
-2 1 13 0.6001 -0.0010
-2 1 14 -1.3661 0.0022
-2 1 15 -0.9620 0.0149
-2 1 16 -0.8472 0.0246
-2 2 1 -1.9492 -0.6229
-2 2 2 -22.9315 0.6053
-2 2 3 8.9428 -0.2264
-2 2 4 3.4473 0.0571
-2 2 5 5.3188 0.0009
-2 2 6 7.0751 -0.0184
-2 2 7 -3.2801 0.0214
-2 2 8 -10.7017 0.0037
-2 2 9 0.3256 -0.0105
-2 2 10 2.1434 -0.0008
-2 2 11 1.4344 -0.0410
-2 2 12 4.0277 0.0356
-2 2 13 -2.7057 -0.0002
-2 2 14 -0.9153 -0.0056
-2 2 15 -1.1132 -0.0072
-2 2 16 -0.1450 0.1013
-2 2 17 1.3337 -0.1780
-2 3 1 -5.1924 -0.6728
-2 3 2 -4.3946 0.6756
-2 3 3 -2.5558 -0.3093
-2 3 4 17.1247 0.0047
-2 3 5 2.2050 0.0547
-2 3 6 -3.2464 -0.0504
-2 3 7 -4.9080 0.0188
-2 3 8 -4.5181 0.0105
-2 3 9 -1.8773 -0.0489
-2 3 10 5.8290 0.0199
-2 3 11 3.1732 -0.0314
-2 3 12 -2.0833 0.0252
-2 3 13 0.4062 0.0025
-2 3 14 -2.9536 0.0031
-2 3 15 -0.4333 0.0088
-2 3 16 1.9872 -0.0072
-2 3 17 0.1770 -0.0601
-2 4 1 -8.4211 -0.5164
-2 4 2 5.1276 0.5158
-2 4 3 6.6633 -0.2981
-2 4 4 3.4694 -0.0492
-2 4 5 7.1852 0.1123
-2 4 6 -10.7573 -0.0853
-2 4 7 -6.0310 0.0154
-2 4 8 0.5606 0.0211
-2 4 9 1.7365 -0.0764
-2 4 10 3.9414 0.0315
-2 4 11 2.9771 0.0143
-2 4 12 -3.2308 -0.0218
-2 4 13 -2.3075 0.0289
-2 4 14 0.3383 -0.0170
-2 4 15 0.4919 0.0197
-2 4 16 0.1886 -0.0406
-2 4 17 1.8282 -0.0498
-2 5 1 -2.1619 -0.2490
-2 5 2 3.7553 0.2206
-2 5 3 11.4171 -0.1801
-2 5 4 0.1176 -0.0909
-2 5 5 -5.1648 0.1137
-2 5 6 -3.7446 -0.0605
-2 5 7 -5.8857 -0.0065
-2 5 8 2.2686 0.0120
-2 5 9 6.3379 -0.0433
-2 5 10 0.9517 0.0246
-2 5 11 -0.5073 0.0173
-2 5 12 -1.4421 -0.0076
-2 5 13 -2.8780 0.0153
-2 5 14 1.0165 -0.0289
-2 5 15 1.4063 0.0093
-2 5 16 1.0450 0.0056
-2 6 1 4.8236 0.0791
-2 6 2 4.2073 -0.1385
-2 6 3 4.0455 -0.0159
-2 6 4 0.4729 -0.0775
-2 6 5 -9.0574 0.0747
-2 6 6 -3.6263 -0.0378
-2 6 7 1.4625 -0.0177
-2 6 8 2.8177 0.0277
-2 6 9 4.3766 -0.0177
-2 6 10 1.1642 0.0010
-2 6 11 -3.7253 0.0371
-2 6 12 -1.9937 -0.0074
-2 6 13 1.1411 -0.0210
-2 6 14 -0.3076 0.0216
-2 6 15 1.7273 -0.0288
-2 7 1 4.9171 0.3853
-2 7 2 5.1598 -0.4062
-2 7 3 -1.9212 0.1270
-2 7 4 -3.9306 -0.0882
-2 7 5 -3.6318 0.0727
-2 7 6 -2.8402 0.0007
-2 7 7 3.9774 -0.0654
-2 7 8 4.9766 0.0553
-2 7 9 0.0146 0.0312
-2 7 10 -0.5264 -0.0509
-2 7 11 -2.9003 0.0575
-2 7 12 -1.4254 -0.0216
-2 7 13 1.1655 -0.0121
-2 8 1 3.0370 0.5311
-2 8 2 0.7830 -0.5629
-2 8 3 -1.5917 0.2507
-2 8 4 -5.7391 -0.0349
-2 8 5 -1.0931 -0.0253
-2 8 6 2.1343 0.0484
-2 8 7 3.0065 -0.0125
-2 8 8 2.8750 0.0013
-2 8 9 -0.5081 0.0385
-2 8 10 -3.6759 -0.0255
-2 8 11 -0.6573 0.0467
-2 8 12 0.1940 -0.0383
-2 8 13 0.5382 -0.0227
-2 9 1 1.9330 0.5349
-2 9 2 -2.0948 -0.5389
-2 9 3 -2.3775 0.2536
-2 9 4 -1.9366 0.0442
-2 9 5 -0.6756 -0.0808
-2 9 6 4.4904 0.0589
-2 9 7 1.7874 0.0001
-2 9 8 -0.2837 -0.0059
-2 9 9 -1.4770 0.0496
-2 9 10 -1.9312 -0.0230
-2 9 11 -1.4252 -0.0067
-2 9 12 2.2338 0.0097
-2 9 13 0.9536 -0.0069
-2 10 1 -0.0846 0.3393
-2 10 2 -1.7457 -0.3064
-2 10 3 -2.4459 0.2032
-2 10 4 0.4470 0.0227
-2 10 5 1.6753 -0.0512
-2 10 6 1.6109 0.0379
-2 10 7 1.5924 0.0063
-2 10 8 -1.9285 0.0049
-2 10 9 -2.2557 0.0141
-2 10 10 -0.3959 0.0214
-2 10 11 0.9282 -0.0396
-2 10 12 0.4415 -0.0182
-2 10 13 1.3228 0.0405
-2 11 1 -0.8915 0.1225
-2 11 2 -1.0499 -0.1005
-2 11 3 -1.0232 0.1381
-2 11 4 0.9509 0.0578
-2 11 5 1.8384 -0.1204
-2 11 6 1.0539 0.0410
-2 11 7 -1.8191 0.0650
-2 11 8 -0.1872 -0.0189
-2 11 9 -1.7574 -0.0067
-2 11 10 0.0546 -0.0031
-2 11 11 1.5698 0.0113
-2 11 12 0.9843 -0.0428
-2 12 1 -0.5233 -0.0134
-2 12 2 -0.9979 0.1701
-2 12 3 0.5206 -0.0833
-2 12 4 0.5544 0.0784
-2 12 5 1.2582 -0.0361
-2 12 6 -0.4543 -0.0290
-2 12 7 -0.9548 0.0294
-2 12 8 -1.2621 0.0980
-2 12 9 0.4623 -0.0732
-2 12 10 0.4912 -0.0519
-2 12 11 0.9917 0.0227
-2 12 12 0.1809 -0.0204
-2 13 1 -1.4064 -0.3867
-2 13 2 0.4413 0.3261
-2 13 3 0.1846 -0.0841
-2 13 4 1.1817 0.0071
-2 13 5 -0.9664 -0.0611
-2 13 6 0.6037 0.0428
-2 13 7 -1.5059 0.0909
-2 13 8 0.3377 -0.0578
-2 13 9 -0.2438 -0.0579
-2 13 10 1.7790 0.0934
-2 13 11 -0.4563 -0.1822
-2 13 12 0.3136 0.0871
-2 14 3 1.0069 -0.1859
-2 14 4 -0.3331 0.0692
-2 14 5 0.5302 0.0144
-2 14 6 -1.1279 -0.0072
-2 14 7 0.1523 0.0494
-2 14 8 0.1299 -0.0091
-2 14 9 0.5662 -0.0895
-1 -14 1 0.1099 -0.4143
-1 -13 1 0.2750 0.0126
-1 -13 2 0.4583 -0.0527
-1 -13 3 0.5429 -0.0587
-1 -12 1 1.5900 0.0068
-1 -12 2 0.6643 -0.0189
-1 -12 3 -0.1435 -0.0551
-1 -12 4 -0.4301 -0.1386
-1 -12 5 -0.4311 0.2974
-1 -11 1 1.3712 0.3213
-1 -11 2 1.4369 -0.3946
-1 -11 3 -1.3965 0.1053
-1 -11 4 -1.0183 0.0985
-1 -11 5 -0.0406 -0.1442
-1 -11 6 0.2145 0.1717
-1 -10 1 0.8287 0.5482
-1 -10 2 -0.4810 -0.4862
-1 -10 3 -1.1115 0.1751
-1 -10 4 -1.6109 0.0052
-1 -10 5 0.1327 0.0318
-1 -10 6 1.2573 -0.0142
-1 -10 7 0.4907 -0.0694
-1 -10 8 -0.3285 0.1162
-1 -9 1 1.1696 0.5281
-1 -9 2 -3.4930 -0.5045
-1 -9 3 -1.9819 0.2815
-1 -9 4 0.1684 0.0011
-1 -9 5 0.7437 -0.0923
-1 -9 6 1.4028 0.0784
-1 -9 7 0.2609 -0.0217
-1 -9 8 -0.3015 -0.0925
-1 -9 9 -1.1390 0.1817
-1 -8 1 -2.0372 0.3987
-1 -8 2 -2.9224 -0.3901
-1 -8 3 -3.3167 0.2210
-1 -8 4 2.1855 0.0747
-1 -8 5 2.7582 -0.1216
-1 -8 6 0.0820 0.0283
-1 -8 7 0.3632 0.0267
-1 -8 8 -1.8156 0.0321
-1 -8 9 -0.5856 -0.1035
-1 -8 10 0.4305 0.1916
-1 -7 1 -6.7840 0.1600
-1 -7 2 -3.1993 -0.1356
-1 -7 3 1.9101 0.1114
-1 -7 4 0.9592 0.0567
-1 -7 5 4.4572 -0.0446
-1 -7 6 -0.5827 0.0220
-1 -7 7 -2.0855 -0.0059
-1 -7 8 -1.1541 0.0202
-1 -7 9 -0.3603 0.0501
-1 -7 10 0.8719 -0.1036
-1 -7 11 0.9766 0.1328
-1 -6 1 -7.9080 -0.2320
-1 -6 2 -2.9542 0.2401
-1 -6 3 5.1654 -0.0171
-1 -6 4 5.5632 0.0405
-1 -6 5 -0.9271 -0.0128
-1 -6 6 0.0188 0.0053
-1 -6 7 -3.9208 0.0597
-1 -6 8 -0.9404 -0.0782
-1 -6 9 1.5702 0.0422
-1 -6 10 0.8112 0.0262
-1 -6 11 1.0183 -0.0852
-1 -6 12 -0.3879 0.0823
-1 -5 1 1.3909 -0.5424
-1 -5 2 0.3500 0.5357
-1 -5 3 5.0305 -0.1709
-1 -5 4 6.5571 0.0527
-1 -5 5 -2.1412 0.0238
-1 -5 6 -6.0024 -0.0517
-1 -5 7 0.2396 0.0400
-1 -5 8 -1.8044 -0.0018
-1 -5 9 2.9097 -0.0746
-1 -5 10 2.1997 0.0716
-1 -5 11 -0.7123 -0.0368
-1 -5 12 -1.0355 -0.0266
-1 -5 13 -0.3600 0.0445
-1 -4 1 -1.2501 -0.6978
-1 -4 2 14.8272 0.6717
-1 -4 3 2.5089 -0.2805
-1 -4 4 -0.9256 0.0079
-1 -4 5 -0.8944 0.0585
-1 -4 6 -7.7343 -0.0615
-1 -4 7 -0.7956 -0.0275
-1 -4 8 4.4391 0.0420
-1 -4 9 0.9959 -0.0680
-1 -4 10 1.3687 0.0266
-1 -4 11 -0.6238 -0.0036
-1 -4 12 -2.0216 -0.0177
-1 -4 13 -0.3904 0.0079
-1 -4 14 0.0535 -0.0154
-1 -3 1 -2.0621 -0.6462
-1 -3 2 10.5873 0.6189
-1 -3 3 11.0749 -0.3345
-1 -3 4 -11.2846 -0.0545
-1 -3 5 -6.8489 0.0829
-1 -3 6 0.6000 -0.0523
-1 -3 7 -1.1479 -0.0475
-1 -3 8 4.8700 0.0218
-1 -3 9 4.1667 -0.0106
-1 -3 10 -3.0174 -0.0044
-1 -3 11 -1.4122 -0.0148
-1 -3 12 -0.8172 0.0229
-1 -3 13 -0.4894 -0.0049
-1 -3 14 1.1772 -0.0217
-1 -3 15 0.1686 0.0206
-1 -2 1 14.4771 -0.5361
-1 -2 2 -0.2320 0.3639
-1 -2 3 -0.2855 -0.2291
-1 -2 4 -2.4242 -0.0928
-1 -2 5 -14.3155 0.0681
-1 -2 6 3.1391 -0.0398
-1 -2 7 8.5101 -0.0081
-1 -2 8 0.0216 0.0150
-1 -2 9 2.8183 -0.0349
-1 -2 10 -2.6918 0.0352
-1 -2 11 -3.4526 0.0008
-1 -2 12 -0.2554 -0.0238
-1 -2 13 1.9191 0.0493
-1 -2 14 0.3930 -0.0374
-1 -2 15 0.5774 0.0153
-1 -1 1 36.9182 -0.2790
-1 -1 2 -8.0489 -0.0025
-1 -1 3 -9.4455 -0.0542
-1 -1 4 -9.6265 -0.0771
-1 -1 5 3.7032 0.0771
-1 -1 6 -2.9810 -0.0299
-1 -1 7 11.5729 -0.0148
-1 -1 8 3.5527 0.0552
-1 -1 9 -6.6098 -0.0278
-1 -1 10 -0.7629 -0.0078
-1 -1 11 -2.0806 0.0604
-1 -1 12 -0.2876 -0.0301
-1 -1 13 3.2653 -0.0068
-1 -1 14 0.0400 0.0454
-1 -1 15 0.3423 -0.0626
-1 -1 16 -0.8957 0.0397
-1 0 1 -1.1986 0.0598
-1 0 2 6.0713 -0.3440
-1 0 3 -17.0221 0.2034
-1 0 4 -7.8409 -0.0661
-1 0 5 5.2579 0.0478
-1 0 6 11.8848 0.0218
-1 0 7 -0.9109 -0.0240
-1 0 8 3.5098 0.0297
-1 0 9 -5.5365 0.0457
-1 0 10 -5.8983 -0.0641
-1 0 11 2.5282 0.0595
-1 0 12 1.7980 0.0140
-1 0 13 1.2128 -0.0582
-1 0 14 0.7945 0.0363
-1 0 15 -1.2597 -0.0157
-1 0 16 -0.5953 0.0227
-1 1 1 -8.4765 0.4202
-1 1 2 -21.4900 -0.4557
-1 1 3 6.4435 0.3520
-1 1 4 -9.5103 -0.0776
-1 1 5 8.7175 0.0519
-1 1 6 13.0046 0.0246
-1 1 7 -0.3834 -0.0254
-1 1 8 -8.8868 0.0188
-1 1 9 -0.1723 0.0625
-1 1 10 -3.7357 -0.0699
-1 1 11 0.7030 0.0335
-1 1 12 5.6782 0.0108
-1 1 13 -0.4441 -0.0391
-1 1 14 -1.2515 -0.0112
-1 1 15 -0.4884 0.0880
-1 1 16 -1.0581 -0.1268
-1 1 17 0.1906 0.1820
-1 2 1 12.6171 0.7898
-1 2 2 -23.5814 -0.4490
-1 2 3 -5.2789 0.3398
-1 2 4 16.0126 -0.0430
-1 2 5 3.5043 0.0058
-1 2 6 4.3790 0.0185
-1 2 7 0.5340 -0.0131
-1 2 8 -9.6615 0.0228
-1 2 9 -6.5794 0.0096
-1 2 10 6.8559 -0.0404
-1 2 11 0.5756 0.0323
-1 2 12 1.8479 -0.0419
-1 2 13 1.1673 0.0009
-1 2 14 -2.8485 0.0129
-1 2 15 -1.1240 0.0422
-1 2 16 0.5741 -0.0716
-1 2 17 0.0307 0.1140
-1 3 1 -19.0967 0.8824
-1 3 2 7.8631 -0.3874
-1 3 3 -8.0703 0.2878
-1 3 4 12.7886 -0.0292
-1 3 5 12.7497 -0.1005
-1 3 6 -7.6329 0.0637
-1 3 7 -5.5703 0.0060
-1 3 8 -4.0261 -0.0163
-1 3 9 -2.3277 -0.0174
-1 3 10 2.7262 -0.0248
-1 3 11 6.9539 0.0299
-1 3 12 -1.7744 -0.0407
-1 3 13 -1.7697 -0.0057
-1 3 14 -1.0715 0.0590
-1 3 15 -1.1703 -0.0236
-1 3 16 1.4737 -0.0109
-1 3 17 0.0145 0.0333
-1 4 1 -11.9027 0.7231
-1 4 2 -3.8842 -0.2477
-1 4 3 18.8309 0.0876
-1 4 4 -0.2449 0.0256
-1 4 5 4.3491 -0.1383
-1 4 6 -2.0768 0.0520
-1 4 7 -13.9146 0.0277
-1 4 8 -0.1408 -0.0591
-1 4 9 4.9628 0.0005
-1 4 10 2.4546 -0.0275
-1 4 11 1.8570 0.0066
-1 4 12 0.7992 0.0162
-1 4 13 -4.7905 -0.0249
-1 4 14 -0.0187 0.0547
-1 4 15 0.7271 -0.0270
-1 4 16 0.5622 -0.0498
-1 4 17 0.8557 0.0863
-1 5 1 0.0329 0.3922
-1 5 2 1.8260 -0.0712
-1 5 3 9.0539 -0.1373
-1 5 4 9.0927 0.0869
-1 5 5 -9.9546 -0.1441
-1 5 6 -5.1135 0.0451
-1 5 7 -3.2798 0.0440
-1 5 8 -2.4809 -0.0995
-1 5 9 7.9778 0.0036
-1 5 10 3.7999 0.0366
-1 5 11 -2.0405 -0.0412
-1 5 12 -1.9876 0.0330
-1 5 13 -1.1585 0.0168
-1 5 14 -1.3614 -0.0156
-1 5 15 2.4530 -0.0153
-1 5 16 1.1452 0.0130
-1 6 1 3.9894 -0.0570
-1 6 2 9.2906 0.1249
-1 6 3 2.0889 -0.3039
-1 6 4 0.5133 0.1340
-1 6 5 -4.8331 -0.1102
-1 6 6 -10.4772 0.0170
-1 6 7 2.4931 0.0444
-1 6 8 4.7880 -0.0771
-1 6 9 2.7141 -0.0149
-1 6 10 2.2713 0.0842
-1 6 11 -1.7350 -0.0548
-1 6 12 -4.2130 0.0288
-1 6 13 0.2538 0.0209
-1 6 14 1.5462 -0.0206
-1 6 15 0.3441 -0.0296
-1 6 16 1.5633 0.0113
-1 7 1 3.3492 -0.4783
-1 7 2 6.9294 0.2478
-1 7 3 1.6111 -0.3442
-1 7 4 -7.1921 0.1503
-1 7 5 -4.1861 -0.0579
-1 7 6 -2.0315 -0.0231
-1 7 7 0.8103 0.0630
-1 7 8 7.3719 -0.0666
-1 7 9 1.9890 0.0005
-1 7 10 -2.6186 0.1016
-1 7 14 2.6737 -0.0136
-1 7 15 0.4180 -0.0366
-1 7 16 -0.6809 0.0299
-1 8 1 3.8165 -0.6611
-1 8 2 1.5823 0.3095
-1 8 3 -1.8679 -0.3256
-1 8 4 -4.8643 0.1085
-1 8 5 -4.8235 0.0656
-1 8 6 3.1557 -0.0834
-1 8 7 4.3502 0.0531
-1 8 8 1.6311 -0.0184
-1 8 9 1.6249 0.0157
-1 8 10 -3.7057 0.0678
-1 8 11 -2.5419 -0.0500
-1 9 1 3.1997 -0.6973
-1 9 2 -1.0330 0.2987
-1 9 3 -4.3778 -0.1419
-1 9 4 -2.3419 -0.0126
-1 9 5 0.0578 0.1145
-1 9 6 2.1653 -0.0334
-1 9 7 4.8913 -0.0078
-1 9 8 -0.0815 0.0272
-1 9 9 -2.3422 0.0269
-1 9 10 -2.3808 0.0285
-1 9 11 -0.3631 -0.0464
-1 10 1 0.1838 -0.5389
-1 10 2 -1.7550 0.1430
-1 10 3 -2.8643 0.0550
-1 10 4 -1.0401 -0.0228
-1 10 5 2.7184 0.0900
-1 10 6 2.4623 -0.0665
-1 10 7 0.8147 0.0217
-1 10 8 -0.2825 0.0861
-1 10 9 -3.2860 -0.0569
-1 10 10 -1.2248 0.0328
-1 10 11 1.1741 -0.0014
-1 11 1 -1.6949 -0.1481
-1 11 2 -1.5917 0.0181
-1 11 3 -0.9782 0.1375
-1 11 4 0.9508 -0.0649
-1 11 5 1.9226 0.1187
-1 11 6 1.6514 -0.0750
-1 11 7 -0.8174 -0.0185
-1 11 8 -1.9843 0.1079
-1 11 9 -1.2710 0.0032
-1 11 10 -0.0763 -0.0848
-1 11 11 1.2985 0.0445
-1 11 12 1.3912 -0.0375
-1 12 1 -0.9200 0.0189
-1 12 2 -1.3700 -0.0884
-1 12 3 0.5005 0.3449
-1 12 4 1.2475 -0.2142
-1 12 5 0.9849 0.0555
-1 12 6 0.1000 0.0413
-1 12 7 -1.0676 -0.0530
-1 12 8 -2.2637 0.0760
-1 12 9 0.9184 0.0332
-1 12 10 -0.0999 -0.1288
-1 12 11 1.9608 0.0457
-1 13 1 -0.2773 0.4544
-1 13 2 -0.6787 -0.2627
-1 13 3 1.0078 0.2620
-1 13 4 0.6949 -0.1066
-1 13 5 0.1180 -0.0415
-1 13 6 -0.5648 0.0813
-1 13 7 -1.1544 -0.0143
-1 13 8 -0.2763 0.0063
-1 13 9 0.0594 0.0412
-1 13 10 1.8498 -0.0788
-1 13 11 -0.3203 -0.1013
-1 14 1 -0.6545 0.2527
-1 14 2 0.6178 -0.1055
-1 14 3 -0.2313 0.1442
-1 14 4 1.0288 -0.1061
-1 14 5 -0.2519 -0.0316
-1 14 6 -1.4705 0.0978
-1 14 7 0.4672 -0.0135
-1 14 8 -0.1957 0.0342
-1 14 9 0.8493 -0.0877
-1 14 10 0.1642 -0.0714
-1 14 11 1.0338 0.1184
-1 14 12 -1.2929 -0.1328
0 -13 1 0.3287 0.1056
0 -13 2 0.5554 0.0997
0 -12 1 0.7279 0.0318
0 -12 2 1.0037 -0.0461
0 -12 3 -0.0104 -0.1231
0 -12 4 -0.3909 0.1038
0 -11 1 1.4954 -0.3828
0 -11 2 0.5803 0.2169
0 -11 3 -0.4353 -0.2157
0 -11 4 -0.7574 0.0015
0 -11 5 -0.7460 0.0789
0 -11 6 0.5562 -0.0224
0 -10 1 2.4268 -0.5988
0 -10 2 -1.1651 0.2243
0 -10 3 -0.5719 -0.2129
0 -10 4 -1.5366 0.1187
0 -10 5 0.0559 -0.0306
0 -10 6 0.6007 0.0128
0 -10 7 0.8644 0.0662
0 -10 8 -0.2924 -0.1891
0 -9 1 0.2952 -0.6446
0 -9 2 -1.2555 0.2556
0 -9 3 -3.0713 -0.1708
0 -9 4 0.1364 0.0527
0 -9 5 0.5923 0.0802
0 -9 6 0.9478 -0.0502
0 -9 7 0.6355 -0.0248
0 -9 8 -0.3723 0.0891
0 -9 9 -0.7640 -0.1480
0 -8 1 -1.5573 -0.5820
0 -8 2 -3.6139 0.1865
0 -8 3 -1.5955 -0.0079
0 -8 4 -0.4681 -0.0361
0 -8 5 3.4267 0.0862
0 -8 6 0.4273 0.0037
0 -8 7 -0.2163 -0.0655
0 -8 8 -1.1166 0.0348
0 -8 9 -0.1275 0.1279
0 -8 10 -0.2762 -0.2409
0 -7 1 -5.3649 -0.2470
0 -7 2 -4.2919 -0.0192
0 -7 3 0.0426 0.1537
0 -7 4 3.0376 -0.0641
0 -7 5 1.3861 0.0783
0 -7 6 2.2295 0.0061
0 -7 7 -2.8264 -0.0305
0 -7 8 -0.7158 0.0376
0 -7 9 -0.6128 0.0021
0 -7 10 1.0380 0.0597
0 -7 11 0.4378 -0.1786
0 -6 1 -5.7916 0.2100
0 -6 2 -2.8864 -0.1949
0 -6 3 2.6692 0.2769
0 -6 4 5.5021 -0.1067
0 -6 5 1.0823 0.0921
0 -6 6 -1.8320 0.0189
0 -6 7 -0.8201 -0.0495
0 -6 8 -2.7246 0.0660
0 -6 9 1.4806 -0.0216
0 -6 10 0.8942 -0.0721
0 -6 11 0.7034 0.1473
0 -6 12 -0.0887 -0.1897
0 -5 1 -3.1339 0.6070
0 -5 2 3.3913 -0.3110
0 -5 3 4.5485 0.3531
0 -5 4 4.3263 -0.1078
0 -5 5 1.0116 0.0215
0 -5 6 -5.2827 0.0639
0 -5 7 -2.3724 -0.0605
0 -5 8 1.2078 0.0132
0 -5 9 0.4278 0.0370
0 -5 10 2.0823 -0.1247
0 -5 11 -0.2737 0.0701
0 -5 12 -0.3602 0.0736
0 -5 13 -0.8847 -0.1880
0 -4 1 -7.0715 0.8256
0 -4 2 10.2988 -0.3683
0 -4 3 9.2050 0.3124
0 -4 4 -2.3365 -0.0443
0 -4 5 -2.8148 -0.0822
0 -4 6 -2.8798 0.0508
0 -4 7 -4.4731 -0.0090
0 -4 8 3.5460 -0.0474
0 -4 9 3.0977 0.0012
0 -4 10 -0.6900 -0.0072
0 -4 11 0.3427 -0.0228
0 -4 12 -1.6066 -0.0044
0 -4 13 -0.6467 0.0809
0 -4 14 0.5413 -0.1298
0 -3 1 6.3154 0.8592
0 -3 2 4.5960 -0.3334
0 -3 3 8.1505 0.1294
0 -3 4 -1.4301 0.0092
0 -3 5 -12.6361 -0.1207
0 -3 6 -0.3687 0.0171
0 -3 7 2.0299 0.0030
0 -3 8 1.2469 -0.0448
0 -3 9 4.1096 -0.0075
0 -3 10 -0.6071 -0.0252
0 -3 11 -2.5422 0.0484
0 -3 12 -0.6179 -0.0530
0 -3 13 0.1999 0.0123
0 -3 14 -0.0446 0.0625
0 -3 15 1.0799 -0.0894
0 -2 1 11.6616 0.5900
0 -2 2 10.8177 -0.1942
0 -2 3 -7.7364 -0.1053
0 -2 4 -3.5172 0.0767
0 -2 5 -6.2649 -0.1577
0 -2 6 -5.8008 0.0106
0 -2 7 9.4582 0.0605
0 -2 8 3.7408 -0.1030
0 -2 9 -1.0393 0.0203
0 -2 10 -0.1940 0.0138
0 -2 11 -3.3737 -0.0040
0 -2 12 -0.0438 0.0005
0 -2 13 0.5010 -0.0044
0 -2 14 1.6623 0.0645
0 -2 15 -0.4621 -0.1047
0 -1 3 -6.7689 -0.2795
0 -1 4 -14.0896 0.1599
0 -1 5 1.3187 -0.1491
0 -1 6 3.9392 0.0011
0 -1 7 2.6599 0.0937
0 -1 8 8.3913 -0.1032
0 -1 9 -4.4136 0.0176
0 -1 10 -3.9517 0.0730
0 -1 11 0.0269 -0.0926
0 -1 12 -0.6336 0.0952
0 -1 13 1.7401 0.0019
0 -1 14 1.4268 -0.0749
0 -1 15 -0.4297 0.1012
0 -1 16 -0.6501 -0.0908
0 0 3 -29.7414 -0.3925
0 0 4 -5.9696 0.2696
0 0 5 2.0992 -0.0731
0 0 6 13.2389 -0.0483
0 0 7 2.9331 0.0988
0 0 8 -2.3444 -0.0271
0 0 9 0.8170 -0.0623
0 0 10 -7.7343 0.1311
0 0 11 0.5844 -0.0497
0 0 12 3.8497 -0.0088
0 0 13 -0.5461 0.0643
0 0 14 1.1915 -0.0483
0 0 15 -0.5378 0.0103
0 0 16 -0.8480 -0.0238
0 1 0 -31.1130 -0.1246
0 1 1 51.3746 -0.2959
0 1 2 -58.5253 0.2269
0 1 3 15.4903 -0.3267
0 1 4 -5.0115 0.2357
0 1 5 3.8878 0.0109
0 1 6 10.0822 -0.0439
0 1 7 7.9250 0.0623
0 1 8 -9.4785 -0.0080
0 1 9 -6.0750 -0.0179
0 1 10 1.9423 0.0783
0 1 11 -1.2687 -0.0330
0 1 12 3.1418 -0.0077
0 1 13 2.0519 0.0585
0 1 14 -1.3098 -0.0700
0 1 15 -1.6387 -0.0323
0 1 16 0.3404 0.1698
0 1 17 -0.2812 -0.1978
0 2 0 8.5758 0.4927
0 2 1 -28.2455 -0.7347
0 2 4 27.6804 0.0770
0 2 5 7.5955 0.0393
0 2 6 1.4395 -0.0026
0 2 7 -1.5327 0.0344
0 2 8 -3.2745 -0.0375
0 2 9 -9.3801 0.0442
0 2 10 2.2797 0.0252
0 2 11 5.5095 -0.0481
0 2 12 -0.8349 0.0229
0 2 13 1.9674 0.0019
0 2 14 -2.5241 -0.0305
0 2 15 -0.5907 -0.0052
0 2 16 -0.6479 0.0720
0 2 17 1.1047 -0.0783
0 3 0 3.8523 0.6831
0 3 1 -22.2125 -0.6282
0 3 2 -6.3072 0.4303
0 3 3 14.8148 0.0876
0 3 4 -7.4168 -0.1045
0 3 5 22.1818 0.1049
0 3 6 -2.5326 -0.0265
0 3 7 -11.5345 0.0021
0 3 8 -4.3028 0.0036
0 3 9 0.3617 0.0051
0 3 10 -0.2688 0.0130
0 3 11 6.3565 -0.0491
0 3 12 1.2608 0.0157
0 3 13 -4.1160 0.0153
0 3 14 0.5004 -0.0579
0 3 15 -1.0204 0.0423
0 3 16 -0.3746 0.0604
0 3 17 1.8654 -0.1627
0 4 0 -5.0483 0.7573
0 4 1 -5.4696 -0.4470
0 4 2 -10.7407 0.3259
0 4 3 15.2338 0.1970
0 4 4 13.8531 -0.2648
0 4 5 -6.9705 0.1439
0 4 6 2.9239 -0.0374
0 4 7 -11.6462 -0.0406
0 4 8 -5.5393 0.0565
0 4 9 4.6452 -0.0334
0 4 10 5.5549 -0.0477
0 4 11 -0.6073 0.0330
0 4 12 1.8725 -0.0154
0 4 13 -2.9141 -0.0085
0 4 14 -2.9348 -0.0059
0 4 15 2.3257 0.0411
0 4 16 0.3965 -0.0549
0 4 17 0.0345 0.0217
0 4 18 0.4780 -0.0355
0 5 0 -15.1874 0.6951
0 5 1 2.2234 -0.2136
0 5 2 5.1920 0.1171
0 5 3 3.2039 0.2174
0 5 4 13.3801 -0.3269
0 5 5 -4.2408 0.1335
0 5 6 -14.5454 0.0064
0 5 7 1.0297 -0.1086
0 5 8 -2.9020 0.0668
0 5 9 4.2227 -0.0010
0 5 10 6.9531 -0.1070
0 5 11 -0.8748 0.0836
0 5 12 -4.4850 -0.0217
0 5 13 0.5503 -0.0197
0 5 14 -1.0198 0.0235
0 5 15 0.4325 0.0090
0 5 16 1.5717 -0.0512
0 5 17 0.8325 -0.0024
0 5 18 -1.7083 0.0509
0 6 0 -3.9226 0.3432
0 6 1 -3.4799 0.1034
0 6 2 14.8149 -0.1198
0 6 3 3.8119 0.1580
0 6 4 -2.5339 -0.2944
0 6 5 -2.4902 0.1190
0 6 6 -9.1936 0.0237
0 6 7 -4.3715 -0.1283
0 6 8 9.0498 0.0630
0 6 9 2.2155 -0.0072
0 6 10 1.7636 -0.0679
0 6 11 -0.4685 0.0769
0 6 12 -3.6625 -0.0263
0 6 13 -2.0549 -0.0164
0 6 14 2.7808 0.0286
0 6 15 0.7102 -0.0069
0 6 16 0.1580 -0.0272
0 6 17 0.4248 -0.0073
0 6 18 -1.0119 0.0475
0 7 0 0.4218 -0.0918
0 7 1 5.1851 0.3166
0 7 2 3.4087 -0.2866
0 7 3 7.5055 0.0959
0 7 4 -7.8923 -0.1964
0 7 5 -8.3589 0.0613
0 7 6 0.3980 0.0474
0 7 7 -0.3681 -0.1190
0 7 8 5.7241 0.0583
0 7 9 4.9160 -0.0053
0 7 10 -2.3663 -0.0380
0 7 12 -0.1524 -0.0230
0 7 13 -0.4019 -0.0371
0 7 14 1.0920 0.0490
0 7 15 2.1630 0.0059
0 7 16 -0.6511 -0.0602
0 7 17 -0.7412 0.0609
0 7 18 -0.0362 0.0116
0 8 0 1.4950 -0.4018
0 8 1 6.9287 0.3786
0 8 2 1.8992 -0.3539
0 8 3 -2.7511 0.0162
0 8 4 -3.2243 -0.0281
0 8 5 -6.4994 -0.0285
0 8 6 0.6868 0.0673
0 8 7 6.6725 -0.0889
0 8 8 1.8966 0.0409
0 8 9 1.0369 0.0418
0 8 10 -2.0970 -0.0552
0 8 11 -3.8994 0.0580
0 8 14 1.4991 0.0405
0 8 15 0.2663 0.0387
0 8 16 -1.0792 -0.0591
0 8 17 0.0904 0.0273
0 9 0 3.8436 -0.5568
0 9 1 2.1439 0.3842
0 9 2 1.3492 -0.3549
0 9 3 -5.3757 -0.0821
0 9 4 -3.7062 0.1898
0 9 5 0.4905 -0.1306
0 9 6 1.2968 0.0412
0 9 7 5.2550 0.0219
0 9 8 1.9897 -0.0111
0 9 9 -4.1889 0.0392
0 9 10 -0.8753 -0.0050
0 9 11 -1.8765 0.0142
0 10 0 2.2285 -0.6088
0 10 1 0.7485 0.2350
0 10 2 -2.5884 -0.1556
0 10 3 -1.9108 -0.1636
0 10 4 -3.0063 0.2451
0 10 5 2.5655 -0.0976
0 10 6 4.2045 0.0178
0 10 7 -0.0418 0.0339
0 10 8 0.5593 -0.0126
0 10 9 -2.7777 0.0634
0 10 10 -2.9826 0.0067
0 10 11 1.4350 -0.0801
0 10 12 2.3495 0.0786
0 11 0 1.3903 -0.3947
0 11 1 -1.2724 0.0068
0 11 2 -1.9353 -0.0211
0 11 3 -1.7292 -0.1032
0 11 4 1.4115 0.2688
0 11 5 1.1509 -0.1604
0 11 6 2.9489 0.0335
0 11 7 -0.0507 0.0964
0 11 8 -3.5579 -0.0664
0 11 9 -0.5852 0.0487
0 11 10 -0.0332 0.0425
0 11 11 -0.0890 -0.0936
0 11 12 3.0781 0.0259
0 12 0 -0.0390 -0.1709
0 12 1 -1.0847 -0.0742
0 12 2 -1.3367 0.1238
0 12 3 -0.1867 -0.1285
0 12 4 1.5706 0.2348
0 12 5 2.0847 -0.0884
0 12 6 -0.8498 -0.0398
0 12 7 -0.3839 0.1091
0 12 8 -1.9175 -0.0254
0 12 9 -1.3616 0.0105
0 12 10 1.8409 -0.0018
0 12 11 1.1510 -0.0451
0 12 12 0.5365 0.0092
0 12 13 -0.3108 0.0162
0 13 0 -0.5886 0.0413
0 13 1 -0.9407 -0.2489
0 13 2 -0.0987 0.3036
0 13 3 0.4060 -0.0968
0 13 4 1.0608 0.0829
0 13 5 0.8980 -0.0115
0 13 6 -1.0224 -0.0525
0 13 7 -1.6573 0.1087
0 13 8 -0.1398 -0.0370
0 13 9 0.0874 0.0141
0 13 10 1.0912 -0.0403
0 13 11 1.1791 -0.0583
0 13 12 -0.1391 0.0952
0 13 13 -0.6968 -0.1014
0 14 0 -0.0657 0.1902
0 14 1 -0.8807 -0.2522
0 14 2 0.1940 0.2856
0 14 3 0.9430 -0.0432
0 14 4 0.2744 0.0110
0 14 5 -0.4266 -0.0170
0 14 6 -0.3527 -0.0544
0 14 7 -1.1844 0.1576
0 14 8 0.2391 -0.0417
0 14 9 0.8401 -0.1379
0 14 10 0.9878 0.1050
0 14 11 0.0493 -0.0419
0 14 12 -0.4867 -0.1172
0 14 13 -0.1802 0.2248
0 15 4 0.0386 -0.2349
0 15 5 -0.2473 0.2150
0 15 6 -0.6121 -0.0955
0 15 7 -0.2159 -0.0034
0 15 8 0.5969 0.0673
0 15 9 0.6433 -0.0093
0 15 10 0.2454 -0.2752
1 -13 0 -0.9062 0.3786
1 -13 1 0.2327 0.0187
1 -13 2 0.8009 -0.0938
1 -12 0 0.0309 0.1503
1 -12 1 0.2445 0.0042
1 -12 2 1.0154 0.0632
1 -12 3 0.2096 0.0225
1 -12 4 -0.3647 -0.2566
1 -11 0 1.3505 0.0059
1 -11 1 1.3628 0.2443
1 -11 2 0.0186 -0.2367
1 -11 3 0.5856 0.0093
1 -11 4 -1.3211 -0.0029
1 -11 5 -0.0404 -0.0422
1 -11 6 0.0066 0.0170
1 -10 0 1.4671 -0.3475
1 -10 1 1.8867 0.2978
1 -10 2 1.0585 -0.1996
1 -10 3 -2.6638 -0.0789
1 -10 4 0.1328 -0.0317
1 -10 5 -0.4754 0.1246
1 -10 6 0.5645 -0.0916
1 -10 7 0.2192 -0.0165
1 -9 0 2.3727 -0.5024
1 -9 1 0.8306 0.3242
1 -9 2 -0.3525 -0.3083
1 -9 3 -2.2505 -0.0394
1 -9 4 -1.2986 0.0934
1 -9 5 1.1494 -0.0365
1 -9 6 0.7179 0.0066
1 -9 7 0.3436 0.0250
1 -9 8 -0.3420 -0.0365
1 -8 0 4.2631 -0.6363
1 -8 1 -1.7282 0.3319
1 -8 2 -3.3387 -0.2549
1 -8 3 -1.0898 -0.1230
1 -8 4 -0.3366 0.2061
1 -8 5 1.1644 -0.0624
1 -8 6 1.8655 -0.0360
1 -8 7 -1.0281 0.0922
1 -8 8 0.2414 -0.0352
1 -8 9 -1.2915 -0.0396
1 -8 10 0.5043 0.1428
1 -7 0 0.5961 -0.5350
1 -7 1 -2.5010 0.0951
1 -7 2 -5.0737 -0.0513
1 -7 3 -1.0606 -0.1431
1 -7 4 2.9947 0.2159
1 -7 5 1.1645 -0.0778
1 -7 6 1.2246 -0.0041
1 -7 7 -1.1061 0.0884
1 -7 8 -1.3449 -0.0336
1 -7 9 0.3737 0.0204
1 -7 10 -0.1950 -0.0577
1 -7 11 0.9904 0.1346
1 -6 0 -6.5180 -0.1864
1 -6 1 -5.1112 -0.1681
1 -6 2 -1.5976 0.1136
1 -6 3 0.3478 -0.1254
1 -6 4 3.8812 0.2403
1 -6 5 3.0000 -0.1021
1 -6 6 -2.0070 0.0076
1 -6 7 -0.9447 0.1259
1 -6 8 -1.1352 -0.0914
1 -6 9 0.0930 0.0230
1 -6 10 1.1863 0.0636
1 -6 11 0.5466 -0.1976
1 -6 12 -0.3299 0.2491
1 -5 0 -5.9587 0.1861
1 -5 1 -9.9812 -0.3670
1 -5 2 3.2144 0.2893
1 -5 3 6.1460 -0.0728
1 -5 4 1.8860 0.1433
1 -5 5 1.6541 -0.0170
1 -5 6 -2.4570 -0.0126
1 -5 7 -3.7449 0.0765
1 -5 8 1.8313 -0.0278
1 -5 9 0.0345 -0.0586
1 -5 10 1.3844 0.0593
1 -5 11 -0.0819 -0.0325
1 -5 12 -0.0959 -0.0856
1 -5 13 -0.9319 0.2213
1 -4 0 -3.8454 0.5498
1 -4 1 -1.0657 -0.4866
1 -4 2 0.8727 0.4022
1 -4 3 10.5255 0.0198
1 -4 4 3.1313 -0.0163
1 -4 5 -6.2960 0.0640
1 -4 6 -1.5685 -0.0216
1 -4 7 -1.9193 0.0034
1 -4 8 0.0418 -0.0090
1 -4 9 3.4890 -0.0169
1 -4 10 0.3552 -0.0262
1 -4 11 -1.3772 -0.0029
1 -4 12 -0.5695 0.0324
1 -4 13 0.0639 -0.0366
1 -4 14 -0.4169 0.0551
1 -3 0 -6.8306 0.8454
1 -3 1 10.3743 -0.4835
1 -3 2 8.6197 0.3572
1 -3 3 0.8549 0.1290
1 -3 4 1.8950 -0.1810
1 -3 5 -5.9992 0.0945
1 -3 6 -7.2310 -0.0176
1 -3 7 3.8006 -0.0393
1 -3 8 1.9346 -0.0172
1 -3 9 0.9570 -0.0019
1 -3 10 1.2460 -0.0224
1 -3 11 -2.0491 -0.0076
1 -3 12 -1.4044 0.0267
1 -3 13 0.4366 -0.0598
1 -3 14 0.7211 0.1073
1 -2 0 -15.8075 0.8817
1 -2 1 17.2592 -0.3183
1 -2 2 10.3130 0.1659
1 -2 3 -0.8539 0.1795
1 -2 4 -11.0622 -0.3123
1 -2 5 -2.0199 0.1438
1 -2 6 -3.7090 -0.0359
1 -2 7 2.2893 -0.0923
1 -2 8 7.1978 0.0558
1 -2 9 -1.7847 -0.0416
1 -2 10 -0.7753 -0.0373
1 -2 11 -1.5827 0.0412
1 -2 12 -0.7037 -0.0091
1 -2 13 0.6755 0.0029
1 -2 14 0.9768 -0.0843
1 -2 15 0.1281 0.1982
1 -1 0 31.6551 0.5347
1 -1 1 -12.2570 -0.0401
1 -1 2 17.1817 -0.1056
1 -1 3 -9.2771 0.1764
1 -1 4 -11.6641 -0.3367
1 -1 5 -6.0270 0.1395
1 -1 6 7.9903 -0.0058
1 -1 7 2.1084 -0.1309
1 -1 8 3.4698 0.0982
1 -1 9 1.7515 -0.0356
1 -1 10 -6.1029 -0.0857
1 -1 11 -0.0048 0.1233
1 -1 12 0.5861 -0.0503
1 -1 13 1.1062 -0.0303
1 -1 14 0.6196 0.0877
1 -1 15 0.2122 -0.0779
1 -1 16 -0.6273 0.0632
1 0 1 32.4838 0.1119
1 0 2 -32.0795 -0.2855
1 0 3 4.4034 0.1482
1 0 4 -10.8645 -0.2780
1 0 5 -2.4559 0.1177
1 0 6 8.8826 0.0573
1 0 7 10.0987 -0.1543
1 0 8 -4.2045 0.0751
1 0 9 -2.4642 0.0372
1 0 10 -0.6300 -0.1006
1 0 11 -3.0999 0.0901
1 0 12 2.3799 0.0069
1 0 13 2.3850 -0.0314
1 0 14 -0.8697 0.0708
1 0 15 -0.1004 -0.0842
1 0 16 -0.5604 0.1150
1 1 0 -20.8324 -0.2023
1 1 1 21.6491 0.0058
1 1 2 -16.7975 -0.1807
1 1 4 4.3893 -0.1357
1 1 5 6.4518 0.0787
1 1 6 6.7125 0.0590
1 1 7 4.9161 -0.0843
1 1 8 -0.9188 0.0389
1 1 9 -9.2920 0.0207
1 1 10 0.3640 -0.0317
1 1 11 1.6264 0.0625
1 1 12 1.0685 0.0174
1 1 13 1.8191 -0.0471
1 1 14 -0.9746 0.0497
1 1 15 -1.0021 0.0381
1 1 16 -0.0812 -0.1219
1 1 17 -0.2622 0.1405
1 2 0 14.8128 -0.5370
1 2 1 -28.1810 0.0691
1 2 2 3.0344 -0.0803
1 2 3 -10.3352 -0.0353
1 2 4 -0.7382 0.1026
1 2 5 19.7657 -0.0349
1 2 6 3.6259 0.0580
1 2 7 -4.1243 -0.0334
1 2 8 -3.3308 0.0317
1 2 9 -3.9999 0.0151
1 2 10 -3.1538 -0.0111
1 2 11 5.4605 0.0367
1 2 12 1.9909 0.0225
1 2 13 -1.4394 -0.0366
1 2 14 0.0070 0.0274
1 2 15 -1.7081 0.0001
1 2 16 0.0806 -0.0488
1 2 17 0.5118 0.0771
1 3 0 4.4246 -0.8111
1 3 1 -9.5166 0.4024
1 3 2 -22.4637 -0.1391
1 3 3 16.2015 -0.0686
1 3 4 3.9882 0.3139
1 3 5 8.0411 -0.1814
1 3 6 7.0455 0.0491
1 3 7 -9.1887 0.0459
1 3 8 -9.7039 -0.0112
1 3 9 2.3530 -0.0146
1 3 10 1.1586 0.0549
1 3 11 2.1128 -0.0121
1 3 12 2.9349 -0.0195
1 3 13 -2.4591 0.0016
1 3 14 -1.3351 0.0482
1 3 15 -0.2596 -0.0810
1 3 16 0.2861 0.0016
1 3 17 0.2545 0.0734
1 4 0 -15.3582 -0.9143
1 4 1 -1.3289 0.6169
1 4 2 -5.4046 -0.0784
1 4 3 2.0009 -0.1400
1 4 4 22.9113 0.3647
1 4 5 -3.9736 -0.2283
1 4 6 -3.3662 0.0229
1 4 7 -5.2300 0.1099
1 4 8 -7.2663 -0.0714
1 4 9 0.5268 -0.0192
1 4 10 7.5808 0.0819
1 4 11 0.8001 -0.0641
1 4 12 -1.4870 0.0015
1 4 13 -0.1542 0.0079
1 4 14 -2.6053 -0.0115
1 4 15 0.2204 -0.0180
1 4 16 2.2307 0.0222
1 4 17 -1.1557 -0.0821
1 4 18 0.7191 0.0772
1 5 0 -12.9099 -0.6356
1 5 1 -8.4409 0.5328
1 5 2 12.0043 0.0252
1 5 3 5.4605 -0.2060
1 5 4 5.4183 0.3203
1 5 5 5.7155 -0.2047
1 5 6 -15.9728 -0.0164
1 5 7 -4.5514 0.1304
1 5 8 1.6862 -0.0900
1 5 9 2.2809 -0.0249
1 5 10 4.2032 0.0688
1 5 11 1.9425 -0.0672
1 5 12 -3.3759 -0.0010
1 5 13 -1.8291 0.0342
1 5 14 0.3017 -0.0564
1 5 15 0.3732 0.0074
1 5 16 0.9583 0.0049
1 5 17 0.6722 -0.0220
1 5 18 -0.7698 -0.0022
1 6 0 -1.6160 -0.1888
1 6 1 -3.6165 0.2918
1 6 2 7.5460 0.0751
1 6 3 13.8609 -0.1898
1 6 4 -5.3056 0.1736
1 6 5 -4.4529 -0.1213
1 6 6 -4.7810 -0.0254
1 6 7 -7.8825 0.1030
1 6 8 6.2464 -0.1121
1 6 9 6.2500 0.0032
1 6 10 -0.2456 0.0571
1 6 11 -0.3016 -0.0732
1 6 12 -2.5067 0.0083
1 6 13 -2.3304 0.0244
1 6 14 2.1177 -0.0535
1 6 15 0.8561 0.0310
1 6 16 0.3326 -0.0210
1 6 17 -0.1952 -0.0053
1 6 18 0.2579 0.0345
1 7 0 -1.8141 0.2430
1 7 1 6.9000 0.0327
1 7 2 4.6594 0.0520
1 7 3 3.4807 -0.1054
1 7 4 -0.0902 0.0030
1 7 5 -12.7994 -0.0029
1 7 6 -1.8197 -0.0656
1 7 7 3.3594 0.0847
1 7 8 1.6593 -0.1010
1 7 9 6.2273 0.0127
1 7 10 -0.8354 0.0448
1 7 11 -4.2452 -0.0630
1 7 12 -0.8642 0.0181
1 7 13 0.2721 0.0134
1 7 14 0.4840 -0.0512
1 7 15 2.5227 0.0411
1 7 16 -1.0957 0.0149
1 7 17 0.1750 -0.0142
1 7 18 -0.8318 -0.0054
1 8 0 0.6900 0.5546
1 8 1 5.7761 -0.2782
1 8 2 5.0060 0.0784
1 8 3 -2.7316 -0.0060
1 8 4 -5.2261 -0.1644
1 8 5 -3.2606 0.1189
1 8 6 -3.8796 -0.1001
1 8 7 7.4302 0.0466
1 8 8 3.9931 -0.0326
1 8 9 -0.8131 -0.0190
1 8 10 -1.0619 0.0513
1 8 11 -2.9353 -0.0266
1 8 12 -1.7454 -0.0517
1 8 13 2.9172 0.0824
1 8 14 1.3626 -0.0274
1 8 15 -1.1096 -0.0134
1 8 16 2.0336 0.0266
1 8 17 -3.0229 0.0945
1 8 18 1.3664 -0.1614
1 9 0 3.0410 0.7168
1 9 1 3.2554 -0.4638
1 9 2 0.8635 0.0494
1 9 3 -3.1419 0.0860
1 9 4 -5.8882 -0.2583
1 9 5 -0.4522 0.1873
1 9 6 3.2515 -0.0720
1 9 7 2.3875 -0.0566
1 9 8 3.8167 0.0771
1 9 9 -2.0515 -0.0102
1 9 10 -4.4196 -0.0163
1 9 11 0.2560 0.0191
1 9 12 0.4889 -0.0365
1 9 13 1.1818 0.0697
1 9 16 -2.9127 0.0428
1 9 17 1.8059 -0.0803
1 10 0 3.4245 0.6679
1 10 1 0.9355 -0.4460
1 10 2 -1.6401 -0.0507
1 10 3 -3.6487 0.1638
1 10 4 -1.4359 -0.2528
1 10 5 0.0332 0.1661
1 10 6 4.8886 -0.0246
1 10 7 2.0473 -0.0754
1 10 8 -1.5584 0.1050
1 10 9 -1.5375 -0.0175
1 10 10 -2.6286 -0.0187
1 10 11 0.2807 0.0397
1 10 12 1.6409 -0.0401
1 10 13 2.4302 0.0436
1 11 0 0.9058 0.3147
1 11 1 0.0972 -0.3172
1 11 2 -2.5649 -0.0119
1 11 3 -1.9692 0.1002
1 11 4 0.2896 -0.1798
1 11 5 2.7889 0.1607
1 11 6 1.4888 -0.0150
1 11 7 1.0131 -0.0749
1 11 8 -2.2911 0.1282
1 11 9 -2.5029 -0.0190
1 11 10 -0.2462 -0.0614
1 11 11 1.6321 0.0907
1 11 12 1.3932 -0.0347
1 11 13 0.5946 -0.0212
1 11 14 -0.4590 0.1134
1 12 0 -0.4901 0.0616
1 12 1 -0.5450 -0.2365
1 12 2 -2.2785 -0.0100
1 12 3 0.3742 0.1240
1 12 4 0.8434 -0.0911
1 12 5 2.2304 0.0538
1 12 6 0.5952 0.0511
1 12 7 -1.4052 -0.0585
1 12 8 -1.7967 0.1000
1 12 9 -1.1217 -0.0301
1 12 10 1.0954 -0.0365
1 12 11 1.5088 0.0666
1 12 12 0.5105 -0.0580
1 12 13 0.9199 0.0471
1 12 14 -2.5820 0.0283
1 13 0 -0.0053 -0.1609
1 13 1 -1.6797 0.0699
1 13 2 0.1931 -0.1465
1 13 3 -0.1541 0.1211
1 13 4 1.7930 0.0816
1 13 5 0.6583 -0.1052
1 13 6 -0.4854 0.0786
1 13 7 -1.6978 0.0107
1 13 8 -0.8577 0.0379
1 13 9 0.2186 -0.0475
1 13 10 0.8652 -0.0061
1 13 11 2.1837 0.0219
1 13 12 -1.2158 -0.0047
1 13 13 0.1111 -0.0354
1 13 14 -0.5997 0.0618
1 13 15 -1.1476 -0.1066
1 14 0 -1.0973 -0.5996
1 14 1 0.2970 0.3265
1 14 2 -0.7006 -0.0350
1 14 3 1.1285 -0.0586
1 14 4 0.8062 0.1482
1 14 5 -0.6621 -0.0723
1 14 6 -0.0264 0.0523
1 14 7 -1.6686 -0.0312
1 14 8 -0.1014 0.0397
1 14 9 1.3248 0.0033
1 14 10 0.6339 -0.0467
1 14 11 0.0311 -0.0668
1 14 12 0.9493 0.1057
1 14 13 -2.4207 0.0335
1 14 14 0.7746 -0.2281
1 15 3 0.2124 0.0326
1 15 4 0.2494 0.1528
1 15 5 -0.0717 -0.2209
1 15 6 -1.3818 0.1342
1 15 7 0.5025 0.0461
1 15 8 -0.2099 -0.1130
1 15 9 0.8843 0.0241
1 15 10 0.6832 0.0423
1 15 11 -0.1523 -0.1539
2 -13 0 -0.0739 -0.4496
2 -12 0 -0.5748 0.0546
2 -12 1 0.4904 0.1175
2 -12 2 0.7647 -0.0186
2 -12 3 0.3547 -0.0476
2 -11 0 -0.2753 0.1977
2 -11 1 2.1101 0.0481
2 -11 2 -0.0805 -0.0206
2 -11 3 -0.0866 -0.0465
2 -11 4 -0.0151 -0.0341
2 -11 5 -0.7702 0.0565
2 -10 0 1.3271 0.4938
2 -10 1 1.2229 -0.1840
2 -10 2 1.1355 -0.0488
2 -10 3 -1.7204 0.0676
2 -10 4 -0.3737 -0.1090
2 -10 5 -0.1451 -0.0529
2 -10 6 0.2839 0.1999
2 -9 0 2.3422 0.6518
2 -9 1 1.5431 -0.3674
2 -9 2 -1.5918 0.0129
2 -9 3 0.0171 0.0346
2 -9 4 -2.2010 -0.1419
2 -9 5 0.9795 0.1266
2 -9 6 0.5471 -0.0763
2 -9 7 0.6638 0.0287
2 -9 8 -0.7521 -0.0151
2 -8 0 3.0710 0.6431
2 -8 1 0.0997 -0.4899
2 -8 2 -2.7255 0.0466
2 -8 3 -1.6245 0.0994
2 -8 4 0.5754 -0.2116
2 -8 5 -0.0732 0.1333
2 -8 6 1.5144 0.0206
2 -8 7 -0.0737 -0.0987
2 -8 8 -0.5187 0.0708
2 -8 9 -0.5174 0.0433
2 -7 0 0.0830 0.4399
2 -7 1 -1.8601 -0.4139
2 -7 2 -2.8849 -0.0022
2 -7 3 -2.2603 0.1256
2 -7 4 1.7086 -0.1671
2 -7 5 2.5274 0.1026
2 -7 6 -1.1157 0.0049
2 -7 7 0.7922 -0.0536
2 -7 8 -1.7659 0.1087
2 -7 9 0.6618 -0.0387
2 -7 10 -0.3563 -0.0227
2 -6 0 -2.1295 0.0422
2 -6 1 -6.2596 -0.2114
2 -6 2 -1.4721 -0.0109
2 -6 3 0.0335 0.0630
2 -6 4 2.3962 -0.0779
2 -6 5 2.4802 0.0979
2 -6 6 -0.6085 -0.0139
2 -6 7 -1.5941 -0.0303
2 -6 8 -0.5215 0.1001
2 -6 9 0.1022 -0.0176
2 -6 10 1.4518 -0.0398
2 -6 11 -0.7679 -0.0434
2 -5 0 -4.4084 -0.3491
2 -5 1 -4.9814 0.0458
2 -5 2 -3.2321 -0.0522
2 -5 3 6.9042 0.0411
2 -5 4 2.0195 0.0214
2 -5 5 -0.1094 0.0222
2 -5 6 -0.0610 0.0504
2 -5 7 -2.5554 -0.0261
2 -5 8 -0.5784 0.0386
2 -5 9 1.9743 0.0005
2 -5 10 0.0928 -0.0465
2 -5 11 0.6608 0.0478
2 -5 12 -1.0402 -0.1101
2 -4 0 -9.5997 -0.6808
2 -4 1 0.6058 0.3274
2 -4 2 3.0380 -0.0617
2 -4 3 2.9344 -0.0266
2 -4 4 6.8481 0.1653
2 -4 5 -3.8350 -0.0682
2 -4 6 -4.1351 0.0446
2 -4 7 1.2241 0.0345
2 -4 8 -1.0342 -0.0094
2 -4 9 2.3261 -0.0545
2 -4 10 0.6087 0.0285
2 -4 11 -0.8721 -0.0034
2 -4 12 -0.6914 0.0245
2 -4 13 -0.2439 -0.0919
2 -3 0 -10.3517 -0.8237
2 -3 1 3.6547 0.5352
2 -3 2 11.0231 -0.0562
2 -3 3 2.9224 -0.0918
2 -3 4 -2.3015 0.2726
2 -3 5 -0.2840 -0.1601
2 -3 6 -6.2251 0.0441
2 -3 7 -0.2749 0.0590
2 -3 8 4.2848 -0.0643
2 -3 9 0.0871 -0.0252
2 -3 10 -0.2875 0.0368
2 -3 11 -0.1190 -0.0358
2 -3 12 -2.2327 0.0105
2 -3 13 0.8462 0.0620
2 -3 14 0.3390 -0.1678
2 -2 0 2.3234 -0.6989
2 -2 1 3.6461 0.5792
2 -2 2 10.6404 -0.0256
2 -2 3 4.5929 -0.1566
2 -2 4 -9.1420 0.2855
2 -2 5 -6.7198 -0.1873
2 -2 6 2.7424 0.0179
2 -2 7 -1.6336 0.0740
2 -2 8 3.8052 -0.0943
2 -2 9 2.6080 -0.0103
2 -2 10 -3.5365 0.0360
2 -2 11 -0.6992 -0.0345
2 -2 12 0.3552 0.0028
2 -2 13 -0.8261 -0.0206
2 -2 14 1.6827 0.0180
2 -2 15 0.1556 -0.0643
2 -1 0 18.6716 -0.3751
2 -1 1 11.0111 0.3863
2 -1 2 -2.2995 0.0629
2 -1 3 1.1353 -0.2114
2 -1 4 -8.5649 0.1951
2 -1 5 -8.5778 -0.1344
2 -1 6 2.9008 -0.0213
2 -1 7 7.7790 0.0856
2 -1 8 -1.4685 -0.1151
2 -1 9 1.4698 -0.0008
2 -1 10 -2.0387 0.0663
2 -1 11 -2.7302 -0.1125
2 -1 12 1.5210 0.0546
2 -1 13 1.3426 0.0156
2 -1 14 -0.0177 -0.0887
2 -1 15 0.2180 0.0549
2 0 0 -5.4564 0.0340
2 0 1 24.7583 0.0569
2 0 2 -9.3379 0.0744
2 0 3 -13.4054 -0.1506
2 0 4 -3.4744 0.0517
2 0 5 -0.3845 -0.0577
2 0 6 1.5557 -0.0381
2 0 7 8.3521 0.0692
2 0 8 2.3011 -0.0913
2 0 9 -6.2919 -0.0059
2 0 10 0.1534 0.0571
2 0 11 -0.8679 -0.0907
2 0 12 0.5423 0.0384
2 0 13 2.3169 0.0485
2 0 14 -0.1514 -0.0904
2 0 15 -0.2522 0.1193
2 0 16 -1.0290 -0.0588
2 1 0 21.7318 0.3951
2 1 1 -20.1418 -0.2089
2 1 2 13.3891 -0.0035
2 1 3 -25.0766 -0.0140
2 1 4 -3.4880 -0.0830
2 1 5 10.9116 0.0329
2 1 6 6.4326 -0.0439
2 1 7 0.2888 0.0472
2 1 8 1.5734 -0.0655
2 1 9 -3.8900 -0.0025
2 1 10 -5.0660 0.0462
2 1 11 4.1309 -0.0243
2 1 12 1.3165 -0.0259
2 1 13 -0.4810 0.0788
2 1 14 1.2968 0.0038
2 1 15 -1.9023 -0.0176
2 1 16 0.0704 0.0359
2 2 0 13.3768 0.5938
2 2 1 -8.7178 -0.3592
2 2 2 -21.9129 -0.0791
2 2 3 6.8237 0.1476
2 2 4 -6.0858 -0.1806
2 2 5 10.2235 0.1102
2 2 6 10.9240 -0.0546
2 2 7 -1.5621 0.0240
2 2 8 -7.4740 -0.0054
2 2 9 -1.2470 -0.0092
2 2 10 -0.3007 0.0072
2 2 11 0.5572 0.0484
2 2 12 3.5395 -0.0242
2 2 13 -0.3878 0.0312
2 2 14 -1.7706 0.0292
2 2 15 -0.0504 -0.0171
2 2 16 -0.8445 0.0521
2 2 17 0.9953 -0.1245
2 3 0 -4.0808 0.6754
2 3 1 -2.8813 -0.4709
2 3 2 -17.1978 -0.0178
2 3 3 -2.2127 0.2352
2 3 4 18.1012 -0.2644
2 3 5 2.6901 0.1983
2 3 6 4.0393 -0.0491
2 3 7 -2.4200 -0.0500
2 3 8 -7.9041 0.0803
2 3 9 -3.0373 -0.0003
2 3 10 4.5966 -0.0373
2 3 11 0.9555 0.0648
2 3 12 0.9665 0.0051
2 3 13 0.3369 -0.0031
2 3 14 -3.0294 0.0050
2 3 15 0.4711 0.0272
2 3 16 0.1399 -0.0492
2 3 17 0.0492 -0.0308
2 4 0 -17.8176 0.6137
2 4 1 -7.1230 -0.4447
2 4 2 0.2957 0.0898
2 4 3 0.7262 0.2060
2 4 4 11.8170 -0.2623
2 4 5 11.2370 0.2049
2 4 6 -9.1287 -0.0027
2 4 7 -5.2981 -0.1107
2 4 8 -3.0439 0.1186
2 4 9 -1.5117 0.0060
2 4 10 4.2708 -0.0648
2 4 11 3.6445 0.0826
2 4 12 -2.2166 -0.0107
2 4 13 -1.4390 -0.0378
2 4 14 -0.1392 0.0460
2 4 15 -0.9435 -0.0090
2 4 16 1.0591 -0.0983
2 4 17 0.5154 0.0802
2 5 0 -4.8666 0.3681
2 5 1 -13.6442 -0.3054
2 5 2 6.4613 0.1796
2 5 3 13.8196 0.1091
2 5 4 0.8529 -0.1936
2 5 5 4.3840 0.1401
2 5 6 -6.8400 0.0402
2 5 7 -9.8934 -0.1127
2 5 8 0.9270 0.1070
2 5 9 4.4845 -0.0107
2 5 10 1.0229 -0.0621
2 5 11 2.4213 0.0807
2 5 12 -1.3556 -0.0190
2 5 13 -3.6473 -0.0533
2 5 14 1.0798 0.0447
2 5 15 0.6295 -0.0389
2 5 16 -0.0280 -0.0323
2 5 17 1.0924 0.0106
2 5 18 -0.7530 -0.0248
2 6 0 -5.7331 0.0622
2 6 1 3.3212 -0.0923
2 6 2 -0.6184 0.1435
2 6 3 14.3071 0.0230
2 6 4 3.5412 -0.0730
2 6 5 -11.3596 0.0376
2 6 6 -1.9296 0.0635
2 6 7 -5.3733 -0.0912
2 6 8 1.2165 0.0680
2 6 9 6.5020 -0.0132
2 6 10 2.2203 -0.0417
2 6 11 -2.9972 0.0385
2 6 12 -1.5000 -0.0072
2 6 13 -0.1670 -0.0507
2 6 14 -0.8087 0.0355
2 6 15 1.5475 -0.0623
2 6 16 1.2679 -0.0000
2 6 17 -1.3281 0.0325
2 6 18 0.6957 -0.0240
2 7 0 -3.8755 -0.2470
2 7 1 4.7171 0.1691
2 7 2 9.6308 0.0107
2 7 3 -1.4922 -0.0286
2 7 4 3.0855 0.0440
2 7 5 -8.8874 -0.0626
2 7 6 -7.2130 0.0871
2 7 7 4.2614 -0.0849
2 7 8 3.0121 0.0308
2 7 9 2.8573 -0.0039
2 7 10 1.0439 -0.0206
2 7 11 -2.8219 0.0007
2 7 12 -2.9496 -0.0016
2 7 13 1.1266 -0.0543
2 7 14 1.0507 0.0407
2 7 15 1.0073 -0.0549
2 7 16 0.1127 0.0326
2 7 17 -0.6362 -0.0194
2 7 18 0.2781 0.0891
2 8 0 1.3068 -0.5031
2 8 1 3.4537 0.4042
2 8 2 6.2230 -0.1016
2 8 3 0.3557 -0.1051
2 8 4 -8.3543 0.1678
2 8 5 -1.3458 -0.1505
2 8 6 -3.3840 0.0802
2 8 7 3.3703 -0.0408
2 8 8 6.4617 -0.0373
2 8 9 -0.8114 0.0357
2 8 10 -2.1376 -0.0009
2 8 11 -1.7801 -0.0628
2 8 12 -0.9372 0.0291
2 8 13 0.5259 -0.0292
2 8 14 2.4884 0.0043
2 8 15 0.0451 -0.0089
2 8 16 -0.5195 0.0814
2 8 17 0.0284 -0.1137
2 8 18 -0.6035 0.2024
2 9 0 2.8971 -0.5930
2 9 1 4.3564 0.4648
2 9 2 -0.1785 -0.1341
2 9 3 -1.4250 -0.1544
2 9 4 -4.9788 0.2417
2 9 5 -3.6219 -0.2198
2 9 6 4.8501 0.0520
2 9 7 1.6949 0.0474
2 9 8 3.0752 -0.1069
2 9 9 -0.7589 0.0500
2 9 10 -3.7883 0.0190
2 9 11 -1.6296 -0.0656
2 9 12 1.5932 0.0030
2 9 13 1.5784 0.0105
2 9 14 0.4710 0.0291
2 9 15 0.4161 0.0203
2 9 16 -0.7041 -0.0052
2 9 17 -0.6179 0.0141
2 10 0 2.8832 -0.4574
2 10 1 1.5404 0.3443
2 10 2 -0.6667 -0.1279
2 10 3 -4.3725 -0.1263
2 10 4 -1.4314 0.1798
2 10 5 0.3009 -0.1620
2 10 6 2.7249 -0.0118
2 10 7 4.0881 0.0921
2 10 8 -1.9391 -0.0912
2 10 9 -1.8501 0.0345
2 10 10 -1.6923 0.0157
2 10 11 -0.7405 -0.0582
2 10 12 2.0123 0.0348
2 10 13 1.8504 0.0359
2 10 14 0.0590 -0.0266
2 11 0 1.3566 -0.1510
2 11 1 -0.2039 0.2032
2 11 2 -1.9754 -0.1806
2 11 3 -2.0493 -0.0444
2 11 4 -0.5860 0.0864
2 11 5 2.6079 -0.0773
2 11 6 1.9600 -0.0409
2 11 7 0.9044 0.1042
2 11 8 -1.6021 -0.0839
2 11 9 -3.1103 0.0605
2 11 10 0.0074 0.0084
2 11 11 1.2440 -0.1002
2 11 12 1.6372 0.1272
2 11 13 0.5041 0.0450
2 11 14 0.2244 -0.1084
2 11 15 -1.5275 0.1201
2 12 0 0.6243 -0.0384
2 12 1 -1.4318 0.0244
2 12 2 -1.5027 -0.0654
2 12 3 -0.4552 -0.0247
2 12 4 0.6065 -0.0214
2 12 5 2.3951 0.0308
2 12 6 1.0606 -0.0458
2 12 7 -1.6177 0.0979
2 12 8 -1.3170 -0.0546
2 12 9 -1.2828 0.0198
2 12 10 0.2811 0.0370
2 12 11 1.8305 -0.0559
2 12 12 1.5869 0.0641
2 12 13 -0.7362 0.0568
2 12 14 -0.5073 -0.0741
2 12 15 -0.9591 0.0723
2 13 0 -0.5155 0.2090
2 13 1 -0.6565 -0.2816
2 13 2 -1.1172 0.0565
2 13 3 0.2129 0.0527
2 13 4 1.8697 -0.1137
2 13 5 0.3888 0.1192
2 13 6 0.0989 -0.0424
2 13 7 -1.0604 0.0371
2 13 8 -2.2588 0.0211
2 13 9 0.8574 -0.0013
2 13 10 1.1177 -0.0159
2 13 11 0.8770 -0.0018
2 13 12 0.7240 0.0611
2 13 13 -0.8247 0.0271
2 13 14 -0.8160 -0.1551
2 13 15 -0.4513 0.1817
2 14 0 -0.2144 0.5980
2 14 1 -1.3519 -0.3867
2 14 2 0.6413 0.0197
2 14 3 0.3899 0.1373
2 14 4 0.4259 -0.1362
2 14 5 1.0704 0.1632
2 14 6 -1.5088 -0.0582
2 14 7 -0.8812 -0.0149
2 14 8 0.0266 0.0944
2 14 9 -0.0608 -0.0575
2 14 10 1.5797 -0.0484
2 14 11 0.6055 0.0930
2 14 12 -0.3118 -0.0043
2 14 13 -1.1147 -0.1315
2 14 14 -0.0720 0.2209
2 15 2 -0.0713 0.2825
2 15 3 0.9194 -0.0366
2 15 4 0.1884 -0.1463
2 15 5 -0.2418 0.2165
2 15 6 -0.8016 -0.0422
2 15 7 -0.1635 -0.0794
2 15 8 -0.1890 0.1000
2 15 9 0.8202 -0.0793
2 15 10 0.9409 -0.0031
2 15 11 -0.4512 0.1300
2 15 12 -0.2539 -0.2659
3 -12 0 -0.2436 -0.0035
3 -12 1 0.5081 0.0599
3 -11 0 0.3811 -0.1065
3 -11 1 0.3477 -0.0091
3 -11 2 0.9920 0.1413
3 -11 3 0.1466 -0.0815
3 -10 0 1.2935 -0.3491
3 -10 1 0.6072 0.3237
3 -10 2 0.7165 -0.1130
3 -10 3 -0.6095 -0.1671
3 -10 4 -0.5892 0.2444
3 -10 5 -0.5477 -0.1542
3 -9 0 3.0914 -0.4772
3 -9 1 0.6864 0.3224
3 -9 2 -0.8390 -0.1011
3 -9 3 -0.2909 -0.0866
3 -9 4 -1.5899 0.0624
3 -9 5 0.9050 -0.0221
3 -9 6 0.1650 0.0524
3 -9 7 0.3345 -0.1335
3 -8 0 1.3726 -0.4287
3 -8 1 1.0827 0.2989
3 -8 2 -1.1291 -0.1635
3 -8 3 -2.7966 -0.0739
3 -8 4 0.9367 0.1898
3 -8 5 0.4124 -0.1500
3 -8 6 0.5800 -0.0319
3 -8 7 0.1812 0.1485
3 -8 8 -0.2409 -0.1821
3 -7 0 1.1334 -0.2456
3 -7 1 -1.8936 0.2085
3 -7 2 -2.0012 -0.1505
3 -7 3 -1.0770 -0.0428
3 -7 4 0.1417 0.1057
3 -7 5 1.9149 -0.0728
3 -7 6 0.4090 0.0074
3 -7 7 -0.9396 -0.0522
3 -7 8 0.0511 0.0876
3 -7 9 -0.7424 -0.0112
3 -7 10 0.4869 -0.0063
3 -6 0 0.6357 0.0305
3 -6 1 -4.1220 0.0017
3 -6 2 -3.4331 -0.0765
3 -6 3 1.8142 0.0176
3 -6 4 0.4913 -0.0033
3 -6 5 1.6867 -0.0342
3 -6 6 0.6936 0.0194
3 -6 7 -2.1554 0.0232
3 -6 8 -0.3075 -0.0299
3 -6 9 0.6564 0.0523
3 -6 10 -0.1086 0.0318
3 -6 11 0.7232 -0.1019
3 -5 0 -3.8390 0.3117
3 -5 1 -3.0073 -0.2170
3 -5 2 -1.7637 -0.0036
3 -5 3 1.1302 0.0642
3 -5 4 4.5598 -0.0782
3 -5 5 -0.7488 0.0340
3 -5 6 -0.7431 -0.0120
3 -5 7 -0.8428 0.0556
3 -5 8 -0.8475 -0.0112
3 -5 9 0.7410 0.0093
3 -5 10 1.3627 -0.0177
3 -5 11 -0.2131 0.0261
3 -5 12 -0.5540 -0.0542
3 -4 0 -9.3084 0.5236
3 -4 1 -2.1325 -0.4048
3 -4 2 3.6092 0.0838
3 -4 3 2.6155 0.1189
3 -4 4 1.9998 -0.1774
3 -4 5 0.9913 0.1303
3 -4 6 -3.9432 -0.0054
3 -4 7 -0.8356 -0.0109
3 -4 8 2.2911 0.0581
3 -4 9 -0.9366 -0.0331
3 -4 10 1.7965 -0.0400
3 -4 11 -0.4432 0.0689
3 -4 12 -0.6989 -0.0280
3 -4 13 -0.6813 -0.0064
3 -3 0 -3.7178 0.5795
3 -3 1 -2.6528 -0.4451
3 -3 2 6.3595 0.1399
3 -3 3 7.5234 0.1270
3 -3 4 -3.3831 -0.1877
3 -3 5 -1.4951 0.1659
3 -3 6 -1.4535 -0.0089
3 -3 7 -2.0478 -0.0455
3 -3 8 2.5809 0.0818
3 -3 9 2.1751 -0.0350
3 -3 10 -1.7316 -0.0525
3 -3 11 -0.1519 0.0599
3 -3 12 -0.5263 0.0514
3 -3 13 -0.5888 -0.1198
3 -2 0 7.0174 0.4184
3 -2 1 3.6281 -0.3462
3 -2 2 5.9850 0.1837
3 -2 3 2.7111 0.0966
3 -2 4 -0.7311 -0.1695
3 -2 5 -8.1545 0.1589
3 -2 6 0.3864 0.0126
3 -2 7 2.2106 -0.0873
3 -2 8 0.0595 0.0785
3 -2 9 2.3901 -0.0142
3 -2 10 -0.9257 -0.0443
3 -2 11 -2.8121 0.0480
3 -2 12 0.8635 -0.0262
3 -2 13 -0.0922 0.0059
3 -2 14 0.4918 -0.0376
3 -1 0 -2.0707 0.1457
3 -1 1 17.6174 -0.1235
3 -1 2 2.0066 0.1225
3 -1 3 -4.6100 0.0641
3 -1 4 -3.1528 -0.0889
3 -1 5 -4.5076 0.0687
3 -1 6 -2.4311 0.0318
3 -1 7 6.6071 -0.0747
3 -1 8 1.6174 0.0554
3 -1 9 -2.7665 -0.0332
3 -1 10 0.8098 -0.0228
3 -1 11 -2.2792 0.0536
3 -1 12 -0.3536 -0.0884
3 -1 13 2.1036 0.0093
3 -1 14 -0.2081 0.0022
3 -1 15 0.4829 -0.0258
3 0 0 9.5887 -0.1625
3 0 1 1.0764 0.1225
3 0 2 10.0444 0.0127
3 0 3 -13.9164 0.0110
3 0 4 -7.5801 0.0285
3 0 5 2.3270 -0.0603
3 0 6 2.0748 0.0569
3 0 7 1.5761 -0.0491
3 0 8 5.0492 0.0113
3 0 9 -3.6641 -0.0206
3 0 10 -3.6833 -0.0306
3 0 11 2.3281 0.0337
3 0 12 -0.6797 -0.0562
3 0 13 1.4342 -0.0506
3 0 14 1.1313 0.1178
3 0 15 -1.1747 -0.1164
3 1 0 20.2069 -0.4684
3 1 1 -2.7252 0.3734
3 1 2 -9.3433 -0.0930
3 1 3 -2.1307 -0.1130
3 1 4 -10.6789 0.1799
3 1 5 3.5318 -0.1473
3 1 6 9.6051 0.0349
3 1 7 1.3828 -0.0170
3 1 8 -3.6107 -0.0174
3 1 9 1.1250 -0.0007
3 1 10 -3.7447 -0.0277
3 1 11 0.2060 -0.0143
3 1 12 3.1489 0.0180
3 1 13 0.1118 -0.0375
3 1 14 -0.2435 0.0549
3 1 15 -0.0822 0.0076
3 1 16 -0.7894 0.0407
3 2 0 4.4951 -0.6651
3 2 1 3.1030 0.5023
3 2 2 -17.2661 -0.1583
3 2 3 -7.4815 -0.1447
3 2 4 6.5277 0.2043
3 2 5 1.0332 -0.1823
3 2 6 8.1732 0.0507
3 2 7 2.8630 0.0099
3 2 8 -6.3169 -0.0668
3 2 9 -3.1716 0.0256
3 2 10 2.0329 0.0166
3 2 11 -0.1156 -0.0541
3 2 12 2.2203 0.0530
3 2 13 0.5672 -0.0088
3 2 14 -1.2904 0.0083
3 2 15 -0.6468 0.1040
3 2 16 0.2142 -0.1030
3 3 0 -6.6914 -0.6335
3 3 1 -7.9860 0.4522
3 3 2 -4.6209 -0.1580
3 3 3 -10.1756 -0.1287
3 3 4 11.3400 0.1788
3 3 5 9.6416 -0.1538
3 3 6 -0.6097 0.0036
3 3 7 -1.6253 0.0865
3 3 8 -2.5782 -0.0951
3 3 9 -4.4629 0.0297
3 3 10 1.4644 0.0505
3 3 11 4.7569 -0.0732
3 3 12 -1.5889 0.0719
3 3 13 0.4200 0.0268
3 3 14 -0.8803 -0.0507
3 3 15 -1.3357 0.0798
3 3 16 0.4311 0.0008
3 3 17 0.5200 -0.0814
3 4 0 -2.0890 -0.4082
3 4 1 -17.7107 0.3021
3 4 2 0.2755 -0.1198
3 4 3 4.7149 -0.0982
3 4 4 4.6033 0.1308
3 4 5 10.1136 -0.0898
3 4 6 -1.4603 -0.0353
3 4 7 -8.3787 0.1317
3 4 8 -2.2419 -0.1075
3 4 9 1.3506 0.0502
3 4 10 0.9848 0.0464
3 4 11 2.6161 -0.0689
3 4 12 0.3457 0.0533
3 4 13 -2.3952 0.0539
3 4 14 -0.4308 -0.0685
3 4 15 0.0255 0.0395
3 4 16 -0.2433 0.0244
3 4 17 0.8118 -0.1107
3 5 0 -4.0376 -0.0423
3 5 1 -6.8032 0.0738
3 5 2 -3.6016 -0.0572
3 5 3 13.5574 -0.0209
3 5 4 6.2649 0.0157
3 5 5 -1.8535 0.0036
3 5 6 -1.4679 -0.0372
3 5 7 -6.6771 0.1230
3 5 8 -3.2126 -0.0966
3 5 9 4.4176 0.0401
3 5 10 3.3069 0.0469
3 5 11 -1.0161 -0.0469
3 5 12 -0.1018 0.0097
3 5 13 -1.8047 0.0630
3 5 14 -1.0235 -0.0564
3 5 15 1.0880 0.0024
3 5 16 0.4378 0.0372
3 5 17 -0.2570 -0.1399
3 6 0 -8.8122 0.3273
3 6 1 1.1654 -0.1865
3 6 2 5.3168 0.0229
3 6 3 3.9796 0.0564
3 6 4 8.9194 -0.0906
3 6 5 -6.4080 0.0913
3 6 6 -7.7668 -0.0445
3 6 7 -0.3635 0.0866
3 6 8 0.2806 -0.0526
3 6 9 3.0918 0.0101
3 6 10 3.2502 0.0231
3 6 11 -1.9383 -0.0065
3 6 12 -1.8928 -0.0073
3 6 13 -0.5697 0.0228
3 6 14 -0.5416 -0.0214
3 6 15 1.9613 -0.0252
3 6 16 -0.7984 0.0157
3 6 17 1.0621 -0.0789
3 7 0 -3.1098 0.5557
3 7 1 0.9452 -0.3859
3 7 2 8.8574 0.1161
3 7 3 3.6280 0.0796
3 7 4 -3.3664 -0.1457
3 7 5 -1.4082 0.1604
3 7 6 -8.5139 -0.0551
3 7 7 1.5194 0.0179
3 7 8 4.4100 0.0148
3 7 9 2.1151 -0.0248
3 7 10 -0.0858 0.0068
3 7 11 -1.2722 0.0258
3 7 12 -2.9844 -0.0425
3 7 13 0.4370 0.0049
3 7 14 1.6395 0.0010
3 7 15 -0.1365 -0.0277
3 7 16 0.5356 -0.0438
3 7 17 0.2234 0.0390
3 8 0 0.4461 0.6437
3 8 1 4.4518 -0.4526
3 8 2 3.1755 0.1474
3 8 3 3.1197 0.0833
3 8 4 -6.4165 -0.1318
3 8 5 -4.2255 0.1593
3 8 6 -0.0596 -0.0587
3 8 7 0.7740 -0.0359
3 8 8 4.9765 0.0746
3 8 9 1.2236 -0.0689
3 8 10 -2.6616 0.0048
3 8 11 -2.3306 0.0430
3 8 12 0.3258 -0.0714
3 8 13 -0.3423 -0.0127
3 8 14 1.8000 0.0172
3 8 15 0.8675 -0.0119
3 8 16 -0.5799 -0.0482
3 8 17 -0.3225 0.0817
3 9 0 2.5875 0.5116
3 9 1 3.8857 -0.3682
3 9 2 0.9725 0.1795
3 9 3 -1.6423 0.0516
3 9 4 -3.7549 -0.1274
3 9 5 -3.5925 0.1357
3 9 6 2.6586 -0.0165
3 9 7 3.5051 -0.1248
3 9 8 1.1244 0.1219
3 9 9 0.0475 -0.0601
3 9 10 -3.0348 -0.0380
3 9 11 -1.9180 0.0479
3 9 12 0.8323 -0.0670
3 9 13 2.2381 -0.0248
3 9 14 -0.1317 0.0664
3 9 15 0.8264 -0.0579
3 9 16 -0.8342 0.0338
3 9 17 0.0238 0.0774
3 10 0 1.5673 0.2319
3 10 1 2.3869 -0.1935
3 10 2 -0.6479 0.1637
3 10 3 -3.6005 -0.0065
3 10 4 -1.4766 -0.0614
3 10 5 -0.3511 0.0549
3 10 6 2.5751 -0.0160
3 10 7 3.1278 -0.1109
3 10 8 -0.3271 0.1305
3 10 9 -2.6923 -0.0821
3 10 10 -1.4946 -0.0533
3 10 11 -0.1976 0.0757
3 10 12 0.9152 -0.0649
3 10 13 1.8962 -0.0397
3 10 14 1.1177 0.1443
3 10 15 -1.8444 -0.0686
3 10 16 0.3645 -0.0062
3 10 17 -0.3783 0.1575
3 11 0 2.3521 -0.0697
3 11 1 -0.5463 -0.0077
3 11 2 -1.2592 0.0828
3 11 3 -2.0530 -0.0325
3 11 4 -1.2746 -0.0082
3 11 5 2.5557 -0.0460
3 11 6 2.0933 0.0282
3 11 7 0.2450 -0.0877
3 11 8 -0.7785 0.0821
3 11 9 -2.5721 -0.0340
3 11 10 -1.1115 -0.0648
3 11 11 1.5454 0.0637
3 11 12 1.6013 -0.0257
3 11 13 0.6399 -0.0007
3 11 14 -0.1373 0.1476
3 11 15 -0.3504 -0.1441
3 11 16 -1.0444 0.1313
3 12 0 0.7224 -0.2304
3 12 1 -0.5247 0.2282
3 12 2 -1.9680 -0.0957
3 12 3 -0.8769 -0.0646
3 12 4 1.2933 0.0688
3 12 5 0.8744 -0.1032
3 12 6 1.8287 0.0471
3 12 7 -0.8064 -0.0490
3 12 8 -1.9310 0.0463
3 12 9 -1.2925 -0.0094
3 12 10 0.3992 -0.0302
3 12 11 1.6202 0.0272
3 12 12 1.2153 0.0261
3 12 13 0.1944 0.0279
3 12 14 -0.9048 0.0614
3 12 15 -0.4694 -0.0520
3 12 16 -0.4474 -0.0320
3 13 0 -0.4513 -0.4658
3 13 1 -0.9261 0.3719
3 13 2 -0.7572 -0.1592
3 13 3 -0.1592 -0.0849
3 13 4 1.1122 0.1040
3 13 5 1.2412 -0.1353
3 13 6 0.1379 0.0793
3 13 7 -1.6260 0.0293
3 13 8 -0.7921 -0.0421
3 13 9 -0.4757 0.0079
3 13 10 1.0315 0.0370
3 13 11 1.2226 0.0071
3 13 12 0.8929 0.0011
3 13 13 -0.8407 0.0375
3 13 14 -0.4941 0.0851
3 13 15 -0.9881 -0.2154
3 14 0 -0.6076 -0.5185
3 14 1 -0.4394 0.2531
3 14 2 -0.7345 -0.1010
3 14 3 0.8541 -0.0866
3 14 4 0.6709 0.1308
3 14 5 0.3830 -0.1130
3 14 6 -0.4327 0.0408
3 14 7 -0.8638 0.1133
3 14 8 -0.8002 -0.1026
3 14 9 0.4003 0.0149
3 14 10 1.3736 0.0572
3 14 11 0.6604 0.0081
3 14 12 -0.7876 -0.0580
3 14 13 0.6485 0.1499
3 14 14 -1.8366 -0.1958
3 15 2 0.0692 -0.3474
3 15 3 0.2757 0.0803
3 15 4 0.9805 0.1027
3 15 5 -0.7664 -0.0673
3 15 6 0.3237 0.0236
3 15 7 -1.3506 0.0809
3 15 8 0.5368 -0.1225
3 15 9 0.4059 0.1153
3 15 10 0.3954 -0.0292
3 15 11 0.5809 -0.1156
3 15 12 -0.3250 0.2889
4 -11 0 -0.0801 0.3188
4 -11 1 0.5366 -0.0565
4 -11 2 0.9543 -0.1403
4 -10 0 0.7542 0.3206
4 -10 1 1.0748 -0.2184
4 -10 2 -0.1865 0.0873
4 -10 3 0.3025 -0.0073
4 -10 4 -0.9074 -0.1224
4 -9 0 0.7799 0.3416
4 -9 1 2.6424 -0.2834
4 -9 2 -1.2343 0.0762
4 -9 3 -1.4667 0.0501
4 -9 4 0.7325 -0.0728
4 -9 5 -1.0704 0.0478
4 -9 6 1.0018 0.0497
4 -8 0 0.9602 0.1429
4 -8 1 0.0180 -0.1573
4 -8 2 0.0919 0.1016
4 -8 3 -2.3129 -0.0562
4 -8 4 0.0124 0.0194
4 -8 5 0.7142 0.1050
4 -8 6 0.3802 -0.1447
4 -8 7 0.7142 0.0368
4 -7 0 2.4099 -0.0787
4 -7 1 -2.1305 -0.0044
4 -7 2 -1.6883 0.0474
4 -7 3 0.0357 -0.0063
4 -7 4 -0.7087 -0.0021
4 -7 5 1.2206 0.0022
4 -7 6 1.4198 0.0284
4 -7 7 -1.3277 -0.0975
4 -7 8 0.4689 -0.0122
4 -6 0 -0.2690 -0.3210
4 -6 1 -0.9899 0.1876
4 -6 2 -3.2657 -0.0453
4 -6 3 0.0513 0.0021
4 -6 4 2.1690 0.0406
4 -6 5 0.2949 -0.0747
4 -6 6 0.3596 -0.0102
4 -6 7 -0.5384 0.0446
4 -6 8 -1.0169 -0.0267
4 -6 9 0.4278 -0.0773
4 -6 10 -0.1902 0.2255
4 -5 0 -3.5980 -0.5116
4 -5 1 -2.3851 0.3507
4 -5 2 -0.4766 -0.1222
4 -5 3 -0.3095 -0.0380
4 -5 4 3.2399 0.0935
4 -5 5 0.6305 -0.1001
4 -5 6 -1.8528 -0.0288
4 -5 7 0.2957 0.0609
4 -5 8 -1.2401 0.0084
4 -5 9 0.3964 0.0085
4 -5 10 1.2968 -0.1056
4 -5 11 -0.7982 0.2179
4 -4 0 -3.9244 -0.5475
4 -4 1 -5.1781 0.3970
4 -4 2 3.0562 -0.1645
4 -4 3 2.7471 -0.0551
4 -4 4 0.1146 0.1061
4 -4 5 1.0897 -0.1146
4 -4 6 -1.7992 0.0276
4 -4 7 -1.7837 0.0397
4 -4 8 1.3028 -0.0426
4 -4 9 0.6467 0.0690
4 -4 10 -0.0391 -0.0104
4 -4 11 0.8577 -0.1223
4 -4 12 -1.0682 0.2132
4 -3 0 -1.1732 -0.4210
4 -3 1 -1.0141 0.3193
4 -3 2 1.7526 -0.1698
4 -3 3 4.9278 -0.0205
4 -3 4 1.0833 0.0775
4 -3 5 -4.2352 -0.1085
4 -3 6 0.4297 0.0573
4 -3 7 -1.0884 0.0645
4 -3 8 0.5329 -0.0875
4 -3 9 2.5926 0.0403
4 -3 10 -1.0126 0.0723
4 -3 11 -0.5413 -0.0974
4 -3 12 0.1366 0.0381
4 -3 13 -0.5183 0.0847
4 -2 0 -3.6008 -0.1282
4 -2 1 7.4025 0.1413
4 -2 2 2.7040 -0.1385
4 -2 3 1.4017 0.0181
4 -2 4 0.1971 0.0571
4 -2 5 -3.1911 -0.0633
4 -2 6 -3.3604 0.0155
4 -2 7 3.4752 0.1001
4 -2 8 0.6050 -0.0863
4 -2 9 0.0933 0.0344
4 -2 10 1.0737 0.0393
4 -2 11 -2.3063 -0.0134
4 -2 12 -0.5044 -0.0325
4 -2 13 0.9134 0.0995
4 -1 0 -2.2145 0.2040
4 -1 1 6.0244 -0.0988
4 -1 2 8.9348 -0.0165
4 -1 3 -4.3782 0.0313
4 -1 4 -4.5350 -0.0063
4 -1 5 -0.2174 0.0361
4 -1 6 -1.5489 -0.0195
4 -1 7 1.2906 0.0678
4 -1 8 4.1758 -0.0536
4 -1 9 -2.2550 0.0497
4 -1 10 -0.7765 -0.0042
4 -1 11 -0.3664 -0.0125
4 -1 12 -1.0027 0.0198
4 -1 13 0.7627 -0.0881
4 -1 14 0.7658 0.0843
4 0 0 13.0512 0.4975
4 0 1 0.7180 -0.3155
4 0 2 2.5111 0.1105
4 0 3 -0.9751 0.0626
4 0 4 -9.2641 -0.1050
4 0 5 -1.1613 0.1405
4 0 6 5.1156 -0.0446
4 0 7 0.5360 -0.0054
4 0 8 0.5123 0.0274
4 0 9 1.0704 -0.0009
4 0 10 -4.1771 -0.0146
4 0 11 0.4391 -0.0204
4 0 12 0.9655 0.0147
4 0 13 0.0403 -0.0629
4 0 14 0.7982 -0.0362
4 0 15 0.0692 0.1020
4 1 0 7.1312 0.6761
4 1 1 9.8251 -0.4731
4 1 2 -10.7386 0.2090
4 1 3 -4.3440 0.0973
4 1 4 -1.2477 -0.1810
4 1 5 -2.7580 0.1775
4 1 6 5.6912 -0.0551
4 1 7 4.0481 -0.0510
4 1 8 -2.8026 0.0686
4 1 9 -1.9547 -0.0481
4 1 10 0.1420 -0.0127
4 1 11 -1.6318 -0.0031
4 1 12 2.3412 -0.0346
4 1 13 0.4928 0.0086
4 1 14 0.2860 -0.0524
4 1 15 -0.4883 0.0996
4 2 0 0.8612 0.6442
4 2 1 1.3685 -0.4667
4 2 2 -4.8914 0.2563
4 2 3 -12.5603 0.0511
4 2 4 3.6867 -0.1725
4 2 5 5.2801 0.1544
4 2 6 1.4631 -0.0543
4 2 7 2.1498 -0.0855
4 2 8 -0.9208 0.0902
4 2 9 -5.2009 -0.0502
4 2 10 1.4553 -0.0395
4 2 11 1.1671 0.0495
4 2 12 0.4409 -0.0760
4 2 13 1.4211 0.0413
4 2 14 -0.9010 0.0202
4 2 15 -0.1336 -0.0442
4 2 16 -0.5087 0.1163
4 3 0 1.2170 0.3983
4 3 1 -9.6069 -0.3295
4 3 2 -5.7978 0.2525
4 3 3 -0.4332 -0.0312
4 3 4 -2.2736 -0.1099
4 3 5 11.6145 0.0706
4 3 6 1.2058 -0.0184
4 3 7 -3.4903 -0.0949
4 3 8 -1.3762 0.1126
4 3 9 -2.0348 -0.0712
4 3 10 0.2424 -0.0354
4 3 11 2.4762 0.0955
4 3 12 1.0621 -0.0792
4 3 13 -0.7620 -0.0105
4 3 14 -0.1087 0.0989
4 3 15 -0.8895 -0.0574
4 3 16 -0.0355 0.0332
4 4 0 0.1913 0.0603
4 4 1 -9.2257 -0.0867
4 4 2 -7.8666 0.1210
4 4 3 5.9217 -0.0595
4 4 4 5.4398 -0.0223
4 4 5 2.5834 -0.0486
4 4 6 2.9966 0.0555
4 4 7 -5.2841 -0.0938
4 4 8 -4.5468 0.1143
4 4 9 3.0100 -0.0653
4 4 10 0.3205 -0.0186
4 4 11 1.4512 0.0679
4 4 12 1.2564 -0.0408
4 4 13 -1.6762 -0.0299
4 4 14 -0.7803 0.1091
4 4 15 0.2196 -0.0935
4 4 16 -0.4804 0.0885
4 5 0 -8.2415 -0.3153
4 5 1 -2.2661 0.2023
4 5 2 -2.4018 -0.0558
4 5 3 3.3810 -0.0703
4 5 4 11.0738 0.0534
4 5 5 -1.8742 -0.1046
4 5 6 -3.3189 0.0946
4 5 7 -2.3992 -0.0685
4 5 8 -2.3650 0.0730
4 5 9 0.9548 -0.0198
4 5 10 4.4354 -0.0265
4 5 11 -0.3590 0.0339
4 5 12 -1.5179 -0.0024
4 5 13 -0.0382 -0.0421
4 5 14 -0.9003 0.0852
4 5 15 -0.6435 0.0040
4 5 16 1.6091 -0.0827
4 5 17 -1.2927 0.1566
4 6 0 -6.1908 -0.5976
4 6 1 -3.6241 0.4306
4 6 2 7.2138 -0.2054
4 6 3 2.7732 -0.0633
4 6 4 4.1231 0.1092
4 6 5 -0.3588 -0.1207
4 6 6 -6.6557 0.0954
4 6 7 -2.7987 -0.0030
4 6 8 3.0567 -0.0132
4 6 9 1.1593 0.0197
4 6 10 1.5509 -0.0119
4 6 11 0.7317 0.0022
4 6 12 -2.5420 0.0125
4 6 13 -1.3298 -0.0131
4 6 14 1.2832 0.0292
4 6 15 -0.8377 0.0624
4 6 16 0.9567 -0.1005
4 6 17 -0.0417 0.0714
4 7 0 -2.6459 -0.6496
4 7 1 0.1573 0.5043
4 7 2 5.0630 -0.2986
4 7 3 6.0853 -0.0225
4 7 4 -2.9362 0.1474
4 7 5 -3.0690 -0.1305
4 7 6 -2.8569 0.0746
4 7 7 -1.9458 0.0672
4 7 8 3.7416 -0.0919
4 7 9 3.3000 0.0403
4 7 10 -1.3090 0.0265
4 7 11 -1.2293 -0.0505
4 7 12 -1.3207 0.0475
4 7 13 -0.0549 0.0052
4 7 14 -0.3594 -0.0295
4 7 15 1.4496 0.0793
4 7 16 0.0809 -0.1029
4 7 17 -0.7522 0.0286
4 8 0 0.3743 -0.5892
4 8 1 3.5770 0.4369
4 8 2 3.1545 -0.2630
4 8 3 0.9251 -0.0100
4 8 4 -1.3224 0.1567
4 8 5 -6.3829 -0.0983
4 8 6 0.5670 0.0312
4 8 7 1.5386 0.0972
4 8 8 2.5457 -0.1256
4 8 9 1.5715 0.0769
4 8 10 -1.2900 0.0030
4 8 11 -2.8463 -0.0553
4 8 12 -0.0379 0.0649
4 8 13 -0.2087 -0.0151
4 8 14 2.2726 -0.0626
4 8 15 -1.3368 0.0910
4 8 16 1.3945 -0.1111
4 8 17 -0.7461 -0.0029
4 9 0 1.3838 -0.3082
4 9 1 3.1949 0.2411
4 9 2 2.3887 -0.1753
4 9 3 -2.6043 0.0246
4 9 4 -2.5755 0.1189
4 9 5 -1.9382 -0.0438
4 9 6 -0.1883 -0.0140
4 9 7 4.7298 0.0997
4 9 8 0.4274 -0.1368
4 9 9 -0.4304 0.0991
4 9 10 -1.7828 -0.0132
4 9 11 -1.8314 -0.0679
4 9 12 -0.0073 0.0213
4 9 13 1.7977 0.0576
4 9 14 0.3881 -0.1398
4 9 15 0.4466 0.0627
4 9 16 -0.5098 0.0255
4 9 17 0.0071 -0.1184
4 10 0 1.8486 0.0511
4 10 1 1.9963 -0.0218
4 10 2 -0.4001 0.0031
4 10 3 -2.2803 0.0443
4 10 4 -2.3649 0.0145
4 10 5 0.2819 0.0324
4 10 6 1.8874 -0.0577
4 10 7 2.2264 0.1030
4 10 8 0.6662 -0.1474
4 10 9 -2.4693 0.0702
4 10 10 -2.0645 0.0327
4 10 11 0.3330 -0.1336
4 10 12 0.5353 0.0463
4 10 13 1.4366 0.0401
4 10 14 0.5484 -0.1252
4 10 15 -0.1412 0.1431
4 10 16 -0.5232 -0.1111
4 11 0 1.9095 0.3601
4 11 1 -0.1292 -0.2439
4 11 2 -0.8248 0.1417
4 11 3 -2.2677 0.0664
4 11 4 -0.7391 -0.0813
4 11 5 1.7919 0.0628
4 11 6 1.3719 -0.0671
4 11 7 1.4400 0.0453
4 11 8 -1.7653 -0.0694
4 11 9 -1.3543 0.0126
4 11 10 -1.3754 0.0014
4 11 11 0.4210 -0.0810
4 11 12 2.4105 0.0757
4 11 13 -0.1546 -0.0472
4 11 14 0.6785 0.0202
4 11 15 -0.7641 0.0570
4 11 16 -0.2826 0.0088
4 12 0 1.0329 0.4992
4 12 1 -0.5279 -0.3934
4 12 2 -1.5634 0.2130
4 12 3 -0.5771 0.0579
4 12 4 -0.1028 -0.1346
4 12 5 1.7143 0.0641
4 12 6 1.2718 -0.0531
4 12 7 -0.3517 -0.0245
4 12 8 -1.9563 0.0252
4 12 9 -0.9112 -0.0483
4 12 10 0.0919 0.0191
4 12 11 1.0019 -0.0376
4 12 12 1.1451 0.0301
4 12 13 0.9776 0.0900
4 12 14 -1.3109 -0.1233
4 12 15 -0.0269 0.1997
4 13 0 -0.6514 0.6022
4 13 1 -0.2905 -0.3624
4 13 2 -1.3759 0.1814
4 13 3 0.0945 -0.0067
4 13 4 0.6662 -0.1307
4 13 5 1.3172 0.0614
4 13 6 -0.3646 -0.0158
4 13 7 -0.2590 -0.0663
4 13 8 -1.2997 0.0699
4 13 9 -0.7634 -0.0503
4 13 10 0.9037 0.0084
4 13 11 1.4099 0.0555
4 13 12 0.2654 -0.0305
4 13 13 0.1725 0.0598
4 13 14 -0.9436 0.0448
4 14 0 0.0443 0.3164
4 14 1 -1.0308 -0.3383
4 14 2 -0.1708 0.2833
4 14 3 -0.1386 -0.1342
4 14 4 1.0063 -0.0952
4 14 5 0.3463 0.0799
4 14 6 -0.0402 0.0011
4 14 7 -1.0399 -0.0773
4 14 8 -0.7065 0.1093
4 14 9 0.8795 -0.0226
4 14 10 -0.0464 -0.0809
4 14 11 1.1001 0.1455
4 14 12 0.4797 0.0348
4 14 13 -1.1397 -0.1612
4 15 3 -0.4411 0.1295
4 15 4 0.7372 -0.1165
4 15 5 0.4364 -0.0052
4 15 6 -0.8519 0.1024
4 15 7 0.1903 -0.0757
4 15 8 -0.7552 0.0617
4 15 9 0.5381 -0.0135
4 15 10 0.7923 0.0004
4 15 11 0.1534 0.0456
5 -10 0 1.3908 -0.2324
5 -10 1 0.7892 0.0928
5 -10 2 -0.1971 -0.0367
5 -9 0 1.2204 -0.0754
5 -9 1 0.2210 0.0674
5 -9 2 1.2020 -0.1066
5 -9 3 -1.9271 -0.0446
5 -9 4 0.1616 0.1723
5 -8 0 1.5831 0.0515
5 -8 1 -0.4830 -0.0320
5 -8 2 -0.2219 -0.0308
5 -8 3 -0.2885 0.0573
5 -8 4 -2.2122 -0.0399
5 -8 5 1.8803 0.0617
5 -8 6 -0.1506 0.0691
5 -7 0 2.1178 0.2762
5 -7 1 -0.3093 -0.2396
5 -7 2 -2.5176 0.1008
5 -7 3 -0.1999 0.0790
5 -7 4 0.2254 -0.0565
5 -7 5 0.4094 0.0475
5 -7 6 0.4451 -0.0504
5 -7 7 0.7090 0.0850
5 -6 0 -0.5034 0.4826
5 -6 1 -0.8522 -0.3382
5 -6 2 -1.4498 0.1707
5 -6 3 -1.5593 0.0155
5 -6 4 2.4443 -0.0159
5 -6 5 0.4110 0.0396
5 -6 6 -0.0987 -0.0723
5 -6 7 0.3090 -0.0322
5 -6 8 -0.8614 0.0980
5 -5 0 -2.0624 0.5096
5 -5 1 -3.0246 -0.3567
5 -5 2 0.2033 0.2307
5 -5 3 0.7317 -0.0215
5 -5 4 0.2629 -0.0780
5 -5 5 2.2242 0.0740
5 -5 6 -0.9362 -0.0346
5 -5 7 -1.1515 -0.0852
5 -5 8 -0.1174 0.0530
5 -5 9 0.4052 0.0803
5 -5 10 -0.2339 -0.1458
5 -4 0 -1.4625 0.4119
5 -4 1 -2.7532 -0.3165
5 -4 2 -0.3601 0.2167
5 -4 3 3.3791 -0.0275
5 -4 4 0.5162 -0.0927
5 -4 5 -0.3671 0.0583
5 -4 6 -0.0910 -0.0363
5 -4 7 -1.9756 -0.0314
5 -4 8 0.8050 0.0356
5 -4 9 -0.0410 -0.0198
5 -4 10 0.6983 0.0647
5 -4 11 -0.1455 -0.0926
5 -3 0 -2.6616 0.1679
5 -3 1 1.4820 -0.1538
5 -3 2 0.1574 0.1284
5 -3 3 2.3584 -0.0499
5 -3 4 1.6993 -0.0510
5 -3 5 -1.9843 0.0245
5 -3 6 -1.9529 -0.0236
5 -3 7 0.9631 -0.0354
5 -3 8 -0.5921 0.0751
5 -3 9 1.3800 -0.0561
5 -3 10 0.2035 0.0142
5 -3 11 -0.3018 0.0816
5 -3 12 -0.2820 -0.1112
5 -2 0 -6.6176 -0.1613
5 -2 1 3.9249 0.0914
5 -2 2 4.2436 -0.0162
5 -2 3 -0.2244 -0.0537
5 -2 4 -0.3292 -0.0012
5 -2 5 -1.4184 -0.0098
5 -2 6 -1.9376 -0.0026
5 -2 7 0.7775 -0.0330
5 -2 8 1.5382 0.0851
5 -2 9 0.2779 -0.0530
5 -2 10 0.1824 0.0060
5 -2 11 -0.7891 0.0945
5 -2 12 -0.1272 -0.0742
5 -1 0 3.0480 -0.4760
5 -1 1 0.4820 0.3107
5 -1 2 4.8939 -0.1295
5 -1 3 0.6387 -0.0689
5 -1 4 -4.1867 0.0566
5 -1 5 -1.9626 -0.0215
5 -1 6 1.6926 0.0064
5 -1 7 -0.7862 -0.0107
5 -1 8 2.7329 0.0458
5 -1 9 0.2885 0.0168
5 -1 10 -2.0072 -0.0115
5 -1 11 0.7943 0.0121
5 -1 12 -1.2249 0.0556
5 -1 13 0.4150 -0.1122
5 0 0 5.7955 -0.6501
5 0 1 7.1505 0.4276
5 0 2 -4.1142 -0.2072
5 0 3 2.0130 -0.0390
5 0 4 -4.7563 0.1145
5 0 5 -2.3072 -0.0816
5 0 6 2.4182 0.0571
5 0 7 2.9162 0.0306
5 0 8 -1.1357 -0.0419
5 0 9 0.7575 0.0544
5 0 10 -1.3383 0.0274
5 0 11 -1.5725 -0.0418
5 0 12 1.2996 -0.0286
5 0 13 -0.2359 0.0687
5 0 14 0.2338 -0.1314
5 1 0 1.3143 -0.6252
5 1 1 7.2156 0.4480
5 1 2 -2.3547 -0.2490
5 1 3 -7.4106 0.0203
5 1 4 0.6715 0.1535
5 1 5 -0.1363 -0.1347
5 1 6 0.9552 0.0715
5 1 7 3.7608 0.0710
5 1 8 -0.4443 -0.0975
5 1 9 -2.8718 0.0447
5 1 10 0.2363 0.0490
5 1 11 -0.6988 -0.0782
5 1 12 0.1980 -0.0108
5 1 13 1.3210 0.0341
5 1 14 -0.3041 -0.0625
5 2 0 3.9063 -0.4176
5 2 1 -2.7829 0.3564
5 2 2 -1.1105 -0.2144
5 2 3 -5.3520 0.0553
5 2 4 -3.2332 0.1458
5 2 5 6.3013 -0.1207
5 2 6 1.8622 0.0078
5 2 7 -0.8229 0.1016
5 2 8 0.2303 -0.1063
5 2 9 -2.0007 0.0390
5 2 10 -1.8460 0.0080
5 2 11 1.9667 -0.0500
5 2 12 0.1558 0.0347
5 2 13 0.4969 -0.0601
5 2 14 0.3782 0.0391
5 2 15 -0.1954 -0.0497
5 3 0 5.8170 -0.0625
5 3 1 -6.1405 0.1395
5 3 2 -6.4342 -0.0896
5 3 3 0.6000 0.0582
5 3 4 0.0458 0.0589
5 3 5 3.4547 -0.0588
5 3 6 4.2120 -0.0321
5 3 7 -2.4504 0.0864
5 3 8 -2.9914 -0.1120
5 3 9 0.1534 0.0770
5 3 10 -0.4306 -0.0181
5 3 11 0.8875 -0.0534
5 3 12 1.6826 0.0502
5 3 13 -0.5188 -0.0206
5 3 14 0.1269 -0.0729
5 3 15 -0.3071 0.0898
5 4 0 -2.5485 0.3160
5 4 1 -1.7403 -0.1322
5 4 2 -7.4246 0.0575
5 4 3 1.0838 0.0561
5 4 4 7.0187 -0.0744
5 4 5 0.4313 0.0331
5 4 6 0.6864 -0.0519
5 4 7 -1.1953 0.0432
5 4 8 -3.7879 -0.0448
5 4 9 0.0758 0.0366
5 4 10 2.2751 0.0038
5 4 11 0.3336 -0.0524
5 4 12 0.6429 0.0334
5 4 13 0.1490 -0.0019
5 4 14 -0.8552 -0.1229
5 4 15 -0.2424 0.1535
5 4 16 0.1825 -0.0605
5 5 0 -6.2583 0.6019
5 5 1 -4.5428 -0.3732
5 5 2 1.6283 0.1755
5 5 3 0.4035 0.0314
5 5 4 5.5432 -0.1482
5 5 5 2.8485 0.0950
5 5 6 -4.6365 -0.0610
5 5 7 -2.0043 0.0205
5 5 8 -0.1787 0.0218
5 5 9 -0.2016 -0.0306
5 5 10 2.5842 0.0357
5 5 11 0.8767 -0.0489
5 5 12 -0.7757 -0.0037
5 5 13 -0.3222 0.0004
5 5 14 -0.5106 -0.0568
5 5 15 0.0534 0.0838
5 5 16 -0.6841 0.0513
5 6 0 -2.9267 0.6842
5 6 1 -3.6346 -0.4910
5 6 2 1.9926 0.2457
5 6 3 7.0695 -0.0306
5 6 4 -1.3583 -0.1341
5 6 5 1.6385 0.1076
5 6 6 -3.9484 -0.0337
5 6 7 -3.0548 -0.0304
5 6 8 1.6604 0.0743
5 6 9 2.2837 -0.0567
5 6 10 0.6048 0.0045
5 6 11 0.0652 0.0096
5 6 12 -0.1647 -0.0652
5 6 13 -1.8289 0.0380
5 6 14 0.3536 0.0042
5 6 15 0.3054 0.0361
5 6 16 -0.6725 0.1144
5 7 0 -2.2356 0.5900
5 7 1 1.9969 -0.4582
5 7 2 1.1185 0.2355
5 7 3 5.1373 -0.0642
5 7 4 -0.1894 -0.1017
5 7 5 -4.3250 0.0959
5 7 6 -1.4417 0.0037
5 7 7 -0.4000 -0.0826
5 7 8 1.2141 0.1172
5 7 9 3.0428 -0.0880
5 7 10 0.1200 0.0055
5 7 11 -1.9129 0.0432
5 7 12 -0.3451 -0.0798
5 7 13 -0.2793 0.0620
5 7 14 -0.6238 0.0473
5 7 15 0.9191 -0.0037
5 7 16 -0.3058 0.1073
5 8 0 -1.1527 0.3284
5 8 1 3.0612 -0.3115
5 8 2 3.2511 0.1759
5 8 3 -0.1123 -0.0599
5 8 4 -0.6551 -0.0873
5 8 5 -3.9544 0.0912
5 8 6 -1.0458 0.0228
5 8 7 2.0986 -0.1073
5 8 8 1.9356 0.1369
5 8 9 0.8977 -0.0888
5 8 10 -0.5278 0.0137
5 8 11 -1.6149 0.0328
5 8 12 -1.4952 -0.0154
5 8 13 1.1264 -0.0063
5 8 14 0.0122 0.1292
5 8 15 0.4580 -0.1095
5 8 16 -0.5565 0.0929
5 9 0 1.8325 -0.0490
5 9 1 1.5355 -0.0578
5 9 2 2.5866 0.0192
5 9 3 -1.5698 -0.0095
5 9 4 -2.8675 -0.0275
5 9 5 -0.8991 0.0400
5 9 6 0.0051 0.0297
5 9 7 2.0523 -0.0818
5 9 8 3.0851 0.1360
5 9 9 -2.3702 -0.0847
5 9 10 -0.4792 -0.0127
5 9 11 -1.3602 0.0902
5 9 12 -0.4352 -0.0547
5 9 13 0.8129 -0.0360
5 9 14 0.4875 0.1633
5 9 15 0.7574 -0.1767
5 9 16 -0.9628 0.0441
5 10 0 2.2664 -0.3847
5 10 1 1.2043 0.2030
5 10 2 0.0940 -0.1129
5 10 3 -1.5675 0.0179
5 10 4 -2.2407 0.0354
5 10 5 -0.4390 0.0009
5 10 6 2.7599 0.0435
5 10 7 0.7422 -0.0506
5 10 8 0.8473 0.0620
5 10 9 -0.9840 -0.0196
5 10 10 -2.6600 -0.0324
5 10 11 0.0490 0.0453
5 10 12 1.1243 -0.0590
5 10 13 -0.0834 0.0305
5 10 14 1.0728 -0.0111
5 10 15 -0.1878 -0.0283
5 10 16 -0.2053 -0.0433
5 11 0 1.3146 -0.4871
5 11 1 0.8364 0.3749
5 11 2 -1.1645 -0.2116
5 11 3 -1.6434 0.0557
5 11 4 -0.6511 0.0977
5 11 5 0.8148 -0.0675
5 11 6 1.6903 0.0380
5 11 7 1.0388 0.0127
5 11 8 -0.8520 -0.0199
5 11 9 -1.9378 -0.0162
5 11 10 -0.2069 -0.0370
5 11 11 -0.5101 0.0522
5 11 12 1.0519 -0.0674
5 11 13 1.8912 -0.0365
5 11 14 -1.4271 0.1239
5 11 15 0.6136 -0.1641
5 12 0 1.0695 -0.5894
5 12 1 0.1728 0.4599
5 12 2 -1.8272 -0.2015
5 12 3 -0.5671 0.0536
5 12 4 0.0469 0.1047
5 12 5 1.0799 -0.0917
5 12 6 1.4083 0.0012
5 12 7 -0.6420 0.0535
5 12 8 -0.6359 -0.0857
5 12 9 -1.4462 -0.0000
5 12 10 -0.3129 -0.0047
5 12 11 1.2617 -0.0234
5 12 12 0.5525 -0.0008
5 12 13 0.2451 0.0467
5 12 14 0.6509 -0.0721
5 13 0 0.1953 -0.5547
5 13 1 -0.9152 0.4625
5 13 2 -0.3428 -0.2305
5 13 3 -0.9478 0.0519
5 13 4 1.0125 0.1053
5 13 5 0.5806 -0.1033
5 13 6 0.4696 -0.0495
5 13 7 -0.4154 0.0800
5 13 8 -1.1403 -0.1010
5 13 9 -0.6096 0.0358
5 13 10 0.6346 -0.0420
5 13 11 0.7052 0.0526
5 13 12 0.6279 -0.0249
5 13 13 -0.0706 0.0418
5 14 1 -0.2712 0.1619
5 14 2 -0.9146 -0.0607
5 14 3 0.1937 -0.0330
5 14 4 0.5176 0.0520
5 14 5 0.4045 -0.0845
5 14 6 0.1360 -0.0127
5 14 7 -0.8207 0.0895
5 14 8 -0.2276 -0.1917
5 14 9 -0.2382 0.1726
5 14 10 0.6012 -0.0224
5 14 11 0.4269 -0.0905
5 14 12 0.6076 0.1816
5 15 5 0.7682 0.0712
5 15 6 -0.2635 -0.0952
5 15 7 -0.3160 0.0656
5 15 8 -0.4354 0.0554
5 15 9 0.4963 -0.1712
6 -9 0 0.2659 -0.1260
6 -9 1 0.9590 0.0717
6 -8 0 1.1008 -0.2710
6 -8 1 1.4323 0.0776
6 -8 2 -1.6468 -0.0151
6 -8 3 -0.1137 -0.0043
6 -7 0 0.4773 -0.3393
6 -7 1 0.1721 0.2313
6 -7 2 -0.9595 -0.1554
6 -7 3 -1.2776 0.0622
6 -7 4 0.2710 0.0902
6 -7 5 0.2080 -0.0779
6 -6 0 -0.0871 -0.4037
6 -6 1 -1.4919 0.3468
6 -6 2 -0.8323 -0.1517
6 -6 3 -0.5212 -0.0025
6 -6 4 0.1157 0.0987
6 -6 5 1.1364 -0.0195
6 -6 6 0.4832 0.0114
6 -6 7 -0.6824 -0.1332
6 -5 0 -0.7794 -0.3111
6 -5 1 -1.7814 0.3034
6 -5 2 -1.3255 -0.1438
6 -5 3 1.1907 0.0406
6 -5 4 0.2028 0.0524
6 -5 5 1.4502 -0.0731
6 -5 6 -0.1575 0.0643
6 -5 7 -0.9683 0.0053
6 -5 8 0.6005 -0.2008
6 -4 0 -1.7539 -0.1177
6 -4 1 -0.6620 0.1603
6 -4 2 -0.8635 -0.1047
6 -4 3 1.2495 0.0643
6 -4 4 2.6157 0.0318
6 -4 5 -1.7158 -0.0624
6 -4 6 0.4455 -0.0072
6 -4 7 -0.1646 0.0377
6 -4 8 -1.6096 0.0045
6 -4 9 1.3894 -0.1746
6 -3 0 -3.1407 0.1488
6 -3 1 -0.0721 -0.0346
6 -3 2 1.7834 -0.0013
6 -3 3 0.9942 0.0092
6 -3 4 0.7804 0.0313
6 -3 5 -0.1003 -0.0264
6 -3 6 -1.9379 -0.0316
6 -3 7 -0.0924 -0.0088
6 -3 8 0.6366 -0.0100
6 -3 9 -0.3246 0.0848
6 -3 10 0.4537 -0.1738
6 -2 0 -1.6810 0.3815
6 -2 1 0.1011 -0.2201
6 -2 2 3.1126 0.1262
6 -2 3 1.4405 -0.0396
6 -2 4 -1.7746 -0.0274
6 -2 5 -0.2002 0.0094
6 -2 6 -1.3017 0.0003
6 -2 7 -0.6105 -0.0512
6 -2 8 1.8053 -0.0300
6 -2 9 -0.1530 0.0913
6 -2 10 -0.0136 0.0070
6 -2 11 0.0140 -0.1348
6 -1 0 3.4872 0.5258
6 -1 1 0.2602 -0.3861
6 -1 2 2.1238 0.1959
6 -1 3 1.2417 -0.0208
6 -1 4 -2.4915 -0.1001
6 -1 5 -1.9519 0.0304
6 -1 6 0.4340 0.0029
6 -1 7 0.8607 -0.0256
6 -1 8 0.2418 -0.0001
6 -1 9 1.1033 0.0061
6 -1 10 -0.4565 0.0658
6 -1 11 -0.8103 -0.0073
6 -1 12 0.4543 -0.0646
6 0 0 1.1133 0.5419
6 0 1 5.0826 -0.4320
6 0 2 0.0948 0.1872
6 0 3 -3.1628 -0.0274
6 0 4 0.2674 -0.0894
6 0 5 -2.1163 0.0503
6 0 6 -0.2133 -0.0160
6 0 7 3.4092 -0.0123
6 0 8 -0.3600 0.0537
6 0 9 -0.1884 -0.0232
6 0 10 -0.2920 0.0355
6 0 11 -0.4867 0.0273
6 0 12 -0.1321 -0.0326
6 0 13 0.1094 -0.0113
6 1 0 1.8130 0.3574
6 1 1 0.9511 -0.3287
6 1 2 2.1812 0.1450
6 1 3 -5.2250 -0.0455
6 1 4 -1.9338 -0.0545
6 1 5 1.9515 0.0812
6 1 6 0.9598 -0.0181
6 1 7 0.5019 -0.0503
6 1 8 2.0394 0.1198
6 1 9 -2.5591 -0.0381
6 1 10 0.3015 -0.0357
6 1 11 -0.9167 0.0895
6 1 12 0.2460 -0.0406
6 1 13 0.5985 -0.0752
6 2 0 6.1164 0.0395
6 2 1 -3.2298 -0.1203
6 2 2 -1.3304 0.0682
6 2 3 -1.8653 -0.0182
6 2 4 -2.3338 -0.0358
6 2 5 2.5794 0.0844
6 2 6 2.6616 -0.0171
6 2 7 0.0812 -0.0572
6 2 8 -1.1887 0.1178
6 2 9 -0.0038 -0.0504
6 2 10 -2.1974 -0.0314
6 2 11 1.5218 0.0738
6 2 12 -0.7038 -0.0486
6 2 13 0.5576 -0.0055
6 2 14 0.6822 -0.0025
6 3 0 1.9608 -0.2709
6 3 1 -0.7461 0.1233
6 3 2 -5.6232 -0.0489
6 3 3 -0.6504 0.0179
6 3 4 2.3614 0.0111
6 3 5 0.6451 0.0292
6 3 6 2.6393 -0.0087
6 3 7 -0.0175 -0.0424
6 3 8 -2.9983 0.0719
6 3 9 -0.1395 -0.0155
6 3 10 -0.0595 -0.0259
6 3 11 -0.3275 0.0201
6 3 12 1.5059 0.0162
6 3 13 -0.2576 -0.0209
6 3 14 -0.0585 -0.0586
6 4 0 -3.6196 -0.4907
6 4 1 -1.4167 0.3428
6 4 2 -2.4883 -0.1603
6 4 3 -1.4168 0.0327
6 4 4 4.1862 0.0499
6 4 5 2.7010 -0.0339
6 4 6 -1.4986 0.0164
6 4 7 -0.5979 -0.0163
6 4 8 -1.3474 0.0179
6 4 9 -1.5680 0.0033
6 4 10 1.3690 0.0080
6 4 11 1.0428 0.0105
6 4 12 -0.6820 -0.0292
6 4 13 1.5239 -0.0352
6 4 14 -0.8930 0.0281
6 4 15 -0.0639 -0.1467
6 5 0 -2.2432 -0.5754
6 5 1 -4.8662 0.4651
6 5 2 1.0606 -0.2323
6 5 3 1.9105 0.0427
6 5 4 1.7164 0.0728
6 5 5 2.4966 -0.0739
6 5 6 -1.8254 0.0216
6 5 7 -3.1687 0.0484
6 5 8 0.3355 -0.0625
6 5 9 0.2147 0.0435
6 5 10 0.5140 0.0032
6 5 11 1.5415 -0.0098
6 5 12 -0.4365 -0.0286
6 5 13 0.0148 -0.0694
6 5 14 0.1122 0.0039
6 5 15 -0.5590 -0.0317
6 6 0 -2.6188 -0.5060
6 6 1 -1.2878 0.4196
6 6 2 -0.1284 -0.2209
6 6 3 4.8566 0.0541
6 6 4 0.9149 0.0819
6 6 5 -1.2573 -0.0899
6 6 6 -1.3174 0.0126
6 6 7 -2.0930 0.0963
6 6 8 -0.2138 -0.1343
6 6 9 2.4317 0.0985
6 6 10 0.3688 -0.0479
6 6 11 0.1296 -0.0208
6 6 12 0.1836 -0.0068
6 6 13 -0.7171 -0.1023
6 6 14 -0.0481 0.0546
6 6 15 -0.1735 0.0127
6 7 0 -2.3380 -0.2549
6 7 1 1.1471 0.2541
6 7 2 2.3378 -0.1521
6 7 3 1.3913 0.0444
6 7 4 1.4974 0.0802
6 7 5 -2.9588 -0.0749
6 7 6 -2.3602 -0.0133
6 7 7 0.6899 0.0817
6 7 8 0.4562 -0.1250
6 7 9 1.9858 0.0908
6 7 10 0.2039 -0.0592
6 7 11 0.1180 -0.0256
6 7 12 -1.7717 0.0024
6 7 13 1.0240 -0.0587
6 7 14 -0.8926 0.0680
6 7 15 0.0386 0.0899
6 8 0 -0.9475 0.0494
6 8 1 1.3739 0.0542
6 8 2 3.5017 -0.0233
6 8 3 -0.0432 -0.0173
6 8 4 -1.4493 0.0575
6 8 5 -1.4710 -0.0358
6 8 6 -2.1495 -0.0560
6 8 7 1.9424 0.0685
6 8 8 1.7190 -0.0786
6 8 9 0.1896 0.0280
6 8 10 0.4766 0.0147
6 8 11 -1.5267 -0.0572
6 8 12 -0.2027 0.0203
6 8 13 -0.4655 0.0203
6 8 14 0.6343 0.0306
6 8 15 -0.4687 0.1306
6 9 0 0.7233 0.2866
6 9 1 2.0584 -0.1881
6 9 2 0.9270 0.1169
6 9 3 0.3112 -0.0248
6 9 4 -2.8306 -0.0305
6 9 5 -1.2149 -0.0192
6 9 6 0.6014 -0.0122
6 9 7 1.3063 0.0293
6 9 8 1.4791 -0.0440
6 9 9 0.6435 0.0340
6 9 10 -2.5991 0.0300
6 9 11 0.5585 -0.0668
6 9 12 -0.7920 0.0639
6 9 13 -0.0065 0.0266
6 9 14 0.8052 0.0005
6 9 15 -0.4433 0.1005
6 10 0 1.4269 0.4763
6 10 1 2.1693 -0.3844
6 10 2 -0.7121 0.1752
6 10 3 -0.5392 -0.0381
6 10 4 -2.1949 -0.0451
6 10 5 -0.1852 0.0132
6 10 6 1.2413 -0.0118
6 10 7 1.9679 0.0076
6 10 8 -0.6741 0.0443
6 10 9 0.4592 -0.0073
6 10 10 -1.7480 0.0092
6 10 11 -1.1064 -0.0251
6 10 12 1.2678 0.0366
6 10 13 0.1147 0.0497
6 10 14 -0.1323 -0.0974
6 11 0 1.5722 0.5542
6 11 1 1.3290 -0.4953
6 11 2 -1.4581 0.2372
6 11 3 -0.8096 -0.0521
6 11 4 -0.9569 -0.0752
6 11 5 0.3371 0.0785
6 11 6 1.4328 0.0266
6 11 7 1.0450 -0.0639
6 11 8 -0.4254 0.1094
6 11 9 -1.5541 -0.0653
6 11 10 -0.2863 0.0208
6 11 11 0.0504 -0.0152
6 11 12 -0.1211 -0.0173
6 11 13 1.2218 0.0255
6 12 0 -0.0392 0.5142
6 12 1 0.1714 -0.4402
6 12 2 -0.3701 0.2090
6 12 3 -1.8291 -0.0076
6 12 4 0.6104 -0.0778
6 12 5 0.5132 0.0832
6 12 6 1.0647 0.0398
6 12 7 -0.1857 -0.0790
6 12 8 -0.1068 0.0929
6 12 9 -1.4957 -0.1031
6 12 10 -0.0682 0.0419
6 12 11 0.4569 -0.0658
6 12 12 0.6331 0.0853
6 12 13 0.0061 -0.1242
6 13 0 1.1030 0.1249
6 13 1 -0.7156 -0.1777
6 13 2 -0.4718 0.1063
6 13 3 -0.6307 0.0607
6 13 4 0.0033 -0.0963
6 13 5 0.9955 0.0802
6 13 6 0.6250 0.0244
6 13 7 -0.6041 -0.1251
6 13 8 -0.8605 0.1046
6 13 9 0.3202 -0.0683
6 13 10 -0.6127 -0.0897
6 13 11 0.5622 0.1568
6 13 12 0.8723 -0.1447
6 14 3 -0.1430 -0.0065
6 14 4 0.0657 -0.0505
6 14 5 0.5441 0.0482
6 14 6 0.1979 -0.0342
6 14 7 -0.3409 -0.0546
6 14 8 -0.1962 0.0493
6 14 9 -0.7842 -0.1046
6 14 10 0.9796 0.1339
7 -8 0 1.0181 0.3098
7 -7 0 0.5069 0.1425
7 -7 1 -0.7112 -0.0739
7 -7 2 1.2984 0.1107
7 -6 0 0.4424 0.2211
7 -6 1 -0.6148 -0.1467
7 -6 2 -1.6033 0.0638
7 -6 3 0.6085 0.0938
7 -6 4 -0.6544 -0.1925
7 -5 0 0.6576 0.1312
7 -5 1 -1.1435 -0.0937
7 -5 2 -1.5887 0.0602
7 -5 3 0.1757 -0.0340
7 -5 4 1.4582 0.0214
7 -5 5 -0.5364 0.0030
7 -5 6 0.5859 -0.0282
7 -4 0 -2.0247 -0.0832
7 -4 1 -0.8755 0.0509
7 -4 2 0.3705 -0.0150
7 -4 3 -0.1177 -0.0244
7 -4 4 1.1326 -0.0050
7 -4 5 0.8907 0.0809
7 -4 6 -0.9018 -0.0429
7 -4 7 -0.0656 -0.0547
7 -3 0 -1.7117 -0.2538
7 -3 1 -1.5699 0.1865
7 -3 2 1.7732 -0.1301
7 -3 3 1.2595 0.0570
7 -3 4 -0.2287 -0.0049
7 -3 5 0.9057 0.0368
7 -3 6 -1.5847 -0.0125
7 -3 7 0.0322 -0.0163
7 -3 8 0.5031 -0.0556
7 -2 0 0.8192 -0.3949
7 -2 1 -0.2112 0.3107
7 -2 2 0.8331 -0.1789
7 -2 3 2.0412 0.0549
7 -2 4 -0.0805 0.0493
7 -2 5 -2.0238 -0.0326
7 -2 6 0.7300 -0.0042
7 -2 7 -1.2370 -0.0033
7 -2 8 0.5796 -0.0423
7 -2 9 1.0110 -0.0186
7 -2 10 -1.2798 0.1109
7 -1 0 0.1764 -0.4227
7 -1 1 2.8190 0.3464
7 -1 2 0.5702 -0.1770
7 -1 3 0.0321 0.0475
7 -1 4 -0.0233 0.0534
7 -1 5 -2.0090 -0.0785
7 -1 6 -0.6368 0.0006
7 -1 7 1.4689 0.0282
7 -1 8 -0.5147 -0.0688
7 -1 9 0.5219 -0.0070
7 -1 10 0.4280 0.0930
7 0 0 -0.4336 -0.2607
7 0 1 2.4680 0.2578
7 0 2 1.3759 -0.1555
7 0 3 -1.4527 0.0250
7 0 4 -1.9569 0.0541
7 0 5 -0.0395 -0.0661
7 0 6 -0.4161 -0.0416
7 0 7 1.0001 0.0423
7 0 8 1.2522 -0.0104
7 0 9 -0.8759 0.0124
7 0 10 0.1513 -0.0518
7 0 11 0.0909 0.1467
7 1 0 2.6130 -0.0075
7 1 1 0.1473 0.0773
7 1 2 -0.0648 -0.0832
7 1 3 -0.8845 -0.0088
7 1 4 -3.0376 0.0445
7 1 5 0.7387 -0.0495
7 1 6 1.7687 -0.0047
7 1 7 -0.2414 0.0105
7 1 8 1.0212 -0.0167
7 1 9 0.3610 0.0651
7 1 10 -2.0009 0.0013
7 1 11 0.9308 -0.0801
7 1 12 0.0844 0.1502
7 2 0 3.1232 0.2441
7 2 1 0.6936 -0.1339
7 2 2 -3.4380 0.0288
7 2 3 -0.6936 -0.0379
7 2 4 -0.2978 0.0187
7 2 5 -0.4040 -0.0076
7 2 6 2.7166 0.0078
7 2 7 1.0634 0.0006
7 2 8 -1.7025 -0.0227
7 2 9 0.4491 0.0601
7 2 10 -0.5178 0.0317
7 2 11 -0.6557 -0.1009
7 2 12 0.2525 0.0996
7 3 0 -0.7964 0.4152
7 3 1 0.9309 -0.3194
7 3 2 -3.3278 0.1495
7 3 3 -1.7088 -0.0475
7 3 4 1.7579 -0.0284
7 3 5 1.4798 0.0346
7 3 6 0.7907 -0.0004
7 3 7 0.3396 0.0107
7 3 8 -0.4216 -0.0293
7 3 9 -2.0389 0.0410
7 3 10 0.9529 0.0297
7 3 11 -0.7899 -0.0299
7 3 12 0.8963 -0.0054
7 3 13 -0.6708 0.0656
7 4 0 -0.6906 0.4920
7 4 1 -3.2116 -0.4334
7 4 2 -0.3054 0.2069
7 4 3 -0.9051 -0.0508
7 4 4 1.9995 -0.0413
7 4 5 2.0785 0.0490
7 4 6 0.1937 -0.0048
7 4 7 -1.2696 -0.0038
7 4 8 -0.8260 0.0211
7 4 9 -0.4435 -0.0052
7 4 10 -0.2992 0.0219
7 4 11 0.5025 0.0288
7 4 12 0.2931 -0.0284
7 4 13 0.3558 -0.0095
7 5 0 -0.3012 0.4336
7 5 1 -3.0983 -0.4106
7 5 2 -0.6198 0.1801
7 5 3 2.3386 -0.0409
7 5 4 0.9343 -0.0361
7 5 5 1.6327 0.0560
7 5 6 -0.8323 0.0228
7 5 7 -1.8531 -0.0515
7 5 8 -0.7505 0.0837
7 5 9 0.4357 -0.0465
7 5 10 0.0720 0.0180
7 5 11 0.4058 0.0470
7 5 12 0.7153 -0.0517
7 5 13 -0.6524 -0.0386
7 5 14 1.0103 -0.0698
7 6 0 -1.9530 0.2163
7 6 1 -0.7182 -0.2608
7 6 2 0.4478 0.1005
7 6 3 1.6674 0.0007
7 6 4 2.6579 -0.0181
7 6 5 -1.7914 0.0662
7 6 6 -0.8230 0.0180
7 6 7 -1.0594 -0.0554
7 6 8 -0.7923 0.0928
7 6 9 1.0703 -0.0759
7 6 10 0.8193 0.0188
7 6 11 0.0135 0.0348
7 6 12 0.0166 -0.0843
7 6 13 0.2976 -0.0324
7 6 14 -0.3184 -0.0891
7 7 0 -2.0528 -0.0967
7 7 1 -0.3498 -0.0225
7 7 2 2.7790 0.0079
7 7 3 0.7387 0.0509
7 7 4 0.8523 0.0100
7 7 5 -1.4645 0.0664
7 7 6 -1.8692 -0.0150
7 7 7 -0.2992 -0.0605
7 7 8 0.9767 0.0641
7 7 9 0.5235 -0.0460
7 7 10 0.7026 -0.0190
7 7 11 -0.2135 0.0034
7 7 12 0.2465 -0.0513
7 7 13 -0.6908 -0.0485
7 7 14 0.2700 -0.0218
7 8 0 -0.0407 -0.2962
7 8 1 0.3284 0.1744
7 8 2 2.0103 -0.0663
7 8 3 1.4930 0.0970
7 8 4 -1.7086 0.0252
7 8 5 -1.4182 0.0090
7 8 6 -0.3540 -0.0298
7 8 7 -0.6553 -0.0424
7 8 8 2.3922 -0.0105
7 8 9 -0.0551 -0.0036
7 8 10 0.2932 0.0120
7 8 11 -0.7490 -0.0496
7 8 12 0.3202 -0.0417
7 8 13 -0.5698 0.0454
7 8 14 0.1650 -0.0217
7 9 0 0.2315 -0.4197
7 9 1 1.7990 0.3911
7 9 2 0.8444 -0.1484
7 9 3 0.1535 0.0807
7 9 4 -1.2924 0.0278
7 9 5 -1.7595 -0.0443
7 9 6 0.4683 -0.0416
7 9 7 0.8754 -0.0335
7 9 8 1.1222 -0.0228
7 9 9 0.1513 0.0707
7 9 10 -0.6088 -0.0709
7 9 11 -0.3804 0.0234
7 9 12 -0.3708 0.0258
7 9 13 0.3776 -0.0699
7 10 0 0.6496 -0.4644
7 10 1 1.2906 0.4662
7 10 2 1.3108 -0.2239
7 10 3 -2.0821 0.0777
7 10 4 -0.5744 0.0341
7 10 5 -0.1601 -0.1323
7 10 6 -0.5070 -0.0253
7 10 7 2.3552 0.0716
7 10 8 -0.0946 -0.0792
7 10 9 -0.5721 0.0993
7 10 10 -0.1314 -0.0589
7 10 11 -0.8694 0.0835
7 10 12 0.2481 -0.1078
7 10 13 0.3147 0.1374
7 11 0 1.2684 -0.5195
7 11 1 0.5764 0.4279
7 11 2 0.1141 -0.1868
7 11 3 -0.9362 -0.0220
7 11 4 -1.4023 0.0597
7 11 5 0.7024 -0.1140
7 11 6 0.6471 0.0057
7 11 7 0.7026 0.0863
7 11 8 0.1470 -0.0862
7 11 9 -1.0880 0.1498
7 11 10 -0.0600 -0.0687
7 11 11 -0.3418 -0.0602
7 11 12 0.3929 0.1495
7 12 0 0.6701 -0.0984
7 12 1 0.2419 0.1620
7 12 2 0.1890 -0.1327
7 12 3 -1.9005 -0.0617
7 12 4 0.4972 0.1316
7 12 5 0.0237 -0.1154
7 12 6 0.7176 -0.0110
7 12 7 0.4766 0.1767
7 12 8 -0.6069 -0.1074
7 12 9 -0.2146 -0.0018
7 12 10 -0.8850 0.0768
7 12 11 0.9749 -0.0749
7 13 2 -0.9354 -0.1566
7 13 3 0.1886 -0.0254
7 13 4 -1.0318 0.0865
7 13 5 1.4425 -0.0550
7 13 6 -0.4126 0.0383
7 13 7 0.7414 0.0563
7 13 8 -1.1255 -0.0998
7 13 9 0.3291 0.0999
7 13 10 -0.3166 -0.1369
8 -6 0 0.7836 -0.0877
8 -5 0 0.0529 0.1245
8 -5 1 -0.6315 0.0250
8 -5 2 -0.4400 -0.0599
8 -5 3 -0.3793 -0.0326
8 -4 0 -0.8672 0.2481
8 -4 1 -0.9778 -0.0923
8 -4 2 0.0035 0.0473
8 -4 3 -0.1038 -0.1136
8 -4 4 0.8124 -0.0025
8 -4 5 0.0293 0.1426
8 -3 0 -0.4389 0.3336
8 -3 1 -1.0811 -0.2691
8 -3 2 0.1574 0.0965
8 -3 3 1.2957 -0.0051
8 -3 4 0.1459 -0.0497
8 -3 5 -0.1735 -0.0192
8 -3 6 0.0662 0.2037
8 -2 0 -0.7082 0.3521
8 -2 1 -0.0204 -0.3113
8 -2 2 0.7802 0.0968
8 -2 3 0.9576 -0.0003
8 -2 4 0.4088 0.0145
8 -2 5 -0.8004 0.0384
8 -2 6 -0.5471 -0.0919
8 -2 7 0.3696 0.1587
8 -1 0 -1.8533 0.2409
8 -1 1 1.7110 -0.2077
8 -1 2 1.6151 0.1036
8 -1 3 -0.7540 -0.0402
8 -1 4 0.4887 -0.0028
8 -1 5 -1.0177 0.1205
8 -1 6 -0.7518 -0.0964
8 -1 7 0.5206 -0.1098
8 -1 8 0.2481 0.2390
8 0 0 0.4997 0.0467
8 0 1 0.3989 -0.1228
8 0 2 2.0244 0.0928
8 0 3 -0.7616 0.0288
8 0 4 -1.6466 -0.0978
8 0 5 -0.1715 0.0777
8 0 6 0.1786 0.0160
8 0 7 -0.4528 -0.0960
8 0 8 1.4901 -0.0429
8 0 9 -0.6324 0.1943
8 1 0 2.6559 -0.1311
8 1 1 0.5592 0.0887
8 1 2 -0.5628 -0.0684
8 1 3 -0.3896 0.0514
8 1 4 -1.0552 -0.0216
8 1 5 -1.3229 0.0071
8 1 6 1.2940 -0.0327
8 1 7 1.0300 0.0124
8 1 8 -0.4455 -0.0119
8 1 9 0.1743 -0.0389
8 1 10 -0.0031 0.1400
8 2 0 0.7625 -0.3280
8 2 1 1.2336 0.3041
8 2 2 -1.0889 -0.1589
8 2 3 -2.3830 0.0030
8 2 4 0.4452 0.0351
8 2 5 0.0107 -0.0003
8 2 6 0.7314 -0.0274
8 2 7 1.0643 -0.0081
8 2 8 -0.0322 0.0084
8 2 9 -0.6468 0.0172
8 2 10 0.2681 -0.0009
8 2 11 -0.7176 0.0593
8 3 0 0.0080 -0.4489
8 3 1 -0.8373 0.3794
8 3 2 -0.5903 -0.1711
8 3 3 -1.8112 0.0005
8 3 4 0.0463 0.0252
8 3 5 1.9120 -0.0256
8 3 6 0.4529 0.0220
8 3 7 0.1072 -0.0178
8 3 8 0.4134 -0.0030
8 3 9 -1.5380 0.0202
8 3 10 0.4471 -0.0048
8 3 11 0.0579 0.0824
8 4 0 0.9210 -0.3862
8 4 1 -2.3626 0.2978
8 4 2 -0.6992 -0.1784
8 4 3 -0.1681 0.0223
8 4 4 0.3014 0.0417
8 4 5 2.3389 -0.0785
8 4 6 -0.2186 0.0249
8 4 7 -0.0145 0.0438
8 4 8 -0.8796 -0.0251
8 4 9 -0.0668 -0.0140
8 4 10 -0.9710 0.0670
8 4 11 1.2202 -0.0464
8 5 0 -1.1206 -0.1773
8 5 1 -1.2503 0.1471
8 5 2 -1.1124 -0.1678
8 5 3 1.1692 -0.0155
8 5 4 1.5054 0.0868
8 5 5 0.2417 -0.0674
8 5 6 0.6806 0.0101
8 5 7 -1.6016 0.0496
8 5 8 -0.3067 -0.0032
8 5 9 -0.5052 -0.0022
8 5 10 0.7819 0.0251
8 5 11 -0.8080 -0.0152
8 5 12 0.9181 0.0539
8 6 0 -1.6724 0.0013
8 6 1 -0.5310 -0.0269
8 6 2 -0.0500 -0.0628
8 6 3 1.2551 -0.0927
8 6 4 1.6282 0.1111
8 6 5 -0.3714 0.0167
8 6 6 -0.9000 -0.0109
8 6 7 -0.4519 0.0360
8 6 8 -0.9399 -0.0048
8 6 9 0.5703 0.0087
8 6 10 0.2677 0.0161
8 6 11 0.1424 -0.0333
8 6 12 0.1076 0.0316
8 7 0 -1.3647 0.1276
8 7 1 -0.7170 -0.2004
8 7 2 1.4561 0.0735
8 7 3 1.3918 -0.0697
8 7 4 -0.1283 0.0874
8 7 5 0.1235 0.0644
8 7 6 -1.8081 0.0081
8 7 7 -0.5058 -0.0064
8 7 8 0.9663 -0.0287
8 7 9 -0.3869 0.0062
8 7 10 0.6297 0.0319
8 7 11 0.3095 -0.0759
8 7 12 -0.3250 0.0272
8 8 0 -0.7641 0.2649
8 8 1 0.8552 -0.3611
8 8 2 0.5442 0.2018
8 8 3 1.2410 0.0028
8 8 4 -0.0161 0.0566
8 8 5 -1.7820 0.0710
8 8 6 -0.2946 -0.0147
8 8 7 0.0586 -0.0704
8 8 8 0.1650 0.0231
8 8 9 1.2048 -0.0689
8 8 10 -0.3717 0.0678
8 8 11 -0.2285 -0.0567
8 8 12 0.2189 -0.0436
8 9 0 -0.0689 0.4896
8 9 1 1.3412 -0.4415
8 9 2 0.8288 0.2487
8 9 3 -0.0248 0.0714
8 9 4 -0.4243 0.0010
8 9 5 -1.0649 0.0451
8 9 6 -0.6528 -0.0532
8 9 7 1.5137 -0.1158
8 9 8 -0.4217 0.0864
8 9 9 0.9544 -0.1067
8 9 10 -0.4505 0.0623
8 9 11 -0.2011 0.0376
8 10 0 0.4882 0.4605
8 10 1 0.4718 -0.3156
8 10 2 1.1350 0.2863
8 10 3 -0.5421 0.0073
8 10 4 -0.7400 -0.0793
8 10 5 -0.8717 0.0688
8 10 6 0.8682 -0.1055
8 10 7 -0.0849 -0.0956
8 10 8 1.2109 0.0928
8 10 9 -0.7337 -0.0435
8 10 10 -0.2978 0.0639
8 10 11 0.0968 -0.0664
8 11 0 0.7719 0.2205
8 11 1 1.0675 -0.1157
8 11 2 -0.2222 0.0939
8 11 3 -0.1417 0.0708
8 11 4 -0.8793 -0.1054
8 11 5 -0.4403 -0.0212
8 11 6 1.3722 -0.0785
8 11 7 -0.5771 0.0142
8 11 8 0.6713 0.0617
8 11 9 -0.2715 -0.0340
8 11 10 -0.7978 0.0671
8 12 3 -0.2196 0.0245
8 12 4 -0.5425 -0.1943
8 12 5 -0.4242 0.0969
8 12 6 1.2757 -0.0298
8 12 7 -0.2780 -0.0951
8 12 8 -0.1499 0.2165
9 -3 0 -0.9698 -0.1902
9 -3 1 -0.6422 0.1251
9 -3 2 0.5793 -0.0566
9 -2 0 -0.6208 -0.1824
9 -2 1 0.6047 0.1576
9 -2 2 -0.7383 -0.1539
9 -2 3 1.5408 -0.0297
9 -2 4 -0.4010 0.1873
9 -1 0 -0.8232 -0.1272
9 -1 1 0.4261 0.0703
9 -1 2 1.0389 -0.0612
9 -1 3 -0.1876 -0.0290
9 -1 4 0.3240 0.0344
9 -1 5 -0.6026 0.1112
9 0 0 1.5311 0.0337
9 0 1 0.1227 -0.0277
9 0 2 -0.2257 0.0088
9 0 3 2.0342 -0.0503
9 0 4 -2.5669 0.0850
9 0 5 0.4490 -0.1070
9 0 6 -0.1349 0.1874
9 1 0 -0.1356 0.2446
9 1 1 2.1300 -0.1727
9 1 2 -0.5222 0.0762
9 1 3 -0.7806 -0.0472
9 1 4 0.1398 0.0541
9 1 5 -1.2678 -0.0363
9 1 6 0.4169 -0.0295
9 1 7 1.0348 0.1368
9 2 0 0.2179 0.3323
9 2 1 0.5993 -0.2653
9 2 2 0.0073 0.1520
9 2 3 -1.1499 -0.0428
9 2 4 -1.0817 -0.0324
9 2 5 1.0499 0.0748
9 2 6 -0.3078 -0.0399
9 2 7 0.5616 -0.0450
9 2 8 0.7914 0.1109
9 3 0 1.4855 0.3553
9 3 1 -0.7933 -0.2688
9 3 2 -0.8386 0.1300
9 3 3 -0.2023 0.0095
9 3 4 -0.9130 -0.0568
9 3 5 0.7071 0.0426
9 3 6 1.1250 0.0064
9 3 7 0.1367 -0.0353
9 3 8 -0.6509 -0.0078
9 3 9 0.4940 0.0640
9 4 0 0.0817 0.2738
9 4 1 -0.2050 -0.1732
9 4 2 -1.3734 0.0807
9 4 3 -0.3848 -0.0012
9 4 4 0.9128 -0.0506
9 4 5 -0.0334 0.0417
9 4 6 1.4445 -0.0199
9 4 7 -0.4067 -0.0161
9 4 8 -0.5749 0.0108
9 4 9 0.1174 0.0396
9 5 0 -0.6532 0.1538
9 5 1 -0.2387 -0.0668
9 5 2 -1.3526 -0.0510
9 5 3 0.7387 0.0443
9 5 4 0.6360 -0.0801
9 5 5 0.6669 0.0450
9 5 6 0.3130 0.0000
9 5 7 -0.5290 -0.0284
9 5 8 -0.4717 0.0264
9 5 9 -0.1280 0.0484
9 6 0 -0.5257 -0.0634
9 6 1 -1.3689 0.1470
9 6 2 0.5678 -0.2334
9 6 3 0.1477 0.0508
9 6 4 1.1454 -0.0479
9 6 5 0.3559 0.0626
9 6 6 -0.5649 0.0146
9 6 7 -0.6058 -0.0125
9 6 8 -0.0680 -0.0024
9 6 9 -0.3214 0.0640
9 7 0 -0.6350 -0.2856
9 7 1 0.0270 0.1975
9 7 2 -0.4746 -0.2706
9 7 3 1.5735 0.0927
9 7 4 0.2771 -0.0203
9 7 5 -0.4070 0.0419
9 7 6 -0.4145 0.0927
9 7 7 -0.5066 -0.0208
9 7 8 -0.2837 -0.0783
9 7 9 0.6094 0.0964
9 8 0 -0.5052 -0.4522
9 8 1 -0.2787 0.1747
9 8 2 1.1780 -0.1690
9 8 3 0.1641 0.0618
9 8 4 0.0127 0.0904
9 8 5 0.0233 0.0302
9 8 6 -1.2864 0.0445
9 8 7 0.0935 -0.0361
9 8 8 0.6160 -0.0226
9 8 9 -0.1173 -0.0254
9 9 0 -0.8482 -0.3494
9 9 1 0.4455 0.1534
9 9 2 0.7340 -0.1211
9 9 3 0.4830 0.0965
9 9 4 -0.7936 0.1800
9 9 5 -0.3845 -0.0748
9 9 6 0.1762 0.0057
9 9 7 -0.6522 0.0417
9 9 8 1.2255 -0.2285
9 10 2 0.4912 -0.2140
9 10 3 0.1938 0.1600
9 10 4 -0.6318 0.1487
9 10 5 -0.2609 -0.1182
9 10 6 -0.2366 -0.0179
9 10 7 0.9184 -0.0713
10 1 0 0.7461 -0.3216
10 1 1 0.0866 0.1513
10 1 2 0.3497 0.0231
10 2 0 0.1374 -0.2102
10 2 1 -0.1228 0.1187
10 2 2 0.7146 -0.1703
10 2 3 -0.9082 0.1853
10 3 0 -0.1140 -0.2255
10 3 1 0.6769 0.1922
10 3 2 -0.9380 -0.1006
10 3 3 0.1124 -0.0974
10 3 4 -0.8528 0.2357
10 4 0 0.2565 -0.1133
10 4 1 0.0330 0.0717
10 4 2 -0.7810 0.0341
10 4 3 -0.2779 -0.0774
10 4 4 0.1412 0.0193
10 4 5 0.4301 0.1051
10 5 0 0.2335 0.1627
10 5 1 -0.6661 -0.0475
10 5 2 0.0625 0.0810
10 5 3 -0.6465 -0.0964
10 5 4 0.6403 0.0260
10 5 5 0.7947 0.0214
10 6 1 -0.2634 -0.1132
10 6 2 -0.3591 0.0696
10 6 3 0.6230 -0.0774
10 6 4 -0.1272 -0.0266
0 0 0 0.0 0.0
;
_shelx_fab_checksum              37934
_olex2_submission_special_instructions 'No special instructions were received'
loop_
_space_group_symop_operation_xyz
'x, y, z'
'-x, -y, -z'
loop_
_atom_site_label
_atom_site_type_symbol
_atom_site_fract_x
_atom_site_fract_y
_atom_site_fract_z
_atom_site_U_iso_or_equiv
_atom_site_adp_type
_atom_site_occupancy
_atom_site_site_symmetry_order
_atom_site_calc_flag
_atom_site_refinement_flags_posn
_atom_site_refinement_flags_adp
_atom_site_refinement_flags_occupancy
_atom_site_disorder_assembly
_atom_site_disorder_group
Zn1 Zn 0.58584(4) 0.08830(2) 0.87518(2) 0.03389(13) Uani 1 1 d . . . . .
O1 O 0.2620(2) -0.00988(15) 1.01148(14) 0.0420(5) Uani 1 1 d . . . . .
O2 O 0.2295(3) 0.90568(18) 0.21736(15) 0.0509(6) Uani 1 1 d . . . . .
O3 O 0.3500(2) 0.12699(16) 0.89341(15) 0.0460(5) Uani 1 1 d . . . . .
O4 O 0.0365(3) 0.26765(17) 0.97946(15) 0.0505(6) Uani 1 1 d . . . . .
O5 O 0.4466(3) 0.8188(2) 0.30735(18) 0.0660(7) Uani 1 1 d . . . . .
N1 N 0.5784(3) 0.25215(19) 0.87423(18) 0.0395(6) Uani 1 1 d . . . . .
N2 N 0.5472(3) 0.94044(19) 0.85500(18) 0.0392(6) Uani 1 1 d . . . . .
N3 N 0.5705(3) 0.5640(2) 0.8823(2) 0.0500(7) Uani 1 1 d . . . . .
N4 N 0.0489(3) 0.24683(19) 0.84170(18) 0.0456(6) Uani 1 1 d . . . . .
H4 H 0.0386 0.2781 0.7794 0.055 Uiso 1 1 calc R . . . .
N5 N 0.5006(3) 0.6511(2) 0.8189(2) 0.0532(7) Uani 1 1 d . . . . .
N6 N -0.0240(4) 0.7812(2) 0.7145(2) 0.0715(10) Uani 1 1 d . . . . .
H6 H 0.0114 0.8133 0.7468 0.086 Uiso 1 1 calc R . . . .
C1 C 0.1976(4) 0.8491(3) 0.3833(2) 0.0478(8) Uani 1 1 d . . . . .
C2 C 0.2448(3) 0.0772(2) 0.9359(2) 0.0326(6) Uani 1 1 d . . . . .
C3 C 0.0095(5) 0.8458(2) 0.5400(2) 0.0538(9) Uani 1 1 d . . . . .
C4 C 0.0591(4) 0.4920(3) 0.8895(2) 0.0487(8) Uani 1 1 d . . . . .
H4A H 0.0953 0.4526 0.9538 0.058 Uiso 1 1 calc R . . . .
C5 C 0.5633(4) 0.4618(2) 0.8746(2) 0.0435(8) Uani 1 1 d . . . . .
C6 C 0.0223(4) 0.4325(2) 0.8406(2) 0.0415(7) Uani 1 1 d . . . . .
C7 C 0.0375(3) 0.3102(2) 0.8917(2) 0.0406(7) Uani 1 1 d . . . . .
C8 C 0.2997(5) 0.8564(3) 0.2984(2) 0.0497(8) Uani 1 1 d . . . . .
C9 C 0.6491(4) 0.8428(2) 0.8961(2) 0.0444(8) Uani 1 1 d . . . . .
H9 H 0.7331 0.8398 0.9344 0.053 Uiso 1 1 calc R . . . .
C10 C 0.5208(4) 0.7493(2) 0.8316(2) 0.0430(8) Uani 1 1 d . . . . .
C11 C 0.6621(4) 0.2643(2) 0.9360(2) 0.0446(8) Uani 1 1 d . . . . .
H11 H 0.7286 0.1990 0.9806 0.053 Uiso 1 1 calc R . . . .
C12 C 0.0361(4) 0.8773(3) 0.3759(2) 0.0605(10) Uani 1 1 d . . . . .
H12 H -0.0136 0.8988 0.3160 0.073 Uiso 1 1 calc R . . . .
C13 C 0.0447(4) 0.6065(3) 0.8475(2) 0.0531(9) Uani 1 1 d . . . . .
H13 H 0.0710 0.6447 0.8831 0.064 Uiso 1 1 calc R . . . .
C14 C -0.0297(4) 0.4920(3) 0.7476(2) 0.0551(9) Uani 1 1 d . . . . .
H14 H -0.0553 0.4531 0.7125 0.066 Uiso 1 1 calc R . . . .
C15 C 0.0786(4) 0.1255(2) 0.8917(2) 0.0431(7) Uani 1 1 d . . . . .
H15A H 0.0657 0.0914 0.8468 0.052 Uiso 1 1 calc R . . . .
H15B H -0.0011 0.1061 0.9421 0.052 Uiso 1 1 calc R . . . .
C16 C 0.6417(4) 0.7458(2) 0.8871(2) 0.0476(8) Uani 1 1 d . . . . .
H16 H 0.7179 0.6778 0.9183 0.057 Uiso 1 1 calc R . . . .
C17 C -0.0584(5) 0.8756(3) 0.4530(3) 0.0635(10) Uani 1 1 d . . . . .
H17 H -0.1714 0.8954 0.4454 0.076 Uiso 1 1 calc R . . . .
C18 C 0.4307(4) 0.9429(3) 0.8009(3) 0.0541(9) Uani 1 1 d . . . . .
H18 H 0.3563 1.0120 0.7702 0.065 Uiso 1 1 calc R . . . .
C19 C 0.4705(5) 0.4510(3) 0.8108(3) 0.0636(10) Uani 1 1 d . . . . .
H19 H 0.4006 0.5144 0.7665 0.076 Uiso 1 1 calc R . . . .
C20 C 0.4832(5) 0.3445(3) 0.8138(3) 0.0610(10) Uani 1 1 d . . . . .
H20 H 0.4199 0.3364 0.7699 0.073 Uiso 1 1 calc R . . . .
C21 C -0.0078(5) 0.6668(3) 0.7541(2) 0.0554(9) Uani 1 1 d . . . . .
C22 C 0.4139(4) 0.8496(3) 0.7878(3) 0.0577(10) Uani 1 1 d . . . . .
H22 H 0.3292 0.8545 0.7489 0.069 Uiso 1 1 calc R . . . .
C23 C -0.0456(5) 0.6074(3) 0.7040(2) 0.0641(11) Uani 1 1 d . . . . .
H23 H -0.0824 0.6465 0.6399 0.077 Uiso 1 1 calc R . . . .
C24 C -0.0974(5) 0.8515(3) 0.6214(2) 0.0719(12) Uani 1 1 d . . . . .
H24A H -0.1278 0.9305 0.6156 0.086 Uiso 1 1 calc R . . . .
H24B H -0.1965 0.8284 0.6163 0.086 Uiso 1 1 calc R . . . .
C25 C 0.2683(5) 0.8169(3) 0.4715(3) 0.0657(10) Uani 1 1 d . . . . .
H25 H 0.3813 0.7956 0.4788 0.079 Uiso 1 1 calc R . . . .
C26 C 0.6585(4) 0.3664(3) 0.9396(3) 0.0493(8) Uani 1 1 d . . . . .
H26 H 0.7204 0.3712 0.9860 0.059 Uiso 1 1 calc R . . . .
C27 C 0.1738(5) 0.8157(3) 0.5486(3) 0.0725(12) Uani 1 1 d . . . . .
H27 H 0.2231 0.7937 0.6087 0.087 Uiso 1 1 calc R . . . .
loop_
_atom_site_aniso_label
_atom_site_aniso_U_11
_atom_site_aniso_U_22
_atom_site_aniso_U_33
_atom_site_aniso_U_23
_atom_site_aniso_U_13
_atom_site_aniso_U_12
Zn1 0.0442(2) 0.02328(18) 0.0391(2) -0.01579(15) 0.00888(15) -0.01273(14)
O1 0.0549(13) 0.0281(10) 0.0417(12) -0.0098(10) -0.0016(10) -0.0130(9)
O2 0.0747(16) 0.0453(13) 0.0377(13) -0.0184(11) 0.0165(11) -0.0236(11)
O3 0.0447(12) 0.0292(10) 0.0661(15) -0.0202(10) 0.0159(11) -0.0142(9)
O4 0.0627(14) 0.0381(12) 0.0405(13) -0.0065(10) 0.0015(11) -0.0088(10)
O5 0.0670(17) 0.0577(15) 0.0718(18) -0.0289(14) 0.0205(14) -0.0110(13)
N1 0.0452(14) 0.0281(13) 0.0524(16) -0.0210(12) 0.0082(12) -0.0146(11)
N2 0.0478(14) 0.0281(13) 0.0491(16) -0.0209(12) 0.0058(12) -0.0134(11)
N3 0.0646(18) 0.0293(14) 0.0659(19) -0.0275(14) 0.0084(15) -0.0148(13)
N4 0.0607(17) 0.0285(13) 0.0420(15) -0.0076(12) -0.0047(13) -0.0091(12)
N5 0.0634(18) 0.0338(15) 0.077(2) -0.0344(15) -0.0016(15) -0.0131(13)
N6 0.147(3) 0.0324(15) 0.0367(17) -0.0154(13) 0.0195(18) -0.0249(17)
C1 0.071(2) 0.0352(16) 0.0386(19) -0.0158(14) 0.0140(16) -0.0160(16)
C2 0.0465(17) 0.0246(14) 0.0395(17) -0.0236(13) 0.0093(13) -0.0143(12)
C3 0.094(3) 0.0264(15) 0.0338(19) -0.0094(14) 0.0182(18) -0.0096(17)
C4 0.071(2) 0.0397(17) 0.0339(17) -0.0135(15) 0.0050(16) -0.0120(16)
C5 0.0496(18) 0.0324(16) 0.062(2) -0.0305(16) 0.0129(16) -0.0174(14)
C6 0.0534(18) 0.0340(16) 0.0363(18) -0.0133(14) 0.0079(14) -0.0115(14)
C7 0.0429(17) 0.0354(16) 0.0383(19) -0.0093(15) 0.0016(14) -0.0089(13)
C8 0.078(3) 0.0337(17) 0.046(2) -0.0215(16) 0.0202(18) -0.0243(17)
C9 0.0464(18) 0.0339(16) 0.062(2) -0.0274(16) -0.0007(16) -0.0096(14)
C10 0.0509(18) 0.0304(15) 0.060(2) -0.0287(15) 0.0052(16) -0.0133(14)
C11 0.0485(18) 0.0316(16) 0.059(2) -0.0224(15) 0.0068(16) -0.0126(14)
C12 0.070(3) 0.078(3) 0.0355(19) -0.0210(18) 0.0101(17) -0.025(2)
C13 0.085(3) 0.0396(18) 0.0398(19) -0.0210(16) 0.0116(17) -0.0176(17)
C14 0.092(3) 0.0367(17) 0.0391(19) -0.0162(15) -0.0005(18) -0.0164(17)
C15 0.0512(18) 0.0300(15) 0.0473(19) -0.0113(14) -0.0020(15) -0.0137(13)
C16 0.0539(19) 0.0271(15) 0.067(2) -0.0250(16) -0.0032(17) -0.0058(14)
C17 0.069(2) 0.070(2) 0.047(2) -0.0196(19) 0.0168(19) -0.020(2)
C18 0.067(2) 0.0288(16) 0.071(2) -0.0249(17) -0.0123(19) -0.0041(15)
C19 0.086(3) 0.0314(17) 0.076(3) -0.0230(18) -0.016(2) -0.0099(17)
C20 0.088(3) 0.0327(18) 0.072(3) -0.0263(18) -0.019(2) -0.0137(17)
C21 0.095(3) 0.0351(17) 0.0358(19) -0.0150(15) 0.0217(18) -0.0173(17)
C22 0.069(2) 0.0408(19) 0.075(3) -0.0348(18) -0.0201(19) -0.0040(16)
C23 0.118(3) 0.0357(18) 0.0336(19) -0.0112(15) 0.0025(19) -0.0131(19)
C24 0.127(4) 0.0318(18) 0.045(2) -0.0108(16) 0.033(2) -0.011(2)
C25 0.072(3) 0.069(2) 0.045(2) -0.0186(19) 0.0005(19) -0.002(2)
C26 0.057(2) 0.0387(18) 0.064(2) -0.0304(17) 0.0025(17) -0.0146(15)
C27 0.102(3) 0.069(3) 0.032(2) -0.0147(19) 0.000(2) -0.002(2)
loop_
_atom_type_symbol
_atom_type_description
_atom_type_scat_dispersion_real
_atom_type_scat_dispersion_imag
_atom_type_scat_source
C C 0.0033 0.0016 'International Tables Vol C Tables 4.2.6.8 and 6.1.1.4'
H H 0.0000 0.0000 'International Tables Vol C Tables 4.2.6.8 and 6.1.1.4'
N N 0.0061 0.0033 'International Tables Vol C Tables 4.2.6.8 and 6.1.1.4'
O O 0.0106 0.0060 'International Tables Vol C Tables 4.2.6.8 and 6.1.1.4'
Zn Zn 0.2839 1.4301 'International Tables Vol C Tables 4.2.6.8 and 6.1.1.4'
loop_
_geom_angle_atom_site_label_1
_geom_angle_atom_site_label_2
_geom_angle_atom_site_label_3
_geom_angle
_geom_angle_site_symmetry_1
_geom_angle_site_symmetry_3
_geom_angle_publ_flag
O1 Zn1 O2 91.69(9) 2_657 2_666 ?
O1 Zn1 N1 92.49(9) 2_657 . ?
O1 Zn1 N2 99.73(8) 2_657 1_545 ?
O2 Zn1 N1 94.38(9) 2_666 . ?
O2 Zn1 N2 88.36(9) 2_666 1_545 ?
O3 Zn1 O1 120.48(9) . 2_657 ?
O3 Zn1 O2 147.82(10) . 2_666 ?
O3 Zn1 N1 83.97(8) . . ?
O3 Zn1 N2 87.17(8) . 1_545 ?
N1 Zn1 N2 167.40(9) . 1_545 ?
C2 O1 Zn1 137.53(18) . 2_657 ?
C8 O2 Zn1 103.3(2) . 2_666 ?
C2 O3 Zn1 137.56(19) . . ?
C11 N1 Zn1 121.4(2) . . ?
C11 N1 C20 117.2(3) . . ?
C20 N1 Zn1 121.4(2) . . ?
C9 N2 Zn1 118.53(19) . 1_565 ?
C9 N2 C18 116.8(3) . . ?
C18 N2 Zn1 124.6(2) . 1_565 ?
N5 N3 C5 115.9(3) . . ?
C7 N4 H4 120.5 . . ?
C7 N4 C15 118.9(3) . . ?
C15 N4 H4 120.5 . . ?
N3 N5 C10 111.2(3) . . ?
C21 N6 H6 118.7 . . ?
C21 N6 C24 122.6(3) . . ?
C24 N6 H6 118.7 . . ?
C12 C1 C8 121.6(3) . . ?
C12 C1 C25 118.4(3) . . ?
C25 C1 C8 120.0(3) . . ?
O1 C2 C15 116.7(2) . . ?
O3 C2 O1 126.8(3) . . ?
O3 C2 C15 116.5(3) . . ?
C17 C3 C24 119.1(4) . . ?
C17 C3 C27 118.1(3) . . ?
C27 C3 C24 122.8(3) . . ?
C6 C4 H4A 119.1 . . ?
C13 C4 H4A 119.1 . . ?
C13 C4 C6 121.7(3) . . ?
C19 C5 N3 126.4(3) . . ?
C19 C5 C26 118.9(3) . . ?
C26 C5 N3 114.7(3) . . ?
C4 C6 C7 118.2(3) . . ?
C14 C6 C4 117.7(3) . . ?
C14 C6 C7 124.0(3) . . ?
O4 C7 N4 120.7(3) . . ?
O4 C7 C6 120.3(3) . . ?
N4 C7 C6 119.0(3) . . ?
O2 C8 C1 116.9(3) . . ?
O5 C8 O2 121.9(3) . . ?
O5 C8 C1 121.1(3) . . ?
N2 C9 H9 117.8 . . ?
N2 C9 C16 124.4(3) . . ?
C16 C9 H9 117.8 . . ?
C16 C10 N5 122.5(3) . . ?
C22 C10 N5 118.9(3) . . ?
C22 C10 C16 118.6(3) . . ?
N1 C11 H11 118.3 . . ?
N1 C11 C26 123.5(3) . . ?
C26 C11 H11 118.3 . . ?
C1 C12 H12 119.1 . . ?
C1 C12 C17 121.8(3) . . ?
C17 C12 H12 119.1 . . ?
C4 C13 H13 119.6 . . ?
C4 C13 C21 120.8(3) . . ?
C21 C13 H13 119.6 . . ?
C6 C14 H14 119.3 . . ?
C6 C14 C23 121.5(3) . . ?
C23 C14 H14 119.3 . . ?
N4 C15 C2 111.6(2) . . ?
N4 C15 H15A 109.3 . . ?
N4 C15 H15B 109.3 . . ?
C2 C15 H15A 109.3 . . ?
C2 C15 H15B 109.3 . . ?
H15A C15 H15B 108.0 . . ?
C9 C16 C10 118.2(3) . . ?
C9 C16 H16 120.9 . . ?
C10 C16 H16 120.9 . . ?
C3 C17 C12 120.5(4) . . ?
C3 C17 H17 119.7 . . ?
C12 C17 H17 119.7 . . ?
N2 C18 H18 118.6 . . ?
N2 C18 C22 122.8(3) . . ?
C22 C18 H18 118.6 . . ?
C5 C19 H19 121.3 . . ?
C20 C19 C5 117.4(3) . . ?
C20 C19 H19 121.3 . . ?
N1 C20 C19 124.3(3) . . ?
N1 C20 H20 117.9 . . ?
C19 C20 H20 117.9 . . ?
N6 C21 C13 119.6(3) . . ?
N6 C21 C23 122.5(3) . . ?
C13 C21 C23 117.9(3) . . ?
C10 C22 C18 119.2(3) . . ?
C10 C22 H22 120.4 . . ?
C18 C22 H22 120.4 . . ?
C14 C23 C21 120.4(3) . . ?
C14 C23 H23 119.8 . . ?
C21 C23 H23 119.8 . . ?
N6 C24 C3 113.7(3) . . ?
N6 C24 H24A 108.8 . . ?
N6 C24 H24B 108.8 . . ?
C3 C24 H24A 108.8 . . ?
C3 C24 H24B 108.8 . . ?
H24A C24 H24B 107.7 . . ?
C1 C25 H25 120.1 . . ?
C27 C25 C1 119.9(4) . . ?
C27 C25 H25 120.1 . . ?
C5 C26 H26 120.7 . . ?
C11 C26 C5 118.7(3) . . ?
C11 C26 H26 120.7 . . ?
C3 C27 C25 121.3(3) . . ?
C3 C27 H27 119.4 . . ?
C25 C27 H27 119.4 . . ?
loop_
_geom_bond_atom_site_label_1
_geom_bond_atom_site_label_2
_geom_bond_distance
_geom_bond_site_symmetry_2
_geom_bond_publ_flag
Zn1 O1 2.021(2) 2_657 ?
Zn1 O2 2.046(2) 2_666 ?
Zn1 O3 2.002(2) . ?
Zn1 N1 2.160(2) . ?
Zn1 N2 2.210(2) 1_545 ?
O1 Zn1 2.021(2) 2_657 ?
O1 C2 1.258(3) . ?
O2 Zn1 2.046(2) 2_666 ?
O2 C8 1.273(4) . ?
O3 C2 1.237(3) . ?
O4 C7 1.236(3) . ?
O5 C8 1.243(4) . ?
N1 C11 1.313(4) . ?
N1 C20 1.333(4) . ?
N2 Zn1 2.210(2) 1_565 ?
N2 C9 1.324(4) . ?
N2 C18 1.336(4) . ?
N3 N5 1.231(4) . ?
N3 C5 1.426(4) . ?
N4 H4 0.8800 . ?
N4 C7 1.333(4) . ?
N4 C15 1.452(3) . ?
N5 C10 1.445(4) . ?
N6 H6 0.8800 . ?
N6 C21 1.371(4) . ?
N6 C24 1.452(5) . ?
C1 C8 1.500(4) . ?
C1 C12 1.354(5) . ?
C1 C25 1.387(5) . ?
C2 C15 1.513(4) . ?
C3 C17 1.368(5) . ?
C3 C24 1.514(5) . ?
C3 C27 1.379(5) . ?
C4 H4A 0.9500 . ?
C4 C6 1.385(4) . ?
C4 C13 1.375(4) . ?
C5 C19 1.380(5) . ?
C5 C26 1.380(4) . ?
C6 C7 1.476(4) . ?
C6 C14 1.376(4) . ?
C9 H9 0.9500 . ?
C9 C16 1.368(4) . ?
C10 C16 1.374(4) . ?
C10 C22 1.372(4) . ?
C11 H11 0.9500 . ?
C11 C26 1.375(4) . ?
C12 H12 0.9500 . ?
C12 C17 1.382(5) . ?
C13 H13 0.9500 . ?
C13 C21 1.384(5) . ?
C14 H14 0.9500 . ?
C14 C23 1.384(4) . ?
C15 H15A 0.9900 . ?
C15 H15B 0.9900 . ?
C16 H16 0.9500 . ?
C17 H17 0.9500 . ?
C18 H18 0.9500 . ?
C18 C22 1.374(4) . ?
C19 H19 0.9500 . ?
C19 C20 1.377(4) . ?
C20 H20 0.9500 . ?
C21 C23 1.401(5) . ?
C22 H22 0.9500 . ?
C23 H23 0.9500 . ?
C24 H24A 0.9900 . ?
C24 H24B 0.9900 . ?
C25 H25 0.9500 . ?
C25 C27 1.384(5) . ?
C26 H26 0.9500 . ?
C27 H27 0.9500 . ?
loop_
_smtbx_masks_void_nr
_smtbx_masks_void_average_x
_smtbx_masks_void_average_y
_smtbx_masks_void_average_z
_smtbx_masks_void_volume
_smtbx_masks_void_count_electrons
_smtbx_masks_void_content
1 -0.067 0.095 0.144 14.1 8.5 ?
2 0.067 -0.095 0.856 14.1 8.8 ?
3 0.021 -0.420 0.500 372.0 119.7 ?
