#------------------------------------------------------------------------------
#$Date: 2021-11-03 22:01:22 +0200 (Wed, 03 Nov 2021) $
#$Revision: 270224 $
#$URL: file:///home/coder/svn-repositories/cod/cif/4/51/90/4519084.cif $
#------------------------------------------------------------------------------
#
# This file is available in the Crystallography Open Database (COD),
# http://www.crystallography.net/
#
# All data on this site have been placed in the public domain by the
# contributors.
#
data_4519084
loop_
_publ_author_name
'Wang, Lu'
'Wang, Kecheng'
'An, Hao-Tian'
'Huang, Hongliang'
'Xie, Lin-Hua'
'Li, Jian-Rong'
_publ_section_title
;
 A Hydrolytically Stable Cu(II)-Based Metal-Organic Framework with Easily
 Accessible Ligands for Water Harvesting.
;
_journal_issue                   41
_journal_name_full               'ACS applied materials &amp; interfaces'
_journal_page_first              49509
_journal_page_last               49518
_journal_paper_doi               10.1021/acsami.1c15240
_journal_volume                  13
_journal_year                    2021
_chemical_formula_moiety         '0.13(C112 H96 Cu16 N80 O32), C4 H9 N O'
_chemical_formula_sum            'C18 H21 Cu2 N11 O5'
_chemical_formula_weight         598.54
_space_group_crystal_system      tetragonal
_space_group_IT_number           88
_space_group_name_Hall           '-I 4ad'
_space_group_name_H-M_alt        'I 41/a :2'
_atom_sites_solution_hydrogens   geom
_atom_sites_solution_primary     direct
_audit_creation_date             2020-03-17
_audit_creation_method
;
Olex2 1.2
(compiled 2018.05.29 svn.r3508 for OlexSys, GUI svn.r5506)
;
_cell_angle_alpha                90
_cell_angle_beta                 90
_cell_angle_gamma                90
_cell_formula_units_Z            8
_cell_length_a                   15.7354(3)
_cell_length_b                   15.7354(3)
_cell_length_c                   22.5970(6)
_cell_measurement_reflns_used    1511
_cell_measurement_temperature    265.94(12)
_cell_measurement_theta_max      71.8150
_cell_measurement_theta_min      5.5610
_cell_volume                     5595.1(2)
_computing_cell_refinement       'CrysAlisPro 1.171.40.53 (Rigaku OD, 2019)'
_computing_data_collection       'CrysAlisPro 1.171.40.53 (Rigaku OD, 2019)'
_computing_data_reduction        'CrysAlisPro 1.171.40.53 (Rigaku OD, 2019)'
_computing_molecular_graphics    'Olex2 (Dolomanov et al., 2009)'
_computing_publication_material  'Olex2 (Dolomanov et al., 2009)'
_computing_structure_refinement  'ShelXL (Sheldrick, 2015)'
_computing_structure_solution    'ShelXT (Sheldrick, 2015)'
_diffrn_ambient_environment      N~2~
_diffrn_ambient_temperature      265.94(12)
_diffrn_detector                 'CCD plate'
_diffrn_detector_area_resol_mean 10.3376
_diffrn_detector_type            AtlasS2
_diffrn_measured_fraction_theta_full 0.992
_diffrn_measured_fraction_theta_max 0.972
_diffrn_measurement_details
;
List of Runs (angles in degrees, time in seconds):

  # Type    Start    End  Width  t~exp~   \w     \q     \k     \f   Frames
--------------------------------------------------------------------------
  1  \w    -83.00  38.00   1.00    7.50    --  -42.06  19.00-150.00  121
  2  \w     20.00 110.00   1.00   15.00    --  103.05 -94.00 120.00   90
  3  \w     94.00 176.00   1.00   15.00    --  103.05 125.00  90.00   82
  4  \w     21.00 156.00   1.00   15.00    --  103.05 -15.00  90.00  135
;
_diffrn_measurement_device       'four-circle diffractometer'
_diffrn_measurement_device_type  'SuperNova, Dual, Cu at home/near, AtlasS2'
_diffrn_measurement_method       '\w scans'
_diffrn_orient_matrix_type
'CrysAlisPro convention (1999,Acta A55,543-557)'
_diffrn_orient_matrix_UB_11      -0.0407173000
_diffrn_orient_matrix_UB_12      -0.0626061000
_diffrn_orient_matrix_UB_13      0.0440940000
_diffrn_orient_matrix_UB_21      0.0750131000
_diffrn_orient_matrix_UB_22      -0.0616038000
_diffrn_orient_matrix_UB_23      -0.0088223000
_diffrn_orient_matrix_UB_31      0.0479824000
_diffrn_orient_matrix_UB_32      0.0432145000
_diffrn_orient_matrix_UB_33      0.0512484000
_diffrn_radiation_monochromator  mirror
_diffrn_radiation_probe          x-ray
_diffrn_radiation_type           CuK\a
_diffrn_radiation_wavelength     1.54184
_diffrn_reflns_av_R_equivalents  0.0648
_diffrn_reflns_av_unetI/netI     0.0631
_diffrn_reflns_Laue_measured_fraction_full 0.992
_diffrn_reflns_Laue_measured_fraction_max 0.972
_diffrn_reflns_limit_h_max       19
_diffrn_reflns_limit_h_min       -18
_diffrn_reflns_limit_k_max       19
_diffrn_reflns_limit_k_min       -13
_diffrn_reflns_limit_l_max       27
_diffrn_reflns_limit_l_min       -19
_diffrn_reflns_number            7755
_diffrn_reflns_point_group_measured_fraction_full 0.992
_diffrn_reflns_point_group_measured_fraction_max 0.972
_diffrn_reflns_theta_full        67.684
_diffrn_reflns_theta_max         72.440
_diffrn_reflns_theta_min         3.423
_diffrn_source                   'micro-focus sealed X-ray tube'
_diffrn_source_type              'SuperNova (Cu) X-ray Source'
_exptl_absorpt_coefficient_mu    2.287
_exptl_absorpt_correction_T_max  1.00000
_exptl_absorpt_correction_T_min  0.83995
_exptl_absorpt_correction_type   multi-scan
_exptl_absorpt_process_details
;
CrysAlisPro 1.171.40.53 (Rigaku Oxford Diffraction, 2019)
Empirical absorption correction using spherical harmonics,
 implemented in SCALE3 ABSPACK scaling algorithm.
;
_exptl_crystal_colour            colourless
_exptl_crystal_colour_primary    colourless
_exptl_crystal_density_diffrn    1.421
_exptl_crystal_description       block
_exptl_crystal_F_000             2432
_exptl_crystal_size_max          0.04
_exptl_crystal_size_mid          0.03
_exptl_crystal_size_min          0.03
_refine_diff_density_max         1.236
_refine_diff_density_min         -0.453
_refine_diff_density_rms         0.127
_refine_ls_extinction_method     none
_refine_ls_goodness_of_fit_ref   1.084
_refine_ls_hydrogen_treatment    constr
_refine_ls_matrix_type           full
_refine_ls_number_parameters     229
_refine_ls_number_reflns         2703
_refine_ls_number_restraints     198
_refine_ls_restrained_S_all      1.094
_refine_ls_R_factor_all          0.0937
_refine_ls_R_factor_gt           0.0665
_refine_ls_shift/su_max          0.001
_refine_ls_shift/su_mean         0.000
_refine_ls_structure_factor_coef Fsqd
_refine_ls_weighting_details
'w=1/[\s^2^(Fo^2^)+(0.1065P)^2^+8.4564P] where P=(Fo^2^+2Fc^2^)/3'
_refine_ls_weighting_scheme      calc
_refine_ls_wR_factor_gt          0.1762
_refine_ls_wR_factor_ref         0.1980
_reflns_Friedel_coverage         0.000
_reflns_number_gt                1948
_reflns_number_total             2703
_reflns_threshold_expression     'I > 2\s(I)'
_cod_data_source_file            am1c15240_si_002.cif
_cod_data_source_block           BUT-205a
_cod_original_cell_volume        5595.1(3)
_cod_original_sg_symbol_H-M      'I 41/a'
_cod_database_code               4519084
_shelx_shelxl_version_number     2018/3
_chemical_oxdiff_formula         'C H O N Cu'
_shelx_space_group_comment
;
The symmetry employed for this shelxl refinement is uniquely defined
by the following loop, which should always be used as a source of
symmetry information in preference to the above space-group names.
They are only intended as comments.
;
_shelx_estimated_absorpt_t_max   0.935
_shelx_estimated_absorpt_t_min   0.914
_reflns_odcompleteness_completeness 99.02
_reflns_odcompleteness_iscentric 1
_reflns_odcompleteness_theta     66.49
_olex2_refinement_description
;
1. Fixed Uiso
 At 1.2 times of:
  All C(H) groups, All C(H,H) groups, All N(H,H) groups
 At 1.5 times of:
  All C(H,H,H) groups
2. Uiso/Uaniso restraints and constraints
Uanis(C8) \\sim Ueq, Uanis(O3) \\sim Ueq, Uanis(N6) \\sim Ueq, Uanis(C9) \\sim
Ueq, Uanis(C10) \\sim Ueq, Uanis(C11) \\sim Ueq: with sigma of 0.01 and sigma
for terminal atoms of 0.02
Uanis(N3) \\sim Ueq, Uanis(N4) \\sim Ueq, Uanis(C4) \\sim Ueq, Uanis(C5) \\sim
Ueq, Uanis(N4A) \\sim Ueq, Uanis(C5A) \\sim Ueq, Uanis(N3A) \\sim Ueq,
Uanis(C4A) \\sim Ueq: with sigma of 0.01 and sigma for terminal atoms of 0.02
3. Rigid body (RIGU) restrains
 N2, N3, N4, C4, C5, N4A, C5A, N3A, C4A, C3, C6
 with sigma for 1-2 distances of 0.004 and sigma for 1-3 distances of 0.004
 C8, O3, N6, C9, C10, C11
 with sigma for 1-2 distances of 0.004 and sigma for 1-3 distances of 0.004
4. Others
 Fixed Sof: N3(0.5) N4(0.5) H4A(0.5) H4B(0.5) C4(0.5) H4(0.5) C5(0.5) O3(0.5)
 N6(0.5) C10(0.5) H10A(0.5) H10B(0.5) H10C(0.5) C8(0.5) C11(0.5) H11A(0.5)
 H11B(0.5) H11C(0.5) C9(0.5) H9A(0.5) H9B(0.5) H9C(0.5) N4A(0.5) H4AA(0.5)
 H4AB(0.5) C5A(0.5) N3A(0.5) C4A(0.5) H4AC(0.5)
5.a Secondary CH2 refined with riding coordinates:
 C2(H2A,H2B)
5.b Aromatic/amide H refined with riding coordinates:
 C4(H4), C7(H7), C4A(H4AC)
5.c X=CH2 refined with riding coordinates:
 N4(H4A,H4B), N4A(H4AA,H4AB)
5.d Idealised Me refined as rotating group:
 C10(H10A,H10B,H10C), C11(H11A,H11B,H11C), C9(H9A,H9B,H9C)
;
_shelx_res_file
;
TITL wl-2019062I 41/a R = 0.11
    wl-20190624-a4.res
    created by SHELXL-2018/3 at 11:15:19 on 17-Mar-2020
CELL 1.54184 15.7354 15.7354 22.597 90 90 90
ZERR 8 0.0003 0.0003 0.0006 0 0 0
LATT 2
SYMM 0.5-X,-Y,0.5+Z
SYMM 0.75-Y,0.25+X,0.25+Z
SYMM 0.75+Y,0.75-X,0.75+Z
SFAC C H Cu N O
UNIT 144 168 16 88 40
RIGU N2 N3 N4 C4 C5 N4A C5A N3A C4A C3 C6
RIGU C8 O3 N6 C9 C10 C11
ISOR 0.01 0.02 C8 O3 N6 C9 C10 C11
ISOR 0.01 0.02 N3 N4 C4 C5 N4A C5A N3A C4A

L.S. 5
PLAN  -20
SIZE 0.03 0.03 0.04
TEMP -7
CONF
fmap 2
acta
bond $h
OMIT 2 2 2
REM <olex2.extras>
REM <HklSrc "%.\\WL-20190624-A4.hkl">
REM </olex2.extras>

WGHT    0.106500    8.456399
FVAR       0.23685
CU1   3    0.776735    0.205877    0.697176    11.00000    0.02898    0.03207 =
         0.02978   -0.00388    0.00971   -0.00548
O1    5    0.876972    0.181122    0.749509    11.00000    0.04129    0.05306 =
         0.04042    0.00448    0.00208    0.01243
O2    5    0.838002    0.253092    0.829377    11.00000    0.02405    0.08292 =
         0.05477   -0.01692   -0.00074    0.00750
N1    4    0.825897    0.319372    0.679504    11.00000    0.02860    0.03415 =
         0.02765    0.00634    0.00759   -0.00309
N2    4    0.782724    0.394840    0.767697    11.00000    0.07915    0.03914 =
         0.05485   -0.01193    0.03062   -0.02385
PART 1
N3    4    0.850044    0.529543    0.775973    10.50000    0.07658    0.05437 =
         0.05654   -0.01994    0.02148   -0.02400
N4    4    0.925263    0.593824    0.694861    10.50000    0.12616    0.06266 =
         0.08532   -0.01103    0.02543   -0.05591
AFIX  93
H4A   2    0.933344    0.639408    0.715089    10.50000   -1.20000
H4B   2    0.944391    0.590212    0.659299    10.50000   -1.20000
AFIX   0
PART 0
N5    4    0.892534    0.425959    0.630736    11.00000    0.04208    0.03866 =
         0.03021    0.00865    0.01702    0.00169
C1    1    0.890632    0.212983    0.798996    11.00000    0.02881    0.04165 =
         0.03942    0.01041    0.00277   -0.00340
C2    1    0.978765    0.205945    0.824789    11.00000    0.02644    0.06168 =
         0.06673    0.01231   -0.00313    0.00263
AFIX  23
H2A   2    1.012382    0.166580    0.801481    11.00000   -1.20000
H2B   2    0.975505    0.184355    0.864932    11.00000   -1.20000
AFIX   0
C3    1    0.821467    0.388258    0.713724    11.00000    0.03821    0.03607 =
         0.04449    0.00144    0.01170   -0.00789
PART 1
C4    1    0.808075    0.462819    0.797272    10.50000    0.06152    0.05204 =
         0.04771   -0.01035    0.01518   -0.01673
AFIX  43
H4    2    0.795119    0.464114    0.837417    10.50000   -1.20000
AFIX   0
C5    1    0.882516    0.527887    0.718951    10.50000    0.06519    0.05001 =
         0.05450   -0.00755    0.01549   -0.01813
PART 0
C6    1    0.863001    0.453545    0.684066    11.00000    0.06738    0.04164 =
         0.04545   -0.00090    0.02013   -0.00957
C7    1    0.869072    0.345239    0.631120    11.00000    0.03816    0.03514 =
         0.03150    0.00626    0.00737   -0.00231
AFIX  43
H7    2    0.881535    0.308605    0.600012    11.00000   -1.20000
AFIX   0
O3    5    0.874173    0.781197    0.716878    10.50000    0.25068    0.05524 =
         0.11588   -0.00190    0.09451   -0.01016
N6    4    0.879389    0.901398    0.771831    10.50000    0.10359    0.07451 =
         0.09596   -0.00405    0.03125    0.00771
C10   1    0.863477    0.955494    0.823122    10.50000    0.09947    0.06137 =
         0.09003   -0.00099    0.00958    0.01499
AFIX 137
H10A  2    0.814054    0.989767    0.815993    10.50000   -1.50000
H10B  2    0.911694    0.991653    0.829717    10.50000   -1.50000
H10C  2    0.854218    0.920640    0.857389    10.50000   -1.50000
AFIX   0
C8    1    0.866813    0.824091    0.766956    10.50000    0.11565    0.07911 =
         0.10200   -0.00458    0.03352   -0.00329
C11   1    0.916018    0.942312    0.720525    10.50000    0.16586    0.09655 =
         0.13102    0.01291    0.06799   -0.00774
AFIX 137
H11A  2    0.908774    1.002716    0.723712    10.50000   -1.50000
H11B  2    0.888092    0.922242    0.685434    10.50000   -1.50000
H11C  2    0.975508    0.929142    0.718365    10.50000   -1.50000
AFIX   0
C9    1    0.812362    0.777845    0.814926    10.50000    0.20534    0.11593 =
         0.13575    0.01749    0.07798   -0.01169
AFIX 137
H9A   2    0.759103    0.760691    0.797994    10.50000   -1.50000
H9B   2    0.802130    0.815778    0.847428    10.50000   -1.50000
H9C   2    0.842380    0.728637    0.828846    10.50000   -1.50000
AFIX   0
PART 2
N4A   4    0.874500    0.607189    0.678722    10.50000    0.10207    0.03477 =
         0.08379   -0.00363    0.04892   -0.01242
AFIX  93
H4AA  2    0.871085    0.655528    0.696322    10.50000   -1.20000
H4AB  2    0.898035    0.603681    0.644460    10.50000   -1.20000
AFIX   0
C5A   1    0.843676    0.538507    0.704250    10.50000    0.06210    0.04145 =
         0.05227    0.00039    0.02081   -0.00489
N3A   4    0.806834    0.546186    0.758461    10.50000    0.07927    0.03911 =
         0.06404   -0.00739    0.03575   -0.00665
C4A   1    0.769647    0.478381    0.783856    10.50000    0.06905    0.03717 =
         0.06249   -0.00199    0.02438   -0.00216
AFIX  43
H4AC  2    0.732078    0.488654    0.814811    10.50000   -1.20000
AFIX   0
HKLF 4




REM  wl-2019062I 41/a R = 0.11
REM wR2 = 0.1980, GooF = S = 1.084, Restrained GooF = 1.094 for all data
REM R1 = 0.0665 for 1948 Fo > 4sig(Fo) and 0.0937 for all 2703 data
REM 229 parameters refined using 198 restraints

END

WGHT      0.1065      8.4562

REM Highest difference peak  1.236,  deepest hole -0.453,  1-sigma level  0.127
Q1    1   0.5000  0.7500  0.7393  10.50000  0.05    1.24
Q2    1   0.5579  0.7329  0.7513  11.00000  0.05    0.69
Q3    1   0.5198  0.7536  0.6910  11.00000  0.05    0.51
Q4    1   0.6927  0.7100  0.7977  11.00000  0.05    0.48
Q5    1   0.8286  0.1886  0.7221  11.00000  0.05    0.48
Q6    1   0.6773  0.6865  0.7521  11.00000  0.05    0.47
Q7    1   0.8619  0.7782  0.8170  11.00000  0.05    0.46
Q8    1   0.7672  0.5481  0.7378  11.00000  0.05    0.46
Q9    1   0.5709  0.7114  0.6586  11.00000  0.05    0.44
Q10   1   0.8593  0.9400  0.7032  11.00000  0.05    0.42
Q11   1   0.5000  0.7500  0.6570  10.50000  0.05    0.42
Q12   1   0.5810  0.6095  0.7125  11.00000  0.05    0.41
Q13   1   0.8823  0.8582  0.8042  11.00000  0.05    0.41
Q14   1   0.6758  0.5742  0.6803  11.00000  0.05    0.40
Q15   1   0.8439  0.9014  0.7548  11.00000  0.05    0.38
Q16   1   0.7389  0.7849  0.7811  11.00000  0.05    0.38
Q17   1   0.7500  0.2500  0.7500  10.50000  0.05    0.30
Q18   1   1.0000  0.2500  0.8577  10.50000  0.05    0.29
Q19   1   0.9080  0.1725  0.7279  11.00000  0.05    0.29
Q20   1   0.8798  0.9911  0.8710  11.00000  0.05    0.29
;
_shelx_res_checksum              27888
_shelx_hkl_file
;
   0   0  -4 9371.73   69.05
   0   0  -6   -7.67    5.73
   0   0  -8 8516.27   92.50
   0   0 -10   -0.57    6.35
   0   0  16 2170.98   74.41
   0   0  18  -11.17   12.22
   0   0  20  287.96   31.65
   0   0  22  -12.08   13.86
   0   0  24   59.14   16.79
   0   0  26   -4.14    7.96
   1   0  -1 6127.86   48.99
   0  -1  -3  254.41    7.09
   1   0  -3  256.35   13.39
   0  -1  -5  702.72   16.45
   1   0  -5  721.68   25.69
   0  -1  -7 1339.78   28.05
   1   0  -7 1412.85   39.60
  -1   0  -9  376.37   19.65
   0   1  -9  352.40   24.41
   1   0  -9  361.02   23.11
   0  -1  -9  346.83   16.67
   1   0 -11  815.34   37.18
   0   1 -11  769.50   37.39
  -1   0  15  769.34   43.89
   0   1  15  832.03   44.93
  -1   0  17  314.87   31.41
   0  -1  17  289.06   28.88
   0   1  17  356.84   32.14
   1   0  17  343.59   32.47
   0   1  19  150.95   23.51
  -1   0  19  164.09   24.80
   0  -1  19  161.56   23.63
   1   0  19  147.94   22.92
   0   1  21  142.74   24.50
   1   0  21  101.35   19.91
  -1   0  21   77.36   18.97
   0  -1  21  122.22   20.85
  -1   0  23   39.48   12.74
   0   1  23   34.98   16.86
   0  -1  23   45.00   16.89
   1   0  23   28.55   14.88
   1   0  25  -18.35   10.66
   0   1  25   -6.96   12.08
   0  -1  25   14.95   11.10
  -1   0  25   -2.90    9.94
   1   0  27    7.54    5.49
   0   1  27   13.37    6.75
  -1   0  27    5.83    5.99
   1  -1   0    2.10    3.82
   1   1   0   -1.73    3.32
   1  -1  -2   79.99    7.24
   1   1  -2   81.62    8.91
   1   1   2   84.45    4.30
   1   1  -4  272.94   17.35
   1  -1  -4  274.26   13.91
  -1  -1  -6  441.48   10.03
   1  -1  -6  470.15   20.10
   1   1  -6  507.48   25.79
   1   1  -8 1102.89   41.40
   1  -1  -8 1160.28   34.41
   1   1 -10  301.65   24.46
   1  -1 -10  325.16   20.71
  -1   1 -10  322.16   22.77
   1   1 -12   67.55   14.12
   1  -1  16   16.06   10.35
  -1  -1  16    8.06   10.95
   1   1  16   14.46   12.08
  -1   1  16   13.07    9.86
  -1  -1  18    2.54   10.74
   1  -1  18   25.05   12.10
  -1   1  18    7.67   12.85
   1   1  18   -7.27   14.73
   1   1  20   -8.54   16.16
  -1   1  20   15.53   11.97
   1  -1  20   -8.05   11.49
  -1  -1  20  -20.70   11.88
   1  -1  22  -11.44   11.89
  -1  -1  22    5.57   13.64
  -1   1  22   -7.75   12.95
   1   1  22   -3.09   12.70
  -1  -1  24  180.17   30.27
   1   1  24  175.39   23.46
  -1   1  24  194.36   25.65
   1  -1  24  169.99   22.08
   1  -1  26    3.45    7.29
  -1  -1  26   14.60    8.06
   1   1  26   -0.33    8.89
  -1   1  26   12.10    9.33
   2  -1   1 8234.64   79.40
   2  -1  -1 8249.93   79.60
   2  -1  -3   89.68   10.92
   1   2   3   95.49    5.36
   2  -1   3   64.09    9.46
   2  -1  -5  723.02   27.85
   2  -1  -7 2120.12   51.77
   1   2  -7 2159.46   60.43
   1   2  -9 1513.12   55.89
   2  -1  -9 1552.14   48.67
   1   2 -11  438.70   33.07
   2  -1 -11  447.04   28.25
   1   2 -13  516.40   38.44
  -2   1  15   58.95   15.41
   1   2  15   52.13   12.79
   1   2  17  118.20   20.89
  -2   1  17  136.84   22.18
  -1  -2  17  109.68   19.00
   2  -1  17   97.91   17.86
  -2   1  19   81.12   19.10
   2  -1  19  105.25   19.76
   1   2  19   89.10   19.00
  -1  -2  19   88.11   19.80
   1   2  21   21.83   14.91
  -1  -2  21   32.49   13.31
  -2   1  21   38.01   16.94
   2  -1  21   41.87   13.51
  -1  -2  23   72.06   17.78
   2  -1  23   93.61   18.45
   1   2  23  110.70   21.90
  -2   1  23  128.29   22.47
   2  -1  25   20.44    9.26
  -2   1  25   21.89   12.29
   1   2  25   20.82   13.46
  -1  -2  25   19.92   10.45
   1   2  27   19.41    8.64
  -2   1  27   43.47    9.35
   2   0   0  371.61   16.03
   2   0  -2 9974.43   88.00
   2   0   2 9988.91   76.98
   2   0   4  933.90   24.48
   2   0  -4  922.96   31.09
   0  -2  -4  910.68   16.37
   0  -2  -6 1585.20   19.52
   2   0  -6 1691.37   45.89
   2   0  -8    7.17    9.67
   2   0 -10 2922.29   73.26
   0   2 -10 2946.77   78.22
   2   0 -12  288.44   25.60
   0   2 -12  305.07   28.24
   0  -2  16   48.22   14.40
   2   0  16   27.47   12.67
   0   2  16   26.65   11.23
  -2   0  16   22.95   11.08
   0   2  18  900.94   52.09
   2   0  18  895.09   51.50
  -2   0  18  885.17   51.59
   0  -2  18  851.83   49.66
   2   0  20   -6.21   14.57
  -2   0  20   -6.64   15.82
   0   2  20   -6.45   12.69
   0  -2  20    8.51   10.97
   0   2  22  183.08   27.09
  -2   0  22  204.85   27.55
   2   0  22  187.66   25.50
   0  -2  22  167.52   24.79
   0  -2  24   -6.57   10.42
  -2   0  24   16.97   11.30
   0   2  24   -7.93   12.95
   2   0  24   -4.35   18.88
  -2   0  26   68.51   13.00
   2   0  26   70.02   12.75
   0   2  26   71.76   14.53
   1  -2  -1 1493.49   32.06
   2   1  -1 1543.92   35.25
   2   1   1 1528.66   30.30
   2   1   3  512.91   15.52
   1  -2  -3  508.03   18.95
   2   1  -3  516.24   24.04
   2   1  -5   -6.91   10.02
   1  -2  -5    5.53    5.40
   2   1  -7  101.67   15.03
   1  -2  -7  113.33   10.46
   2   1  -9 1763.09   58.26
   1  -2  -9 1657.29   38.58
   2   1 -11  241.73   24.20
  -1   2 -11  248.45   24.59
   2   1 -13   17.28   11.49
   2   1  15   -1.95    8.96
  -2  -1  15   15.24   11.52
  -1   2  15   18.01   11.74
   1  -2  17  299.82   29.01
  -1   2  17  295.22   28.86
  -2  -1  17  338.21   32.10
   2   1  17  325.46   31.01
  -2  -1  19  226.02   27.81
   2   1  19  222.05   28.46
  -1   2  19  231.09   28.33
   1  -2  19  216.68   26.11
  -2  -1  21   56.77   15.87
   2   1  21   63.92   17.28
  -1   2  21   51.61   16.54
   1  -2  21   50.64   16.86
  -2  -1  23  308.22   31.03
  -1   2  23  371.63   33.60
   1  -2  23  321.63   29.60
   2   1  23  293.86   31.52
  -1   2  25  176.97   22.18
   2   1  25  160.92   21.08
  -2  -1  25  157.81   20.05
   2   1  27   31.40    8.74
  -1   2  27   43.03   10.35
   2  -2   0 2309.59   47.33
   2   2   0 2303.17   45.22
   2  -2   2  351.68   20.38
   2  -2  -2  334.13   19.06
   2   2   2  366.24   15.65
   2   2  -2  353.31   21.21
   2   2  -4   28.61   10.74
   2   2   4   36.60    4.15
   2  -2  -4   38.66   10.06
   2  -2  -6  134.71   14.36
   2   2  -6  135.00   17.62
   2  -2  -8 3561.40   69.08
   2   2  -8 3755.74   87.13
   2  -2 -10   14.06    8.08
   2   2 -10   17.42   13.00
   2   2 -12  857.55   49.26
   2  -2  16  390.14   31.86
  -2   2  16  473.99   36.28
  -2  -2  16  441.85   34.42
   2   2  16  427.23   33.94
   2   2  18  103.64   21.59
  -2  -2  18  131.73   22.37
  -2   2  18  103.03   19.46
   2  -2  18   90.53   19.12
  -2  -2  20  470.27   38.89
   2  -2  20  397.76   34.20
   2   2  20  484.11   40.91
  -2   2  20  459.08   39.34
   2  -2  22  252.81   27.38
  -2  -2  22  255.04   29.00
   2   2  22  248.05   29.67
  -2   2  22  319.74   32.97
  -2  -2  24    3.13    9.40
   2   2  24   26.69   14.78
   2  -2  24    9.37    9.55
  -2   2  24   -7.37   13.76
  -2   2  26   17.42    9.13
   2   2  26   20.20    9.57
  -2  -2  26   13.43    8.00
   3  -2   1 4584.44   75.83
   3  -2  -1 4539.19   75.25
   2   3   1 4571.18   67.37
   2   3  -1 4664.27   76.37
   3  -2  -3   -3.51    9.28
   3  -2   3    4.36    8.86
   2   3  -3   -1.44   11.63
   2   3   3   -5.59    5.93
   3  -2  -5 2182.08   55.88
   2   3  -5 2146.87   62.63
   3  -2  -7 1038.80   41.33
   2   3  -7 1157.96   50.70
   3  -2  -9   -1.54    9.30
   2   3  -9    6.08   11.95
   2   3 -11  290.60   30.62
   3  -2 -11  240.05   22.89
   2   3 -13  375.11   36.14
  -2  -3  15  759.78   43.26
  -3   2  15  833.36   46.29
   2   3  15  802.47   45.52
  -2  -3  17   44.22   12.67
  -3   2  17   64.14   15.62
   2   3  17   55.88   16.39
   3  -2  17   39.91   12.25
  -3   2  19  187.85   27.02
   2   3  19  152.38   25.24
   3  -2  19  137.12   20.73
  -2  -3  19  183.32   25.82
   2   3  21  682.19   47.39
  -3   2  21  665.25   46.45
  -2  -3  21  605.43   42.26
   3  -2  21  607.18   41.45
   2   3  23    8.39   13.93
  -3   2  23   -4.72   14.51
  -2  -3  23    6.93    9.50
   3  -2  23   37.44   13.91
   2   3  25    2.15   10.52
  -3   2  25    8.30   10.92
  -3   2  27  122.75   14.18
   2   3  27  113.31   13.56
   3  -1   0    0.80    8.88
   3  -1  -2 6597.82   86.11
   3  -1   2 6547.79   83.95
   3  -1  -4 1791.40   48.03
   3  -1   4 1777.67   45.71
   3  -1  -6 1601.85   49.27
   3  -1  -8  128.14   17.31
   1   3  -8  147.62   21.82
   1   3 -10   16.05   12.75
   3  -1 -10   27.52   11.16
   1   3 -12   18.77   12.74
   3  -1 -12   19.84   10.27
   1   3 -14 1396.48   68.11
   1   3  16   11.41   11.37
  -3   1  16   -3.44   10.28
  -1  -3  16   27.74   11.82
   3  -1  16   21.02   12.61
   1   3  18    7.49   11.80
  -3   1  18   21.95   11.68
  -1  -3  18   44.69   13.69
   3  -1  18   19.14   11.86
   3  -1  20    4.12   10.92
  -1  -3  20   71.69   18.18
  -3   1  20   31.70   15.89
   1   3  20   48.06   19.97
  -3   1  22  155.04   24.57
   3  -1  22  145.07   22.86
   1   3  22  145.30   24.00
  -1  -3  22  132.43   20.05
  -3   1  24   21.52   13.81
  -1  -3  24   40.05   13.11
   1   3  24    2.29   12.21
   3  -1  24    7.51    8.94
   1   3  26   90.48   15.54
  -3   1  26   66.32   12.43
   3   0  -1  570.32   25.26
   3   0   1  563.38   24.01
   3   0  -3 3875.19   67.94
   3   0   3 3943.99   60.36
   3   0  -5  926.16   37.24
   3   0   5  931.04   30.11
   3   0  -7 1072.65   43.28
   3   0  -9 1483.79   54.91
   3   0 -11  374.65   30.43
   0   3 -11  368.23   32.67
   0   3 -13 1041.93   56.38
   0   3  15  112.56   18.63
  -3   0  15   96.68   16.62
   3   0  15   94.74   16.31
  -3   0  17  214.00   25.90
   0  -3  17  179.73   22.20
   3   0  17  204.98   24.20
   0   3  17  240.99   27.68
   3   0  19  176.50   25.47
  -3   0  19  212.53   28.31
   0  -3  19  165.28   22.69
   0   3  19  196.53   27.13
   3   0  21   68.26   18.44
  -3   0  21   42.31   17.37
   0   3  21   54.52   17.86
   0  -3  21   58.88   14.89
   0  -3  23   20.43   10.57
   0   3  23   39.63   15.65
   3   0  23   22.85   13.41
  -3   0  23   13.14   11.73
   0   3  25   -1.33   10.21
   3   0  25   17.18   11.51
  -3   0  25    5.26   10.01
  -3   0  27   -7.13    6.71
   0   3  27    1.61    6.37
   3   1   0   -1.03    8.44
   3   1   2   21.35    8.08
   1  -3  -2   14.12    7.86
   3   1  -2   10.21    9.45
   3   1  -4    3.96    8.94
   1  -3  -4    5.11    6.39
   3   1   4    4.82    5.38
   1  -3  -6  737.04   24.46
   3   1  -6  707.84   35.82
   3   1  -8  263.91   24.46
   1  -3  -8  219.94   13.27
   3   1 -10   13.85   11.54
  -1   3 -12  740.60   45.56
   3   1 -12  702.65   45.24
  -3  -1  16  331.75   30.80
   3   1  16  302.30   29.91
   1  -3  16  232.57   24.61
  -1   3  16  287.85   28.77
  -3  -1  18   75.54   18.55
  -1   3  18   57.89   17.64
   3   1  18   60.75   18.19
   1  -3  18   93.25   16.38
   3   1  20   11.87   13.30
  -3  -1  20    2.13   13.98
  -1   3  20    5.68   12.14
   1  -3  20    9.88   10.02
  -1   3  22  160.62   24.60
  -3  -1  22  156.08   23.13
   3   1  22  117.27   21.21
   3   1  24  193.06   23.92
  -3  -1  24  156.61   21.13
  -1   3  24  179.73   24.30
  -1   3  26   24.07    9.45
   3   1  26   47.57   11.63
  -3  -1  26   24.00    8.81
   3   2  -1 1480.97   43.53
   3   2   1 1479.63   39.28
   2  -3  -1 1445.92   41.66
   2  -3   1 1497.33   44.21
   3   2  -3  971.81   39.09
   2  -3  -3  979.93   34.29
   3   2   3  932.47   28.06
   3   2  -5 1187.23   46.36
   3   2   5 1104.10   25.14
   2  -3  -5 1147.01   37.52
   2  -3  -7 1179.35   39.25
   3   2  -7 1165.68   50.18
   3   2  -9  180.10   23.62
   2  -3  -9  174.16   16.03
   3   2 -11    8.88   11.62
   3   2 -13   26.43   12.97
  -2   3 -13   20.29    9.42
   3   2  15   13.03    9.44
  -3  -2  15    4.68    8.69
  -2   3  15   -0.31    9.20
  -3  -2  17   62.35   17.37
  -2   3  17   37.13   13.39
   3   2  17   68.72   16.79
   3   2  19   23.47   16.65
  -3  -2  19   56.87   17.13
  -2   3  19   14.90   14.09
  -2   3  21   26.92   16.04
  -3  -2  21   22.65   14.04
   3   2  21   10.80   14.12
   3   2  23   35.57   17.13
  -3  -2  23   -0.96   12.10
  -2   3  23    5.18   12.86
  -3  -2  25   26.59   10.84
  -2   3  25   16.04   12.01
   3   2  25    7.37   10.27
  -2   3  27   14.97    8.00
   3  -3   0    2.61   11.65
   3   3   0    4.90   10.11
   3  -3   2  131.35   17.39
   3   3   2  167.40   14.71
   3   3  -2  156.02   18.80
   3  -3  -2  138.16   16.47
   3   3  -4 2731.82   72.05
   3  -3  -4 2641.72   63.51
   3   3   4 2634.64   45.52
   3   3  -6  240.72   25.73
   3  -3  -6  262.42   21.74
   3  -3  -8  562.53   32.02
   3   3  -8  556.54   38.56
   3  -3 -10  123.51   16.76
   3   3 -10  141.28   23.08
   3   3 -12  590.33   46.43
  -3   3  14  206.42   23.51
   3   3  14  226.13   24.07
   3   3 -14  195.60   29.05
  -3   3  16  523.91   38.93
   3   3  16  565.68   40.15
  -3  -3  16  529.14   38.49
  -3   3  18   39.39   15.11
  -3  -3  18   37.87   15.15
   3   3  18   31.92   12.67
  -3  -3  20   82.89   19.19
  -3   3  20  100.62   21.50
   3   3  20   99.10   21.44
  -3  -3  22   83.15   17.34
  -3   3  22   85.27   19.78
   3   3  22  118.62   24.05
  -3   3  24  223.87   24.66
  -3  -3  24  192.75   21.07
   3   3  24  234.70   25.59
   3   3  26    1.67    7.99
  -3   3  26   -0.27    8.27
   3   4   1   58.29   12.12
   3   4  -1   58.57   13.97
   4  -3  -1   62.27   14.47
   4  -3   1   72.23   15.75
   4  -3   3 4246.78   89.81
   3   4  -3 4244.07   93.25
   4  -3  -3 4240.67   88.25
   3   4   3 4022.79   69.77
   3   4  -5  129.46   21.84
   4  -3  -5  125.60   18.85
   3   4   5  133.66   10.77
   4  -3  -7  399.44   30.45
   3   4  -7  421.55   36.53
   3   4  -9   11.99   15.64
   4  -3  -9   25.83   12.80
   3   4 -11  166.55   25.59
   3   4 -13  375.93   40.19
   3   4  13  389.74   30.41
  -4   3  15  441.99   35.31
   3   4  15  450.15   34.87
  -3  -4  15  344.55   30.56
   3   4 -15  339.98   39.65
   3   4  17    9.09   14.78
  -3  -4  17   11.52   10.93
  -4   3  17   11.02   13.63
  -4   3  19   16.05   13.65
  -3  -4  19   14.69   10.44
   3   4  19    4.75   12.19
   3   4  21   24.91   14.05
  -4   3  21   24.59   16.22
  -3  -4  21   11.00   10.81
   3   4  23   65.63   18.34
  -4   3  23   70.91   17.39
   3   4  25   29.59   12.48
  -4   3  25   12.41    9.03
  -4   3  27   14.37    6.69
   4  -2   0   -0.49   12.32
   4  -2  -2 3637.72   76.69
   4  -2   2 3652.11   76.14
   2   4   2 3503.44   63.82
   4  -2  -4   47.03   12.77
   4  -2   4   49.97   13.91
   2   4   4   55.12    8.43
   2   4  -6 1647.12   62.36
   4  -2  -6 1656.55   56.68
   2   4  -8   46.67   17.30
   4  -2  -8   44.62   12.71
   4  -2 -10 2013.83   69.67
   2   4 -10 1991.75   80.14
   2   4 -12    0.64   15.42
   2   4 -14  -13.16   11.55
   2   4  14   -5.41    9.28
  -4   2  14   -0.13    7.96
  -2  -4  16   77.86   16.83
  -4   2  16   63.70   14.81
   2   4  16   91.51   19.02
   4  -2  16   38.03    9.40
   4  -2  18  388.75   33.44
  -4   2  18  378.59   34.76
  -2  -4  18  398.52   34.04
   2   4  18  477.75   39.27
  -4   2  20  256.16   30.08
   4  -2  20  238.88   27.60
  -2  -4  20  253.02   27.84
   2   4  20  235.28   28.98
  -4   2  22   27.74   13.96
   2   4  22   56.84   19.67
  -4   2  24   47.75   15.11
   2   4  24   70.79   17.52
  -4   2  26   23.51    9.15
   2   4  26   18.09    9.26
   4  -1   1  560.16   29.00
   4  -1  -1  571.30   30.08
   4  -1  -3 6414.83  100.16
   4  -1   3 6442.04   95.61
   4  -1  -5  119.18   17.59
   4  -1   5  121.08   15.38
   4  -1  -7  150.88   18.96
   1   4  -9  979.83   53.22
   4  -1  -9  935.80   46.80
   4  -1 -11  862.84   47.92
   1   4 -11  830.61   52.31
   1   4 -13  164.17   26.10
   1   4  15  527.21   37.21
  -4   1  15  477.38   35.57
   4  -1  15  420.56   32.20
   1   4  17   61.68   15.90
   4  -1  17   36.57   13.95
  -4   1  17   41.46   13.18
  -4   1  19   18.95   11.62
   1   4  19   34.53   14.06
   4  -1  19   31.01   12.73
   4  -1  21   38.95   16.61
   1   4  21   16.07   13.10
  -4   1  21   13.11   15.00
   1   4  23   25.67   15.21
  -4   1  23   34.96   15.18
   4  -1  23   32.49   11.90
   1   4  25  196.97   22.49
  -4   1  25  165.00   20.69
  -4   1  27    0.31    6.00
   1   4  27   -7.10    5.98
   4   0   0  130.41   15.58
   4   0  -2 2154.81   57.01
   4   0   2 2170.54   52.82
   4   0  -4  155.27   19.02
   4   0   4  168.39   16.41
   4   0  -6  388.15   28.65
   4   0   6  321.30   21.08
   4   0  -8 3684.41   90.39
   4   0 -10    2.01   11.30
   4   0 -12   75.41   18.49
   0   4 -12  120.25   21.70
   0   4  14   40.71   13.71
   0   4 -14   43.75   16.96
  -4   0  14   52.59   13.77
   4   0  16   17.97   10.50
  -4   0  16    9.70   11.69
   0   4  16   31.16   13.88
   4   0  18   18.17   11.40
  -4   0  18    2.99   13.11
   0   4  18   10.03   11.59
   0   4  20  360.97   35.95
  -4   0  20  353.49   34.95
   4   0  20  396.59   36.15
   4   0  22   -2.16   12.70
  -4   0  22   29.16   14.83
   0   4  22  -13.77   13.82
   0   4  24   33.22   13.89
  -4   0  24   25.60   13.80
   4   0  24   34.19   12.65
  -4   0  26   27.54    9.74
   0   4  26   37.67   10.50
   4   1   1   36.49   10.85
   4   1  -1   38.68   12.08
   4   1   3   18.29    9.42
   4   1  -3   35.90   14.26
   4   1   5   10.46    7.34
   4   1  -5    5.95   11.45
   4   1  -7 3365.10   85.90
   4   1  -9  380.62   32.94
   4   1 -11  450.59   37.68
   4   1 -13  614.37   45.60
  -1   4 -13  587.42   45.52
   4   1  15  356.59   30.68
  -4  -1  15  383.22   31.92
  -1   4  15  364.03   30.89
  -1   4  17    0.45    9.89
   4   1  17  -11.35   14.30
  -4  -1  19  203.96   27.37
  -1   4  19  177.32   26.63
   4   1  19  159.63   25.78
   4   1  21  363.55   34.30
  -1   4  21  347.17   34.12
  -4  -1  21  371.22   36.28
  -1   4  23  156.33   23.96
   4   1  23  195.48   24.84
  -4  -1  23  152.46   22.72
  -1   4  25   18.93   11.31
  -4  -1  25   -3.67   10.08
   4   1  25    6.13    8.82
  -1   4  27   77.40   11.62
   2  -4   0  326.13   24.78
   4   2   0  343.40   24.81
   4   2  -2   25.56   12.54
   4   2   2    8.35    8.94
   2  -4  -2   36.71   12.32
   4   2  -4   15.14   13.66
   2  -4  -4   -3.10    8.11
   4   2   4   10.13    7.47
   4   2   6 1245.35   32.72
   4   2  -6 1358.00   55.21
   2  -4  -6 1317.14   42.82
   2  -4  -8   29.23    8.82
   4   2  -8   37.75   15.81
   4   2 -10 1654.58   70.66
   4   2 -12  437.97   39.01
   4   2 -14   53.88   17.89
   4   2  14   31.61   11.15
  -2   4  14   54.16   14.47
  -4  -2  14   41.89   13.39
  -2   4  16  136.57   21.20
  -4  -2  16  178.44   24.25
   4   2  16  123.38   19.34
   4   2  18  165.24   24.29
  -4  -2  18  184.69   25.75
  -2   4  18  154.93   24.24
   4   2  20  211.47   28.03
  -2   4  20  194.64   27.29
  -4  -2  20  199.37   26.81
  -4  -2  22   -6.68   11.71
   4   2  22    3.28   13.16
  -2   4  22   -5.40   13.22
  -4  -2  24   13.97   12.38
  -2   4  24   13.89   12.24
   4   2  24   13.98   12.87
   4   2  26   81.89   13.32
  -2   4  26   57.79   12.28
  -4  -2  26   60.17   11.16
   4   3  -1  120.56   17.72
   4   3   1  132.52   17.28
   3  -4  -1  142.11   19.17
   3  -4   1  109.03   17.33
   3  -4  -3  277.10   23.74
   4   3   3  249.44   19.26
   4   3  -3  254.22   25.89
   4   3  -5 1824.44   65.18
   4   3   5 1713.61   41.19
   3  -4  -5 1818.42   56.87
   4   3  -7  490.35   37.80
   3  -4  -7  507.06   31.18
   4   3  -9  845.44   51.64
   3  -4  -9  873.37   40.80
   4   3 -11 1949.39   82.59
   4   3  13   22.50   10.77
   4   3 -13   34.88   15.97
   4   3  15  247.81   27.02
  -4  -3  15  222.67   24.91
   4   3 -15  213.11   31.40
  -3   4  15  253.17   27.00
  -4  -3  17 1006.07   54.53
   4   3  17  981.32   55.08
  -3   4  17  931.84   52.68
  -4  -3  19  221.77   27.21
   4   3  19  275.26   31.75
  -3   4  19  233.27   28.76
   4   3  21  -11.10   14.08
  -4  -3  21   25.04   13.54
  -3   4  21   -8.10   14.79
  -4  -3  23  291.90   27.45
   4   3  23  304.96   30.68
  -3   4  23  310.35   30.39
   4   3  25  152.18   18.78
  -4  -3  25  150.45   16.82
  -3   4  25  137.88   18.39
  -3   4  27   18.72    6.62
   4   4   0  684.75   37.06
   4  -4   0  639.77   37.73
   4  -4  -2  235.80   24.67
   4  -4   2  243.28   24.98
   4   4  -2  274.10   26.13
   4   4   2  247.51   21.79
   4   4   4   99.78   13.17
   4  -4  -4  113.45   19.12
   4   4  -4   80.96   18.86
   4  -4  -6   32.37   12.82
   4   4  -6   21.71   15.03
   4   4  -8   18.44   12.93
   4  -4  -8    7.66   10.02
   4  -4 -10 1443.56   58.70
   4   4 -10 1377.96   70.71
   4   4 -12  199.54   30.02
   4   4 -14  150.23   22.33
  -4   4  14  173.59   22.43
  -4  -4  14  140.52   21.38
   4   4  14  133.37   19.64
   4   4 -14  124.18   25.99
   4   4  16  235.07   28.57
  -4  -4  16  233.67   26.88
  -4   4  16  297.41   31.20
  -4  -4  18  150.61   22.63
  -4   4  18  184.66   26.55
   4   4  18  192.03   26.86
   4   4  20   72.77   17.97
  -4  -4  20   66.35   16.79
  -4   4  20   67.13   17.13
  -4   4  22  181.07   25.21
  -4  -4  22  150.12   20.34
   4   4  22  193.62   27.07
   4   4  24   -9.57   12.77
  -4   4  24   -1.68    9.53
  -4   4  26   59.81   11.79
   5  -4  -1 1254.40   55.84
   4   5  -1 1294.72   55.97
   5  -4   1 1250.79   55.87
   4   5   1 1320.66   52.36
   5  -4  -3   14.43   14.42
   5  -4   3   12.22   12.79
   4   5   3   13.20    9.19
   4   5  -3   -1.26   14.88
   4   5   5 1571.27   44.78
   4   5  -5 1666.48   70.85
   5  -4  -5 1676.84   66.00
   4   5  -7   96.40   23.23
   5  -4  -7  115.92   20.54
   5  -4  -9   88.97   18.65
   4   5  -9  112.33   24.02
   4   5 -11   32.28   14.00
   4   5  13 1290.08   56.79
   4   5  13 1570.48   62.59
  -5   4  13 1407.01   59.19
   4   5 -13 1347.29   61.18
   4   5 -13 1516.57   86.48
  -4  -5  15  328.41   30.25
  -5   4  15  308.82   31.05
   4   5 -15  294.60   41.35
   4   5  15  340.09   32.22
   4   5 -15  345.48   32.85
  -5   4  17   54.61   16.20
  -4  -5  17   49.21   15.44
   4   5  17   45.87   17.19
   4   5  19   55.16   17.58
  -4  -5  19   63.82   15.09
  -5   4  19   37.52   15.79
  -5   4  21  371.33   33.91
   4   5  21  392.65   36.61
   4   5  23   29.19   13.03
  -5   4  23   33.30   13.40
  -5   4  25   42.73   11.12
   4   5  25   38.74   11.51
   3   5   0   -3.07   11.06
   5  -3   0   -7.13   11.99
   3   5  -2 3791.96   91.60
   5  -3  -2 3726.15   90.60
   3   5   2 3712.28   78.76
   5  -3   2 3825.36   91.02
   5  -3   4   14.99   11.15
   5  -3  -4   15.85   13.30
   3   5  -4   33.66   15.29
   3   5   4   25.13    8.94
   5  -3  -6 3293.02   89.82
   3   5  -6 3297.40   97.61
   5  -3  -8   67.89   17.90
   3   5  -8   54.69   18.83
   5  -3 -10    9.63   12.68
   3   5 -10   11.11   12.83
   3   5 -12   79.12   18.89
  -5   3  14 2191.31   75.05
   3   5  14 2265.10   76.50
   3   5 -14 2190.04  102.10
   3   5  16  -10.70   10.86
  -5   3  16    4.36   10.51
  -5   3  18  120.51   24.05
   3   5  18  119.51   22.47
   3   5  20  157.28   25.85
  -5   3  20  143.80   23.70
   3   5  22  263.03   30.20
  -5   3  22  266.57   29.62
   3   5  24   21.97   11.98
  -5   3  24   -3.72   10.93
   3   5  26  149.08   15.81
  -5   3  26  161.72   16.53
   5  -2  -1  498.03   32.55
   5  -2   1  527.07   33.91
   2   5   3 5712.55   86.93
   5  -2  -3 5801.40  108.11
   5  -2   3 5721.57  106.57
   2   5   5 2204.06   44.81
   5  -2   5 2228.58   68.52
   5  -2  -5 2276.39   71.76
   5  -2  -7  805.63   45.36
   2   5  -7  886.84   51.94
   2   5  -9  904.13   55.68
   5  -2  -9  955.18   51.52
   2   5 -11  202.91   29.22
   5  -2 -11  296.26   31.41
   2   5 -13  422.82   44.13
  -5   2  13  381.99   30.81
   2   5  13  418.58   32.17
   2   5 -15  565.94   52.06
   5  -2  15  476.64   34.30
  -5   2  15  634.78   42.11
   2   5  15  581.84   40.37
  -5   2  17  438.20   37.75
   5  -2  17  442.04   35.10
   2   5  17  552.54   42.08
  -5   2  19  231.96   30.19
   5  -2  19  206.83   24.65
   2   5  19  229.18   28.41
   2   5  21   -1.00   12.88
  -5   2  21    6.63   15.48
  -5   2  23  216.38   26.09
   2   5  23  215.58   25.96
   2   5  25   48.65   13.07
  -5   2  25   54.71   13.28
   5  -1   0    2.57   12.11
   5  -1  -2   51.91   15.81
   5  -1   2   33.38   12.04
   5  -1  -4 9187.83  135.99
   5  -1   4 9097.71  127.55
   5  -1   6  162.92   19.20
   1   5   6  144.60    9.92
   5  -1  -6  181.89   23.72
   5  -1  -8 2063.38   72.61
   5  -1 -10   98.53   18.76
   1   5 -10   98.11   22.35
   5  -1 -12 1373.44   67.24
   1   5 -12 1413.25   74.74
   5  -1  14   16.93    9.74
   1   5  14    1.64    8.16
   1   5 -14   -2.84   15.63
  -5   1  14   -6.40   10.38
  -5   1  16 1317.81   61.57
   5  -1  16 1245.80   57.58
   1   5  16 1368.16   62.01
   1   5  18   49.53   16.59
   5  -1  18   48.55   15.19
  -5   1  18   18.47   13.01
   5  -1  20   21.47   13.53
  -5   1  20   12.66   12.91
   1   5  20   12.50   13.14
   5  -1  22    2.79   10.88
   1   5  22   33.32   16.32
  -5   1  22   19.00   12.55
  -5   1  24  273.80   27.37
   1   5  24  262.45   26.51
   1   5  26   -2.09    7.56
  -5   1  26    8.24    7.07
   5   0   1  354.26   26.16
   5   0  -1  328.30   26.00
   5   0   3  393.12   27.37
   5   0  -3  407.29   29.96
   5   0   5   11.64    9.57
   5   0  -5   31.36   14.92
   5   0   7 2312.14   61.62
   5   0  -7 2403.62   76.80
   5   0  -9  188.06   24.62
   5   0 -11  168.59   25.28
  -5   0  13  364.64   30.69
   5   0 -13  352.80   36.64
   0   5 -13  371.71   40.86
   5   0  15  364.24   31.17
   0   5  15  380.73   33.08
  -5   0  15  397.01   33.52
   0   5 -15  343.04   39.93
   5   0  17  142.91   22.33
  -5   0  17  157.17   24.33
   0   5  17  138.47   22.06
  -5   0  19   68.19   18.01
   5   0  19  103.96   22.65
   0   5  19   82.36   20.61
   0   5  21   21.36   13.58
   5   0  21   61.43   19.31
  -5   0  21   35.08   18.84
  -5   0  23   90.99   18.07
   5   0  23  102.75   19.46
   0   5  23  103.21   19.74
   0   5  25   22.22    9.42
  -5   0  25   36.78   11.71
   0   5  27   22.99    6.81
   5   1   0   -8.37   12.55
   5   1   2   76.12   15.02
   5   1  -2   91.48   18.17
   5   1   4  438.79   27.18
   5   1  -4  426.60   32.40
   5   1   6 2621.69   61.89
   5   1  -6 2710.50   80.68
   5   1  -8   -3.70   12.93
   5   1 -10   45.26   15.35
   5   1 -12   30.77   15.22
   5   1  14 1476.24   59.60
  -5  -1  14 1496.45   61.57
  -1   5  14 1448.20   59.57
   5   1 -14 1349.64   73.57
  -1   5 -14 1484.60   78.70
  -5  -1  16   38.29   14.80
  -1   5  16   31.11   12.68
   5   1  16    5.65   10.78
   5   1  18  316.26   32.22
  -1   5  18  296.77   32.10
  -5  -1  18  334.78   33.73
  -5  -1  20   45.95   17.19
   5   1  20   44.12   17.79
  -1   5  20   30.17   15.87
  -1   5  22  291.65   30.39
   5   1  22  269.90   29.52
  -5  -1  22  323.86   31.63
   5   1  24   13.24   11.87
  -5  -1  24  -10.20   10.43
  -1   5  24   11.12   11.48
  -1   5  26   58.48   11.77
  -5  -1  26   70.99   11.82
   5   2   1 1044.34   43.32
   5   2  -1 1016.89   45.10
   5   2   3  122.09   15.23
   5   2  -3  147.36   21.96
   5   2  -5  474.38   36.27
   2  -5  -5  424.92   27.52
   5   2   5  431.45   25.17
   5   2  -7   46.35   18.09
   5   2   7   29.56    7.68
   2  -5  -7   36.80   10.87
   5   2  -9   53.41   17.26
   5   2 -11   32.31   14.25
   5   2 -13  186.24   28.94
  -2   5  13  166.81   21.20
   5   2  13  174.29   22.13
  -5  -2  15  111.29   20.01
   5   2  15  110.63   18.99
  -2   5  15  101.39   19.28
  -2   5  17  -12.88   13.26
   5   2  17    1.06   12.41
  -5  -2  19   99.85   21.01
   5   2  19  107.94   22.13
  -2   5  19   47.51   14.61
   5   2  21   62.96   19.94
  -2   5  21   40.23   15.46
  -5  -2  21   59.79   16.82
  -5  -2  23    2.75   10.14
  -2   5  23    5.35   11.52
  -5  -2  25   28.04    9.51
  -2   5  25   29.01   10.79
   5   3   0    3.98   11.54
   3  -5   0    9.19   12.33
   3  -5  -2   12.71   11.30
   5   3   2   28.32   12.28
   5   3  -2   17.83   12.86
   3  -5  -4  516.16   33.09
   5   3  -4  539.76   37.76
   5   3   4  492.45   28.22
   5   3   6  639.43   28.16
   5   3  -6  791.07   48.00
   3  -5  -6  725.58   38.98
   3  -5  -8  317.35   25.87
   5   3  -8  351.84   35.51
   5   3 -10  272.36   33.12
   5   3 -12  383.79   41.11
   5   3 -14  178.14   23.70
  -5  -3  14  246.15   27.02
   5   3  14  203.50   24.22
   5   3 -14  213.40   31.87
  -3   5  14  238.51   26.19
  -3   5  16  334.79   31.92
   5   3  16  302.51   31.50
  -5  -3  16  340.75   33.03
  -3   5  18   15.77   11.98
  -5  -3  18   14.12   11.67
   5   3  18   40.46   17.47
  -5  -3  20   38.77   13.48
  -3   5  20   27.59   15.40
   5   3  20   37.61   18.34
  -5  -3  22  109.44   18.99
  -3   5  22  127.09   20.88
   5   3  22  135.55   23.46
   5   3  24  131.75   19.42
  -5  -3  24  128.12   17.41
  -3   5  24  140.53   19.70
  -3   5  26    3.20    6.33
   4  -5   1  111.04   21.94
   4  -5  -1   74.36   17.68
   5   4   1   82.61   17.25
   5   4  -1  114.11   19.60
   4  -5  -3   16.80   12.40
   5   4  -3   12.40   13.91
   5   4   3   11.50   10.75
   5   4   5  303.27   21.84
   5   4  -5  292.65   31.30
   4  -5  -5  305.42   28.31
   5   4  -7  267.76   32.13
   4  -5  -7  226.63   23.82
   5   4  -9  290.72   34.49
   4  -5  -9  258.95   26.56
   5   4 -11    0.74   13.89
   5   4 -13  101.08   18.73
   5   4  13  129.55   19.59
  -4   5  13  176.29   22.84
   5   4  13  145.41   20.96
   5   4 -13   94.78   23.15
   5   4 -15  -18.82   19.02
   5   4  15   -2.96   10.58
  -4   5  15    9.06   10.04
   5   4 -15    4.50    9.94
  -5  -4  15   13.06   11.65
  -4   5  17    4.81   11.91
  -5  -4  17   14.94   10.17
   5   4  17    7.37   16.62
   5   4  19  112.94   23.94
  -4   5  19  113.58   21.44
  -5  -4  19   85.22   18.12
  -4   5  21   18.53   14.39
  -5  -4  21   23.14   12.92
   5   4  21   21.08   14.78
   5   4  23   17.26   13.13
  -5  -4  23   -9.51    9.36
  -4   5  23    6.95   11.69
  -4   5  25   18.42    9.41
   5   5   0   15.08   13.56
   5  -5   0  -13.11   15.32
   5   5  -2  126.22   21.69
   5  -5   2  110.22   23.83
   5  -5  -2  126.97   22.19
   5   5   2  107.18   18.56
   5   5  -4 1639.79   71.21
   5   5   4 1627.79   55.20
   5  -5  -4 1696.41   68.66
   5  -5  -6  135.82   22.57
   5   5  -6  129.51   24.72
   5  -5  -8   92.50   19.43
   5   5  -8   85.77   19.78
   5   5 -10  140.59   27.89
   5   5  12  981.13   50.48
   5   5 -12 1026.13   53.05
   5   5 -12 1051.08   72.87
  -5   5  12  949.22   47.48
   5   5  12 1004.31   50.08
  -5  -5  14   -1.30   10.03
   5   5 -14  -14.33   11.64
   5   5 -14  -22.80   23.18
   5   5  14   10.82    9.35
   5   5  14    9.02   12.00
  -5   5  14  -21.82   12.72
  -5  -5  16  415.61   35.40
   5   5  16  462.65   38.95
  -5   5  16  495.06   38.87
   5   5 -16  499.31   40.02
  -5  -5  18   20.11   11.18
  -5   5  18   22.68   13.91
   5   5  18   -5.18   13.79
  -5  -5  20   95.85   17.67
  -5   5  20   88.26   20.21
   5   5  20   72.73   19.50
  -5   5  22   15.48   11.98
   5   5  22   60.68   18.31
  -5   5  24  142.22   17.93
   6  -5   1   14.23   12.91
   5   6  -1    7.62   13.20
   5   6   1    4.95   10.69
   6  -5  -1   18.42   15.90
   5   6   3 1764.39   64.74
   6  -5  -3 1728.28   74.09
   5   6  -3 1812.59   77.28
   6  -5   3 1779.22   76.69
   5   6  -5 1012.84   62.30
   6  -5  -5  997.81   57.80
   6  -5  -7   32.76   14.53
   5   6  -7   25.09   15.39
   5   6  -9  318.03   39.94
   6  -5  -9  331.18   35.06
   5   6 -11  470.39   49.72
   5   6  11  578.81   37.95
   5   6  11  527.02   37.54
  -6   5  11  444.60   32.81
   5   6 -11  545.48   39.90
   5   6  13  188.35   24.93
   5   6  13  199.73   25.00
  -6   5  13  174.40   23.20
   5   6 -13  193.86   26.16
   5   6 -13  231.76   39.05
   5   6 -15   65.43   24.64
   5   6 -15  125.65   22.51
   5   6  15  166.86   25.32
  -6   5  15  133.26   22.79
   5   6  15  103.10   20.39
   5   6  17   -0.17   13.86
  -6   5  17  -19.47   13.82
   5   6 -17   -2.33   10.69
   5   6  19  126.10   23.38
  -6   5  19  122.27   21.46
   5   6  21    7.21   13.50
  -6   5  21    8.04   11.68
  -6   5  23   69.07   14.43
   5   6  23   76.56   16.00
  -6   5  25   54.57   10.25
   4   6   0 1658.67   65.60
   6  -4   0 1700.49   69.61
   4   6  -2  272.86   29.87
   4   6   2  239.65   24.56
   6  -4   2  203.00   27.10
   6  -4  -2  261.55   29.27
   6  -4  -4  557.11   41.80
   4   6  -4  569.25   43.97
   4   6   4  537.11   31.99
   6  -4   4  529.46   41.36
   4   6  -6 1701.95   77.92
   6  -4  -6 1664.47   71.92
   4   6  -8   92.60   23.21
   6  -4  -8  123.65   23.87
   4   6 -10  111.55   25.95
   6  -4 -10   90.16   20.57
   4   6  12  260.17   26.80
   4   6 -12  259.10   39.64
  -6   4  12  239.99   25.20
   4   6  12  248.88   27.09
   4   6 -12  235.34   26.44
   4   6 -14  -24.13   18.19
   4   6  14    9.65   10.19
   4   6 -14    1.78   12.30
  -6   4  14    3.80    9.39
   4   6  14    9.86   11.25
   4   6 -16  -32.00   21.04
   4   6  16   -6.90   12.45
  -6   4  16    0.82   11.97
   4   6 -16  -15.15   14.79
  -6   4  18   92.35   21.77
   4   6  18   69.32   17.50
   4   6  20  123.04   23.39
  -6   4  20  133.32   22.73
  -6   4  22    3.14   11.12
   4   6  22   -4.15   12.64
   4   6  24   -5.17    8.46
  -6   4  24   16.65   11.44
   3   6   1  934.38   45.39
   6  -3   1  950.95   50.40
   3   6  -1  862.44   46.46
   6  -3  -1  866.07   47.83
   3   6  -3 5536.44  122.78
   6  -3  -3 5652.05  121.95
   6  -3   3 5731.50  121.42
   3   6   3 5537.85  101.44
   6  -3  -5  573.19   41.07
   3   6  -5  558.02   42.91
   3   6   5  502.66   26.38
   6  -3   5  534.69   40.13
   6  -3  -7 1507.16   68.25
   3   6  -7 1516.98   73.62
   6  -3  -9    4.20   11.61
   3   6  -9   22.91   18.30
   3   6 -11  479.41   48.03
   6  -3 -11  487.49   43.23
   3   6 -13  480.17   50.24
   3   6  13  549.82   37.52
  -6   3  13  581.81   39.02
   3   6  13  429.97   34.14
   3   6 -13  534.36   39.48
   3   6  15  353.26   32.22
   3   6  15  295.69   29.42
   3   6 -15  363.78   47.40
  -6   3  15  339.89   32.33
   3   6 -15  338.55   32.68
  -6   3  17    7.04   13.11
   3   6  17   18.17   11.42
  -6   3  19   19.87   14.93
   3   6  19   17.06   12.50
  -6   3  21   33.28   15.09
   3   6  21   19.63   14.53
   3   6  23   67.02   16.80
  -6   3  23   61.04   15.18
  -6   3  25   66.40   12.85
   3   6  25   81.48   13.69
   6  -2   0   42.94   16.15
   6  -2  -2   99.36   19.93
   6  -2   2   97.79   20.41
   2   6   4 2834.27   65.94
   6  -2   4 2924.57   84.01
   6  -2  -4 2954.45   87.14
   6  -2  -6   16.89   13.14
   6  -2   6   29.39   13.87
   6  -2  -8   91.77   19.79
   2   6  -8   98.42   23.84
   6  -2 -10   28.42   14.52
   2   6 -10   21.83   17.41
   6  -2 -12   57.30   18.23
   2   6  12   28.88   11.40
   2   6 -12   23.67   18.41
   2   6  14   29.54   14.38
  -6   2  14   17.17    9.40
   2   6 -14   10.48   12.79
   2   6 -14   18.06   18.44
   2   6  14   14.51    9.97
   2   6  16   46.55   16.61
   2   6 -16    4.09   15.47
   6  -2  16   34.11   13.69
  -6   2  16   37.51   13.90
  -6   2  18    1.89   12.97
   2   6  18   -5.62   13.25
   2   6  20  196.18   26.93
  -6   2  20  190.25   27.19
   2   6  22    9.97   13.42
  -6   2  22   67.16   17.42
   2   6  24    9.69    9.56
  -6   2  24    4.00   10.79
  -6   2  26   10.19    7.11
   2   6  26    0.43    6.28
   6  -1   1   60.67   16.84
   6  -1  -1   64.85   16.18
   6  -1  -3   13.73   13.95
   6  -1   3   16.75   11.14
   6  -1  -5 3787.12   98.17
   6  -1   5 3620.38   90.04
   6  -1   7    7.57   11.34
   6  -1  -7   24.40   15.83
   6  -1  -9    4.48   12.50
   6  -1 -11  129.41   23.70
   1   6 -11  139.46   27.87
   6  -1  13  450.01   32.36
   6  -1 -13  568.48   48.14
   1   6 -13  614.22   55.78
  -6   1  13  550.23   37.52
   1   6  13  524.10   35.70
  -6   1  15  366.15   32.53
   6  -1  15  279.91   27.73
   1   6 -15  367.32   44.62
   1   6  15  373.07   32.66
   6  -1  17   83.29   19.57
  -6   1  17   81.99   18.74
   1   6  17   61.35   15.92
  -6   1  19  272.26   31.88
   1   6  19  282.79   30.92
   6  -1  19  227.30   27.35
  -6   1  21  282.43   31.29
   6  -1  21  232.71   25.90
   1   6  21  211.81   27.59
   1   6  23   20.70   13.95
  -6   1  23   73.72   17.75
   1   6  25   29.63   10.94
  -6   1  25   17.59   10.64
   6   0   0  212.55   24.19
   6   0   2    7.18   10.77
   6   0  -2    9.96   14.55
   6   0   4  203.76   22.49
   6   0  -4  226.06   25.92
   6   0   6   25.80   11.96
   6   0  -6   -1.46   14.68
   6   0   8   39.26   11.16
   6   0  -8   22.49   13.89
   6   0 -10  114.37   22.70
   0   6 -12  300.55   36.51
   6   0 -12  266.83   33.15
   6   0  14   60.41   13.73
   0   6 -14   62.71   18.72
   0   6  14   99.00   17.20
  -6   0  14   84.37   17.03
   0   6  16  102.12   20.58
  -6   0  16   75.07   16.54
   6   0  16   77.47   18.39
   6   0  18  135.14   22.68
   0   6  18   81.17   19.84
  -6   0  18  126.57   23.87
  -6   0  20  232.44   29.63
   6   0  20  167.76   24.92
   0   6  20  209.99   27.42
   0   6  22   -1.04   13.89
   6   0  22   21.92   11.88
  -6   0  22   17.88   14.34
  -6   0  24    4.29    9.72
   0   6  24  -12.63   12.07
  -6   0  26   34.69    8.83
   0   6  26   42.16    9.36
   6   1   1   56.12   14.97
   6   1  -1   47.88   15.79
   6   1   3  273.45   25.26
   6   1  -3  258.43   27.31
   6   1  -5 1218.48   57.87
   6   1   5 1290.61   50.43
   6   1  -7  244.88   29.80
   6   1   7  223.76   20.58
   6   1  -9  503.26   42.79
   6   1 -11  991.36   62.75
   6   1 -13   71.23   22.70
  -1   6  13   58.03   13.62
   6   1  13   57.40   14.87
  -1   6  15  527.13   38.09
  -1   6 -15  470.96   49.20
  -6  -1  15  502.13   38.66
   6   1  15  478.54   37.90
   6   1  17 1356.70   64.34
  -6  -1  17 1347.73   64.98
  -1   6  17 1347.50   63.57
  -1   6  19  100.58   21.26
   6   1  19   74.78   19.92
  -6  -1  19   76.23   19.54
  -6  -1  21   10.17   15.69
  -1   6  21    0.05   11.95
   6   1  21   -0.51   12.28
   6   1  23   70.74   16.32
  -6  -1  23   55.45   15.80
  -1   6  23   85.51   16.06
  -1   6  25  124.13   16.34
  -6  -1  25  134.91   16.39
   6   2   0   10.71   13.75
   6   2   2  669.30   37.77
   6   2  -2  670.85   41.60
   6   2   4  428.58   30.04
   6   2  -4  461.67   36.72
   6   2  -6   49.33   19.68
   6   2   6   50.17   11.66
   6   2  -8  347.63   36.38
   6   2 -10 1425.27   73.49
   6   2 -12  129.21   26.67
   6   2  12  112.26   17.97
   6   2 -14  293.63   28.65
   6   2  14  366.64   32.69
  -2   6  14  313.31   29.68
   6   2 -14  297.56   38.73
  -6  -2  16  104.75   21.95
   6   2  16  121.62   20.89
  -2   6  16  128.35   20.41
   6   2  18  636.80   46.02
  -6  -2  18  647.90   46.57
  -2   6  18  671.81   46.79
   6   2  20   24.39   16.31
  -2   6  20   14.56   13.05
  -6  -2  20    2.13   12.28
  -6  -2  22  117.53   20.30
   6   2  22  100.78   20.25
  -2   6  22  127.09   21.35
  -2   6  24   27.46   10.89
  -6  -2  24    9.62    8.90
  -2   6  26   44.58    9.35
   6   3  -1  447.86   35.15
   6   3   1  434.43   33.44
   6   3  -3  433.29   37.32
   6   3   3  418.76   30.59
   6   3   5  410.43   27.98
   6   3  -5  423.53   38.77
   3  -6  -5  435.05   32.83
   6   3  -7 3177.93  104.48
   3  -6  -7 3229.60   85.72
   6   3  -9  543.48   46.06
   6   3 -11  683.24   55.27
   6   3  13 1304.29   57.11
   6   3 -13 1362.86   60.78
   6   3  13 1533.26   63.11
   6   3 -13 1633.41   89.19
  -3   6  13 1463.51   60.03
   6   3 -15  565.34   41.05
   6   3  15  600.87   43.28
  -3   6  15  633.24   42.02
  -6  -3  15  608.10   42.35
   6   3 -15  491.50   52.90
  -3   6  17   -2.63   11.59
  -6  -3  17    6.94   10.83
   6   3  17   18.37   15.86
   6   3  19  440.94   39.19
  -6  -3  19  407.42   36.18
  -3   6  19  351.33   33.74
  -6  -3  21  314.02   30.03
   6   3  21  348.57   35.24
  -3   6  21  286.19   30.68
  -6  -3  23   63.37   13.80
   6   3  23   32.29   11.58
  -3   6  23   52.92   14.31
  -3   6  25    3.98    6.99
  -6  -3  25   -0.09    6.12
   6   4   0 1737.56   68.15
   4  -6  -2   18.69   14.15
   6   4  -2   20.32   12.50
   6   4   2    2.85   10.61
   6   4  -4  172.34   27.37
   4  -6  -4  169.42   25.43
   6   4   4  126.97   17.34
   6   4  -6    4.13   14.24
   4  -6  -6    8.26   11.54
   4  -6  -8 1437.43   62.32
   6   4  -8 1383.46   74.23
   6   4 -10  151.00   30.54
  -4   6  12 1679.86   62.31
   6   4 -12 2012.38   99.45
   6   4  12 1721.48   66.28
   6   4  12 1935.09   69.76
   6   4 -12 1850.28   70.89
   6   4 -14   35.03   18.85
   6   4 -14   19.66   12.85
   6   4  14    4.46    8.96
  -4   6  14   14.35   10.59
   6   4  14   11.15   10.97
  -4   6  16   -2.62   10.81
  -6  -4  16   10.54   14.28
   6   4 -16   27.79   14.17
   6   4  16   30.32   15.55
  -6  -4  18   -3.07   11.84
   6   4  18   -4.82   14.84
  -4   6  18   19.93   14.58
  -6  -4  20  256.39   27.81
  -4   6  20  270.00   29.82
   6   4  20  307.83   33.25
   6   4  22    2.77   12.63
  -6  -4  22   -8.21    9.38
  -4   6  22    6.60   11.38
  -4   6  24    8.06   10.51
   6   5   1 1027.29   53.31
   6   5  -1 1033.95   56.12
   5  -6  -1 1032.40   57.04
   5  -6   1 1031.46   58.27
   6   5   3  718.20   42.64
   6   5  -3  691.22   48.76
   5  -6  -3  660.17   45.94
   5  -6  -5  215.18   28.11
   6   5  -5  211.14   30.20
   6   5   5  196.08   20.52
   6   5  -7   18.11   16.27
   5  -6  -7   30.18   13.08
   6   5  -9  854.26   62.79
   5  -6  -9  845.56   52.88
   6   5  11 1138.92   55.02
   6   5 -11 1161.77   77.01
   6   5  11 1103.60   52.54
  -5   6  11  968.78   47.26
   6   5 -11 1090.78   54.93
   6   5 -13   26.12   14.22
  -5   6  13    6.36    9.64
   6   5 -13   -9.66   15.81
   6   5  13   11.17   11.82
   6   5  13   17.07   11.49
   6   5 -15  117.08   28.17
   6   5  15  109.58   19.30
   6   5 -15  100.70   20.22
   6   5  15  142.08   22.08
  -5   6  15  103.42   20.31
  -6  -5  15   63.28   16.78
  -5   6  17  232.56   28.28
  -6  -5  17  300.63   31.34
   6   5  17  251.23   30.82
   6   5 -17  257.57   30.35
  -6  -5  19   83.93   17.15
  -5   6  19   70.16   16.64
  -6  -5  21   -4.54    9.25
   6   5  21   11.25   12.56
  -5   6  21    2.41   11.31
  -5   6  23   21.97   10.68
  -5   6  25   65.11   11.20
   6   6   0   58.17   13.76
   6  -6   0   66.43   19.14
   6   6   2 1897.32   74.47
   6   6  -2 1865.37   80.98
   6  -6  -2 1751.59   78.28
   6  -6   2 1680.21   78.51
   6  -6  -4   18.02   16.60
   6   6   4    1.65    9.65
   6   6  -4   -2.30   15.54
   6  -6  -6  773.67   53.74
   6   6  -6  842.47   59.96
   6  -6  -8   47.20   14.99
   6   6  -8   28.94   15.40
   6   6 -10 1380.89   62.30
   6   6  10 1381.09   61.16
   6   6  10 1331.48   58.28
   6   6 -10 1351.31   83.90
  -6   6  12   30.38   11.35
   6   6  12   41.80   15.28
   6   6 -12   21.79   16.69
   6   6 -12   56.12   16.67
   6   6  12   27.02   12.51
  -6   6  14   12.47    9.98
  -6  -6  14    2.15    9.79
   6   6  14    9.70   13.01
   6   6 -14   26.53   14.28
   6   6  14   29.97   13.28
   6   6 -14    3.53   18.34
  -6   6  16   85.67   21.46
   6   6  16   83.30   19.44
  -6  -6  16   58.09   16.18
   6   6 -16   52.78   16.32
   6   6  16   95.34   20.83
  -6   6  18  286.99   30.72
   6   6  18  294.00   32.88
   6   6 -18  252.94   27.75
   6   6  20   19.40   16.29
  -6   6  20   -7.05   11.59
  -6   6  22   -2.91   10.20
  -6   6  24   -6.95    6.30
   6   7  -1  192.91   28.49
   7  -6  -1  245.84   33.42
   7  -6   1  184.31   29.64
   6   7   1  190.02   26.83
   6   7  -3  137.66   23.96
   7  -6  -3  149.20   27.57
   7  -6   3   85.59   20.28
   6   7   3  106.91   21.00
   6   7  -5   33.33   16.64
   7  -6  -5   32.15   13.33
   6   7   7   47.13   12.45
   6   7  -7   25.81   18.28
   6   7  -7   43.97   13.27
   7  -6  -7   46.91   18.10
   6   7  -9  514.59   38.79
   6   7  -9  479.66   51.71
   6   7   9  534.65   39.66
   6   7   9  484.26   35.60
  -7   6   9  481.64   36.87
   7  -6  -9  472.60   45.75
   6   7  11   -6.59   13.54
  -7   6  11    5.29    7.99
   6   7 -11   17.96   12.14
   6   7 -11   20.02   14.55
   6   7  11   14.82   10.26
  -7   6  13    8.22   11.75
   6   7 -13   20.01   25.42
   6   7  13   -0.47   12.04
   6   7 -13  -11.94   13.12
   6   7  13   -8.41   14.03
   6   7 -15   45.40   15.91
   6   7  15   61.63   17.56
   6   7  15   74.18   19.24
  -7   6  15  101.19   19.63
  -7   6  17  197.37   26.12
   6   7  17  255.51   29.71
   6   7  17  244.65   30.32
   6   7  19    4.30   14.39
  -7   6  19   10.75   11.48
  -7   6  21   21.92   11.40
  -7   6  23   -6.88    7.47
   5   7   0    5.12   15.52
   7  -5   0    3.45   14.53
   5   7   2  982.45   53.08
   5   7  -2 1050.85   61.42
   7  -5  -2  945.90   59.27
   7  -5   2 1001.54   60.99
   7  -5  -4    6.65   13.72
   5   7   4    9.41    9.81
   7  -5   4   -6.36   15.02
   5   7  -4  -13.07   16.82
   7  -5  -6  469.61   43.71
   5   7  -6  490.64   48.15
   5   7  -8  272.24   37.70
   7  -5  -8  284.09   36.03
   7  -5 -10  131.69   26.97
  -7   5  10   92.35   17.42
   5   7 -10   99.80   18.66
   5   7  10  118.95   20.78
   5   7  10  100.41   17.56
   5   7 -10  110.68   28.60
  -7   5  12   -4.62    9.70
   5   7 -12    8.30   13.21
   5   7  12  -22.19   15.61
   5   7 -12    2.97   17.10
   5   7  12    0.05   11.25
   5   7 -14  283.06   44.68
   5   7  14  375.37   35.33
   5   7  14  377.18   34.80
  -7   5  14  320.90   31.52
   5   7 -14  314.78   33.94
  -7   5  16    7.83   11.94
   5   7 -16    1.78   12.31
   5   7  16    8.88   13.59
   5   7  16   46.28   16.75
  -7   5  18   20.28   11.89
   5   7 -18   57.34   16.66
   5   7  18   34.84   15.70
  -7   5  20    7.32   11.18
   5   7  20   12.12   13.37
   5   7  22  138.00   20.53
  -7   5  22  132.45   20.48
  -7   5  24   40.03    9.52
   4   7  -1   -0.85   14.57
   7  -4  -1   -0.11   13.68
   7  -4   1   -0.67   16.14
   4   7   1   16.71   14.63
   7  -4   3 1736.12   75.91
   4   7  -3 1706.35   76.78
   4   7   3 1701.30   64.40
   7  -4  -3 1669.43   74.81
   7  -4   5  441.87   41.16
   4   7  -5  467.20   42.97
   7  -4  -5  416.68   39.91
   7  -4  -7   37.43   18.60
   4   7  -7   15.77   18.21
   4   7  -9   70.95   24.93
   7  -4  -9   29.35   18.52
   4   7 -11  295.76   30.33
   4   7 -11  296.92   41.41
  -7   4  11  286.24   27.22
   4   7  11  279.74   28.21
   7  -4 -11  290.37   37.61
   4   7  11  273.67   28.19
   4   7  13  263.08   29.78
   4   7 -13  216.72   28.43
   4   7  13  240.84   27.03
  -7   4  13  226.31   26.15
   4   7 -13  232.89   40.67
  -7   4  15  -12.53   14.15
   4   7  15   20.07   14.12
   4   7 -15    8.22   17.86
   4   7  15    1.58   14.83
   4   7 -15  -20.18   17.58
  -7   4  17   57.10   18.66
   4   7  17   75.15   17.90
   4   7 -17   74.66   17.99
   4   7  19  305.94   32.91
  -7   4  19  281.92   31.72
  -7   4  21   18.27   11.33
   4   7  21   32.91   14.25
   4   7  23    4.67    9.38
  -7   4  23    9.12    9.81
  -7   4  25    8.41    7.05
   7  -3   0   -1.28   14.36
   3   7   0   -1.73   11.79
   3   7  -2   82.57   20.49
   7  -3   2   95.67   21.91
   3   7   2   69.78   16.36
   7  -3  -2   73.52   19.22
   3   7   4 9589.12  139.20
   3   7  -4 9999.00  181.70
   7  -3  -4 9918.82  176.42
   7  -3   4 9667.88  171.43
   7  -3   6   80.49   20.10
   3   7  -6   44.14   19.30
   7  -3  -6   81.57   20.63
   7  -3  -8  115.99   24.67
   3   7  -8   42.34   19.76
   7  -3 -10   21.79   11.79
   3   7 -10   94.44   24.62
   3   7  12 1465.91   60.69
   3   7 -12 1436.93   87.86
   3   7 -12 1452.52   66.31
   7  -3 -12 1405.05   77.83
  -7   3  12 1468.47   60.83
   3   7  12 1492.21   64.22
   3   7 -14   29.83   14.54
   3   7  14   35.31   14.54
  -7   3  14   36.23   14.80
   3   7 -14   15.09   16.57
   3   7  14   31.16   12.71
   3   7 -16   34.44   13.38
  -7   3  16   68.47   17.97
   3   7  16   49.17   16.73
   3   7  18    3.11   12.96
  -7   3  18   -3.75   14.26
   3   7  20  337.45   33.51
  -7   3  20  320.93   32.94
   3   7  22    2.83   11.04
  -7   3  22    1.15   10.80
  -7   3  24  194.55   20.13
   3   7  24  175.08   19.32
   7  -2   1 1545.20   66.31
   7  -2  -1 1672.70   69.34
   7  -2   3  374.96   34.33
   7  -2  -3  416.85   37.10
   7  -2  -5 4688.54  120.20
   7  -2   5 4673.03  115.51
   2   7  -7  775.90   56.30
   7  -2   7  701.06   47.16
   7  -2  -7  757.51   52.00
   7  -2  -9   -1.24   14.90
   2   7  -9    0.38   15.93
   7  -2 -11  485.42   45.91
   2   7 -11  422.86   47.29
   2   7 -13  434.94   50.38
   2   7 -13  365.80   34.20
   2   7  13  378.70   32.73
   2   7  13  363.71   31.31
  -7   2  13  409.27   34.62
   2   7 -15   21.07   11.94
  -7   2  15   26.67   11.06
   2   7  15   12.71   10.65
   2   7  15    4.71   12.39
   2   7 -15   -8.50   17.32
  -7   2  17   42.58   16.80
   2   7  17   69.24   19.01
  -7   2  19    2.73   13.13
   2   7  19   13.24   14.21
  -7   2  21   62.93   18.28
   2   7  21   48.95   15.76
   2   7  23   65.54   14.56
  -7   2  23   53.17   14.86
   2   7  25   24.00    9.63
  -7   2  25   30.47   10.32
   7  -1   0   -2.77   16.77
   7  -1   2 1633.57   66.15
   7  -1  -2 1579.37   66.80
   7  -1   4   16.45   14.60
   7  -1  -4    0.05   14.08
   7  -1  -6 3806.65  110.47
   7  -1   6 3737.64  100.48
   7  -1  -8   -6.07   15.98
   7  -1   8    9.57   10.15
   1   7 -10 1004.20   68.09
   7  -1 -10  817.66   57.23
   7  -1 -12   30.88   18.32
   1   7 -12   47.94   15.66
   7  -1  12   37.50   11.75
   1   7 -12   64.70   25.41
   1   7  12   19.19   10.32
   1   7  12   51.21   14.57
   1   7 -14  976.05   54.59
  -7   1  14 1059.89   54.65
   1   7  14  919.06   50.01
   7  -1  14  917.91   48.02
   1   7  14  947.85   50.63
   1   7 -14  992.13   74.53
  -7   1  16   12.27   10.67
   1   7 -16   15.60   17.07
   1   7  16    9.01   11.08
   7  -1  16    6.25   10.58
   7  -1  18   86.93   16.52
  -7   1  18  118.36   24.09
   1   7  18   83.95   18.69
  -7   1  20   96.91   20.95
   1   7  20  135.40   21.82
  -7   1  22  281.82   29.82
   1   7  22  265.72   27.50
  -7   1  24    5.12   10.02
   1   7  24    2.16   10.19
   7   0  -1  737.57   45.71
   7   0   1  738.33   44.25
   7   0   3  554.26   38.81
   7   0  -3  479.82   39.84
   7   0  -5  390.16   35.66
   7   0   5  477.91   35.73
   7   0  -7 1012.56   58.84
   7   0   7  975.06   49.90
   7   0  -9  305.68   35.92
   7   0 -11   53.36   17.72
   0   7 -13  144.39   22.79
   0   7 -13  122.20   26.30
   7   0  13  137.61   19.89
   0   7  13  122.70   19.74
   0   7  13  127.73   18.90
   7   0  15  593.60   40.68
   0   7 -15  591.25   58.09
  -7   0  15  675.53   45.58
   0   7  15  568.42   40.20
  -7   0  17   26.44   14.88
   7   0  17    2.36   11.77
   0   7  17   10.78   12.10
  -7   0  19  130.53   24.85
   7   0  19  151.09   22.99
   0   7  19  135.43   23.25
  -7   0  21   97.45   18.97
   0   7  21  106.46   20.09
  -7   0  23   83.78   16.99
   0   7  23  110.24   18.55
   0   7  25   36.41    9.31
  -7   0  25   28.36    9.17
   7   1   0    3.71   13.52
   7   1  -2  585.45   41.86
   7   1   2  512.36   37.72
   7   1   4 1945.53   69.33
   7   1  -4 2031.68   79.32
   7   1   6   26.41   11.66
   7   1  -6   37.67   17.57
   7   1  -8  555.42   46.43
   7   1 -10  118.18   26.09
   7   1 -12  537.27   50.30
   7   1  12  506.08   35.99
  -1   7  12  462.69   32.41
   7   1 -14   13.72   15.27
   7   1  14   -3.61   10.99
  -1   7 -14    6.36   16.80
  -1   7  14    4.55    9.31
  -1   7  16  860.53   50.25
   7   1  16  894.55   51.88
  -7  -1  16  878.62   52.37
   7   1  18   19.69   14.24
  -7  -1  18   25.81   15.35
  -1   7  18   21.25   12.80
  -7  -1  20   40.12   15.49
   7   1  20   25.79   13.39
  -1   7  20   -7.65   14.69
  -7  -1  22   -1.80   12.20
  -1   7  22   20.35   12.15
  -7  -1  24  237.11   22.50
  -1   7  24  230.06   22.47
   7   2   1   64.01   16.69
   7   2  -1   76.04   18.56
   7   2   3 1243.01   56.42
   7   2  -3 1181.57   60.43
   7   2   5  352.89   29.85
   7   2  -5  368.76   37.23
   7   2  -7  174.58   28.46
   7   2  -9  655.05   53.25
   7   2 -11  562.36   52.38
   7   2  11  539.14   36.48
  -2   7  13   19.33   11.58
   7   2  13   15.88    9.06
   7   2  13   28.61   12.51
   7   2 -13    0.62   16.32
   7   2 -15  228.12   35.53
  -2   7  15  248.56   27.10
   7   2  15  286.91   29.67
   7   2 -15  218.32   27.53
  -2   7 -15  149.31   31.84
  -7  -2  15  266.07   30.21
   7   2  17  222.78   28.36
  -7  -2  17  200.34   26.74
  -2   7  17  212.99   26.69
   7   2  19   86.54   19.13
  -2   7  19   78.46   18.09
  -7  -2  19   72.61   18.57
  -7  -2  21   52.71   16.57
   7   2  21   18.15   13.12
  -2   7  21   19.62   11.89
  -2   7  23   75.64   14.64
  -7  -2  23   72.16   15.12
  -2   7  25   43.83   10.08
  -7  -2  25   42.75    9.43
   7   3   0  -15.82   13.25
   7   3   2  342.04   30.99
   7   3  -2  328.01   34.07
   7   3   4  100.10   18.11
   7   3  -4  118.14   25.26
   7   3  -6  984.57   60.77
   7   3   6  868.18   43.74
   7   3  -8   16.37   15.30
   7   3 -10  101.40   24.24
  -3   7  12   47.62   12.14
   7   3  12   48.88   13.59
   7   3 -12   82.52   25.22
   7   3  12   47.19   13.23
   7   3 -14  722.13   63.69
   7   3  14  750.40   47.36
  -3   7  14  766.66   45.23
   7   3  14  746.47   45.38
   7   3 -14  815.43   49.69
   7   3  16  215.13   28.12
  -7  -3  16  230.04   28.83
   7   3 -16  187.10   25.09
  -3   7  16  203.61   25.38
  -7  -3  18  269.13   30.53
   7   3  18  235.96   29.02
  -3   7  18  213.52   27.21
  -7  -3  20   -0.05   12.12
   7   3  20    2.62   12.44
  -3   7  20    0.63   10.61
  -7  -3  22   44.05   13.29
  -3   7  22   90.23   17.07
  -3   7  24   27.60    9.58
  -7  -3  24    7.04    7.64
   7   4   1  263.11   30.50
   7   4  -1  229.92   29.56
   7   4  -3    9.55   14.70
   7   4   3   -4.29   24.97
   7   4   5   68.56   14.25
   7   4  -5   98.01   24.18
   7   4  -7  741.17   56.59
   7   4  -9  356.48   42.63
   7   4 -11 1175.09   57.96
   7   4 -11 1149.27   77.29
   7   4  11 1154.46   54.77
   7   4  11 1108.65   53.49
  -4   7  13   80.55   15.82
   7   4  13  110.14   19.39
   7   4 -13   77.22   17.66
   7   4 -13  105.53   27.79
   7   4  13  132.58   21.56
   7   4  15  175.11   23.29
   7   4  15  113.80   20.85
   7   4 -15   88.10   26.38
  -4   7  15  150.16   21.38
   7   4 -15  127.82   21.70
  -7  -4  15  158.32   24.59
   7   4  17   23.35   14.72
  -7  -4  17  -13.70   14.31
   7   4 -17    6.38   13.14
  -4   7  17   21.87   13.21
  -7  -4  19   88.21   19.97
   7   4  19   45.23   18.56
  -4   7  19  107.42   20.90
  -7  -4  21   36.39   13.49
  -4   7  21   33.08   13.69
  -4   7  23   13.86    9.51
  -7  -4  23   29.29   10.06
  -4   7  25   -8.54    6.00
   7   5   0  -13.90   13.28
   7   5  -2  119.10   24.86
   7   5   2  150.77   24.16
   5  -7  -4   -5.45   13.17
   7   5  -4   -7.49   14.03
   7   5   4   -7.66   10.03
   5  -7  -6  129.14   24.12
   7   5  -6  113.22   27.34
   7   5  -8  105.94   26.99
   5  -7  -8   71.26   18.17
   7   5 -10  240.67   27.43
   7   5 -10  216.72   36.37
   7   5  10  224.44   25.89
   7   5  10  220.08   25.60
   7   5 -12   -2.51   15.84
   7   5  12    2.40   10.56
  -5   7  12   11.37   10.71
   7   5 -12    0.21   11.69
   7   5  12  -10.08    9.78
   7   5 -14  187.57   25.84
   7   5  14  219.74   27.43
   7   5 -14  161.49   35.32
  -5   7  14  220.36   26.25
   7   5  14  180.32   24.80
   7   5  16  127.55   20.92
   7   5 -16  150.29   24.25
  -7  -5  16  111.93   21.00
  -5   7  16  138.03   21.76
   7   5  16  140.68   24.43
   7   5  18   38.55   19.05
  -5   7  18    9.37   10.97
   7   5 -18    4.64   11.95
  -7  -5  18    5.14   12.07
  -7  -5  20    1.63    9.89
  -5   7  20    5.85   10.19
  -5   7  22   68.34   13.77
  -7  -5  22   53.04   11.81
  -5   7  24   29.21    9.30
   7   6  -1  624.01   49.93
   7   6   1  635.98   47.96
   6  -7  -1  644.94   52.06
   6  -7  -3  187.18   28.43
   7   6   3  150.41   22.80
   7   6  -3  194.61   31.42
   6  -7  -5   17.75   13.21
   7   6  -5    1.08   14.63
   7   6   7  475.98   35.51
   7   6  -7  485.60   50.52
   7   6  -7  477.68   36.08
   6  -7  -7  485.00   46.08
  -6   7   9  475.47   37.29
   7   6  -9  543.49   54.73
   7   6  -9  546.14   40.22
   7   6  11  165.23   24.07
   7   6  11  156.06   22.59
   7   6 -11  152.44   32.62
   7   6 -11  153.61   24.79
   7   6  13  131.45   24.54
  -6   7  13   89.83   16.91
   7   6  13  123.43   22.50
   7   6 -13  103.88   20.58
   7   6 -13  153.75   35.52
  -6   7  15   -0.15   11.46
   7   6 -15  -10.99   13.59
  -7  -6  15    2.25   10.60
   7   6  15    1.26   13.79
   7   6  15   17.45   13.64
   7   6  17   70.64   17.90
   7   6 -17   92.57   20.97
  -7  -6  17   70.88   17.30
  -6   7  17  101.49   19.40
   7   6  17  117.14   23.40
  -6   7  19   36.73   14.12
  -7  -6  19   16.14   10.39
  -6   7  21  152.29   19.78
  -6   7  23   -3.35    7.24
   7   7   0    3.71   18.70
   7  -7   0   15.55   15.65
   7   7  -2   36.93   20.46
   7   7   2   23.26   17.50
   7  -7  -2   26.76   19.55
   7   7  -4  250.76   35.84
   7  -7  -4  211.13   33.25
  -7   7   6  268.02   28.10
  -7   7  -6  198.91   24.93
   7   7  -6  244.19   26.37
   7   7  -6  251.65   37.66
   7   7   6  230.18   25.77
   7  -7  -6  213.61   33.34
   7   7   8   -4.64   11.53
   7   7  -8   -4.37   19.03
   7   7  -8  -18.52   15.57
  -7   7   8   -2.37   11.88
  -7   7  -8  -14.53   14.64
   7   7 -10   33.00   16.86
   7   7 -10   88.51   20.74
   7   7  10   94.14   19.88
  -7   7  10   58.41   17.48
   7   7 -12  140.76   32.17
   7   7  12  128.35   22.30
   7   7 -12  133.04   24.93
   7   7  14   60.88   16.12
   7   7  14   93.41   21.22
   7   7 -14   60.51   19.44
  -7   7  14   75.39   16.09
   7   7 -16   -7.45   11.77
   7   7  16   -0.28   11.11
  -7   7  16  -23.28   13.98
   7   7  18   67.52   16.95
   7   7 -18   36.52   12.67
  -7   7  18   65.55   14.69
  -7   7  20   25.00   11.08
  -7   7  22   88.00   13.22
  -8   7   1  525.76   39.42
   7   8  -1  574.59   51.40
  -8   7  -1  493.48   37.67
   7   8   1  553.55   48.39
   8  -7  -1  488.10   51.08
   8  -7   1  491.61   50.91
   7   8  -3 1358.45   60.91
  -8   7   3 1464.92   65.10
  -8   7  -3 1304.21   61.86
   7   8  -3 1319.10   80.14
   8  -7  -3 1275.95   80.09
   7   8   3 1353.64   59.56
  -8   7   5  113.32   20.74
   7   8  -5  115.90   20.05
   7   8  -5  154.58   31.88
  -8   7  -5  102.15   19.27
   7   8   5  109.07   18.54
   8  -7  -5  149.82   31.56
   8  -7  -7   19.74   16.40
   7   8  -7   -8.21   21.60
   7   8  -7   30.28   15.59
   7   8   7  -11.94   11.15
  -8   7  -7    6.33   10.18
  -8   7   7    7.29   10.39
   7   8  -9  519.18   41.85
   7   8  -9  401.76   51.74
   7   8   9  448.52   38.55
  -8   7   9  497.06   41.07
   7   8  11  371.79   37.82
   7   8 -11  315.10   48.64
   7   8 -11  333.64   35.22
   7   8  13   38.91   13.86
  -8   7  13   50.43   13.49
   7   8 -13   71.67   21.22
  -8   7  15   48.03   13.94
   7   8  15   56.82   19.01
   7   8 -15   60.20   20.52
   7   8 -17  394.90   36.02
   7   8  17  315.62   31.53
  -8   7  17  324.74   29.12
  -8   7  19  135.38   18.74
   7   8 -19  113.52   17.36
  -8   7  21    6.03    7.01
   6   8   0 1300.96   71.55
   8  -6   0 1326.76   76.51
   6   8  -2  309.66   38.13
   6   8   2  353.06   37.35
   8  -6  -2  371.42   42.52
   8  -6   2  347.23   39.94
   6   8  -4  425.91   46.78
  -8   6   4  389.51   33.70
   8  -6  -4  333.94   41.50
   6   8  -6    5.93    9.60
   6   8   6   -8.03   10.93
   8  -6  -6    1.39   14.76
  -8   6   6   27.01   12.85
   6   8  -6    5.40   18.82
   6   8   8  699.62   45.73
   6   8  -8  685.67   45.98
   8  -6  -8  616.08   55.48
   6   8  -8  663.27   61.89
  -8   6   8  676.27   45.76
   6   8 -10   32.74   20.49
   6   8 -10   41.03   15.28
   6   8  10   10.61   12.80
   6   8 -12   69.28   25.26
   6   8 -12  134.87   25.25
   6   8  12   92.15   20.83
  -8   6  12   58.12   14.09
   6   8  12   95.42   20.02
   6   8  14   -1.11   13.67
   6   8  14    0.59   12.07
   6   8 -14    6.67   14.48
  -8   6  14   16.21   12.30
  -8   6  16  124.77   20.77
   6   8  16  182.30   26.28
   6   8 -16  177.26   26.59
   6   8  16  159.08   25.02
  -8   6  18   73.27   15.67
   6   8  18  138.82   22.20
   6   8 -18  119.25   20.41
  -8   6  20  181.60   21.70
  -8   6  22   28.30    9.80
   5   8  -1 1236.00   68.63
   5   8   1 1194.37   64.09
   8  -5  -1 1156.51   68.86
   8  -5   1 1202.50   70.31
   8  -5   3    3.46   15.96
   5   8  -3   18.86   16.08
   8  -5  -3   28.98   18.68
   5   8   3   13.68   10.42
   5   8  -5 1024.36   69.01
   8  -5  -5  982.91   65.66
   8  -5   5 1030.82   67.95
   5   8  -7 1109.55   74.97
   5   8   7 1107.80   54.56
   5   8  -7 1134.98   55.83
  -8   5   7 1056.88   53.89
   8  -5  -7 1105.33   71.94
   5   8   9  102.76   20.14
   8  -5  -9   97.26   24.80
   5   8  -9  110.36   29.46
   5   8  -9   77.76   17.07
   5   8   9   81.71   17.42
  -8   5   9   88.54   18.45
  -8   5  11    4.98   10.05
   5   8 -11    5.61   12.74
   5   8  11   23.85   12.84
   5   8 -11   20.39   17.86
   5   8  11   20.51   13.88
   5   8 -13  444.18   54.77
   5   8 -13  599.18   46.22
   5   8  13  549.81   41.34
   5   8  13  529.04   43.26
  -8   5  13  504.36   38.90
   5   8  15  294.10   32.31
  -8   5  15  287.77   30.34
   5   8  15  332.37   34.17
   5   8 -15  309.43   33.89
   5   8 -17    3.19   11.46
  -8   5  17    5.90   11.08
   5   8  17   29.67   14.51
   5   8  17  -10.14   14.16
   5   8  19  293.69   31.11
  -8   5  19  319.24   30.37
  -8   5  21  192.99   22.46
  -8   5  23   66.78   12.38
   8  -4   0  753.05   54.53
   4   8   0  792.97   52.32
   4   8   2  365.38   34.93
   8  -4  -2  366.32   39.49
   4   8  -2  392.39   40.25
   8  -4   2  367.54   38.40
   8  -4  -4  -12.97   15.19
   8  -4   4   23.15   17.21
   4   8  -4   -5.06   15.21
   8  -4  -6   -0.36   13.43
   4   8  -6   -8.22   19.67
   8  -4   6   16.12   13.36
  -8   4   8  237.66   26.19
   8  -4  -8  177.38   28.71
   4   8  -8  248.47   37.90
   4   8   8  239.92   27.26
   4   8  -8  223.45   26.40
   4   8 -10   47.88   14.95
   4   8  10  101.75   19.89
   4   8 -10   76.15   25.26
   4   8  10   65.58   14.78
   8  -4 -10  119.33   28.11
  -8   4  12  126.78   20.80
   4   8 -12  150.41   23.98
   4   8 -12   93.94   29.04
   4   8  12  126.35   22.03
   4   8  12  136.30   20.22
   4   8  14   10.71   12.49
   4   8 -14  -13.67   14.55
   4   8  14    7.71   13.44
  -8   4  14    6.30   12.50
  -8   4  16   39.35   16.44
   4   8  16   12.48   12.92
   4   8 -16   43.63   15.76
   4   8  16   23.16   15.95
   4   8 -18  314.17   30.49
   4   8  18  304.50   31.96
  -8   4  18  322.87   32.19
  -8   4  20   56.17   15.93
   4   8  20   57.54   16.17
   4   8  22    5.83    9.72
  -8   4  22   49.04   12.86
  -8   4  24   -4.02    6.56
   8  -3  -1    5.58   15.11
   3   8   1    4.56   11.31
   3   8  -1   -7.37   16.86
   8  -3   1   -1.93   15.11
   8  -3   3 1497.60   73.93
   3   8  -3 1460.77   73.61
   3   8   3 1474.90   62.13
   8  -3  -3 1387.32   71.71
   8  -3  -5 1757.17   82.74
   3   8  -5 1764.49   85.16
   8  -3   5 1904.40   83.31
   3   8  -7  119.94   26.35
   8  -3   7  103.69   23.81
   8  -3  -7  112.59   25.47
   3   8  -9   67.04   22.70
   3   8  -9   55.31   14.96
   3   8   9   78.76   17.69
   8  -3  -9   83.17   22.03
   3   8 -11  723.03   47.77
   8  -3 -11  741.42   60.05
   3   8  11  655.09   41.15
   3   8 -11  687.97   63.10
   3   8  11  742.62   46.35
  -8   3  13  159.42   23.84
   3   8 -13  127.56   24.22
   3   8 -13  166.78   35.71
   3   8  13  173.79   23.71
   3   8  13  161.26   23.75
   3   8  15   60.46   17.21
   3   8 -15   44.41   23.17
   3   8 -15   64.49   19.46
   3   8  15   53.84   15.98
  -8   3  15   69.11   18.67
   3   8 -17  145.17   23.30
   3   8  17  190.42   25.77
   3   8  17  142.63   24.10
  -8   3  17  185.28   26.44
  -8   3  19  112.29   21.31
   3   8  19  145.74   23.45
  -8   3  21   31.82   14.56
   3   8  21   16.92   12.49
   3   8  23   78.00   14.13
  -8   3  23   70.83   13.35
  -8   3  25   26.96    7.52
   8  -2   0    5.69   14.41
   8  -2  -2  170.82   27.19
   8  -2   2  169.21   27.33
   8  -2  -4  359.93   38.39
   2   8   4  338.33   28.32
   8  -2   4  342.39   35.27
   8  -2  -6   14.36   15.03
   8  -2   6   -2.65   14.33
   2   8  -8  563.24   52.18
   8  -2  -8  513.58   47.59
   2   8 -10  220.26   25.94
   8  -2 -10  209.53   32.72
   2   8  10  226.77   25.99
   2   8 -10  243.73   38.83
   8  -2 -12  -10.70   16.70
   2   8 -12    3.24   10.31
   2   8  12   21.58   13.60
   2   8  12   12.58    9.34
   2   8 -12   27.85   22.60
   2   8 -14   -1.93   13.70
   2   8 -14    6.24   15.49
  -8   2  14    1.73   11.59
   2   8  14   13.66   11.24
   2   8  14   -2.01   10.90
   2   8  16   30.82   14.24
  -8   2  16   14.57   14.91
   2   8 -16   -1.97   11.86
   2   8  16    0.95   14.03
   2   8  18   30.02   14.05
  -8   2  18    0.59   14.87
  -8   2  20   -3.06   14.46
   2   8  20    9.68   12.73
  -8   2  22   -0.04   13.41
   2   8  22    4.29   10.99
   2   8  24  -13.47    9.31
  -8   2  24    1.48    8.62
   8  -1  -1   67.48   20.99
   8  -1   1   95.29   20.94
   8  -1  -3  723.23   49.98
   8  -1   3  716.58   49.43
   8  -1  -5  460.83   41.97
   8  -1   5  424.35   37.86
   8  -1  -7  587.34   49.87
   8  -1   7  530.41   41.99
   8  -1  -9  271.12   35.35
   1   8 -11   15.88   15.90
   1   8  11    7.37   10.48
   8  -1 -11   15.88   14.11
   1   8 -11   45.07   13.92
   8  -1  11   24.77   11.89
   1   8  11   -4.63   11.19
   8  -1 -13  283.92   38.98
   1   8 -13  201.46   26.11
   1   8  13  262.02   26.89
   1   8  13  280.92   30.07
   1   8 -13  257.67   41.04
   1   8 -15    2.48   11.50
   1   8 -15  -12.95   18.38
  -8   1  15   11.77   12.86
   1   8  15   22.62   13.41
  -8   1  17   66.04   18.57
   1   8  17  101.36   20.48
  -8   1  19  213.59   28.20
   1   8  19  203.64   24.74
   1   8  21  106.44   20.52
  -8   1  21   83.85   19.22
   1   8  23   54.76   12.67
  -8   1  23   49.18   13.71
   1   8  25   11.66    6.79
  -8   1  25   13.86    7.89
   8   0   0   75.86   20.15
   8   0   2 1456.14   67.36
   8   0  -2 1504.91   71.02
   8   0  -4   16.28   13.16
   8   0   4   13.70   12.92
   8   0   6   -1.01   11.20
   8   0  -6   13.91   14.69
   8   0  -8  237.81   32.39
   8   0   8  210.39   26.18
   0   8  10  102.77   19.00
   8   0 -10  116.28   26.72
   0   8 -10   89.70   18.06
   0   8 -12   -6.59   18.29
   0   8  12   17.29   12.30
   0   8 -12   10.47   12.70
   8   0 -12    2.26   12.89
   0   8  12   17.73   11.97
   8   0  12   17.87    8.62
   8   0 -14   76.92   25.88
   0   8 -14   76.71   18.12
   8   0  14   69.44   16.91
   0   8 -14   51.11   29.35
   0   8  14   78.45   17.88
  -8   0  16   36.38   15.69
   0   8  16   17.58   13.11
  -8   0  18  523.39   42.64
   0   8  18  612.47   43.20
  -8   0  20   42.63   15.59
   0   8  20   42.52   13.89
  -8   0  22    2.37   11.64
   0   8  22    5.52   11.53
   0   8  24   -5.57    7.72
  -8   0  24  -10.03    7.54
   8   1   1  508.72   41.78
   8   1  -1  527.72   42.42
   8   1  -3   28.22   16.79
   8   1   3   14.01   11.33
   8   1  -5  312.55   36.03
   8   1   5  291.26   31.10
   8   1   7  249.94   27.60
   8   1  -7  269.20   35.01
   8   1  -9  125.60   26.05
  -1   8 -11    9.74   10.33
   8   1  11    3.94    9.39
   8   1  11    6.17    8.30
   8   1 -11   12.47   17.12
  -1   8 -13  109.19   20.09
   8   1 -13   87.82   24.38
  -1   8 -13  111.89   28.77
   8   1  13  107.18   20.23
   8   1  13  110.45   18.17
  -1   8  13  105.13   18.46
  -8  -1  15  194.06   27.24
   8   1  15  173.28   24.70
  -1   8 -15  220.88   42.41
  -1   8  15  164.27   22.96
  -8  -1  17  127.30   23.06
  -1   8  17  138.92   23.21
   8   1  17  127.38   21.39
  -8  -1  19   32.11   15.31
  -1   8  19   62.18   18.43
  -8  -1  21  233.36   26.96
  -1   8  21  257.34   27.32
  -8  -1  23   49.60   12.55
  -1   8  23   26.88   10.78
  -1   8  25    7.83    5.59
  -8  -1  25   20.63    7.11
   8   2   0 1564.11   70.94
   8   2   2  114.94   22.27
   8   2  -2  142.94   26.48
   8   2   4    4.49   10.70
   8   2  -4   21.46   18.45
   8   2  -6  459.20   44.23
   8   2   6  455.02   36.55
   8   2  -8 2192.50   98.29
  -2   8 -10   19.01   13.40
   8   2 -10   49.60   22.45
   8   2  10   35.96   13.91
   8   2  12  299.48   29.18
   8   2  12  287.72   29.69
  -2   8 -12  271.53   29.32
   8   2 -12  374.50   46.49
  -2   8  12  281.96   26.26
   8   2  14   -6.37   11.41
   8   2  14   18.68   14.07
  -2   8  14   26.07   14.10
   8   2 -14  -21.60   18.26
   8   2 -16  609.01   42.69
   8   2  16  691.70   47.30
  -2   8  16  632.83   43.30
  -8  -2  16  663.65   48.09
  -8  -2  18   -2.69   11.89
  -2   8  18   18.84   12.94
  -8  -2  20  645.75   44.00
  -2   8  20  673.65   42.64
  -8  -2  22   -0.08   11.59
  -2   8  22    4.23   10.12
  -2   8  24    4.85    7.02
  -8  -2  24   22.87    9.01
   8   3  -1 1155.94   64.29
   8   3   1 1159.00   62.33
   8   3  -3  422.52   42.14
   8   3   3  368.40   35.57
   8   3  -5   44.21   23.01
   8   3   5    7.99    9.93
   8   3  -7   41.81   19.91
   8   3   9 1362.55   59.01
   8   3  -9 1412.78   83.13
   8   3  11  319.02   30.11
   8   3  11  284.78   29.07
   8   3 -11  301.66   43.69
  -3   8 -11  261.79   30.46
   8   3 -13   29.84   12.37
   8   3  13   34.09   15.96
   8   3  13   43.22   14.16
   8   3 -13   70.50   26.32
  -3   8  13   21.73    9.74
   8   3 -15    5.18   11.37
   8   3  15    3.94   10.16
   8   3  15   57.57   18.64
   8   3 -15   34.21   23.57
  -3   8  15   26.49   12.74
   8   3  17  295.82   32.49
  -3   8  17  259.67   28.82
   8   3 -17  247.89   29.18
  -8  -3  17  233.26   28.76
  -8  -3  19  147.76   23.47
  -3   8  19  135.83   22.55
  -8  -3  21   26.88   13.35
  -3   8  21   20.95   11.46
  -3   8  23   80.59   13.43
  -8  -3  23   94.10   15.38
   8   4   0 1208.29   66.70
   8   4   2 1420.17   68.83
   8   4  -2 1396.86   73.09
   8   4  -4  421.71   43.97
   8   4   4  400.39   35.73
   8   4  -6  885.55   64.26
   8   4  -8  -17.61   17.51
   8   4   8   -4.64   10.13
   8   4  10 2555.62   83.12
   8   4 -10 2444.00  113.84
   8   4 -12  124.92   22.73
   8   4  12  124.52   20.97
   8   4 -12   76.80   28.46
   8   4  12  100.33   17.78
   8   4  14  125.05   22.36
   8   4 -14   81.39   27.16
   8   4 -14  119.90   22.51
   8   4  14  108.01   22.10
  -4   8  14  109.54   18.42
  -8  -4  16   -5.84   11.17
   8   4 -16    7.10   13.20
   8   4  16   -7.99   11.89
   8   4  16  -11.76   14.62
  -4   8  16    8.55   10.72
  -4   8  18  363.35   32.21
  -8  -4  18  396.56   35.77
   8   4 -18  409.76   34.82
  -8  -4  20   21.99   13.18
  -4   8  20   -7.67   12.59
  -8  -4  22   79.06   15.08
  -4   8  22   90.42   14.58
  -4   8  24   -0.57    5.52
   8   5   1 1303.36   70.12
   8   5  -1 1201.40   69.62
   8   5  -3  562.50   49.82
   8   5   3  542.88   43.98
   8   5  -5    3.25   16.82
  -5   8  -7  476.97   36.71
   8   5   7  547.80   37.91
   8   5  -7  506.22   51.67
  -5   8  -9  351.66   33.28
   8   5  -9  394.11   34.84
   8   5   9  452.71   36.57
   8   5  -9  415.95   50.75
   8   5 -11  594.95   44.68
   8   5 -11  538.20   58.01
   8   5  11  627.56   43.53
  -5   8 -11  498.33   40.09
   8   5 -13  104.12   25.00
   8   5  13   66.46   19.71
   8   5 -13   92.34   29.80
   8   5 -15  273.39   32.00
  -8  -5  15  227.53   28.13
   8   5  15  229.53   27.24
  -5   8  15  241.59   27.13
   8   5  17  106.08   20.26
   8   5 -17  136.46   22.82
  -8  -5  17  113.01   21.35
  -5   8  17  110.49   19.13
  -5   8  19  251.10   26.09
  -8  -5  19  234.83   26.33
   8   5 -19  238.77   25.09
  -8  -5  21   42.64   11.25
  -5   8  21   40.77   12.01
  -5   8  23   19.81    7.30
   8   6   0 1895.63   88.33
   8   6  -2    7.71   15.38
   8   6   2    3.61   12.66
   8   6  -4   69.95   19.67
  -6   8  -6   61.81   17.11
  -6   8   6   38.20   14.27
   8   6  -6   46.08   20.20
   8   6  -6   83.01   18.16
   8   6   6   63.64   15.91
   8   6  -8 1582.22   68.52
   8   6   8 1625.50   68.70
  -6   8   8 1333.19   62.63
   8   6  -8 1563.38   93.86
  -6   8  -8 1326.46   63.29
  -6   8 -10   25.98   14.57
   8   6 -10  -14.33   18.44
   8   6 -10   20.10   15.36
   8   6  10   35.48   15.81
   8   6 -12  491.39   42.14
   8   6  12  481.13   40.72
   8   6 -12  409.74   52.92
   8   6  14  145.44   24.30
   8   6 -14  122.86   22.99
   8   6  16  148.10   23.90
   8   6 -16  151.85   25.85
  -8  -6  16  140.91   22.26
  -6   8  16  130.04   19.24
  -8  -6  18   35.76   14.24
   8   6  18   29.28   11.67
   8   6 -18   16.21   12.58
  -6   8  18   16.80    9.79
  -6   8  20  309.21   25.79
  -6   8  22   14.07    7.00
  -7   8  -1  129.71   20.31
  -7   8   1   91.54   18.69
   8   7   1  140.37   27.86
   8   7  -1  101.35   25.36
  -7   8   3   20.18   11.10
  -7   8  -3   41.35   16.62
   8   7  -3   73.33   25.83
   8   7  -3   23.71    9.45
   8   7   3   42.57   15.43
   8   7  -5   15.06   13.25
  -7   8  -5   33.27   15.77
   8   7  -5   10.11   14.76
  -7   8   5  -11.95   13.21
   8   7   5   -1.47   11.43
  -7   8   7  643.21   44.69
   8   7   7  667.81   45.85
   8   7  -7  745.95   48.44
   8   7  -7  662.90   61.18
  -7   8  -7  617.77   44.28
  -7   8   9  382.43   35.30
   8   7   9  395.35   37.01
  -7   8  -9  370.24   35.15
   8   7  -9  381.33   51.35
   8   7  -9  372.40   36.25
   8   7 -11  575.86   45.74
   8   7  11  605.42   46.53
   8   7 -11  479.74   57.79
   8   7 -13   55.18   17.80
   8   7  13   47.42   19.35
  -8  -7  15    8.13   10.80
   8   7  15   -3.82   12.17
   8   7 -15   17.81   15.98
  -7   8  15    6.23    8.73
  -7   8  17   -8.50    9.62
   8   7  17   25.89   12.32
   8   7 -17    9.44   11.88
   8   7 -19   90.12   17.54
  -7   8  19   82.53   15.20
  -7   8  21   54.78   15.85
   8   8   0  247.20   25.81
   8   8   0  213.99   25.90
   8   8   0  199.30   31.70
  -8   8   0  304.07   32.04
  -8   8   2  796.22   50.94
   8   8  -2  702.60   44.95
   8   8   2  675.28   43.55
   8   8  -2  824.05   66.74
  -8   8  -2  781.20   50.06
  -8   8   4   36.16   14.87
  -8   8  -4   12.71   11.99
   8   8  -4    6.10   10.70
   8   8  -4   43.12   23.30
   8  -8  -4   55.18   21.17
   8   8   4   36.18   13.72
   8  -8  -6  125.05   31.01
   8   8  -6  117.05   28.66
   8   8  -6  141.89   22.62
   8   8   6  156.50   24.02
  -8   8  -6  168.97   25.28
  -8   8   6  124.66   22.69
   8   8  -8   -7.78   19.35
   8   8  -8   20.26   13.08
  -8   8  -8   30.83   14.46
   8   8   8   -2.52   13.55
  -8   8   8   25.08   13.69
   8   8  10 1384.58   69.55
   8   8 -10 1194.22   89.98
   8   8 -10 1327.19   68.38
  -8   8  10 1325.21   65.79
   8   8  12   22.24   16.40
   8   8 -12    1.00   14.37
   8   8  14   56.28   19.35
   8   8 -14   67.79   19.90
   8   8  16   49.64   18.78
   8   8 -16   33.96   17.11
   8   8  18  287.22   27.28
   8   8 -18  325.04   30.21
  -8   8  18  300.99   25.46
  -8   8  20    4.16    6.21
  -9   8   1    1.19   11.99
   8   9  -1   16.58   11.07
  -9   8  -1    4.90   11.49
   8   9  -1   -3.47   12.07
   8   9   1    6.89   10.32
   8   9  -1    0.47   12.65
   8   9   3   24.17   14.56
   8   9  -3    4.73   16.96
  -9   8  -3   -9.52   13.46
  -9   8   3    1.21   12.96
   8   9  -3    3.28   13.71
   9  -8  -3   34.64   21.69
  -9   8   5   79.78   20.18
   8   9  -5   96.35   32.64
   8   9  -5   95.79   20.66
  -9   8  -5  114.89   23.27
   8   9   5   67.40   18.42
   9  -8  -5   52.62   22.32
   8   9  -7    6.52   16.23
  -9   8  -7   12.46   13.72
   8   9  -7   38.87   15.36
   8   9   7   42.44   17.22
  -9   8   7   38.29   16.79
   9  -8  -7   25.48   15.26
  -9   8   9  282.28   32.73
   8   9  -9  267.68   33.28
   8   9   9  239.20   30.63
  -9   8  -9  230.50   28.62
   8   9 -11    5.71   16.93
   8   9  11    6.05   16.94
   8   9  13   -3.34   15.62
   8   9 -13    2.48   14.37
   8   9 -15   49.01   17.62
   8   9  15   70.12   19.82
   8   9 -17  113.29   20.93
   8   9  17  105.13   20.33
   8   9 -19   26.50   10.81
   8   9  19   10.43    9.93
  -9   7   0  -16.93   12.21
   7   9   0   -1.08   11.02
   7   9   0    8.61   16.42
   9  -7   0   30.82   19.01
   7   9   0   -8.39   13.27
  -9   7   2  251.86   29.42
  -9   7  -2  276.73   30.81
   9  -7  -2  218.86   38.03
   7   9  -2  329.92   43.29
   7   9  -2  289.19   30.12
   7   9   2  273.22   28.56
  -9   7  -4  479.83   39.42
  -9   7   4  524.41   41.70
   7   9  -4  521.33   40.89
   7   9  -4  440.81   50.49
   7   9   4  518.86   40.11
   9  -7  -4  404.12   49.46
  -9   7   6   42.80   16.55
   7   9  -6   53.68   26.64
   7   9  -6   34.79   14.50
  -9   7  -6   25.55   12.70
   9  -7  -6   69.03   25.38
   7   9   6   47.75   18.22
   7   9  -8  238.13   40.31
   7   9   8  405.39   38.07
  -9   7   8  357.59   37.01
   7   9  -8  376.43   37.38
  -9   7  -8  287.46   31.09
   9  -7  -8  256.74   40.01
   7   9 -10   14.77   14.65
   7   9  10   -3.21   13.91
   7   9 -12   47.20   15.69
   7   9  12   59.05   20.59
   7   9 -14  139.79   25.65
   7   9  14  144.15   26.61
  -9   7  14   97.41   18.53
   7   9 -16  293.24   33.21
   7   9  16  302.65   32.54
  -9   7  16  272.81   26.41
   7   9 -18  -11.68   11.69
   7   9  18   12.09   12.04
  -9   7  18    0.48    8.20
  -9   7  20    2.92    6.79
   9  -6   1   -5.92   17.69
  -9   6  -1   31.71   14.13
   6   9   1    6.67   12.83
   6   9  -1   44.34   20.57
   9  -6  -1   23.92   15.87
   6   9  -1   15.31    8.93
   6   9   1   13.93   10.16
  -9   6   1   17.43   10.94
  -9   6   3  110.84   19.88
  -9   6  -3  111.92   21.34
   9  -6  -3  150.08   34.50
   6   9  -3  122.35   20.95
   6   9   3   97.84   18.28
   9  -6   3  100.63   27.61
   6   9  -3   82.98   22.93
  -9   6   5   17.53   13.60
   6   9  -5   21.21   20.12
  -9   6  -5   32.82   13.53
   6   9  -5   14.74   13.30
   6   9   5   19.40   12.09
   9  -6  -5   45.26   21.44
   6   9  -7  154.03   31.64
  -9   6  -7  149.53   23.24
   6   9  -7  178.60   25.43
   6   9   7  177.87   25.06
  -9   6   7  152.93   23.47
   9  -6  -7  250.19   38.60
   6   9  -9    9.57   13.35
   6   9   9   -5.28   13.93
   6   9  -9   31.73   24.23
   9  -6  -9   11.16   17.78
  -9   6  11   -3.59   10.22
   6   9 -11   14.96   16.95
   6   9 -11  -10.16   15.44
   6   9  11   19.02   17.21
   6   9  13  111.62   23.89
  -9   6  13  107.62   20.44
   6   9 -13   91.67   23.57
  -9   6  15   -6.18   12.50
   6   9 -15   39.07   17.04
   6   9  15   11.08   14.09
  -9   6  17   26.97   12.31
   6   9 -17   44.69   17.63
   6   9  17   34.77   16.07
   6   9 -19   21.82   11.15
  -9   6  19   22.63   11.22
  -9   6  21   -2.45    8.36
   5   9   0    8.21   13.28
   9  -5   0   12.57   14.46
   5   9  -2   10.35   15.20
   5   9   2   26.74   16.75
   9  -5   2   -2.24   18.64
   9  -5  -2   -5.84   19.27
  -9   5   2    5.51    8.93
   5   9  -4 1137.95   55.99
   5   9  -4 1108.52   73.29
  -9   5   4 1174.09   57.64
   5   9   4 1182.37   55.27
   9  -5  -4 1169.49   75.67
   9  -5   4 1193.09   76.10
  -9   5   6  604.59   43.04
   5   9  -6  519.82   39.24
   5   9  -6  567.44   56.04
   9  -5  -6  572.17   54.27
   5   9   6  578.63   41.50
   5   9  -8   31.13   20.97
   9  -5  -8   54.45   21.19
  -9   5   8   84.83   18.64
   5   9  -8   60.75   16.62
   5   9   8   59.08   16.53
   9  -5 -10  -15.82   19.89
   5   9 -10    6.37   12.64
   5   9 -10   -0.11   15.80
  -9   5  10   18.84   10.55
   5   9  10   24.94   14.17
   5   9 -12  360.14   52.27
   5   9  12  418.72   39.72
   5   9  12  387.91   34.04
  -9   5  12  396.43   34.03
   5   9 -12  400.88   39.54
  -9   5  14  116.57   20.96
   5   9  14  115.99   22.45
   5   9 -14  145.73   26.29
   5   9  14  126.64   22.82
   5   9  16  141.68   22.59
  -9   5  16  116.14   20.24
   5   9 -16  122.87   23.25
   5   9  16  111.78   20.66
  -9   5  18  174.21   23.54
   5   9  18  187.50   23.70
   5   9 -18  151.94   23.12
   5   9  18  119.52   20.28
  -9   5  20   10.96    9.83
  -9   5  22   31.09    9.03
   4   9   1   -6.91   10.58
   9  -4  -1    3.20   16.42
   9  -4   1   20.78   19.31
   4   9  -1   11.32   12.91
   4   9  -3  234.43   33.92
   9  -4  -3  217.87   33.60
   9  -4   3  236.84   35.12
  -9   4   5  518.15   38.20
   4   9   5  480.97   35.85
   9  -4  -5  522.53   50.34
   4   9  -5  551.16   52.80
   4   9  -5  545.60   38.75
   9  -4   5  516.93   49.88
   9  -4  -7   98.42   24.70
   4   9   7   78.24   18.27
   4   9  -7   63.79   16.45
  -9   4   7   56.22   16.49
   4   9  -7   92.23   24.75
   4   9  -9    1.35   12.72
   4   9  -9  -12.94   21.08
   9  -4  -9  -11.96   14.43
   4   9   9   11.56   12.38
   4   9   9   -8.41    8.78
   9  -4  11  126.04   19.22
   9  -4 -11  139.65   32.90
   4   9 -11  133.48   24.41
   4   9  11  136.95   24.41
   4   9  11  136.97   20.24
   4   9 -11   81.64   26.95
  -9   4  13   22.68   15.47
   4   9 -13   23.40   16.54
   4   9 -13  -21.66   25.80
   4   9  13    8.57   20.30
   4   9  13    9.88   12.35
   4   9 -15   17.24   15.51
   4   9  15   16.52   15.00
   4   9  15   -7.53   11.46
  -9   4  15   -6.48   13.69
  -9   4  17    4.18   12.81
   4   9  17   31.10   16.76
   4   9 -17   24.78   15.72
   4   9  17   19.29   14.54
  -9   4  19   11.76   12.43
   4   9  19   12.08   12.47
  -9   4  21   10.98   10.43
  -9   4  23    9.54    8.17
   3   9   0  -10.59   13.39
   9  -3   0  -27.59   19.53
   3   9   2 1033.20   58.31
   3   9  -2 1104.89   67.42
   9  -3  -2 1135.38   69.45
   9  -3   2 1181.15   70.00
   9  -3   4  129.53   25.44
   3   9  -4  189.50   30.28
   9  -3  -4  194.97   30.54
   3   9  -6 3555.19  129.89
   3   9  -6 3365.68   93.86
   3   9   6 3283.42   91.87
   9  -3  -6 3370.57  122.99
   9  -3   6 3360.88  120.44
   3   9  -8   23.97   25.69
   3   9   8   10.43    9.71
   3   9  -8   -2.87   10.06
   9  -3  -8  -27.89   20.51
   3   9  10  441.82   38.03
   3   9 -10  404.18   51.19
   3   9 -10  382.05   36.62
   9  -3  10  373.71   31.85
   3   9  10  334.99   29.64
   9  -3 -10  397.88   47.12
   3   9 -12   35.05   20.11
   3   9  12   14.05   12.11
   3   9 -12   16.37   14.06
   9  -3  12   16.02   10.29
   3   9  12   10.51    9.19
   9  -3 -12   34.43   18.29
   3   9 -14  327.50   35.66
   3   9  14  319.88   31.70
   3   9 -14  243.21   44.62
   3   9  14  334.55   34.49
  -9   3  14  340.03   33.70
   3   9  16   13.12   15.86
   3   9 -16   41.19   16.83
  -9   3  16    4.00   12.71
   3   9  16   44.81   16.58
  -9   3  18   48.09   15.05
   3   9  18   13.67   11.66
   3   9  20   -3.33   10.98
  -9   3  20    8.06   11.86
   3   9  22  177.63   19.85
  -9   3  22  180.56   20.28
  -9   3  24    5.26    6.49
   9  -2   1  148.52   27.58
   9  -2  -1  137.10   27.03
   2   9   3   23.69   13.77
   9  -2   3   11.78   14.30
   9  -2  -3    4.47   15.68
   9  -2  -5 1180.36   71.65
   9  -2   5 1316.15   72.77
   2   9  -7  289.82   39.76
   2   9  -7  280.93   29.14
   9  -2  -7  264.30   36.41
   2   9   7  301.72   29.34
   9  -2   7  267.63   35.62
   2   9  -9  113.64   21.86
   9  -2   9  108.15   17.85
   9  -2  -9  146.45   31.47
   2   9  -9  101.77   27.52
   2   9   9   78.70   18.24
   2   9 -11   66.12   28.27
   2   9  11   22.22   11.57
   2   9  11   20.59   13.11
   9  -2  11   31.82   11.96
   9  -2 -11   31.21   15.15
   2   9 -11   30.83   16.61
   2   9  13   85.68   18.99
   2   9 -13   84.53   20.72
   2   9  13   74.54   17.43
   2   9 -13   50.79   29.41
   2   9 -15   66.39   19.15
   2   9  15   55.12   18.39
  -9   2  15   27.26   14.97
   2   9  15   57.80   15.98
  -9   2  17   -1.72   13.96
   2   9 -17   19.93   13.12
   2   9  17   28.19   14.68
  -9   2  19   85.17   19.71
   2   9  19   78.27   19.18
  -9   2  21  109.49   17.66
   2   9  21  163.65   20.93
   2   9  23   22.74    9.35
  -9   2  23   26.22    9.60
   9  -1   0    2.17   14.12
   9  -1  -2    2.15   15.88
   9  -1   2   16.40   14.91
   9  -1  -4 1136.20   68.29
   9  -1   4 1279.49   69.74
   9  -1  -6    8.94   15.98
   9  -1   6    3.03   12.69
   9  -1   8   70.56   18.98
   9  -1  -8   76.08   24.07
   9  -1   8   76.28   15.89
   1   9   8   54.83   15.80
   1   9  -8   50.20   15.63
   1   9 -10   -7.31   18.14
   9  -1 -10   39.38   19.37
   1   9  10   16.25   13.05
   1   9 -10    5.32   12.50
   9  -1  10   18.43   11.13
   1   9 -12  448.12   54.00
   9  -1 -12  315.74   42.89
   1   9  12  386.05   31.87
   1   9  12  395.50   35.33
   9  -1  12  429.27   34.11
   1   9 -12  472.41   40.83
   1   9 -14   75.70   26.81
   1   9 -14   10.77   12.04
   1   9  14   19.97   13.57
   1   9  14   88.00   20.86
   1   9 -16  370.63   35.48
   1   9  16  336.44   32.35
  -9   1  16  392.86   36.40
  -9   1  18   74.89   19.77
   1   9  18   93.28   19.29
  -9   1  20   76.88   17.15
   1   9  20   55.71   15.56
  -9   1  22   10.82   10.60
   1   9  22   14.85   10.26
  -9   1  24  103.01   14.09
   9   0  -1  293.83   34.42
   9   0   1  308.32   36.13
   9   0  -3 1849.71   85.20
   9   0   3 1716.67   80.09
   9   0   5   76.78   20.97
   9   0  -5   69.55   21.45
   9   0  -7   23.24   15.20
   9   0   7  -17.65   11.15
   9   0  -9  109.11   26.70
   0   9  -9  172.11   24.35
   9   0   9  122.35   19.50
   0   9   9  147.92   22.53
   0   9  11  452.99   37.70
   9   0  11  458.35   36.16
   0   9 -11  441.56   37.59
   9   0 -11  416.10   48.54
   9   0 -13   80.19   21.22
   0   9  13  142.12   20.64
   9   0  13  108.72   19.11
   0   9 -13  122.70   32.39
  -9   0  15  102.19   21.92
   0   9 -15  103.11   21.42
   0   9 -15   65.34   22.37
   0   9  15  101.83   19.67
   9   0 -17  307.65   30.09
   0   9  17  288.74   30.21
  -9   0  17  297.98   33.14
  -9   0  19  158.32   25.32
   0   9  19  161.89   23.23
   0   9  21    7.15   10.34
  -9   0  21    9.58   11.73
   0   9  23   70.84   12.47
  -9   0  23   68.31   13.80
   9   1   0    2.62   17.52
   9   1  -2 1297.07   71.40
   9   1   2 1241.96   67.55
   9   1  -4   59.16   19.71
   9   1   4   42.98   14.24
   9   1  -6  609.04   52.82
   9   1   6  497.71   42.21
   9   1   8    2.72   11.27
  -1   9  -8   10.05   10.86
   9   1  -8  -14.15   20.70
  -1   9 -10   29.21   10.41
   9   1 -10   46.17   19.38
   9   1 -12  -11.18   22.88
  -1   9 -12   36.65   18.50
   9   1  12   15.54   12.18
   9   1  14  608.91   41.52
   9   1 -14  488.56   54.10
  -1   9  14  643.68   41.47
  -1   9 -14  662.64   47.27
  -1   9 -14  488.22   56.32
  -9  -1  16   60.10   18.61
   9   1 -16   33.69   11.84
  -1   9  16   63.13   15.92
  -9  -1  18   -0.05   12.60
  -1   9  18  -22.97   14.49
  -9  -1  20   13.35   15.01
  -1   9  20   -3.49   11.21
  -9  -1  22  127.60   18.56
  -1   9  22  100.45   15.74
  -1   9  24   33.42    7.81
  -9  -1  24   18.40    8.13
   9   2  -1 1086.16   65.77
   9   2   1 1176.72   67.53
   9   2  -3  119.28   25.48
   9   2   3   77.08   18.69
   9   2   5  117.28   22.04
   9   2  -5   99.79   23.55
  -2   9  -7  666.49   42.77
   9   2   7  746.98   43.87
   9   2  -7  665.47   58.06
  -2   9  -9  432.41   36.73
   9   2   9  465.36   36.86
   9   2  -9  406.87   47.21
  -2   9 -11  156.93   23.19
   9   2  11  184.17   24.73
   9   2 -11  181.48   34.57
  -2   9 -13  457.57   40.80
   9   2 -13  390.60   49.50
   9   2  13  449.29   36.92
   9   2 -15  242.65   29.53
   9   2  15  294.06   30.38
  -2   9  15  294.35   29.04
  -9  -2  17   54.17   18.33
   9   2 -17   76.15   16.89
  -2   9  17   60.39   15.62
  -9  -2  19  230.23   28.76
  -2   9  19  190.92   23.39
  -9  -2  21   46.79   13.82
  -2   9  21   60.83   13.51
  -2   9  23   19.93    7.56
  -9  -2  23   29.71   10.49
   9   3   0    7.45   16.17
   9   3   2  300.86   36.35
   9   3  -2  314.32   37.65
   9   3   4  278.64   32.41
   9   3  -4  239.27   34.94
   9   3  -6   68.57   25.26
   9   3   6   66.24   15.04
   9   3   8  203.51   24.47
  -3   9  -8  155.20   23.09
   9   3  -8  188.72   35.18
  -3   9 -10   20.90   15.47
   9   3 -10    8.34   20.46
   9   3  10   -1.15    9.47
  -3   9 -12   15.59   14.93
   9   3  12   12.31   12.03
   9   3 -12   -3.72   23.71
   9   3 -14    2.92   19.39
   9   3  14   28.26   13.08
   9   3 -14   11.69   15.13
  -9  -3  16    9.88   12.46
   9   3 -16    1.91   10.88
   9   3  16    8.68   10.26
  -3   9  16   31.80   13.41
   9   3 -18   14.29   11.40
  -9  -3  18    3.14   13.21
  -3   9  18   -3.59   10.82
  -9  -3  20   19.37   13.08
  -3   9  20   24.39   11.97
  -9  -3  22   16.35   10.48
  -3   9  22   22.50    8.86
   9   4   1  154.46   27.62
   9   4  -1  139.55   24.97
   9   4  -3  499.44   50.06
   9   4   3  475.57   44.27
  -4   9  -5  510.32   37.78
   9   4   5  571.05   38.89
   9   4  -5  577.95   54.82
   9   4   7  280.36   28.67
  -4   9  -7  269.43   30.15
   9   4  -7  246.37   37.59
  -4   9  -9  754.62   49.26
   9   4   9  721.12   46.52
   9   4  -9  674.49   63.03
  -4   9 -11   72.45   16.64
   9   4 -11   79.91   18.77
   9   4  11   70.39   17.49
   9   4 -11   35.80   23.40
  -4   9 -13   11.35   11.36
   9   4 -13  -29.39   17.66
   9   4  13   -1.09   13.05
   9   4 -13   -8.14   19.64
   9   4 -15   92.08   20.95
   9   4  15   88.98   18.37
   9   4 -17  187.26   25.96
   9   4  17  221.56   25.88
  -4   9  17  206.60   24.81
  -9  -4  17  180.51   25.40
  -9  -4  19   89.84   18.45
   9   4 -19   60.02   13.13
  -4   9  19   72.14   14.49
  -4   9  21   34.10    9.63
  -9  -4  21   41.83   12.44
  -9  -4  23   -3.56    5.40
   9   5   0    2.09   13.35
  -5   9  -2    1.09   10.14
   9   5  -2   26.40   14.77
   9   5   2   -3.44   12.40
  -5   9  -4  572.60   40.73
   9   5   4  589.01   39.53
   9   5  -4  659.82   57.95
  -5   9   4  497.62   37.92
  -5   9   6    4.07    9.70
  -5   9  -6   21.46   12.46
   9   5  -6  -11.76   19.20
   9   5   6    8.37   10.93
  -5   9   8   39.60   13.56
   9   5  -8   22.76   13.99
  -5   9  -8   13.81   12.56
   9   5  -8    7.51   18.25
   9   5   8   -0.76   13.00
  -5   9 -10   28.00   13.44
   9   5 -10   26.01   15.70
   9   5 -10   42.21   24.08
   9   5  10   41.63   16.16
  -5   9 -12  215.37   28.31
   9   5 -12  248.55   31.28
   9   5  12  240.45   29.86
   9   5 -12  245.90   45.33
   9   5 -14    5.36   14.10
   9   5  14  -10.08   13.54
  -9  -5  16   70.43   17.98
   9   5  16   43.05   14.50
   9   5 -16   76.45   17.93
   9   5 -18   -4.64   11.67
  -9  -5  18    8.53   11.63
  -5   9  18  -26.29   12.74
  -9  -5  20    1.97    8.49
  -5   9  20    1.17   10.98
  -9  -5  22   16.97    7.90
   9   6   1  415.20   45.00
  -6   9   1  481.21   38.38
   9   6  -1  537.26   53.02
   9   6   1  377.66   31.62
   9   6  -1  387.81   32.30
  -6   9  -1  441.04   37.09
  -6   9  -3    8.23   10.50
   9   6  -3  -16.32   12.59
   9   6  -3    5.00   17.72
   9   6   3   -1.58   11.09
  -6   9   3    1.59    9.79
  -6   9  -5   18.99   13.03
   9   6  -5    3.49   11.18
  -6   9   5    3.86   10.31
   9   6  -5   17.20   21.87
   9   6   5   10.32   12.86
  -6   9   7   33.46   13.39
  -6   9  -7   40.57   13.64
   9   6  -7   39.36   16.17
   9   6  -7   58.72   23.87
   9   6   7   91.58   20.41
  -6   9  -9  479.41   40.62
  -6   9   9  308.17   31.38
   9   6   9  462.28   39.61
   9   6  -9  446.27   53.40
   9   6  -9  480.09   40.54
  -6   9 -11    1.99   13.72
   9   6 -11   -1.73   12.38
   9   6  11  -19.83   15.53
   9   6 -11   29.56   23.76
   9   6 -13   27.96   17.92
   9   6  13    0.29   14.37
   9   6  15   18.41   13.03
  -9  -6  15   31.38   13.75
   9   6 -15   22.49   13.21
   9   6 -17  184.05   25.10
  -9  -6  17  167.47   22.83
   9   6  17  195.62   25.20
   9   6 -19  123.07   18.32
  -9  -6  19  112.68   17.01
  -7   9   0    4.90   13.07
   9   7   0    8.73   12.82
   9   7   0   -9.65   11.24
   9   7   0  -22.91   19.28
  -7   9  -2   28.22   14.17
  -7   9   2   10.25   12.77
   9   7  -2  -10.64   11.01
   9   7  -2   24.14   16.51
   9   7   2   27.17   14.75
  -7   9  -4  197.75   27.04
  -7   9   4  195.32   27.26
   9   7  -4  149.89   22.82
   9   7  -4  186.90   34.04
   9   7   4  168.61   24.62
   9   7  -6   77.28   19.11
  -7   9  -6  125.05   23.19
  -7   9   6   92.89   20.67
   9   7  -6   75.37   23.50
   9   7   6   83.53   17.54
  -7   9  -8  117.13   22.19
  -7   9   8  120.62   21.32
   9   7  -8  133.62   24.30
   9   7  -8  174.79   34.97
   9   7   8  129.47   23.49
   9   7 -10   94.89   23.51
  -7   9  10  122.38   22.14
   9   7  10  121.82   24.27
   9   7 -10   99.32   27.70
  -7   9 -10  138.27   25.93
   9   7 -12  155.69   26.45
   9   7  12  154.66   28.46
   9   7 -14   -6.80   14.24
   9   7  14    5.42   13.05
   9   7 -16  313.82   33.59
  -9  -7  16  262.54   26.58
   9   7  16  293.51   31.64
   9   7  18    2.55    9.10
   9   7 -18    3.55   10.02
   9   8  -1  366.85   33.84
   9   8  -1  293.01   28.16
  -8   9  -1  400.72   37.86
   9   8   1  315.76   31.39
   9   8  -1  335.76   43.92
  -8   9   1  415.54   38.12
   9   8  -3   -8.59   10.60
  -8   9   3    3.87   12.23
   9   8  -3   -4.15   15.34
   9   8   3  -16.96   15.60
  -8   9  -3   -0.87   13.62
  -8   9   5   38.43   17.66
  -8   9  -5   69.10   20.58
   9   8  -5   54.67   16.56
   9   8  -5   25.50   21.60
  -8   9  -7  202.35   28.50
   9   8  -7  203.62   38.35
   9   8  -7  195.33   26.80
  -8   9   7  186.51   27.58
   9   8   7  147.82   24.75
  -8   9  -9   11.52   12.41
   9   8  -9  -12.13   16.05
   9   8   9  -26.75   16.95
  -8   9   9  -11.22   14.71
   9   8  -9  -20.26   21.70
   9   8 -11  175.29   29.07
   9   8  11  160.40   27.96
   9   8  13  259.04   32.69
   9   8 -13  237.53   33.00
   9   8 -15  247.05   31.03
   9   8  15  221.99   29.23
   9   8  17    9.80   11.91
   9   8 -17   18.84   12.82
   9   8 -19   54.66   12.68
  -9   9   0   -8.39   12.75
   9   9   0   -1.23    9.83
   9   9   0  -13.13   13.59
  -9   9   2  164.66   26.66
   9   9  -2  150.30   24.86
  -9   9  -2  195.37   28.22
   9   9  -2  105.84   27.53
   9   9   2  141.95   23.08
  -9   9   4   98.44   21.83
   9   9  -4   62.28   18.27
  -9   9  -4   77.66   21.41
   9   9   4   33.83   16.55
   9   9  -4   66.31   23.07
   9   9   6  441.59   40.20
   9   9  -6  457.59   41.71
   9   9  -6  359.03   49.97
  -9   9   6  440.87   40.41
  -9   9  -6  386.80   38.08
  -9   9  -8   30.69   16.34
   9   9   8   23.34   14.20
  -9   9   8   53.92   20.34
   9   9  -8   47.22   15.45
   9   9 -10   98.82   22.96
   9   9  10   78.62   22.15
  -9   9 -10  108.35   19.23
   9   9  12   26.52   16.96
   9   9 -12    4.85   15.84
   9   9 -14  486.40   41.93
   9   9  14  530.89   43.52
   9   9 -16   18.99   12.72
   9   9  16   11.67   12.12
   9   9  18   47.93   12.55
   9   9 -18   22.03    9.19
 -10   9   1    7.39   14.36
 -10   9  -1    2.61   14.37
   9  10   1   18.96   15.47
   9  10  -1    0.93   11.80
 -10   9  -3   68.38   19.89
 -10   9   3   46.89   18.90
   9  10  -3   52.65   17.50
   9  10   3   65.16   20.02
   9  10  -3   69.22   27.45
   9  10  -5  163.23   26.37
   9  10   5  100.94   22.67
 -10   9   5  106.24   23.85
 -10   9  -5  111.98   22.00
 -10   9  -7  -13.82   12.75
   9  10  -7  -13.75   15.76
   9  10   7    3.25   16.55
 -10   9   7   19.46   14.07
 -10   9  -9  128.38   23.01
   9  10  -9  149.91   27.67
   9  10   9  130.61   27.10
   9  10  11  357.21   38.48
   9  10 -11  428.99   41.91
   9  10  13   65.81   20.60
   9  10 -13   46.11   19.72
   9  10  15  149.24   22.59
   9  10 -15  183.22   24.95
   9  10  17  110.17   17.25
   9  10 -17  110.98   18.35
   9  10 -19   10.93    6.78
 -10   8   0  218.45   30.26
   8  10   0  172.03   24.49
   8  10   0  191.94   25.42
 -10   8   2   79.88   20.79
 -10   8  -2  131.78   24.21
   8  10  -2   83.94   19.99
   8  10   2   95.53   20.78
   8  10  -2   84.40   24.92
   8  10  -4   -3.54   12.21
 -10   8   4    9.04   13.49
 -10   8  -4   11.23   13.53
  10  -8  -4  -13.85   25.71
   8  10  -4   26.46   17.78
   8  10   4   -0.75   12.30
  10  -8  -6   54.87   26.05
 -10   8  -6   33.04   14.72
 -10   8   6   27.33   15.25
   8  10   6    6.45   16.19
   8  10  -6    7.75   14.69
   8  10  -6   46.01   25.36
   8  10  -8  307.10   34.32
   8  10   8  262.07   33.46
 -10   8   8  248.08   31.34
 -10   8  -8  311.58   33.66
   8  10 -10  126.31   25.41
   8  10  10  101.24   24.45
   8  10  12  245.64   32.79
   8  10 -12  266.09   32.74
   8  10  14   39.47   18.97
   8  10 -14   34.39   17.22
   8  10 -16   33.08   13.33
   8  10  16   43.36   15.44
   8  10  18   25.42   11.39
   8  10 -18   10.26    9.19
 -10   7  -1  751.47   50.52
   7  10   1  737.10   46.75
   7  10  -1  756.98   47.73
   7  10  -1  683.66   60.21
 -10   7   1  822.12   53.02
  10  -7  -1  767.58   68.00
  10  -7   1  807.83   69.80
   7  10  -3   69.96   26.80
 -10   7   3   81.88   19.25
 -10   7  -3   97.11   21.09
   7  10  -3   97.26   20.31
   7  10   3  101.40   21.34
  10  -7  -3   78.69   23.59
 -10   7   5  195.19   28.57
 -10   7  -5  147.09   25.04
   7  10  -5  135.77   29.71
   7  10  -5  162.25   24.23
   7  10   5  147.99   24.78
  10  -7  -5  125.13   30.65
   7  10   7  520.99   43.30
   7  10  -7  470.14   41.29
 -10   7   7  494.37   43.18
 -10   7  -7  400.28   37.21
   7  10  -7  406.74   52.53
  10  -7  -7  334.20   48.45
   7  10  -9   19.34   14.22
   7  10   9   45.92   19.42
   7  10 -11   45.93   19.34
   7  10  11  101.76   24.64
   7  10  13  451.56   42.45
   7  10 -13  411.42   40.67
   7  10  15  571.84   44.12
   7  10 -15  583.00   44.62
 -10   7  15  464.36   33.08
   7  10  17   -2.42   11.66
   7  10 -17   -0.97   13.60
 -10   7  17   -7.94    7.59
   7  10 -19   41.03   11.24
 -10   7  19   40.44    9.62
   6  10   0 1643.10   67.35
   6  10   0 1811.33   92.23
   6  10   0 1637.63   66.68
  10  -6   0 1844.58  100.70
  10  -6   2   65.63   25.27
 -10   6  -2   66.24   14.23
  10  -6  -2   59.57   22.56
 -10   6   2   65.17   19.48
   6  10  -2  100.22   25.96
   6  10  -2   67.71   17.43
   6  10   2  117.44   21.21
  10  -6  -4    9.50   14.92
   6  10  -4   32.06   12.45
   6  10   4   -4.02   13.17
 -10   6   4   -3.20   13.51
   6  10  -4   -7.96   13.87
 -10   6  -4   -3.56   13.39
 -10   6  -6   14.05   10.57
   6  10  -6   -7.30   19.66
   6  10  -6   -2.29   12.63
   6  10   6   -8.22   13.71
 -10   6   6   19.77   14.68
  10  -6  -6    7.48   15.13
  10  -6  -8  202.26   36.99
   6  10  -8  262.68   32.68
   6  10   8  263.12   32.30
   6  10  -8  254.26   42.82
   6  10 -10   -5.30   14.89
   6  10 -10  -10.22   17.65
   6  10  10  -11.53   16.82
   6  10 -12  481.31   43.16
   6  10  12  449.01   41.46
 -10   6  12  415.44   34.15
 -10   6  14   35.15   14.50
   6  10 -14   20.20   15.66
   6  10  14   27.49   16.47
   6  10 -16  173.33   25.52
   6  10  16  179.42   25.58
 -10   6  16  171.86   22.12
 -10   6  18   97.30   17.38
   6  10 -18   97.61   16.53
 -10   6  20   75.67   13.04
 -10   5   1  543.84   41.31
   5  10  -1  498.33   37.71
   5  10  -1  497.91   48.35
   5  10   1  495.04   47.86
 -10   5  -1  512.39   40.63
  10  -5  -1  498.58   50.96
   5  10   1  488.54   37.09
  10  -5   1  509.46   52.46
 -10   5   3  965.27   54.46
 -10   5  -3  889.45   51.88
   5  10   3 1078.75   55.74
   5  10  -3  959.84   70.56
  10  -5  -3  933.96   70.37
   5  10  -3  982.12   54.28
  10  -5   3 1032.76   73.85
 -10   5   5  774.45   49.64
   5  10  -5  735.95   65.26
 -10   5  -5  658.46   44.49
   5  10   5  724.69   47.52
  10  -5  -5  755.65   64.81
   5  10  -5  776.51   49.31
  10  -5   5  718.30   64.44
   5  10  -7   49.72   24.18
   5  10  -7   59.28   17.55
   5  10   7   69.46   18.49
  10  -5  -7   56.99   22.99
   5  10  -9  691.29   49.25
   5  10  -9  544.37   60.55
   5  10   9  750.25   51.07
  10  -5  -9  533.73   56.34
   5  10 -11  188.21   27.92
  10  -5  11  202.61   25.13
   5  10 -11  140.58   35.45
 -10   5  11  173.87   23.02
 -10   5  13    7.07    9.84
   5  10  13   23.58   16.46
   5  10 -15   18.88   15.86
 -10   5  15   17.27   11.94
   5  10  15   54.15   19.04
   5  10  17  724.53   45.09
   5  10 -17  721.88   46.31
 -10   5  17  724.37   44.25
   5  10 -19   67.59   13.62
 -10   5  19   73.53   14.45
 -10   5  21    5.49    8.24
 -10   4   0  168.69   23.58
   4  10   0  120.91   24.52
  10  -4   0  111.98   27.23
 -10   4  -2 1295.56   60.48
   4  10   2 1255.94   57.67
   4  10  -2 1455.66   82.90
   4  10  -2 1309.51   59.45
 -10   4   2 1397.02   63.20
  10  -4  -2 1334.26   81.76
  10  -4   2 1487.43   85.38
   4  10   4  143.14   23.24
   4  10  -4  119.01   27.25
 -10   4  -4   91.57   17.50
  10  -4  -4  156.19   32.99
   4  10  -4  134.04   21.84
 -10   4   4  160.38   21.95
  10  -4   4  137.24   29.89
   4  10  -6  267.63   30.11
  10  -4  -6  209.06   36.31
  10  -4   6  205.63   34.46
   4  10   6  236.27   28.12
   4  10  -6  230.74   36.95
   4  10  -8   44.43   26.17
  10  -4  -8   33.55   17.07
   4  10   8   29.32   15.69
   4  10  -8   43.53   16.31
   4  10 -10  710.79   50.16
   4  10 -10  540.54   61.58
  10  -4  10  702.36   45.76
   4  10  10  706.83   49.29
  10  -4 -10  613.67   60.32
  10  -4  12   13.45   10.90
 -10   4  12   31.65   15.50
   4  10 -12   17.42   15.10
   4  10 -12   12.57   20.78
   4  10  12    5.12   14.79
   4  10  12   47.04   14.60
   4  10 -14    9.57   13.27
   4  10  14   11.87   13.98
   4  10  14   22.52   14.43
 -10   4  14   20.01   12.36
 -10   4  16   95.10   19.91
   4  10  16   81.53   21.48
   4  10 -16  128.93   22.63
   4  10  16  100.40   19.16
   4  10 -18  348.46   31.11
 -10   4  18  360.17   31.97
 -10   4  20   52.44   12.81
 -10   4  22   40.63   10.16
 -10   3   1  935.69   50.31
   3  10  -1  973.47   65.18
   3  10   1 1023.37   63.17
  10  -3  -1 1082.27   71.87
  10  -3   1 1037.30   70.83
  10  -3  -3    6.44   16.95
   3  10   3   21.27   14.80
   3  10  -3   26.63   12.53
   3  10  -3  -12.29   18.66
 -10   3   3    1.52   10.00
  10  -3   3    3.78   15.23
   3  10  -5 1337.35   61.89
   3  10   5 1381.55   62.03
   3  10  -5 1304.99   82.77
  10  -3  -5 1274.22   80.89
  10  -3   5 1245.46   78.07
   3  10  -7 1034.22   77.99
   3  10  -7 1153.66   59.25
  10  -3  -7 1110.76   77.85
   3  10   7 1190.50   59.44
  10  -3   7 1006.11   72.23
   3  10  -9  567.82   60.44
   3  10   9  591.05   43.61
  10  -3   9  615.83   41.87
  10  -3  -9  591.70   58.87
   3  10  -9  594.06   44.75
  10  -3  11   -5.86   11.49
   3  10 -11    8.37   13.63
   3  10 -11    3.52   23.36
   3  10  11    1.47   16.28
  10  -3 -11   12.09   17.05
  10  -3  13   90.11   18.12
   3  10  13  120.35   23.50
   3  10 -13   68.45   20.89
 -10   3  13  112.70   22.62
   3  10  13   68.68   16.02
 -10   3  15  125.52   23.63
   3  10  15  106.40   23.00
   3  10  15  116.61   20.77
   3  10 -15  111.71   24.28
 -10   3  17   23.37   14.71
   3  10 -17    7.13   11.27
   3  10  17   30.01   14.20
 -10   3  19  230.08   27.35
   3  10  19  171.67   22.42
 -10   3  21  127.09   18.27
 -10   3  23   15.60    7.88
  10  -2   0  958.10   66.10
   2  10   0  891.88   60.00
   2  10   2    4.20   10.29
  10  -2   2    2.91   16.70
  10  -2  -2    9.05   13.76
   2  10  -4 1052.40   72.25
   2  10   4  944.01   50.38
   2  10  -4 1001.08   52.07
  10  -2  -4 1001.87   69.69
  10  -2   4 1015.52   68.97
   2  10  -6   76.92   23.68
   2  10  -6   66.38   16.81
  10  -2   6   90.11   25.09
   2  10   6   93.98   16.63
  10  -2  -6   70.60   22.93
   2  10   8  830.82   49.74
   2  10  -8  838.70   71.35
  10  -2   8  849.37   48.77
   2  10  -8  772.26   49.28
  10  -2  -8  819.63   67.26
   2  10 -10   67.52   27.21
   2  10  10   24.71   14.14
  10  -2  10   21.22   10.35
   2  10 -10   22.51   15.59
  10  -2 -10   -1.79   21.92
  10  -2  12  106.00   18.97
   2  10 -12   88.21   20.39
   2  10 -12   76.92   24.77
   2  10  12   99.57   23.34
  10  -2 -12   87.18   22.40
 -10   2  14    6.68   12.59
   2  10  14   17.42   15.17
   2  10 -14   29.26   13.30
   2  10  14   21.32   13.79
   2  10 -16   28.93   13.98
 -10   2  16   46.63   17.11
   2  10  16   25.31   12.14
 -10   2  18    7.81   14.15
   2  10  18    5.71   30.99
   2  10  20  386.31   29.75
 -10   2  20  424.13   33.62
 -10   2  22    1.15    7.87
  10  -1  -1   19.73   18.13
  10  -1   1   29.89   18.93
  10  -1  -3  813.33   61.41
  10  -1   3  851.51   62.26
   1  10   5   52.53   15.55
  10  -1  -5   61.18   24.22
   1  10  -5   47.40   14.54
  10  -1   5   39.13   17.82
   1  10   7   -3.54   12.05
   1  10  -7   -9.19   12.69
  10  -1   7    0.61    8.93
  10  -1  -7  -16.13   20.05
  10  -1   7   15.05   11.64
   1  10  -9   32.01   18.12
   1  10   9   69.04   18.27
  10  -1  -9   57.85   22.22
   1  10  -9   73.79   18.09
  10  -1   9   48.89   14.39
   1  10 -11  363.41   36.02
  10  -1  11  409.95   34.97
  10  -1 -11  315.28   44.17
   1  10 -11  403.59   54.75
   1  10  11  415.98   37.88
   1  10 -13   74.82   29.10
   1  10 -13   23.41   15.25
  10  -1 -13   41.97   19.77
  10  -1  13   20.17   11.72
   1  10 -15   28.53   12.83
 -10   1  15   65.67   20.20
   1  10  15   49.23   13.37
   1  10 -17   27.93   16.38
 -10   1  17    7.43   14.07
  10  -1 -17   23.18   11.50
   1  10  17   13.56   11.50
 -10   1  19   74.98   18.52
   1  10  19   93.07   17.00
   1  10  21   18.98    9.45
 -10   1  21   22.92   12.60
 -10   1  23   29.12    9.73
  10   0   0  542.10   49.55
  10   0  -2  935.82   66.33
  10   0   2 1032.78   67.98
  10   0  -4   83.23   21.87
  10   0   4   78.62   19.50
  10   0   4  121.44   19.97
   0  10   4   80.10   16.48
   0  10  -4  120.50   19.85
  10   0   6    7.37    8.35
   0  10   6   19.55   10.62
  10   0  -6   -4.60   17.33
   0  10  -6   13.77   10.64
  10   0   6   -6.61   14.39
  10   0   8  464.85   36.52
  10   0  -8  386.43   46.81
   0  10   8  435.78   36.78
   0  10  -8  443.81   37.39
  10   0  10  617.77   42.69
  10   0 -10  548.86   56.79
   0  10 -10  662.58   47.84
   0  10 -12  -25.98   20.49
  10   0 -12   33.61   24.82
   0  10 -12   15.41   16.97
  10   0  12   17.93   13.04
   0  10 -14   73.36   20.63
  10   0  14  101.54   19.42
   0  10 -16   32.05   11.80
   0  10  16   17.09   10.38
 -10   0  16   27.67   16.93
 -10   0  18  128.05   23.77
   0  10  18  138.89   21.51
 -10   0  20   40.52   14.57
   0  10  20   53.87   13.40
 -10   0  22   68.12   13.94
   0  10  22   39.80    9.62
  10   1  -1   22.47   18.43
  10   1   1   23.91   16.05
  10   1  -3  296.83   40.00
  10   1   3  255.50   35.08
  10   1   5   64.44   21.67
  10   1  -5   49.86   20.92
  -1  10  -5   65.80   15.54
  10   1   5   45.84   13.97
  10   1  -7  105.63   27.36
  -1  10  -7  105.33   20.63
  10   1   7   95.89   18.33
  10   1   9   34.40   14.50
  -1  10  -9   32.72   15.02
  10   1  -9   51.58   24.29
  10   1 -11   65.29   22.03
  10   1  11   29.35   13.98
  -1  10 -13  190.57   40.69
  10   1 -13  170.05   35.38
  -1  10 -13  240.68   31.29
  10   1  13  195.99   25.35
  -1  10 -15   -4.49   14.21
  10   1  15   15.58    9.96
 -10  -1  17    9.83   16.17
  10   1 -17  -22.94   14.08
  -1  10  17   -5.50   10.61
 -10  -1  19   38.22   14.76
  -1  10  19   20.15    9.83
 -10  -1  21    8.38   11.35
  -1  10  21   -6.11    7.76
 -10  -1  23   15.59    8.95
  10   2   0  152.74   30.67
  10   2  -2  924.79   67.36
  10   2   2  967.33   65.64
  10   2  -4  -15.51   15.92
  -2  10  -4   -9.84   12.73
  10   2   4    6.46   12.36
  10   2   4   23.97   12.57
  10   2   6  380.52   33.15
  -2  10  -6  389.65   33.85
  10   2  -6  303.16   41.40
  -2  10  -8   31.81   16.06
  10   2  -8   -2.21   18.97
  10   2   8   19.74   14.40
  -2  10 -10  758.33   50.36
  10   2  10  743.79   47.46
  10   2 -10  627.42   63.13
  10   2 -12  276.66   43.41
  10   2  12  336.73   33.09
  -2  10 -12  316.46   34.82
  -2  10 -14   36.53   16.08
  10   2  14    5.41   12.36
 -10  -2  16    4.84   13.89
  10   2 -16    6.49   10.72
  10   2  16   13.67   10.39
 -10  -2  18  201.40   27.10
  10   2 -18  205.63   23.78
  -2  10  18  169.51   21.52
 -10  -2  20   -2.19   11.54
  -2  10  20    7.11    8.57
 -10  -2  22    2.86    8.03
  -2  10  22    1.10    6.22
  -3  10   1  723.87   44.16
  -3  10  -1  730.85   45.13
  10   3  -1  815.28   63.32
  10   3   1  828.11   64.88
  -3  10   3  505.61   37.86
  10   3   3  559.41   39.13
  10   3  -3  541.76   53.25
  -3  10  -3  543.76   39.41
  10   3   3  536.94   49.14
  -3  10   5    5.85    9.26
  -3  10  -5   18.53   13.62
  10   3  -5    4.96   19.03
  10   3   5    9.51    9.83
  10   3   7  363.72   33.12
  -3  10  -7  325.11   32.52
  10   3  -7  347.22   46.88
  -3  10  -9  111.67   21.46
  10   3   9  111.76   22.89
  10   3  -9  107.49   29.49
  10   3 -11  135.00   31.39
  -3  10 -11  165.06   27.10
  10   3  11  103.44   19.15
  -3  10 -13   39.46   14.13
  10   3 -13   28.55   15.30
  10   3  13    6.30   12.52
  10   3 -15   28.12   14.38
  10   3  15   35.76   14.86
 -10  -3  17   32.39   16.72
  10   3 -17   15.83   11.40
  10   3  17   33.81   12.75
 -10  -3  19    9.60   12.88
  10   3 -19   10.52    8.53
 -10  -3  21   31.48   11.55
 -10  -3  23   23.85    6.93
  10   4   0 4011.86  138.18
  -4  10   0 3910.51  104.09
  -4  10  -2  241.78   27.55
  10   4   2  216.34   34.63
  -4  10   2  215.35   25.87
  10   4   2  198.39   26.23
  10   4  -2  312.71   42.04
  -4  10   4   20.90   10.95
  -4  10  -4   31.98   13.22
  10   4  -4   34.57   20.33
  10   4   4   27.08   12.50
  -4  10  -6   36.07   15.99
  -4  10   6   -3.36   11.85
  10   4  -6    6.94   17.10
  10   4   6  -13.45   12.95
  -4  10  -8 1529.04   71.55
  10   4   8 1513.97   68.12
  10   4  -8 1443.27   92.29
  -4  10 -10   -9.30   12.53
  10   4  10   19.53   10.63
  10   4 -10  -12.51   24.99
  -4  10 -12   26.40   13.23
  10   4 -12   29.13   15.25
  10   4  12   50.56   16.02
  10   4 -12   37.57   27.42
  10   4 -14   45.66   17.61
  10   4  14    8.53   12.18
  10   4 -16  504.43   40.83
  10   4  16  520.67   39.17
 -10  -4  16  541.62   42.15
 -10  -4  18   -3.15   12.68
  10   4 -18  -19.06   13.92
 -10  -4  20   70.99   14.33
 -10  -4  22   -5.70    7.50
  10   5  -1 1131.51   53.26
  10   5   1 1233.60   57.60
  10   5  -1 1364.19   84.36
  10   5   1 1374.04   81.43
  -5  10   1 1309.89   62.41
  -5  10  -1 1307.43   62.46
  -5  10   3   17.07   10.89
  10   5   3   -1.91   16.40
  -5  10  -3    9.34   11.16
  10   5  -3   39.96   20.96
  10   5   3   18.10   10.22
  -5  10   5   99.05   20.14
  -5  10  -5   44.35   14.89
  10   5  -5   77.69   22.04
  10   5   5   60.29   16.55
  -5  10  -7  491.57   41.02
  10   5   7  540.38   42.34
  10   5  -7  492.31   55.89
  -5  10   7  495.60   40.12
  -5  10  -9  297.17   34.03
  10   5  -9  329.17   35.28
  10   5   9  355.60   35.58
  10   5  -9  341.92   50.41
  -5  10 -11   -2.57   12.13
  10   5 -11    3.74   13.94
  10   5  11  -17.76   14.51
  10   5 -11    2.39   17.40
  -5  10 -13    0.18   13.70
  10   5 -13   12.29   18.55
  10   5  13   -2.99   13.06
  10   5 -15  553.84   44.42
  10   5  15  608.74   44.55
 -10  -5  17   50.65   15.31
  10   5 -17   65.87   17.73
  10   5  17   39.89   14.11
 -10  -5  19   90.41   16.05
  10   5 -19   62.52   15.70
 -10  -5  21   19.16    7.49
  -6  10   0   68.14   17.60
  10   6   0   60.13   14.07
  10   6   0   59.39   14.15
  10   6   0   56.63   18.67
  10   6  -2 1300.53   61.14
  -6  10   2 1366.55   65.92
  10   6  -2 1156.04   81.05
  10   6   2 1270.53   60.05
  10   6   2 1211.68   76.87
  -6  10  -2 1349.65   65.18
  -6  10  -4    3.11   12.02
  -6  10   4    4.10   10.88
  10   6  -4    3.45   10.85
  10   6  -4   -8.74   15.01
  10   6   4   32.81   15.18
  -6  10   6  316.11   33.76
  10   6  -6  326.78   34.06
  10   6   6  310.00   32.00
  10   6  -6  290.00   44.52
  -6  10  -6  336.03   34.91
  -6  10   8   85.34   20.34
  -6  10  -8   71.74   19.21
  10   6  -8   77.47   20.32
  10   6   8   75.64   19.98
  10   6  -8   66.39   28.13
  10   6 -10  535.90   44.94
  10   6  10  484.52   41.97
  -6  10 -10  611.70   47.67
  -6  10 -12   20.11   13.97
  10   6 -12   17.96   16.18
  10   6  12   25.27   14.57
  10   6  14  184.22   26.95
  10   6 -14  144.33   25.11
  10   6  16   -5.40   12.47
 -10  -6  16    3.38   11.75
  10   6 -16   10.22   13.22
  10   6 -18  354.78   30.53
  10   6  18  384.85   29.88
 -10  -6  18  341.33   28.39
 -10  -6  20   -1.46    6.68
  -7  10   1  492.74   41.67
  -7  10  -1  451.74   39.46
  10   7  -1  421.47   35.79
  10   7  -1  380.56   32.48
  10   7  -1  427.32   50.84
  10   7   1  456.22   49.04
  10   7   1  448.09   37.20
  -7  10   3  603.12   46.88
  10   7  -3  560.95   42.00
  10   7   3  634.09   45.04
  10   7  -3  535.42   57.88
  -7  10  -3  558.28   43.85
  -7  10   5  397.98   38.04
  -7  10  -5  419.73   40.29
  10   7  -5  449.80   39.27
  10   7   5  434.26   38.82
  10   7  -5  331.55   47.42
  -7  10  -7   52.89   17.84
  -7  10   7   59.00   17.86
  10   7  -7   57.11   17.35
  10   7   7   57.43   16.54
  10   7  -7   94.33   32.34
  10   7  -9  390.81   39.51
  10   7   9  462.45   41.95
  -7  10   9  408.75   37.52
  -7  10  -9  379.82   39.25
  -7  10 -11  583.02   45.55
  10   7  11  650.47   49.23
  10   7 -11  660.33   51.05
  10   7 -13   73.40   23.86
  10   7  13   50.19   18.00
 -10  -7  15   76.57   15.72
  10   7 -15  100.55   22.79
  10   7  15   98.16   19.68
 -10  -7  17  202.03   21.26
  10   7  17  204.97   27.56
  10   7 -17  214.14   25.50
  10   7 -19   80.54   13.76
  -8  10   0 1016.88   60.22
  10   8   0  997.58   53.95
  -8  10  -2   49.80   18.78
  10   8  -2   55.81   17.86
  -8  10   2   80.41   20.62
  10   8   2   59.09   17.76
  10   8  -2   54.05   21.10
  -8  10   4   -2.92   12.91
  -8  10  -4   -7.33   13.06
  10   8  -4   -4.97   13.30
  10   8   4   -8.84   11.86
  10   8  -4    2.71   21.44
  -8  10  -6  115.75   23.63
  10   8  -6  114.54   24.18
  -8  10   6  109.50   25.04
  10   8   6  133.27   23.57
  10   8  -6  126.99   33.56
  -8  10   8  400.11   38.40
  -8  10  -8  453.26   42.13
  10   8  -8  447.62   41.79
  10   8   8  495.34   44.57
  -8  10  10   49.18   15.63
  -8  10 -10   70.17   20.03
  10   8 -10   35.95   18.45
  10   8  10   66.70   20.01
  10   8 -12  136.19   25.44
  10   8  12  186.37   28.80
  10   8 -14   32.25   14.93
  10   8  14   13.25   13.96
  10   8  16  177.79   24.13
  10   8 -16  146.96   22.10
  10   8  18   20.75    9.75
  10   8 -18    0.33    8.61
  -9  10   1  378.86   38.71
  -9  10  -1  344.56   37.32
  10   9   1  384.12   35.96
  10   9  -1  364.46   35.57
  -9  10   3    2.31   14.76
  10   9   3  -14.53   14.23
  -9  10  -3   26.01   18.35
  10   9  -3  -19.13   22.37
  -9  10  -5    1.15   12.88
  10   9  -5   18.29   14.84
  10   9   5  -20.41   18.02
  -9  10   5   21.48   17.22
  -9  10  -7  311.73   36.39
  10   9  -7  246.23   32.40
  -9  10   7  230.38   30.85
  10   9   7  287.07   34.89
  -9  10   9   93.17   20.43
  10   9  -9  144.98   26.78
  10   9   9  101.73   23.23
  -9  10  -9  112.57   24.42
  10   9 -11   68.93   21.85
  10   9  11   30.37   17.14
  10   9 -13  371.04   37.44
  10   9  13  413.71   39.77
  10   9  15  112.93   22.85
  10   9 -15   79.67   20.43
  10   9  17    8.45   10.99
  10   9 -17   -5.89   11.14
  10   9 -19   31.92    8.59
  10  10   0  298.73   31.00
 -10  10   0  239.02   31.55
 -10  10  -2   54.57   20.94
  10  10   2   45.10   15.89
  10  10  -2   68.17   19.22
 -10  10   2   30.46   16.32
 -10  10  -4   -0.06   15.73
 -10  10   4    3.67   15.05
  10  10  -4   -7.26   16.20
  10  10   4    6.25   14.30
  10  10   6   48.13   17.75
 -10  10  -6   41.29   17.18
  10  10  -6   42.56   16.31
 -10  10   6   60.13   21.03
 -10  10  -8   66.62   20.39
 -10  10   8   45.74   17.66
  10  10  -8   63.81   20.29
  10  10   8   68.36   21.33
  10  10 -10  236.79   32.14
 -10  10 -10  237.87   27.73
  10  10  10  249.54   30.88
  10  10  12   25.95   18.33
  10  10 -12   54.39   18.72
  10  10 -14   58.75   17.89
  10  10  14   71.46   18.04
  10  10  16    9.39   10.45
  10  10 -16   -5.39   12.32
  10  10  18   19.21    8.14
  10  10 -18   11.34    7.90
 -11  10  -1   -1.38   14.26
  10  11  -1   16.87   16.66
  10  11   1  -13.68   12.92
 -11  10   1    1.38   17.02
 -11  10   3   95.09   24.34
 -11  10  -3   53.85   21.57
  10  11   3   95.07   20.04
  10  11  -3   91.50   20.62
 -11  10   5   49.13   18.40
 -11  10  -5   62.82   20.71
  10  11  -5   29.83   17.18
  10  11   5   20.75   14.72
 -11  10   7   36.94   17.72
 -11  10  -7  -16.22   15.69
  10  11  -7   23.17   16.50
  10  11   7   21.17   17.15
 -11  10  -9   73.55   17.88
  10  11  -9   35.56   17.01
  10  11   9   66.47   21.32
  10  11 -11   98.97   22.36
  10  11  11   66.05   18.85
  10  11 -13   14.45   13.73
  10  11  13   -8.94   13.07
  10  11  15  144.63   19.98
  10  11 -15  132.17   19.14
  10  11 -17    2.42    7.40
 -11   9   0   16.75   15.73
   9  11   0    0.21   14.16
 -11   9  -2   19.52   16.72
   9  11  -2   18.62   11.69
   9  11   2   19.51   13.51
 -11   9   2   10.47   16.57
 -11   9  -4   94.84   21.48
 -11   9   4   81.85   21.68
   9  11  -4   83.67   20.24
   9  11   4   88.97   20.93
 -11   9   6   21.80   16.12
 -11   9  -6  -32.43   17.55
   9  11  -6   24.38   15.90
   9  11   6   -2.52   15.86
 -11   9  -8  175.21   26.86
   9  11  -8  201.12   30.97
   9  11   8  205.28   30.97
  11  -9  10  103.88   16.57
   9  11  10   91.51   24.02
   9  11 -10  101.64   23.60
   9  11 -12  142.96   25.79
   9  11  12  174.78   27.76
   9  11 -14    6.92   13.16
   9  11  14   23.06   14.52
   9  11 -16  292.15   26.77
   9  11  16  254.17   25.13
   9  11 -18    1.63    7.09
 -11   8   1   55.69   16.49
 -11   8  -1   62.85   20.95
   8  11  -1   21.87   10.69
   8  11   1   43.69   15.63
 -11   8   3   18.07   13.66
 -11   8  -3   10.49   15.90
   8  11  -3   13.78   14.70
   8  11   3   22.11   13.60
   8  11  -3   66.66   25.90
 -11   8   5   91.01   21.49
 -11   8  -5  106.59   21.42
   8  11  -5  131.34   24.37
   8  11   5  138.95   24.94
 -11   8  -7   37.28   15.91
   8  11  -7   57.43   19.86
   8  11   7   46.00   21.26
 -11   8   7   64.83   18.05
   8  11  -9  151.10   27.83
   8  11   9  137.04   26.11
   8  11  11   -0.48   15.56
   8  11 -11   -6.79   18.27
   8  11  13  146.12   25.54
   8  11 -13  134.77   24.16
   8  11 -15   62.55   17.26
   8  11  15   37.99   15.68
   8  11  17   73.65   16.30
   8  11 -17   36.59   11.46
   7  11   0    3.60   10.75
   7  11   0    8.88   10.30
 -11   7   0   21.79   17.08
 -11   7   2  154.68   27.42
   7  11  -2  158.35   25.41
   7  11  -2   89.79   19.43
   7  11   2  173.33   24.80
 -11   7  -2  115.99   21.57
  11  -7  -2  110.63   29.79
   7  11   4   37.21   18.92
 -11   7  -4   23.97   15.01
   7  11  -4   70.50   21.88
  11  -7  -4    7.36   16.28
   7  11  -4   45.55   16.94
 -11   7   4   24.59   15.72
 -11   7  -6  285.14   32.49
  11  -7  -6  181.92   35.30
   7  11  -6  202.74   38.71
   7  11   6  289.57   34.12
 -11   7   6  271.35   33.18
   7  11  -6  298.37   34.70
   7  11  -8   -1.70   15.52
   7  11   8   21.89   17.45
  11  -7  10   -5.79   10.65
   7  11  10   -6.08   15.17
   7  11 -10   -7.36   13.61
   7  11  12   58.09   20.27
   7  11 -12   97.03   23.07
   7  11 -14  473.44   40.40
   7  11  14  426.28   38.45
   7  11  16   39.23   15.84
   7  11 -16   18.41   13.88
   7  11 -18   47.56   13.18
 -11   6   1   12.75   11.88
 -11   6  -1   21.39   14.53
   6  11  -1   42.04   17.25
   6  11  -1   43.05   17.47
   6  11   1    5.45   11.06
  11  -6   1  -10.52   18.25
  11  -6  -1   63.17   27.40
 -11   6   3   19.53   15.39
  11  -6   3  -42.80   22.51
 -11   6  -3    7.03   14.48
   6  11  -3  -20.39   22.93
  11  -6  -3   27.13   20.98
   6  11  -3   -3.10   11.52
   6  11   3   25.97   13.29
 -11   6  -5   19.54   14.74
 -11   6   5   31.22   15.53
  11  -6  -5   43.98   22.43
   6  11  -5   30.82   14.79
   6  11  -5   30.44   16.04
   6  11   5   46.43   17.01
 -11   6  -7  113.18   21.73
   6  11  -7   74.75   21.73
   6  11  -7  112.20   31.61
   6  11   7   96.50   23.97
  11  -6  -7  105.35   31.41
   6  11   9   26.05   19.74
   6  11  -9   37.07   17.81
   6  11  11  158.59   26.63
   6  11 -11  167.81   28.84
  11  -6  11  151.88   22.77
 -11   6  13    2.17   10.79
   6  11  13   -5.24   15.98
   6  11 -13   19.43   18.27
   6  11  15   52.28   18.50
   6  11 -15   51.49   17.89
 -11   6  15   26.99   11.26
 -11   6  17   -3.13    8.82
   6  11 -17   15.15   12.67
   6  11 -19   31.39    9.36
 -11   6  19   24.59    8.72
  11  -5   0  -24.88   17.36
   5  11   0  -14.65   10.47
   5  11   0    7.26   11.66
   5  11   0   14.49   17.56
 -11   5   0   -0.34   11.73
 -11   5   2  320.04   34.11
 -11   5  -2  311.69   33.76
   5  11  -2  307.99   32.69
   5  11   2  277.15   30.47
   5  11  -2  251.25   37.43
  11  -5  -2  234.63   39.52
  11  -5   2  291.23   42.89
   5  11  -4  122.16   29.67
  11  -5   4  148.68   33.61
   5  11   4  153.43   25.01
   5  11  -4  129.83   23.16
 -11   5   4  111.37   20.15
  11  -5  -4  154.41   33.53
 -11   5  -4  138.38   22.93
 -11   5  -6  401.99   35.05
   5  11  -6  428.58   39.36
   5  11   6  432.96   39.19
   5  11  -6  312.23   45.21
  11  -5  -6  310.49   44.86
   5  11  -8   94.46   30.41
   5  11   8   93.78   23.99
   5  11  -8   50.73   17.80
  11  -5  -8   47.31   17.31
  11  -5  10  116.44   21.93
 -11   5  10   63.33   17.27
   5  11 -10   71.87   21.35
   5  11  10   94.24   22.55
 -11   5  12   12.70   10.53
   5  11  12   34.94   18.89
   5  11 -12   30.45   18.06
  11  -5  12   33.97   13.31
   5  11 -14  166.00   25.97
   5  11  14  230.19   30.43
 -11   5  14  213.69   26.15
   5  11 -16  394.82   35.38
   5  11  16  379.55   35.03
 -11   5  16  307.89   28.63
 -11   5  18   20.74   10.96
   5  11 -18   37.80   12.57
 -11   5  20    4.59    6.55
 -11   4  -1 1107.24   58.79
   4  11  -1 1027.82   54.60
   4  11  -1 1017.58   72.27
   4  11   1  897.92   49.25
   4  11  -1  850.16   48.73
 -11   4   1 1097.05   58.80
   4  11   1  944.14   51.99
  11  -4  -1 1070.87   77.59
  11  -4   1 1071.91   77.97
   4  11  -3   44.61   19.63
 -11   4   3   24.75   12.71
   4  11   3    7.38   11.18
  11  -4  -3  -31.34   20.98
   4  11  -3    7.19   13.35
  11  -4   3    3.91   14.83
 -11   4  -3   38.30   15.34
   4  11  -5   75.65   25.91
  11  -4  -5   82.79   27.75
   4  11   5   83.85   19.61
   4  11  -5  108.93   21.94
 -11   4  -5   64.85   16.19
  11  -4   5   88.05   25.17
   4  11  -7  199.60   37.69
  11  -4  -7  182.25   36.39
   4  11   7  183.59   27.01
   4  11  -7  276.92   32.48
   4  11   9   36.05   14.87
  11  -4   9  104.74   20.79
  11  -4  -9   66.98   28.06
   4  11  -9   96.92   22.54
   4  11  -9   53.34   24.31
  11  -4  11   26.65   12.13
   4  11  11   38.45   20.17
   4  11 -11   53.19   19.18
  11  -4  13   62.25   14.86
 -11   4  13   77.95   18.13
   4  11  13   94.24   23.50
   4  11  15   57.27   19.37
   4  11 -15   22.01   12.82
   4  11 -17   96.53   18.36
 -11   4  17  133.83   21.29
 -11   4  19   11.20    9.08
 -11   4  21    4.57    6.42
   3  11   0  -18.88   11.42
 -11   3   0    3.03   10.00
   3  11   0  -11.27   17.03
   3  11   0   11.93   10.08
  11  -3   0   23.02   19.55
   3  11  -2   23.42   20.88
   3  11  -2   22.78   13.61
 -11   3  -2   10.72   12.57
  11  -3  -2   19.73   15.73
   3  11   2   11.17   12.61
  11  -3   2   47.54   22.57
   3  11  -4  647.08   44.87
   3  11  -4  647.51   60.87
   3  11   4  710.71   46.49
 -11   3  -4  562.12   40.93
  11  -3  -4  704.36   62.42
  11  -3   4  620.12   58.25
  11  -3  -6   28.57   21.45
   3  11  -6  -14.71   17.15
   3  11   6   15.76   15.58
   3  11  -6    7.64   12.77
  11  -3   6   26.47   20.75
  11  -3  -8   -5.62   15.15
   3  11  -8   32.60   21.91
  11  -3   8   36.85   15.58
   3  11   8   18.59   15.25
   3  11  -8    5.17   13.21
  11  -3 -10   24.39   19.20
   3  11 -10  114.57   34.22
   3  11  10   33.35   18.35
   3  11 -10   86.77   21.97
  11  -3  10   87.39   19.66
  11  -3  12  245.89   27.52
   3  11  12  256.33   32.88
   3  11 -12  231.27   31.63
   3  11 -14   25.83   17.60
 -11   3  14    3.82   11.88
   3  11  14   47.45   20.21
   3  11 -16   92.27   19.75
 -11   3  16   59.43   16.95
 -11   3  18    4.44   11.67
   3  11 -18    2.57   11.32
 -11   3  20    8.57    9.26
 -11   3  22   15.01    7.59
   2  11  -1  247.29   36.14
   2  11   1  217.72   32.78
  11  -2  -1  223.87   37.95
   2  11   1  176.99   25.20
  11  -2   1  198.42   35.30
   2  11   1  172.79   22.94
   2  11  -1  174.59   23.53
   2  11  -3 1235.74   60.38
   2  11   3 1274.59   60.54
   2  11  -3 1189.07   80.09
  11  -2  -3 1244.20   81.68
  11  -2   3 1197.28   79.75
   2  11  -5    5.93   16.40
  11  -2   5    9.79   14.95
   2  11   5   15.00   14.22
   2  11  -5   11.24   13.57
  11  -2  -5   23.12   18.29
   2  11  -7    7.63   22.22
  11  -2   7   36.96   18.66
   2  11   7   24.56   16.13
   2  11  -7    6.19   11.48
  11  -2  -7    0.31   19.53
  11  -2   7   -2.69   11.10
  11  -2   9  121.32   21.06
   2  11  -9  111.89   34.96
   2  11   9  134.76   25.11
   2  11  -9   98.19   21.27
  11  -2  -9   91.72   27.41
  11  -2  11  216.26   27.43
   2  11 -11  242.72   32.82
   2  11 -11  239.12   43.76
   2  11  11  247.39   31.20
  11  -2 -11  161.18   33.69
   2  11 -13   28.78   19.91
  11  -2  13   16.48   10.76
 -11   2  15  157.02   24.79
   2  11 -15  113.85   20.60
 -11   2  17  175.26   24.87
  11  -2 -17  194.60   22.85
   2  11  17  229.55   24.47
   2  11 -17  228.27   27.02
 -11   2  19  187.07   23.57
 -11   2  21   11.53    8.81
   1  11   0  -12.53   11.85
  11  -1   0  -24.36   17.07
  11  -1   2  221.78   35.68
   1  11   2  254.39   28.29
   1  11   2  196.10   24.17
   1  11  -2  195.92   25.12
  11  -1  -2  221.22   33.97
   1  11  -4  186.76   24.65
   1  11   4  176.67   25.05
  11  -1   4  165.49   33.66
  11  -1  -4  148.27   31.71
   1  11  -6  274.58   30.79
  11  -1   6  191.17   33.31
  11  -1   6  235.62   27.34
   1  11   6  281.36   31.14
  11  -1  -6  208.35   36.91
   1  11  -8   34.77   24.22
  11  -1   8   -4.67   11.19
   1  11   8   14.42   13.85
   1  11  -8   22.51   16.24
  11  -1  -8   -9.13   19.32
  11  -1  10    2.94   11.23
   1  11 -10  -10.65   20.28
   1  11 -10    9.13   13.54
  11  -1 -10   20.61   23.52
   1  11 -12   62.72   20.19
  11  -1  12   59.63   16.66
 -11   1  14  253.55   30.24
  11  -1  14  260.94   28.45
   1  11 -14  227.76   30.57
   1  11 -16  153.87   24.15
 -11   1  16  113.21   22.45
 -11   1  18  -12.53   14.06
   1  11  18   -2.57    8.84
 -11   1  20   60.16   15.13
 -11   1  22   65.49   11.63
   0  11   1  685.83   43.84
  11   0  -1  800.51   65.23
  11   0   1  692.63   60.29
   0  11  -1  813.48   47.87
  11   0   3   -0.05   10.80
   0  11   3   20.38   14.23
  11   0   3   11.01   17.54
   0  11  -3    5.23   12.65
  11   0  -3   37.39   19.96
   0  11  -5  666.52   45.03
  11   0   5  679.44   44.94
  11   0  -5  664.99   61.87
  11   0   5  663.10   57.58
   0  11  -7  530.91   41.85
  11   0   7  551.30   41.33
  11   0  -7  531.35   56.85
   0  11  -9  518.19   43.10
  11   0   9  531.71   40.91
  11   0  -9  507.33   57.59
   0  11 -11   40.73   17.18
  11   0 -11   66.92   25.24
  11   0  11    9.90   12.08
   0  11 -13  547.59   44.92
  11   0  13  473.39   37.86
 -11   0  15  245.15   31.03
  11   0  15  237.44   26.17
   0  11 -15  222.95   29.39
 -11   0  17   -5.09   14.23
   0  11 -17   21.03   14.04
 -11   0  19   93.17   18.98
 -11   0  21  310.10   25.69
 -11   0  23   34.30    8.21
  -1  11   0   -5.68   11.19
  11   1   0    6.38   11.00
  11   1   0   -2.69   18.18
  -1  11  -2   -2.02   11.02
  11   1   2    3.43   11.44
  11   1  -2  -14.10   12.35
  11   1  -2   15.64   15.19
  -1  11   2   -2.56   11.64
  11   1   2   13.38   14.84
  -1  11  -4  594.07   42.39
  11   1  -4  481.72   35.88
  -1  11   4  526.04   38.14
  11   1   4  644.48   43.22
  11   1  -4  635.70   59.39
  11   1   4  619.54   55.59
  -1  11  -6  435.38   38.11
  11   1   6  539.22   40.44
  11   1  -6  506.45   55.60
  11   1   8   18.48   13.94
  11   1  -8   45.89   23.92
  -1  11  -8   76.28   20.19
  11   1 -10   43.32   20.84
  -1  11 -10   51.70   17.60
  11   1  10   36.14   15.15
  -1  11 -12  207.49   29.52
  11   1  12  186.32   25.21
  -1  11 -14  146.67   24.41
  11   1  14  176.35   23.89
 -11  -1  16  114.87   22.40
  -1  11 -16   56.44   16.51
  11   1 -16  118.51   21.03
  11   1  16   92.66   17.83
 -11  -1  18  122.03   22.95
  11   1 -18   85.01   16.83
 -11  -1  20   37.75   13.92
 -11  -1  22  104.39   14.22
  11   2   1  205.12   25.54
  -2  11   1  188.37   23.53
  11   2  -1  191.12   24.12
  -2  11  -1  175.97   25.13
  11   2  -1  211.72   36.41
  11   2   1  155.24   32.00
  -2  11   3  598.18   42.18
  -2  11  -3  596.15   42.67
  11   2   3  650.70   44.29
  11   2  -3  512.02   36.23
  11   2  -3  613.87   60.27
  11   2   3  607.58   56.49
  -2  11   5  567.21   40.03
  -2  11  -5  699.54   47.41
  11   2   5  746.78   47.42
  11   2  -5  695.92   64.51
  11   2  -7    2.52   17.57
  -2  11  -7   12.26   12.72
  11   2   7   -5.11   13.63
  -2  11  -9  733.20   50.76
  11   2   9  806.60   50.37
  -2  11 -11  594.39   47.64
  11   2  11  588.04   43.70
  11   2 -11  503.92   58.45
  -2  11 -13    8.86   14.05
  11   2  13   12.47   11.07
  -2  11 -15   98.48   20.45
  11   2 -15  132.95   23.12
  11   2  15  107.21   19.38
 -11  -2  17  207.15   27.45
  11   2 -17  189.52   23.82
 -11  -2  19   38.04   13.34
 -11  -2  21  -10.90    9.13
  11   3   0    6.14   10.32
  -3  11   0   -3.84   12.52
  11   3   0    1.87   15.13
  11   3   2   25.20   11.49
  11   3  -2   25.82   12.42
  11   3  -2   38.58   19.11
  -3  11   2   38.31   13.73
  -3  11  -2   46.64   16.14
  11   3   2   40.92   20.79
  -3  11   4  641.74   44.43
  -3  11  -4  655.26   46.15
  11   3   4  687.19   45.98
  11   3  -4  778.07   67.06
  11   3   4  648.44   57.37
  11   3  -6   49.15   24.36
  -3  11  -6   69.08   17.36
  -3  11   6   54.87   16.25
  11   3   6   71.26   17.14
  11   3  -8  284.03   44.48
  11   3   8  307.77   33.02
  -3  11  -8  318.98   35.23
  11   3 -10   19.36   18.71
  -3  11 -10   16.07   15.60
  11   3  10   23.19   15.00
  -3  11 -12    2.55   15.74
  11   3  12   23.48   16.44
  -3  11 -14   61.33   16.73
  11   3 -14   81.30   20.18
  11   3  14   73.57   17.95
 -11  -3  16   41.59   17.00
  11   3 -16   75.81   19.37
  11   3  16   46.18   13.74
  11   3 -18  -18.19   10.66
 -11  -3  18   -1.50   12.63
 -11  -3  20   -6.39   10.42
 -11  -3  22   10.98    6.07
  -4  11   1  935.24   54.29
  -4  11  -1  850.29   52.24
  11   4   1  876.96   50.32
  11   4  -1  808.34   47.09
  11   4  -1  922.05   72.86
  11   4   1  918.77   70.68
  11   4  -3    2.43   20.41
  -4  11  -3   13.34   13.53
  -4  11   3   24.42   11.86
  11   4   3   51.16   22.00
  11   4   3   48.22   17.18
  11   4  -5   55.84   23.84
  -4  11   5   43.14   13.83
  -4  11  -5   34.46   14.20
  11   4   5   83.35   20.21
  -4  11   7  466.92   38.35
  -4  11  -7  549.61   44.37
  11   4   7  544.64   43.34
  11   4  -7  543.96   60.34
  11   4  -9   48.90   23.47
  -4  11  -9   58.32   19.42
  11   4   9   63.90   21.82
  -4  11 -11    5.11   13.32
  11   4 -11   -1.84   14.78
  11   4  11    7.65   15.28
  -4  11 -13  180.04   26.94
  11   4 -13  193.34   27.97
  11   4  13  143.26   24.57
  11   4 -15  256.98   30.28
  11   4  15  235.74   28.37
 -11  -4  17  -14.05   13.75
  11   4 -17    8.16   10.87
  11   4  17   -1.45   11.06
 -11  -4  19   17.75   12.00
  11   4 -19   -0.75    7.80
 -11  -4  21   13.96    7.97
  11   5   0    6.37   14.87
  -5  11   0    3.44   14.00
  11   5   0  -23.58   15.33
  -5  11   2  316.73   33.22
  -5  11  -2  380.36   37.58
  11   5  -2  274.76   27.32
  11   5   2  339.29   33.25
  11   5  -2  308.57   44.85
  11   5  -4   17.32   18.99
  -5  11  -4   -3.84   13.37
  11   5   4   13.74   11.52
  -5  11   6  391.56   37.24
  11   5   6  425.05   38.72
  -5  11  -6  373.45   37.06
  11   5  -6  304.26   43.57
  -5  11   8   27.39   10.34
  -5  11  -8   49.28   18.02
  11   5  -8   41.43   15.98
  11   5   8   34.00   16.18
  11   5  -8   37.17   20.57
  -5  11 -10   16.37   13.16
  11   5 -10    6.89   14.41
  11   5  10    6.40   14.74
  -5  11 -12   44.34   18.54
  11   5 -12   46.10   17.83
  11   5  12   20.28   13.55
  11   5  14  292.44   31.66
  11   5 -14  261.22   32.55
 -11  -5  16   17.38   12.96
  11   5 -16   -5.56   15.16
  11   5  16   -6.31   11.32
 -11  -5  18   14.02   10.64
  11   5  18   17.44    8.23
  11   5 -18   13.73   11.56
 -11  -5  20    6.75    6.94
  -6  11  -1  330.17   34.52
  11   6  -1  263.55   42.06
  11   6  -1  321.77   32.00
  11   6   1  252.90   39.62
  11   6  -1  311.66   30.18
  11   6   1  316.21   31.31
  -6  11   1  280.26   32.52
  -6  11   3  119.88   23.91
  -6  11  -3   92.93   23.64
  11   6  -3  111.41   19.95
  11   6   3   68.01   18.72
  11   6  -3   88.47   23.31
  -6  11   5    9.92   12.58
  -6  11  -5  -25.60   19.32
  11   6  -5    2.16   12.66
  11   6   5   19.32   16.25
  11   6  -5    4.81   16.41
  -6  11   7   27.36   14.55
  -6  11  -7   15.17   15.67
  11   6  -7    0.79   13.56
  11   6   7   19.81   16.23
  11   6  -7   15.75   22.24
  -6  11   9   14.73   10.83
  -6  11  -9    5.87   13.33
  11   6  -9   20.27   17.07
  11   6   9   -1.87   15.09
  -6  11 -11   47.26   16.09
  11   6 -11   42.81   19.80
  11   6  11   30.08   16.76
  -6  11 -13   40.84   15.09
  11   6 -13   48.03   19.52
  11   6  13   39.25   16.91
 -11  -6  15   48.12   16.60
  11   6 -15   69.06   20.84
  11   6  15   49.43   15.88
 -11  -6  17   24.77   11.71
  11   6  17   27.79   11.08
  11   6 -17   46.84   15.70
 -11  -6  19   -3.35    6.78
  11   6 -19   -8.73    8.62
  11   7   0   32.06   16.96
  -7  11   0   14.66   16.02
  11   7   0   25.06   12.00
  -7  11  -2  377.10   37.71
  11   7  -2  334.81   33.69
  -7  11   2  375.26   38.11
  11   7   2  373.10   35.91
  11   7  -2  266.74   43.27
  -7  11   4  113.27   24.18
  -7  11  -4  138.68   26.14
  11   7  -4  118.78   23.32
  11   7   4  103.42   21.13
  11   7  -4  149.04   36.41
  -7  11   6  299.50   35.32
  -7  11  -6  350.05   37.34
  11   7   6  272.33   33.88
  11   7  -6  295.15   33.72
  11   7  -6  270.87   45.18
  -7  11   8   -6.90   14.81
  -7  11  -8    3.33   14.99
  11   7  -8   24.97   18.24
  11   7   8  -16.42   17.62
  -7  11  10   19.07   12.83
  -7  11 -10    6.55   12.43
  11   7 -10   -2.31   15.22
  11   7  10   -7.66   17.23
  11   7 -12   69.24   21.60
  11   7  12  110.58   22.22
  -7  11 -12   87.68   20.07
  11   7 -14  326.05   34.42
  11   7  14  293.53   32.23
 -11  -7  16   40.24   12.43
  11   7 -16   36.71   14.25
  11   7  16   22.29   14.20
  11   7  18    0.43    7.59
  11   7 -18    7.57    9.13
  -8  11   1   -3.40   13.75
  -8  11  -1    3.91   16.98
  11   8  -1   -6.26   11.94
  11   8  -1   -7.73   12.15
  11   8   1    0.98   11.02
  -8  11   3  200.53   30.11
  -8  11  -3  176.26   28.11
  11   8  -3  170.38   26.15
  11   8   3  153.06   24.28
  11   8  -3  124.82   31.47
  -8  11   5  142.67   26.17
  11   8  -5  127.75   23.91
  11   8   5  146.45   24.64
  -8  11  -5  135.16   26.58
  -8  11   7    8.99   14.79
  -8  11  -7    0.90   13.81
  11   8  -7   48.86   21.11
  11   8   7   28.60   17.70
  -8  11   9  109.21   20.93
  -8  11  -9   99.27   22.44
  11   8  -9  102.98   22.93
  11   8   9  112.09   23.48
  11   8 -11   20.35   18.41
  11   8  11   18.78   18.19
  -8  11 -11   50.19   15.41
  11   8 -13  104.47   21.42
  11   8  13  112.85   23.38
  11   8  15    8.72   13.34
  11   8 -15    0.24   11.39
  11   8  17   28.48   12.08
  11   8 -17   38.47   12.98
  11   8 -19   15.04    7.75
  -9  11   0    6.28   15.44
  11   9   0   11.60   11.56
  -9  11   2    9.17   15.43
  11   9  -2  -29.65   16.28
  -9  11  -2   24.74   16.85
  11   9   2  -18.76   14.76
  -9  11   4  472.92   42.34
  -9  11  -4  465.12   43.43
  11   9  -4  452.90   39.95
  11   9   4  439.85   40.25
  -9  11  -6    6.84   15.80
  11   9  -6    6.87   14.16
  11   9   6   -0.74   15.08
  -9  11   6    1.17   16.07
  -9  11   8   69.06   18.61
  -9  11  -8   90.77   21.88
  11   9  -8   73.97   21.23
  11   9   8   55.88   17.00
  -9  11 -10    5.76   14.08
  11   9 -10  -12.66   15.12
  11   9  10    3.21   16.99
  11   9 -12  481.06   41.01
  11   9  12  472.83   41.16
  11   9  14   -4.05   12.81
  11   9 -14   21.09   14.12
  11   9 -16  148.98   20.31
  11   9  16  134.75   18.38
  11   9 -18    2.41    7.17
 -10  11  -1   16.97   14.05
 -10  11   1   33.91   19.50
  11  10  -1   37.16   14.94
  11  10   1   10.76   11.80
 -10  11   3  140.86   26.06
 -10  11  -3  121.94   26.03
  11  10  -3  118.22   22.48
  11  10   3  128.41   23.86
 -10  11   5  113.09   25.36
 -10  11  -5   76.46   21.21
  11  10  -5   64.94   19.11
  11  10   5   81.01   21.75
 -10  11  -7   37.88   16.30
 -10  11   7   12.93   14.63
  11  10  -7   26.79   15.09
  11  10   7   49.98   20.89
 -10  11  -9    1.26   13.07
  11  10  -9   -0.58   14.73
  11  10   9   21.96   15.49
  11  10 -11  145.07   25.99
  11  10  11  107.35   22.91
  11  10  13  144.26   23.41
  11  10 -13   85.65   19.03
  11  10  15   33.43   12.68
  11  10 -15   41.25   14.12
  11  10  17   22.29    8.90
  11  10 -17   35.74   10.00
 -11  11   0    8.74   16.36
 -11  11  -2  142.42   27.14
  11  11  -2  143.59   23.35
  11  11   2  142.28   23.18
 -11  11   2  132.50   25.49
 -11  11  -4   40.98   19.71
  11  11  -4   39.88   15.22
  11  11   4   21.76   14.57
 -11  11   4    3.51   13.28
 -11  11  -6  416.42   38.58
  11  11  -6  432.87   38.26
 -11  11   6  433.60   38.95
  11  11   6  439.11   39.64
  11  11  -8   20.35   14.42
 -11  11  -8   44.39   14.86
  11  11  10   70.45   20.67
  11  11 -10   63.65   16.37
  11  11  12   20.98   13.19
  11  11 -12   27.15   15.26
  11  11 -14  318.92   27.49
  11  11  14  287.97   26.04
  11  11  16    6.50    7.46
  11  11 -16   -2.45    7.10
 -12  11   1  165.87   27.13
  11  12   1  143.10   20.57
 -12  11  -1  118.33   22.93
 -12  11  -3  177.19   27.59
 -12  11   3  233.60   30.97
  11  12  -3  126.79   19.95
  11  12   3  201.36   25.76
  11  12   5  227.95   27.17
  11  12  -5  240.62   27.40
 -12  11  -5  224.62   28.26
 -12  11   5  241.05   29.92
  11  12  -7  303.68   31.17
  11  12   7  296.92   31.11
 -12  11  -7  242.97   27.11
  11  12   9   -4.89   14.04
  11  12  -9   55.43   16.81
  11  12  11    7.33   12.14
  11  12 -11   13.61   11.17
  11  12  13  107.23   17.24
  11  12 -13   46.42   12.55
  11  12 -15   49.54    9.52
 -12  10   0   87.78   22.26
 -12  10   2   -7.11   16.59
  10  12  -2   11.52   13.33
  10  12   2    1.92   12.68
 -12  10  -2   15.32   13.65
 -12  10   4   12.50   17.06
  10  12  -4   -3.21   12.37
  10  12   4    4.74   14.08
 -12  10  -4   20.92   14.94
 -12  10  -6   -2.87   12.33
  10  12   6   10.07   15.42
  10  12  -6   41.31   15.54
 -12  10  -8   10.24   10.07
  10  12   8   35.40   17.86
  10  12  -8    7.61   15.17
  10  12 -10   -4.82   12.25
  10  12  10   -9.89   16.00
  10  12  12   -6.37   13.27
  10  12 -12   41.17   17.31
  10  12 -14   -4.11   10.60
  10  12  14   -0.99    9.91
  10  12 -16   -5.91    7.47
 -12   9   1    6.38   14.74
   9  12   1   -5.42   14.93
   9  12  -1  -15.47   14.02
 -12   9  -1    2.30   15.95
   9  12  -3   56.18   14.82
   9  12   3   72.31   20.73
 -12   9   3   80.43   22.94
 -12   9  -3   63.16   20.05
 -12   9   5  129.35   25.23
 -12   9  -5  160.17   26.19
   9  12   5  150.05   25.19
   9  12  -5  135.75   23.87
 -12   9  -7  183.62   26.61
   9  12   7  227.67   31.38
   9  12  -7  256.41   31.27
   9  12   9    0.51   16.57
   9  12  -9   31.43   17.41
  12  -9   9   45.85   16.12
   9  12 -11   12.50   15.03
   9  12  11  -13.65   15.26
   9  12  13  142.59   21.28
   9  12 -13  145.58   23.00
   9  12  15   75.30   16.71
   9  12 -15   73.19   15.00
   9  12 -17   -7.71    7.11
 -12   8   0   18.02   15.68
   8  12   0   -0.20   12.06
 -12   8   2    6.36   15.46
 -12   8  -2   20.06   16.58
   8  12   2   36.66   18.54
   8  12  -2   -1.64   11.77
 -12   8   4   16.17   14.81
 -12   8  -4   14.96   15.93
   8  12   4   29.90   17.26
   8  12  -4   13.81   12.87
 -12   8  -6   15.49   13.25
   8  12   6    5.87   18.98
   8  12  -6   12.12   16.23
   8  12   8  353.95   37.92
   8  12  -8  298.18   35.21
  12  -8  10   18.66   12.01
   8  12 -10   18.14   14.30
   8  12  10  -10.95   17.02
   8  12  12   66.48   19.94
   8  12 -12   13.69   15.03
   8  12  14   19.13   15.50
   8  12 -14   29.58   14.03
   8  12 -16   30.68   11.53
   8  12 -18    5.21    6.34
 -12   7   1  -13.77   18.76
 -12   7  -1   16.47   14.17
   7  12   1   13.84   13.39
   7  12  -1    7.79   11.45
 -12   7  -3    1.35   13.29
   7  12   3    0.40   14.76
   7  12  -3    2.18   11.70
 -12   7   3    2.24   13.47
 -12   7   5   21.22   16.67
   7  12   5   88.34   24.33
   7  12  -5   42.03   17.89
 -12   7  -5   53.44   16.53
   7  12   7   11.88   18.33
   7  12  -7    1.49   13.56
 -12   7  -7   20.67   15.74
  12  -7   9   51.33   16.50
   7  12   9   54.34   21.11
   7  12  -9   33.19   14.61
  12  -7  11  156.16   22.64
   7  12 -11  132.94   25.08
   7  12  11  176.43   29.70
   7  12  13   18.24   15.95
   7  12 -13  -19.53   16.18
   7  12  15   59.23   17.64
   7  12 -15   82.88   18.36
   7  12 -17  126.10   17.41
 -12   6   0   83.20   22.64
   6  12   0   53.19   16.56
   6  12   0   78.55   17.37
  12  -6   0   24.49   25.11
 -12   6  -2    2.05   14.86
 -12   6   2  -14.20   15.12
   6  12   2    1.75   12.21
   6  12  -2   49.90   24.65
   6  12  -2  -25.11   16.15
  12  -6  -2   37.43   21.91
  12  -6   2   59.37   28.55
 -12   6   4   28.09   17.94
 -12   6  -4    4.85   12.44
   6  12  -4   54.64   23.64
   6  12   4  -16.74   13.79
   6  12  -4  -22.61   15.96
  12  -6  -4  -57.88   24.12
 -12   6  -6   89.49   19.92
   6  12   6  124.28   25.97
   6  12  -6  147.39   27.46
   6  12   8  -10.95   16.18
   6  12  -8   -0.31   15.20
   6  12 -10  539.15   44.97
   6  12  10  608.83   48.64
  12  -6  10  498.19   38.81
  12  -6  12   36.54   13.78
   6  12  12   33.78   19.17
   6  12 -12   49.48   20.22
   6  12 -14   12.35   14.11
 -12   6  14  -17.86   10.02
 -12   6  16   12.24    7.12
   6  12 -16   15.25   13.67
   6  12 -18  146.82   18.32
 -12   6  18   67.14    9.89
 -12   5   1  147.67   26.17
 -12   5  -1  137.09   24.59
   5  12   1  102.09   20.65
   5  12   1  129.95   20.94
   5  12  -1  133.01   22.36
  12  -5   1  171.20   34.75
  12  -5  -1  146.57   33.79
 -12   5  -3   -3.19   12.08
   5  12  -3  -11.82   16.58
   5  12   3   17.64   17.23
   5  12  -3   -8.01   12.63
  12  -5  -3   49.16   16.42
  12  -5   3    8.65   22.97
 -12   5  -5   35.22   15.03
   5  12  -5   38.17   22.39
   5  12   5   41.65   17.40
   5  12  -5   12.95   13.01
  12  -5  -5   -2.62   17.46
   5  12   7  186.17   28.81
   5  12  -7  198.32   29.15
  12  -5   9  238.21   30.17
   5  12   9  246.03   32.75
   5  12  -9  261.53   33.76
  12  -5  11  124.59   20.43
 -12   5  11  122.84   19.39
   5  12  11  133.75   27.83
   5  12 -11   95.47   24.20
 -12   5  13  155.78   22.09
   5  12  13  197.45   30.03
   5  12 -13  179.37   28.21
  12  -5  13  177.94   22.71
   5  12 -15  283.04   30.86
 -12   5  15  241.20   25.01
 -12   5  17    5.19    7.70
   5  12 -17   -6.45    9.37
   5  12 -19   36.54    9.60
 -12   5  19   62.08   10.48
 -12   4   0  361.83   35.81
   4  12   0  293.34   30.84
   4  12   0  284.71   30.21
  12  -4   0  247.16   39.70
   4  12  -2   27.99   19.26
  12  -4   2   26.82   27.40
   4  12   2   44.14   15.10
   4  12  -2   40.40   15.44
 -12   4  -2   47.80   17.17
  12  -4  -2    4.96   16.38
 -12   4  -4   26.70   15.30
   4  12  -4   24.69   14.35
   4  12   4   29.38   15.66
   4  12  -4   24.08   15.87
  12  -4   4   25.28   20.58
  12  -4  -4    5.20   17.29
   4  12  -6   -1.98   17.62
   4  12   6   -0.64   15.74
  12  -4  -6  -18.39   21.88
   4  12  -6   -0.06   13.99
   4  12  -8  663.92   49.85
   4  12   8  653.98   49.00
  12  -4   8  599.62   45.31
  12  -4  10   80.87   19.35
   4  12  10   83.23   22.86
   4  12 -10   59.57   18.92
  12  -4  12  162.05   21.69
 -12   4  12  172.57   24.09
   4  12  12  240.59   33.23
   4  12 -12  242.34   31.08
   4  12 -14   13.02   15.07
 -12   4  14  -11.47   12.51
 -12   4  16  145.28   21.28
   4  12 -16  145.42   21.80
 -12   4  18   15.99    9.00
   4  12 -18   -4.59   10.98
 -12   4  20  179.35   16.88
   3  12  -1   10.98   12.61
   3  12   1   40.43   14.64
   3  12   1   32.66   12.04
   3  12  -1   61.98   18.43
  12  -3  -1   36.20   20.33
  12  -3   1   79.63   27.67
   3  12  -3  598.08   45.13
   3  12   3  605.68   45.05
   3  12  -3  485.39   55.02
  12  -3  -3  554.78   59.26
  12  -3   3  516.45   57.33
   3  12  -5   37.51   20.16
  12  -3   5   55.31   26.91
  12  -3  -5   52.03   25.10
   3  12   5   44.44   17.85
   3  12  -5   40.90   16.00
   3  12  -7   34.54   21.88
  12  -3   7   31.00   14.03
   3  12   7   42.81   18.21
   3  12  -7   25.30   13.99
  12  -3   9  227.71   30.01
   3  12   9  198.88   30.82
   3  12  -9  207.37   29.77
   3  12 -11  392.00   41.42
   3  12  11  419.90   40.14
  12  -3  11  371.43   34.96
 -12   3  13   11.81   13.23
   3  12 -13  -16.93   17.50
  12  -3  13   11.44   12.24
 -12   3  15   22.89   12.25
   3  12 -15   26.39   12.94
 -12   3  17   90.36   17.36
   3  12 -17   97.05   18.17
  12  -3 -17   55.96   14.24
 -12   3  19  106.42   15.57
 -12   3  21   49.60    9.81
   2  12   0  221.03   35.11
  12  -2   0  212.55   37.08
   2  12   0  224.77   27.42
   2  12   2  857.59   50.36
   2  12  -2  884.53   53.37
   2  12  -2  813.04   69.04
  12  -2  -2  968.44   77.27
  12  -2   2  874.49   73.10
   2  12  -4  -13.35   22.34
  12  -2   4   -2.27   14.28
   2  12   4  -10.12   13.04
   2  12  -4   10.33   11.65
  12  -2  -4    5.86   18.95
  12  -2   6   47.11   22.99
   2  12   6   17.70   15.11
   2  12  -6   49.19   18.62
   2  12  -6  -13.43   18.25
  12  -2   6   15.65   12.91
  12  -2  -6   21.88   19.35
   2  12  -8  -10.00   20.27
  12  -2   8   -4.02   14.59
   2  12   8   34.99   18.95
   2  12  -8   19.16   17.32
  12  -2  -8   35.49   25.60
   2  12  10  833.26   55.15
  12  -2  10  688.64   46.83
   2  12 -10  784.27   54.73
   2  12 -12  -12.41   15.92
  12  -2  12  -12.48   13.23
 -12   2  14  105.36   21.45
   2  12 -14  153.83   26.45
  12  -2  14   96.68   17.43
 -12   2  16   33.35   13.58
   2  12 -16   18.67   13.96
   2  12 -18  466.44   32.18
 -12   2  18  512.00   35.22
 -12   2  20  -10.70    9.08
   1  12   1   37.18   20.42
   1  12   1   51.43   15.15
  12  -1   1   56.40   19.52
   1  12  -1   37.76   15.17
  12  -1  -1   41.12   22.62
  12  -1   3  185.73   26.33
   1  12   3  111.21   19.28
   1  12  -3  187.29   26.97
  12  -1   3  235.36   38.82
  12  -1  -3  200.79   35.92
   1  12  -5   14.30   17.66
  12  -1   5    6.88   14.16
  12  -1   5    6.00   11.08
   1  12  -5   -4.52   12.78
  12  -1  -5   18.26   18.52
   1  12  -7    3.99   20.99
  12  -1   7   15.03   14.94
   1  12  -7   -0.53   14.07
  12  -1  -7   19.10   17.72
   1  12  -9   60.28   23.86
  12  -1   9   77.63   19.47
   1  12  -9   86.63   22.42
  12  -1  -9   28.13   14.85
   1  12 -11   69.99   22.78
  12  -1  11   33.07   15.02
   1  12 -13  115.63   25.06
  12  -1  13  105.21   19.00
 -12   1  15   -7.52   12.74
   1  12 -15   14.34   13.00
  12  -1  15   11.89    9.15
   1  12 -17  143.91   21.42
 -12   1  17   85.07   18.58
  12  -1 -17   94.23   16.67
 -12   1  19  185.58   22.45
 -12   1  21   27.17    9.21
  12   0   0 1245.85   60.67
   0  12   0 1280.86   63.01
  12   0   0 1153.63   82.34
  12   0   2  105.09   26.18
  12   0   2  177.98   25.79
  12   0  -2  197.23   25.02
   0  12   2  142.44   22.05
   0  12  -2  148.41   23.84
  12   0  -2  167.80   35.93
   0  12  -4  326.16   33.83
  12   0   4  348.74   34.23
  12   0  -4  295.62   29.09
  12   0   4  323.05   44.35
  12   0  -4  347.35   47.70
  12   0   6  187.13   25.97
   0  12  -6  197.30   27.40
  12   0  -6  150.44   32.78
   0  12  -8  400.73   39.46
  12   0   8  420.12   38.29
  12   0  -8  390.36   52.34
   0  12 -10  329.45   36.60
  12   0  10  331.40   33.84
   0  12 -12  469.21   43.08
  12   0  12  392.77   36.69
   0  12 -14   45.97   19.94
  12   0  14    5.23   11.75
 -12   0  16   47.14   17.04
   0  12 -16   66.71   17.73
  12   0 -16   62.30   16.36
  12   0  16   52.07   13.29
 -12   0  18    2.82   11.05
  12   0 -18    1.95    8.65
 -12   0  20  227.34   22.15
 -12   0  22   -4.54    5.12
  12   1  -1   12.07   10.74
  12   1   1   27.29   13.23
  -1  12   1   28.28   13.83
  -1  12  -1   18.12   12.80
  12   1  -1   -0.52   15.48
  12   1   1   38.85   19.18
  12   1   3   10.78   21.74
  12   1   3  -21.62   12.35
  -1  12   3    8.51   10.64
  -1  12  -3  -11.96   13.70
  12   1  -3   12.68   22.92
  12   1  -3  -12.46    9.73
  -1  12  -5  293.12   32.81
  12   1   5  270.61   30.79
  12   1  -5  257.65   40.89
  12   1   7   10.72   11.74
  -1  12  -7   -3.62   12.45
  12   1  -7    0.90   19.61
  -1  12  -9   64.35   20.15
  12   1  -9   81.90   23.67
  12   1   9   49.39   18.15
  -1  12 -11   29.11   14.42
  12   1  11   58.99   18.59
  -1  12 -13   39.11   13.14
  12   1  13   23.41   11.97
  -1  12 -15   -3.66   12.99
 -12  -1  15    5.94   13.55
  12   1 -15    3.17   13.64
  12   1  15    4.25   12.31
 -12  -1  17   15.50   13.12
  12   1 -17   10.02   10.17
 -12  -1  19    3.15   10.49
 -12  -1  21   55.42   11.77
  -2  12   0  369.82   36.01
  12   2   0  318.36   31.72
  12   2   0  264.71   41.35
  12   2   2   92.87   20.20
  12   2  -2   98.35   19.17
  -2  12   2   84.52   19.01
  -2  12  -2   91.10   20.60
  12   2  -2   78.28   24.31
  12   2   2  113.96   31.08
  12   2   4    8.77   14.10
  -2  12   4    7.19   11.62
  12   2  -4   -6.33   19.23
  12   2  -6   56.32   24.26
  -2  12  -6   45.81   16.96
  12   2   6   66.47   17.79
  12   2   8  550.46   43.69
  12   2  -8  477.48   57.18
  -2  12  -8  536.14   44.66
  -2  12 -10  190.18   29.34
  12   2  10  145.08   24.83
  -2  12 -12   80.73   19.95
  12   2  12   90.65   19.70
  -2  12 -14   20.40   12.71
  12   2 -14    7.12   13.19
  12   2  14   29.84   13.36
 -12  -2  16    3.53   13.22
  -2  12 -16   -7.81   10.93
  12   2 -16   27.92   14.31
  12   2  16   -4.44   12.00
  12   2 -18   44.85   12.12
 -12  -2  18   64.44   15.86
 -12  -2  20   21.46   10.42
  12   3   1   83.20   18.45
  12   3  -1   96.44   19.12
  -3  12   1  106.51   20.72
  -3  12  -1   79.43   18.93
  12   3  -1  126.81   33.22
  12   3   1   84.57   27.89
  -3  12   3   -8.63   14.33
  12   3  -3   19.25   20.66
  -3  12  -3   39.86   15.68
  12   3   3   37.38   18.74
  12   3   3    7.72   11.98
  12   3  -3   -3.23    8.79
  12   3  -5   64.56   22.79
  -3  12   5   52.85   16.53
  -3  12  -5   58.27   19.72
  12   3   5   56.44   17.16
  12   3   7  535.35   43.50
  12   3  -7  416.16   53.08
  -3  12  -7  468.79   42.47
  -3  12  -9   95.33   22.45
  12   3   9  140.71   25.09
  -3  12 -11    4.99   14.76
  12   3  11   28.25   15.87
  -3  12 -13   40.15   17.59
  12   3 -13   -2.30   16.31
  12   3  13    8.98   14.47
 -12  -3  15   22.29   15.33
  -3  12 -15   20.96   12.76
  12   3 -15   40.16   16.91
  12   3  15   38.08   14.70
 -12  -3  17    5.04   11.30
  12   3 -17   -7.46   10.52
  12   3  17    0.80    8.11
 -12  -3  19   48.34   13.19
  12   3 -19   36.48   10.09
 -12  -3  21   -6.83    5.98
  -4  12   0   85.06   21.26
  12   4   0   71.46   24.72
  12   4   0   85.44   20.39
  -4  12  -2  557.66   44.42
  -4  12   2  472.35   40.52
  12   4  -2  478.51   36.82
  12   4   2  488.12   40.55
  12   4  -2  413.18   51.07
  12   4   2  406.05   48.21
  -4  12   4   13.99   15.75
  -4  12  -4   20.60   15.11
  12   4  -4    7.51   18.71
  12   4   4   10.04   12.91
  12   4  -6   42.81   25.10
  -4  12   6   79.81   18.56
  -4  12  -6  101.14   21.40
  12   4   6  107.16   22.34
  -4  12  -8   53.31   18.38
  12   4   8   10.59   13.21
  -4  12 -10   62.32   18.65
  12   4 -10   53.89   18.88
  12   4  10   48.82   17.22
  -4  12 -12   41.86   17.10
  12   4 -12   27.60   16.72
  12   4  12   55.34   18.56
  -4  12 -14   65.95   17.44
  12   4 -14   92.68   20.64
  12   4  14   47.62   17.19
 -12  -4  16   -5.35   11.53
  12   4 -16   22.56   13.30
  12   4  16   10.77   10.81
 -12  -4  18   78.36   16.09
  12   4 -18   72.13   14.23
 -12  -4  20   -7.28    8.03
  12   5  -1   26.54   16.20
  -5  12   1   26.48   15.05
  -5  12  -1   34.37   18.04
  12   5   1   40.29   20.21
  12   5  -1    9.38   11.36
  12   5  -1   23.32   10.84
  12   5   1   35.34   16.41
  -5  12   3  390.00   37.34
  -5  12  -3  441.35   40.99
  12   5  -3  338.56   49.90
  12   5  -3  373.18   35.55
  12   5   3  449.44   39.23
  12   5  -5  330.22   35.36
  12   5  -5  220.52   37.44
  -5  12   5  225.39   28.86
  -5  12  -5  284.47   34.24
  12   5   5  256.01   31.05
  -5  12   7   29.79   14.50
  -5  12  -7   27.93   15.10
  12   5  -7   28.49   15.30
  12   5   7   15.56   16.55
  -5  12  -9   89.68   22.18
  12   5  -9  113.11   24.66
  12   5   9   76.30   20.87
  -5  12 -11   37.13   16.31
  12   5 -11   39.15   17.60
  12   5  11   50.13   19.87
  -5  12 -13  146.09   23.48
  12   5 -13  146.00   25.48
  12   5  13  103.44   22.11
 -12  -5  15   48.29   16.45
  12   5 -15   21.09   12.68
  12   5  15   29.95   13.34
  12   5  17  163.25   19.60
  12   5 -17  154.86   21.10
 -12  -5  17  147.95   19.76
 -12  -5  19   39.25   10.29
  12   5 -19   30.35    8.70
  12   6   0  966.09   54.01
  -6  12   0 1062.10   62.80
  12   6   0  867.97   50.74
  12   6  -2   12.02   24.82
  -6  12   2   13.08   14.76
  -6  12  -2    1.74   13.94
  12   6  -2  -19.18   13.45
  12   6   2    1.66   10.67
  -6  12   4   26.46   15.44
  -6  12  -4   43.96   18.18
  12   6  -4   30.80   16.25
  12   6   4   19.86   14.05
  -6  12   6    0.48   11.87
  -6  12  -6   16.76   17.61
  12   6  -6   -9.52   14.68
  12   6   6   27.04   15.93
  -6  12   8   62.90   18.79
  -6  12  -8  108.08   25.06
  12   6  -8   85.46   23.28
  12   6   8   58.52   20.45
  -6  12 -10   67.01   20.62
  12   6 -10   59.92   19.21
  12   6  10   51.45   18.83
  -6  12 -12   48.10   17.01
  12   6  12   18.43   15.45
  12   6 -14   31.93   14.78
  12   6  14   24.02   12.17
 -12  -6  16  101.85   15.64
  12   6 -16  121.68   19.63
  12   6  16  134.17   19.52
 -12  -6  18   17.46    8.49
  12   6  18   31.76    8.28
  12   6 -18   29.17   10.19
  -7  12  -1  683.54   51.44
  12   7  -1  618.46   43.90
  12   7  -1  546.15   40.80
  12   7   1  660.99   46.00
  -7  12   1  734.52   52.81
  -7  12   3  124.83   24.55
  -7  12  -3  129.54   24.15
  12   7  -3  125.79   23.23
  12   7   3  177.12   27.95
  -7  12   5  152.12   25.35
  -7  12  -5  188.67   28.26
  12   7  -5  148.25   23.83
  12   7   5  178.99   28.26
  -7  12   7  233.52   29.30
  -7  12  -7  256.84   33.55
  12   7   7  284.02   34.71
  12   7  -7  233.20   31.26
  -7  12   9    3.76   10.63
  -7  12  -9   59.29   19.27
  12   7  -9   18.26   15.92
  12   7   9   31.64   18.15
  -7  12 -11   49.83   16.24
  12   7 -11   47.15   18.40
  12   7  11   29.21   15.15
  -7  12 -13  290.05   30.37
  12   7 -13  296.45   32.94
  12   7  13  275.63   30.93
 -12  -7  15  175.23   20.22
  12   7 -15  194.07   25.28
  12   7  15  167.40   22.88
  12   7  17   81.90   13.83
  12   7 -17   58.87   13.23
  -8  12   0  295.98   35.39
  12   8   0  269.82   28.77
  -8  12   2  222.80   30.95
  -8  12  -2  224.73   31.52
  12   8  -2  196.49   27.29
  12   8   2  196.25   26.77
  -8  12   4   17.10   18.04
  -8  12  -4    6.89   14.51
  12   8  -4    2.79   12.61
  12   8   4    6.04   13.66
  -8  12   6   73.20   19.57
  -8  12  -6   81.14   22.27
  12   8  -6   74.41   21.76
  12   8   6   86.24   22.23
  -8  12   8   -1.50   13.16
  -8  12  -8  -17.12   18.68
  12   8  -8    4.26   15.77
  12   8   8   -6.75   15.41
  -8  12  10  209.21   26.39
  -8  12 -10  229.48   29.40
  12   8 -10  204.62   29.87
  12   8  10  224.25   30.93
  -8  12 -12   90.95   17.76
  12   8  12   80.79   18.74
 -12  -8  14  -18.12    9.89
  12   8 -14   -0.24   12.49
  12   8  16   20.42   10.45
  12   8 -16   19.94   11.60
  12   8 -18   21.83    6.98
  -9  12   1   97.95   23.01
  -9  12  -1  132.00   25.90
  12   9   1   67.09   18.41
  -9  12   3  310.46   36.48
  -9  12  -3  274.31   34.62
  12   9  -3  243.93   30.02
  12   9   3  231.67   29.22
  -9  12   5  129.21   24.82
  -9  12  -5  114.70   24.33
  12   9  -5   76.25   18.19
  12   9   5  116.14   23.69
  -9  12   7   -3.70   13.94
  -9  12  -7   11.58   16.61
  12   9  -7   -9.20   14.95
  12   9   7   22.82   16.38
  -9  12   9  106.00   19.63
  12   9  -9  140.63   25.02
  -9  12  -9  123.43   22.40
  12   9   9  192.32   29.73
  -9  12 -11  198.69   24.61
  12   9 -11  211.85   28.57
  12   9  11  265.46   30.40
  12   9 -13   11.51   12.32
  12   9  13   25.63   15.13
  12   9  15   22.70   11.26
  12   9 -15   53.01   13.06
  12   9  17   26.08    7.96
  12   9 -17   38.66    9.19
 -10  12   0   12.68   15.06
 -10  12  -2  248.31   32.94
 -10  12   2  265.93   32.46
  12  10  -2  220.12   26.86
  12  10   2  189.29   25.13
 -10  12   4   21.24   15.86
 -10  12  -4   42.19   18.60
  12  10  -4   18.61   14.08
  12  10   4   75.71   20.45
 -10  12   6    5.05   12.53
 -10  12  -6   -7.80   13.91
  12  10  -6    5.70   12.85
  12  10   6    2.23   14.77
 -10  12   8   26.88   13.66
 -10  12  -8   21.42   15.07
  12  10  -8   20.75   13.81
  12  10   8   26.20   15.56
 -10  12 -10   92.28   18.39
  12  10 -10  112.73   21.70
  12  10  10  160.37   25.39
  12  10  12   -7.69   11.41
  12  10 -12   -4.50   12.98
  12  10  14   -3.53    9.66
  12  10 -14   15.27   11.54
  12  10  16   10.72    8.35
  12  10 -16   10.90    6.66
 -11  12   1   21.49   14.77
 -11  12  -1   56.20   18.62
  12  11   1   22.25   12.20
 -11  12   3    3.57   14.67
 -11  12  -3   17.49   16.28
  12  11  -3    8.23   11.19
  12  11   3   -6.87   13.02
 -11  12  -5  145.55   24.44
  12  11  -5  122.79   21.78
  12  11   5  133.34   22.26
 -11  12   5  138.90   23.37
 -11  12  -7  118.21   21.40
  12  11  -7  105.16   20.02
  12  11   7   77.90   19.57
 -11  12  -9   14.93   10.51
  12  11  -9   45.44   15.72
  12  11   9   33.47   14.94
  12  11  11    5.30   11.03
  12  11 -11   -7.89   10.29
  12  11  13   50.58   13.28
  12  11 -13   48.78   12.34
  12  11  15    9.61    8.28
  12  11 -15   16.37    7.57
 -12  12   0  122.38   22.85
 -12  12   2    5.43   14.58
 -12  12  -2    0.20   12.72
  12  12   2   18.43   11.25
 -12  12  -4   25.10   13.87
  12  12   4    7.74   11.10
  12  12  -4   11.10    9.42
 -12  12   4   -6.80   11.67
 -12  12  -6    5.54   11.76
  12  12   6    8.02   12.23
  12  12  -6   17.46   10.59
 -12  12  -8  110.47   16.78
  12  12   8  160.66   21.74
  12  12  -8  186.88   22.20
  12  12  10   20.22   12.05
  12  12 -10   19.79    9.91
  12  12  12   17.77    9.86
  12  12 -12   16.76    9.80
 -13  12   1    0.22   11.25
 -13  12  -1   -4.92   12.90
  12  13   3   28.57   10.96
 -13  12  -3    3.61   10.47
 -13  12  -5   18.04   11.22
  12  13   5   44.00   12.43
  12  13  -5   12.39    7.99
  13 -12   7    0.80    6.28
  12  13  -7   -2.31    8.45
  12  13   9   17.71   10.98
  12  13  -9  -14.31    9.76
  12  13  11   10.20    7.69
  12  13 -11    0.66    6.28
 -13  11   0    8.80   13.23
 -13  11   2   25.93   14.86
 -13  11  -2   50.26   16.53
  11  13   2   27.74   12.17
 -13  11  -4  481.04   37.17
  11  13  -4  389.90   30.79
  11  13   4  481.22   34.53
 -13  11  -6   40.77   13.29
  11  13   6   19.04   11.56
  11  13  -6   41.53   14.89
  13 -11   8   25.74   10.11
  11  13   8   55.54   15.73
  11  13  -8   79.93   16.16
  11  13  10    8.31   11.40
  11  13 -10    7.06   10.36
  11  13  12  138.22   17.19
  11  13 -12  106.75   15.03
 -13  10   1    3.40   15.28
 -13  10  -1   25.47   15.72
 -13  10   3  135.83   24.92
 -13  10  -3  127.99   22.06
  10  13   3  125.42   20.63
  10  13  -3  118.79   20.47
  10  13   5  109.47   22.15
  10  13  -5  113.97   19.75
 -13  10  -5  137.91   21.37
 -13  10  -7   10.25   11.10
  10  13   7   23.13   12.73
  10  13  -7   31.50   13.55
  13 -10   9   32.26   11.92
  10  13   9   -3.70   12.83
  10  13  -9   15.28   12.33
  10  13  11   28.51   14.28
  10  13 -11   74.72   15.42
  10  13  13   35.15   13.02
  10  13 -13   37.30   11.38
  10  13 -15    6.91    6.83
 -13   9   0   17.92   15.48
 -13   9   2  361.91   37.11
   9  13   2  280.50   29.51
 -13   9  -2  330.45   34.03
   9  13  -2  349.85   33.19
 -13   9  -4  -16.04   15.96
   9  13   4   -3.53   12.45
   9  13  -4   10.48   13.04
 -13   9  -6  688.32   45.68
   9  13  -6  733.00   48.44
   9  13   6  665.38   45.97
  13  -9   8    4.16   10.57
   9  13  -8   14.12   14.71
  13  -9  10   17.42   12.04
   9  13  10   10.91   14.69
   9  13 -10   43.98   16.84
   9  13  12   30.89   16.08
   9  13 -12    8.99   11.19
   9  13 -14  196.55   20.86
   9  13 -16   27.25    7.60
 -13   8   1  434.55   41.17
 -13   8  -1  421.67   39.07
   8  13  -1  462.36   38.28
   8  13   1  431.85   36.24
 -13   8  -3  111.74   23.13
   8  13   3   98.62   19.43
   8  13  -3  108.93   20.95
 -13   8  -5  109.45   22.96
   8  13   5  129.12   24.66
   8  13  -5  131.93   23.94
 -13   8  -7  384.03   32.90
   8  13  -7  415.10   38.22
   8  13   7  439.74   39.47
  13  -8   9   73.70   16.85
   8  13   9   75.77   21.28
   8  13  -9  121.50   23.15
  13  -8  11   27.74   12.08
   8  13  11   34.69   17.90
   8  13 -11    7.01   15.00
   8  13  13  113.53   20.04
   8  13 -13  123.48   20.18
   8  13 -15   57.68   13.02
 -13   7   0   18.40   15.40
   7  13   0   20.00   14.80
   7  13   0    3.94   11.21
 -13   7   2  113.11   22.39
 -13   7  -2  107.98   23.02
   7  13   2   97.36   20.18
   7  13  -2  122.29   23.53
 -13   7  -4  500.39   42.09
   7  13  -4  613.38   47.13
   7  13   4  609.77   46.51
 -13   7  -6   46.44   12.02
   7  13   6   29.04   16.59
   7  13  -6    4.55   14.83
  13  -7   8  148.06   24.36
   7  13   8  163.46   27.46
   7  13  -8  158.52   26.86
  13  -7  10   19.31   11.89
   7  13  10   14.94   18.55
   7  13 -10    5.57   15.04
  13  -7  12   79.42   15.04
   7  13  12  106.56   23.18
   7  13 -12  106.71   22.36
   7  13 -14   10.84   10.53
   7  13 -16   84.19   14.88
 -13   6  -1    8.45   15.94
   6  13   1   27.42   17.18
   6  13  -1   20.33   12.06
 -13   6  -3  371.42   37.06
   6  13  -3  398.58   37.79
   6  13   3  423.54   38.94
 -13   6  -5  199.80   26.84
   6  13   5  232.46   31.36
   6  13  -5  239.07   31.95
  13  -6   7  231.53   29.86
   6  13   7  240.39   31.66
   6  13  -7  241.85   30.76
   6  13  -9  346.32   36.42
   6  13   9  430.03   41.33
  13  -6   9  385.00   35.53
  13  -6  11  242.42   26.61
   6  13  11  195.26   29.97
   6  13 -11  248.86   31.32
   6  13  13   39.76   19.99
   6  13 -13   36.84   15.17
   6  13 -15   15.57   10.14
   6  13 -17   32.72   10.40
   5  13   0   -3.27   12.97
   5  13   0   -9.74   13.22
   5  13   2   77.34   20.46
   5  13  -2   75.29   19.80
   5  13   4   75.26   20.09
   5  13  -4   98.20   21.54
   5  13   6   63.59   21.48
   5  13  -6   60.88   20.11
  13  -5   8   35.02   16.06
   5  13   8   49.23   21.53
   5  13  -8   21.41   17.90
  13  -5  10   -3.57   10.83
 -13   5  10    5.79   11.29
   5  13  10   10.68   17.46
   5  13 -10    7.35   16.08
  13  -5  12   70.14   16.88
 -13   5  12   43.87   14.04
   5  13  12   91.92   22.77
   5  13 -12   33.71   14.43
 -13   5  14   48.11   12.49
   5  13 -14   56.44   17.94
 -13   5  16   -6.74    7.63
   5  13 -16   -5.44    9.45
   5  13 -18   14.39    7.08
 -13   5  18    4.31    5.75
   4  13   1   14.22   12.22
   4  13  -1   22.23   11.08
  13  -4   1  -31.38   21.16
  13  -4  -1   17.15   22.63
   4  13   3   17.73   17.18
   4  13  -3   36.60   17.23
   4  13   5   37.23   18.61
   4  13  -5   27.23   14.57
  13  -4   7  153.17   24.22
   4  13   7  211.69   31.22
   4  13  -7  157.57   27.46
   4  13  -9  291.98   34.70
   4  13   9  317.35   36.43
  13  -4   9  295.85   32.63
  13  -4  11   -4.25   10.82
 -13   4  11    9.65   11.95
   4  13  11   15.97   20.81
   4  13 -11   11.37   15.36
 -13   4  13    1.61    9.80
   4  13 -13  -10.43   14.23
  13  -4  13  -13.00   11.38
 -13   4  15   -9.77    8.86
   4  13 -15   -7.38   12.45
 -13   4  17   58.64   12.34
   4  13 -17   66.94   14.69
 -13   4  19   81.39   11.52
   3  13   0    0.67   11.24
  13  -3   0    0.93   17.22
   3  13  -2    4.49   17.93
  13  -3   2   44.43   23.92
   3  13   2   22.29   10.69
   3  13  -2   18.85   14.40
  13  -3  -2   30.55   22.97
  13  -3   4  -18.49   26.54
   3  13  -4  -27.25   26.89
   3  13   4   22.82   16.47
   3  13  -4   -3.49   13.92
  13  -3  -4  -17.73   19.65
  13  -3   6  102.05   19.55
   3  13   6  134.34   25.84
   3  13  -6  167.08   27.74
  13  -3   8   52.38   18.13
   3  13   8   98.37   25.10
   3  13  -8   78.81   22.18
  13  -3  10   36.19   15.48
   3  13 -10   28.55   17.05
 -13   3  12    6.07   10.42
   3  13 -12   -4.83   13.75
  13  -3  12    3.08   11.20
   3  13 -14   63.64   19.70
 -13   3  14   45.11   13.98
  13  -3  14   54.44   13.29
 -13   3  16   20.87    9.48
   3  13 -16   30.35   13.10
 -13   3  18   10.81    9.85
   3  13 -18   24.24    8.06
   2  13  -1   50.03   23.30
   2  13   1   22.28   12.35
   2  13  -1   15.74   12.61
  13  -2  -1   -0.80   21.10
  13  -2   1   -4.72   22.76
  13  -2   3  -26.06   20.84
   2  13  -3   -3.90   20.12
  13  -2   3   15.25   15.72
  13  -2  -3   16.50   16.94
   2  13  -3    5.61   12.51
   2  13  -5    9.92   15.44
  13  -2  -5   35.57   22.27
  13  -2   5   26.56   14.89
   2  13  -5   27.14   16.85
  13  -2   5  -16.37   21.69
  13  -2   7   42.07   15.88
   2  13  -7   40.68   18.78
  13  -2   9    0.45   14.05
   2  13  -9   35.11   20.36
   2  13 -11   67.50   22.73
  13  -2  11   87.77   18.97
   2  13 -13  288.92   33.89
  13  -2  13  256.94   28.04
 -13   2  13  249.72   28.32
 -13   2  15  168.10   23.85
   2  13 -15  134.56   22.33
  13  -2  15  144.34   18.50
 -13   2  17   53.05   14.83
  13  -2 -17   61.63   13.63
   2  13 -17   70.86   14.70
 -13   2  19   52.95   11.32
  13  -1   0   12.95   11.70
  13  -1   0    0.23   21.05
   1  13   0   -7.89   12.04
   1  13  -2   60.25   23.49
  13  -1  -2   66.73   24.01
  13  -1   2   34.99   14.19
  13  -1  -2   49.55   16.49
   1  13   2   43.00   15.02
   1  13  -2   20.92   13.46
  13  -1   2   25.96   18.35
   1  13  -4   58.28   23.13
  13  -1   4   50.01   18.54
  13  -1  -4   20.00   13.16
   1  13  -4   31.37   16.40
  13  -1  -4   49.85   23.64
  13  -1   4   12.66   20.54
   1  13  -6   98.34   28.58
  13  -1   6  134.54   22.81
   1  13  -6  100.80   24.18
  13  -1  -6   50.81   24.97
  13  -1   8  -15.41   15.38
   1  13  -8   13.08   14.69
   1  13 -10   -6.61   14.69
  13  -1  10    0.67   13.84
   1  13 -12  139.27   24.74
  13  -1  12  126.99   21.11
   1  13 -14  225.41   29.61
 -13   1  14  268.88   31.20
  13  -1  14  179.87   22.16
 -13   1  16   22.20   13.21
   1  13 -16    5.52   11.78
  13  -1 -16   -3.48   10.09
 -13   1  18   11.73   10.03
 -13   1  20   11.58    7.16
  13   0   1   51.01   15.89
  13   0  -1   88.69   19.22
  13   0   1  102.82   30.90
   0  13   1   65.12   18.39
   0  13  -1   68.14   19.30
  13   0  -1   46.08   22.20
  13   0   3  203.38   27.24
  13   0  -3  142.57   23.11
   0  13   3  190.00   25.68
   0  13  -3  195.00   27.50
  13   0   3  119.87   30.07
  13   0  -3  216.60   41.77
   0  13  -5  423.93   39.20
  13   0   5  478.26   40.96
  13   0  -5  336.06   30.56
  13   0  -5  453.40   57.01
  13   0   7   -0.40   12.35
   0  13  -7   -7.62   14.22
   0  13  -9  372.73   39.55
  13   0   9  368.63   37.10
   0  13 -11  521.14   44.91
  13   0  11  478.36   39.91
   0  13 -13   34.71   18.25
  13   0  13   22.92   14.02
 -13   0  15   86.59   19.27
   0  13 -15   83.77   19.38
  13   0 -15   75.21   16.45
  13   0  15   57.98   13.58
 -13   0  17  200.26   23.51
   0  13 -17  137.95   18.78
  13   0 -17  152.72   19.41
 -13   0  19   47.50   11.77
  13   1   0   -1.67   11.60
  -1  13   0   -2.64   13.84
  13   1   0  -13.02   24.40
  13   1   2   33.87   16.52
  13   1  -2   29.27   13.19
  13   1   2  -25.02   20.58
  -1  13   2    7.73   12.25
  -1  13  -2   21.27   15.99
  13   1  -2   21.89   20.14
  -1  13   4  383.64   35.07
  -1  13  -4  470.61   42.36
  13   1   4  486.86   40.68
  13   1  -4  455.88   36.29
  13   1  -4  439.37   55.37
  -1  13  -6  331.11   35.32
  13   1   6  347.98   35.68
  13   1  -6  266.16   46.35
  -1  13  -8  158.09   26.35
  13   1   8  206.85   29.52
  -1  13 -10   55.14   17.64
  13   1  10   18.24   16.02
  -1  13 -12  152.42   27.04
  13   1  12  127.30   23.32
  -1  13 -14   24.38   15.11
  13   1 -14   40.70   15.12
  13   1  14   24.83   11.19
  -1  13 -16  330.28   30.27
  13   1 -16  304.43   28.67
  13   1  16  272.39   24.89
 -13  -1  16  298.92   29.56
 -13  -1  18   18.92   10.68
  13   1 -18   10.94    8.02
 -13  -1  20   23.05    7.76
  13   2   1  179.33   26.54
  13   2  -1  180.31   26.98
  -2  13   1  168.09   26.17
  -2  13  -1  200.54   28.65
  13   2  -1  192.40   37.13
  13   2   1  200.25   39.22
  13   2   3  139.22   24.33
  13   2  -3  126.99   20.88
  -2  13   3  107.63   20.75
  -2  13  -3  126.10   24.19
  13   2  -3  121.10   34.20
  -2  13   5  599.21   44.13
  -2  13  -5  594.59   46.92
  13   2   5  636.02   47.38
  13   2  -5  481.22   58.62
  -2  13  -7  857.09   57.28
  13   2   7  883.66   55.43
  -2  13  -9   69.63   22.78
  13   2   9  127.07   24.05
  -2  13 -11   15.60   17.49
  13   2  11   18.81   13.92
  -2  13 -13  206.47   28.91
  13   2 -13  209.33   29.98
  13   2  13  210.37   26.40
 -13  -2  15  118.24   22.00
  -2  13 -15  139.02   21.95
  13   2 -15  128.27   21.96
  13   2  15  171.96   22.60
 -13  -2  17    7.62   10.40
  13   2 -17   14.51   11.22
  13   2  17  -20.50    9.07
 -13  -2  19   19.00   10.47
  -3  13   0  -12.33   12.77
  13   3   0   14.98   24.54
  13   3   0  -11.47   12.73
  -3  13  -2  544.38   44.80
  13   3   2  499.97   41.38
  13   3  -2  459.79   37.21
  13   3  -2  449.79   59.09
  13   3   2  367.33   46.91
  -3  13   2  510.35   43.60
  -3  13   4   41.86   17.85
  -3  13  -4   51.63   20.04
  13   3  -4  -13.25   16.20
  13   3   4   48.97   17.46
  -3  13  -6 1471.35   74.24
  13   3   6 1510.09   72.47
  -3  13   6 1339.93   64.68
  -3  13  -8   48.42   20.65
  13   3   8   42.47   17.98
  -3  13 -10   70.71   20.10
  13   3  10   47.42   17.54
  -3  13 -12    5.20   13.34
  13   3 -12   15.34   18.81
  13   3  12   17.36   15.88
  -3  13 -14  309.91   31.97
  13   3 -14  308.21   32.32
  13   3  14  290.17   29.75
 -13  -3  16   37.66   15.38
  13   3 -16   33.40   13.45
  13   3  16   25.38    9.47
 -13  -3  18   19.44    9.14
  13   3 -18    2.76    7.93
 -13  -3  20    3.22    5.31
  -4  13   1   22.35   14.56
  -4  13  -1   30.19   17.83
  13   4  -1   -6.78   20.00
  13   4  -1   49.05   16.71
  13   4   1   64.20   18.70
  -4  13   3  473.89   41.98
  -4  13  -3  455.66   41.94
  13   4   3  507.63   42.15
  -4  13   5  505.22   42.26
  -4  13  -5  507.81   43.61
  13   4   5  546.00   44.16
  -4  13  -7   40.89   17.38
  13   4   7   67.51   19.43
  -4  13  -9   12.89   16.23
  13   4  -9   26.49   16.74
  13   4   9   19.80   17.87
  -4  13 -11  194.14   28.37
  13   4 -11  228.23   30.91
  13   4  11  204.33   27.58
  -4  13 -13  289.37   32.58
  13   4 -13  282.65   32.00
  13   4  13  257.66   29.67
 -13  -4  15   59.00   15.60
  -4  13 -15   44.44   14.09
  13   4 -15   71.66   19.52
  13   4  15   31.51   11.93
 -13  -4  17   73.73   15.38
  13   4 -17   52.27   12.82
  13   4  17   77.66   12.99
 -13  -4  19   17.68    7.57
  -5  13   0    8.61   15.35
  13   5   0   26.84   13.56
  13   5   0    3.06   13.87
  -5  13   2  -13.19   16.39
  -5  13  -2    1.19   15.06
  13   5  -2  -15.64   15.99
  13   5  -2   -6.15   11.59
  13   5   2   34.28   21.98
  -5  13   4 1007.01   59.08
  -5  13  -4  951.10   60.10
  13   5  -4 1045.77   60.53
  -5  13   6   56.05   16.33
  -5  13  -6   45.75   19.98
  13   5  -6   25.31   17.65
  13   5   6   50.41   20.40
  -5  13  -8  269.04   33.71
  13   5  -8  253.75   32.76
  13   5   8  221.02   29.17
  -5  13 -10   61.56   18.54
  13   5 -10   25.23   18.81
  13   5  10   46.46   16.05
  -5  13 -12  325.18   33.80
  13   5 -12  340.71   35.50
  13   5  12  326.32   33.60
  -5  13 -14    0.32   10.80
  13   5 -14  -11.06   14.45
  13   5  14   -3.94   12.11
 -13  -5  16  174.52   20.18
  13   5 -16  153.09   20.93
  13   5  16  153.72   19.62
 -13  -5  18  -11.36    7.41
  13   5 -18    3.16    7.88
  -6  13   1  128.04   25.28
  -6  13  -1  127.65   25.15
  13   6  -1   94.31   18.25
  13   6  -1  109.86   19.79
  13   6   1  120.90   20.42
  -6  13   3   42.20   20.15
  -6  13  -3   29.94   16.98
  13   6  -3   36.52   16.76
  13   6   3   20.48   12.66
  -6  13   5   14.10   14.78
  -6  13  -5   21.94   15.14
  13   6  -5   -7.63   14.74
  13   6   5   28.48   15.48
  -6  13   7   21.77   13.24
  -6  13  -7    6.24   14.96
  13   6  -7   49.93   17.43
  13   6   7   37.52   20.07
  -6  13  -9   31.77   17.66
  13   6  -9   13.49   16.84
  13   6   9   -0.70   17.66
  -6  13 -11    1.19   12.76
  13   6 -11   -7.28   16.36
  13   6  11    5.11   15.47
  -6  13 -13   29.74   13.81
  13   6 -13   38.87   16.47
  13   6  13   15.27   11.95
  13   6 -15   99.98   18.08
  13   6  15   87.73   16.29
 -13  -6  15   76.86   15.10
 -13  -6  17   21.92    8.61
  13   6  17    3.05    6.28
  13   6 -17    5.00    7.80
  -7  13   0  -16.44   16.46
  13   7   0  -10.27   11.01
  -7  13   2  243.79   31.98
  -7  13  -2  220.06   31.74
  13   7   2  261.82   31.02
  13   7  -2  256.92   29.16
  -7  13   4  166.60   27.26
  -7  13  -4  160.37   27.08
  13   7  -4  192.92   27.47
  13   7   4  152.91   25.68
  -7  13   6  104.08   22.74
  -7  13  -6  110.33   23.04
  13   7  -6  123.67   23.30
  13   7   6   93.31   21.20
  -7  13   8   28.74   13.46
  -7  13  -8   76.74   22.17
  13   7  -8   22.29   15.36
  13   7   8   44.01   16.65
  -7  13 -10   12.96   12.84
  13   7 -10    4.95   16.28
  13   7  10  -14.01   17.04
  -7  13 -12   39.93   14.98
  13   7 -12   35.59   14.66
  13   7  12   -2.48   13.51
  13   7  14  216.75   25.07
 -13  -7  14  178.15   20.26
 -13  -7  16   -3.32    6.92
  13   7  16    9.18    8.65
  13   7 -16   21.17    9.74
  -8  13   1   13.82   16.78
  -8  13  -1    7.16   14.86
  13   8   1   -3.86   14.33
  -8  13   3    2.59   13.04
  -8  13  -3    1.68   14.39
  13   8  -3  -15.34   14.65
  13   8   3  -15.62   18.50
  -8  13   5   -7.17   13.08
  -8  13  -5  -29.94   19.60
  13   8  -5   24.79   12.34
  13   8   5  -17.51   16.21
  -8  13   7    7.35   12.04
  -8  13  -7   61.00   21.17
  13   8  -7   47.09   18.68
  13   8   7   26.46   15.29
  -8  13   9    3.26   10.74
  -8  13  -9   39.92   16.06
  13   8  -9   21.37   15.54
  13   8   9    2.12   14.83
  -8  13 -11    9.40   11.36
  13   8  11   31.63   13.84
 -13  -8  13   11.95   10.08
  13   8 -13    5.53   11.58
  13   8  13    3.18   10.58
  13   8  15   -0.55    8.41
  13   8 -15   -8.73    9.03
  13   8 -17    4.92    6.95
  -9  13   0   -4.69   17.22
  13   9   0   11.93   12.74
  -9  13   2   18.58   15.81
  -9  13  -2   11.64   15.56
  13   9  -2   24.65   11.99
  13   9   2   28.00   11.84
  -9  13   4   21.88   16.36
  -9  13  -4   28.75   18.42
  13   9  -4   -4.17   11.92
  13   9   4   28.94   13.13
  -9  13   6   51.92   15.59
  13   9  -6   63.44   18.22
  -9  13  -6   54.97   18.95
  13   9   6   36.13   16.86
  -9  13   8   82.86   17.25
  -9  13  -8   43.21   14.21
  13   9  -8   35.58   16.36
  13   9   8   21.94   15.88
  -9  13 -10   41.42   13.82
  13   9 -10   49.73   15.55
  13   9  10   43.60   16.65
  13   9 -12    6.66   10.80
  13   9  12    7.91   11.29
  13   9  14  102.64   15.48
  13   9 -14  109.73   16.98
  13   9 -16   15.13    7.39
 -10  13   1  233.64   31.38
 -10  13  -1  228.89   30.19
  13  10   1  203.06   23.60
 -10  13   3    4.16   14.77
 -10  13  -3   10.47   13.97
  13  10  -3   11.60   11.92
  13  10   3    1.06   12.01
 -10  13   5   30.72   12.80
 -10  13  -5   38.38   16.86
  13  10  -5   44.73   14.43
  13  10   5   20.25   14.10
 -10  13   7   21.39    9.82
 -10  13  -7   10.07   12.68
  13  10  -7   24.27   14.06
  13  10   7   40.47   16.02
 -10  13  -9   65.71   15.72
  13  10  -9   48.77   16.12
  13  10   9   41.76   17.40
  13  10 -11   22.45   10.88
  13  10  11    8.46   10.57
  13  10  13  112.95   16.16
  13  10 -13  104.31   15.99
  13  10 -15   26.86    8.10
 -11  13   0   -6.88   12.75
 -11  13   2   83.98   17.97
 -11  13  -2   72.81   20.09
  13  11   2   63.99   15.66
 -11  13   4  451.77   35.80
 -11  13  -4  532.35   39.48
  13  11  -4  409.52   31.43
  13  11   4  457.22   34.01
 -11  13   6  -24.30   12.53
 -11  13  -6   -3.55   12.44
  13  11  -6    6.80    9.54
  13  11   6   -8.31   10.68
 -11  13  -8   14.77   11.91
  13  11   8   36.64   14.75
  13  11  -8   15.72   10.76
  13  11  10    4.38   10.23
  13  11 -10    4.73    9.35
  13  11  12  143.43   17.49
  13  11 -12  136.92   16.51
 -12  13   1   16.04   11.41
 -12  13  -1    4.55   11.00
 -12  13   3  327.83   29.44
 -12  13  -3  291.83   28.74
  13  12   3  252.81   22.70
 -12  13  -5  229.36   25.02
  13  12   5  208.20   22.38
  13  12  -5  154.28   17.77
 -12  13  -7    6.82    9.33
  13  12   7    2.52    9.76
  13  12  -7   -8.70    7.72
  13  12   9  102.91   15.60
  13  12  -9   71.44   12.89
  13  12  11   99.83   13.76
  13  12 -11   94.83   13.34
 -13  13  -2  116.31   17.14
 -13  13  -4   58.50   13.66
  13  13   6  145.92   16.12
  13  13   8   38.40    9.00
  14 -13   3   35.22    8.19
  14 -12   4    4.21    7.39
  14 -12   6    9.34    6.36
  14 -11   5  102.36   16.53
  11  14   5  151.26   18.93
  11  14  -5  113.11   15.62
  14 -11   7   24.39    9.13
  11  14   7   10.28    9.85
  11  14  -7    1.51    9.45
  11  14  -9   36.04   10.46
  11  14 -11   24.14    8.09
  10  14   4   20.29   11.61
  10  14  -4   23.89   10.37
  14 -10   6  -14.40   11.83
  10  14   6   20.64   12.50
  10  14  -6   -8.58   10.83
  14 -10   8  -10.64    7.49
  10  14  -8    0.39    9.03
  10  14  10   95.38   17.19
  10  14 -10   77.41   14.25
  10  14 -12   -1.35    6.89
   9  14   3   98.47   19.08
   9  14  -3   78.27   16.60
   9  14   5  123.34   20.41
   9  14  -5  110.61   19.53
  14  -9   7   15.31   11.82
   9  14   7   34.74   15.91
   9  14  -7   30.02   15.32
   9  14   9   26.30   13.39
   9  14  -9    1.03   10.13
  14  -9   9   -8.42    9.77
   9  14 -11   -0.45    9.02
   9  14 -13   55.90   11.80
   8  14   2  185.15   23.69
   8  14  -2  180.99   23.22
   8  14   4   -3.18   13.47
   8  14  -4   -3.24   10.82
  14  -8   6   77.75   18.66
   8  14   6   97.93   21.94
   8  14  -6   51.98   15.95
  14  -8   8   66.31   16.12
   8  14   8   61.64   18.99
   8  14  -8   42.70   17.51
  14  -8  10  107.37   16.86
   8  14  10  114.46   21.90
   8  14 -10  114.25   20.20
   8  14 -12  126.46   17.88
   8  14 -14    7.96    8.63
   7  14  -1   49.92   16.43
   7  14   3   -3.40   12.84
   7  14  -3   48.94   17.47
   7  14   5   51.72   17.64
   7  14  -5   88.83   22.10
  14  -7   7  208.26   27.60
   7  14   7  192.01   27.05
   7  14  -7  232.03   28.61
  14  -7   9   -3.57   10.63
   7  14   9   22.17   13.65
   7  14  -9   29.05   14.46
  14  -7  11   -3.23    8.84
   7  14 -11   22.63   14.54
   7  14 -13   16.45   10.58
   7  14 -15   45.70   12.32
   6  14   0  836.26   49.20
   6  14  -2  104.59   19.25
   6  14   4   88.54   21.94
   6  14  -4   70.53   17.55
  14  -6   6    5.17   12.73
   6  14   6   13.36   13.73
   6  14  -6   -1.92   13.79
   6  14  -8  819.75   53.21
   6  14   8  833.94   52.95
  14  -6   8  840.01   50.65
  14  -6  10   50.50   15.05
   6  14 -10   30.80   15.69
   6  14 -12   26.12   13.74
  14  -6  12   32.50   12.11
   6  14 -14   10.03   11.46
   6  14 -16   52.80   11.65
   5  14  -1   69.91   19.48
   5  14  -3   37.71   16.57
  14  -5   5   60.83   19.60
   5  14   5   90.02   24.41
   5  14  -5   33.25   17.68
  14  -5   7   15.64   12.32
   5  14  -7   38.95   18.28
  14  -5   9  222.91   27.16
   5  14  -9  281.60   33.23
  14  -5  11   36.16   13.90
   5  14 -11   59.77   18.11
 -14   5  13    3.53    6.29
   5  14 -13    6.40   12.86
  14  -5  13   23.55   10.79
 -14   5  15    5.11    5.14
   5  14 -15  -16.04   10.00
   5  14 -17   11.93    6.30
   4  14   0   26.79   12.53
   4  14  -2  584.88   45.42
  14  -4   4   51.12   18.23
   4  14  -4   72.82   19.50
  14  -4   6  186.90   28.07
   4  14  -6  180.33   29.13
  14  -4   8   13.69   13.91
   4  14  -8   10.98   14.35
   4  14 -10  557.07   44.80
  14  -4  10  510.48   38.82
 -14   4  10  462.31   34.55
 -14   4  12   36.75   13.43
   4  14 -12   42.71   17.63
  14  -4  12   16.77    9.88
 -14   4  14  -10.69    8.48
   4  14 -14   23.73   14.89
 -14   4  16   20.76    8.50
   4  14 -16   -3.21    9.50
  14  -4 -16    1.47    6.25
   3  14   1   67.44   17.94
   3  14  -1  124.56   22.86
  14  -3   3   30.48   16.42
   3  14  -3   33.44   15.46
  14  -3   5  220.07   29.24
   3  14  -5  246.08   32.53
  14  -3   7    1.47   12.57
  14  -3  -7   22.53   11.00
   3  14  -7    5.22   14.58
  14  -3   9   60.34   16.96
   3  14  -9   35.73   18.17
   3  14 -11  466.03   41.05
  14  -3  11  431.57   36.40
 -14   3  11  357.26   31.60
 -14   3  13   17.16   11.64
   3  14 -13   11.07   12.85
  14  -3  13   26.13   12.57
 -14   3  15   11.87    9.97
   3  14 -15   24.29   11.99
   3  14 -17   80.04   13.75
 -14   3  17   75.14   12.59
  14  -2   0  320.16   33.34
   2  14   0  261.57   30.94
  14  -2   2    7.86   13.02
  14  -2  -2   -1.43   12.45
   2  14   2   -3.94   10.85
   2  14  -2   24.15   13.37
  14  -2   4   -3.36   12.67
  14  -2  -4    5.30   13.05
   2  14  -4   20.07   15.46
  14  -2   6   17.05   15.41
  14  -2  -6    0.24   11.58
   2  14  -6   -2.54   13.66
  14  -2   8  189.63   27.43
   2  14  -8  194.16   29.30
   2  14 -10    2.27   14.25
  14  -2  10   51.22   18.84
   2  14 -12  446.97   39.25
  14  -2  12  461.21   36.23
 -14   2  12  432.57   34.41
 -14   2  14   -3.55   10.79
   2  14 -14   18.11   12.81
  14  -2  14    6.03    8.28
 -14   2  16   98.98   16.52
   2  14 -16   88.23   16.23
  14  -2 -16  108.34   16.51
 -14   2  18    7.19    6.49
  14  -1   1   87.14   19.71
  14  -1  -1   67.41   19.92
   1  14   1   83.73   19.25
   1  14  -1   59.79   17.27
  14  -1   3    5.83   12.91
  14  -1  -3   36.51   14.68
   1  14   3    9.48   11.70
   1  14  -3   21.07   16.87
  14  -1   5   50.69   19.83
  14  -1  -5   40.80   14.15
   1  14  -5   43.81   19.27
  14  -1   7  130.95   24.70
   1  14  -7  110.71   23.60
   1  14  -9  121.99   26.55
  14  -1   9  126.86   23.83
   1  14 -11   24.40   17.17
  14  -1  11   11.60   13.21
  14  -1  13  239.71   25.83
   1  14 -13  199.94   27.61
 -14   1  13  271.48   29.03
 -14   1  15   51.80   13.66
   1  14 -15   67.42   16.14
  14  -1 -15   60.89   15.97
  14  -1  15   68.19   13.89
 -14   1  17    5.94    7.99
   1  14 -17    1.56    7.48
  14  -1 -17   -6.98    7.08
 -14   1  19   56.36    9.89
  14   0   0   15.08   13.07
   0  14   0    0.60   13.28
  14   0   2   23.94   17.62
  14   0  -2   16.28   12.70
   0  14   2   -0.85   12.14
   0  14  -2    9.04   13.51
  14   0   4  124.17   22.14
  14   0  -4  104.04   18.94
   0  14  -4  100.66   22.55
  14   0   6   77.28   21.30
   0  14  -6   96.00   24.75
   0  14  -8   18.40   16.66
  14   0   8    8.73   14.74
   0  14 -10  284.66   34.76
  14   0  10  275.75   30.82
   0  14 -12   67.26   20.66
  14   0  12   26.48   14.19
 -14   0  14   32.15   15.27
   0  14 -14   29.62   15.82
  14   0 -14   40.08   14.38
  14   0  14   20.49   11.74
 -14   0  16  -13.74   11.81
   0  14 -16    2.60    9.23
  14   0 -16   14.17    9.59
  14   0  16   16.02    8.94
 -14   0  18  139.71   16.34
  14   1   1   17.36   14.14
  14   1  -1   -6.16   13.86
  -1  14   1   -9.01   19.06
  -1  14  -1    6.08   13.41
  14   1   3  110.28   22.75
  14   1  -3  115.47   21.82
  -1  14   3   95.10   21.10
  -1  14  -3  108.40   24.86
  14   1   5  -25.49   19.11
  -1  14  -5    7.51   17.45
  -1  14  -7   36.19   20.59
  14   1   7   22.79   16.30
  -1  14  -9   44.23   17.26
  14   1   9   40.61   16.63
  -1  14 -11   21.84   15.83
  14   1  11    9.73   13.85
  -1  14 -13    0.65   14.82
  14   1 -13   16.27   16.73
  14   1  13   15.42   11.84
 -14  -1  15   95.33   18.33
  -1  14 -15   99.02   18.21
  14   1 -15  109.08   19.75
  14   1  15  109.32   16.78
 -14  -1  17   47.31   13.23
  14   1 -17   48.50   12.31
 -14  -1  19    2.08    6.10
  14   2   0    5.72   14.58
  -2  14   0    1.15   13.78
  -2  14   2   19.79   15.65
  -2  14  -2   12.65   13.86
  14   2   2  -15.77   15.54
  14   2  -2  -18.04   14.83
  -2  14   4   18.89   14.28
  -2  14  -4  -25.79   16.07
  14   2   4   12.22   14.87
  -2  14  -6  132.79   25.67
  14   2   6  109.44   23.80
  -2  14  -8   60.20   21.69
  14   2   8   50.38   19.82
  -2  14 -10   72.48   19.57
  14   2  10   66.69   18.84
  -2  14 -12   25.38   14.87
  14   2 -12   26.77   14.84
  14   2  12    3.30   12.46
  -2  14 -14   -2.08   11.44
  14   2 -14   12.89   13.10
 -14  -2  14    3.15   12.91
  14   2  14   23.59   11.02
 -14  -2  16   12.34   11.33
  -2  14 -16  -13.66    9.04
  14   2 -16   12.23   11.08
  14   2  16    1.77    8.34
 -14  -2  18    2.20    7.45
  14   2 -18    5.74    6.11
  -3  14   1   17.30   12.17
  -3  14  -1    5.51   14.52
  14   3  -1   15.56   15.09
  14   3   1    1.63   11.44
  -3  14   3   98.38   21.58
  -3  14  -3   73.73   19.93
  14   3  -3  102.23   19.70
  14   3   3   86.24   19.65
  -3  14   5  247.37   29.76
  14   3   5  269.41   32.90
  -3  14  -5  277.66   34.17
  -3  14  -7   -8.21   16.77
  14   3   7   10.91   15.29
  -3  14  -9   12.70   16.48
  14   3   9   20.49   14.52
  -3  14 -11   15.17   14.97
  14   3 -11   -2.11   14.60
  14   3  11   -1.69   13.03
  -3  14 -13   48.05   16.34
  14   3 -13   54.74   17.10
  14   3  13   64.63   16.80
 -14  -3  15   10.62   10.41
  -3  14 -15   25.09   11.97
  14   3 -15   19.77   11.69
  14   3  15   16.74   10.67
 -14  -3  17   19.25    8.62
  14   3  17   -1.25    6.62
  14   3 -17    5.22    7.65
  -4  14   0   83.30   22.15
  14   4   0   71.12   17.21
  14   4   0   58.08   15.38
  -4  14   2    4.66   14.06
  -4  14  -2   -6.51   17.83
  14   4  -2  -11.57   12.66
  14   4   2    1.69   14.04
  -4  14   4    9.70   12.14
  -4  14  -4   15.00   17.46
  14   4   4  -16.59   16.34
  -4  14   6    0.48   11.00
  -4  14  -6   -6.96   15.64
  14   4  -6    6.54   13.62
  14   4   6   12.43   17.30
  -4  14  -8  126.52   26.43
  14   4  -8   91.35   21.09
  14   4   8   91.32   20.59
  -4  14 -10   14.62   15.79
  14   4 -10    9.77   17.03
  14   4  10   10.24   13.12
  -4  14 -12    8.16   12.12
  14   4 -12   19.72   16.12
  14   4  12   28.45   16.44
 -14  -4  14   36.36   12.40
  -4  14 -14   30.83   12.70
  14   4 -14   28.33   14.51
  14   4  14   49.98   13.64
 -14  -4  16    8.82    9.49
  14   4 -16    6.81    8.96
  14   4  16    8.95    8.65
 -14  -4  18   21.21    7.72
  -5  14   1  112.88   26.83
  -5  14  -1   86.26   22.15
  14   5  -1  117.67   22.54
  14   5  -1  119.58   20.41
  14   5   1  101.52   20.00
  -5  14   3   20.44   15.80
  -5  14  -3   58.17   20.40
  14   5  -3   27.79   12.99
  14   5   3   78.27   18.83
  -5  14   5  117.18   21.54
  -5  14  -5  137.07   27.92
  14   5  -5  101.83   22.11
  14   5   5  160.27   27.23
  -5  14   7  346.45   33.11
  -5  14  -7  331.37   36.86
  14   5  -7  338.48   35.60
  14   5   7  369.54   36.35
  -5  14  -9   36.75   15.57
  14   5  -9   11.13   13.67
  14   5   9   17.81   14.18
  -5  14 -11    4.56   11.76
  14   5  11   -3.11   13.00
  -5  14 -13  145.66   20.94
  14   5 -13  169.17   24.33
  14   5  13  143.27   20.88
 -14  -5  15   69.74   13.72
  14   5 -15   54.17   14.79
  14   5  15   39.54   12.31
 -14  -5  17    7.00    6.35
  14   5 -17    1.67    6.47
  -6  14   0   74.03   20.94
  14   6   0   74.31   16.45
  -6  14   2  103.63   22.18
  -6  14  -2   87.83   23.83
  14   6  -2   72.47   16.67
  14   6   2   68.67   18.37
  -6  14   4    1.62   12.81
  -6  14  -4   -4.86   17.44
  14   6  -4  -21.88   15.52
  14   6   4   -9.62   12.55
  -6  14   6   53.52   16.06
  -6  14  -6   48.11   21.12
  14   6  -6   44.03   15.89
  14   6   6   48.18   18.23
  -6  14  -8  137.11   25.61
  14   6  -8  132.22   23.21
  14   6   8  148.26   24.95
  -6  14 -10   83.68   20.01
  14   6 -10   65.87   20.56
  14   6  10   49.89   17.47
  -6  14 -12   77.57   18.14
  14   6 -12   51.05   16.91
  14   6  12   52.50   15.29
 -14  -6  14    3.53    8.41
  14   6 -14  -15.26   11.98
  14   6  14    3.84   10.26
 -14  -6  16    7.69    7.03
  14   6  16   15.05    8.28
  14   6 -16  -10.27    9.08
  -7  14   1   65.83   21.56
  -7  14  -1   67.89   21.76
  14   7   1   29.70   12.40
  -7  14   3  327.42   35.06
  -7  14  -3  340.90   36.87
  14   7  -3  274.14   29.51
  14   7   3  327.81   33.33
  -7  14   5  131.38   23.03
  -7  14  -5  165.62   27.17
  14   7  -5  183.58   26.47
  14   7   5  215.82   28.48
  -7  14   7   -8.38   11.67
  -7  14  -7    6.76   14.19
  14   7  -7   29.14   15.29
  14   7   7   10.30   13.32
  -7  14  -9  160.70   24.59
  14   7  -9  169.42   24.53
  14   7   9  148.45   23.46
  -7  14 -11  255.83   27.60
  14   7 -11  263.35   28.46
  14   7  11  239.06   27.03
  -7  14 -13    2.50    8.13
  14   7 -13    9.61    9.92
  14   7  13    5.05    9.94
 -14  -7  15   11.63    6.37
  14   7  15   11.15    7.44
  14   7 -15   15.35    9.28
  -8  14   0   50.74   16.32
  14   8   0   22.57   11.39
  -8  14   2  199.76   28.54
  -8  14  -2  218.01   31.05
  14   8  -2  144.43   22.43
  14   8   2  193.81   25.39
  -8  14   4   -8.44   12.62
  -8  14  -4    2.35   16.82
  14   8  -4   -1.99   10.60
  14   8   4   19.00   13.40
  -8  14   6    7.96   11.59
  -8  14  -6    2.10   13.48
  14   8  -6   -5.48   13.28
  14   8   6   -3.24   13.81
  -8  14   8   98.43   16.79
  -8  14  -8  114.97   21.68
  14   8  -8  116.80   20.74
  14   8   8  104.65   20.99
  -8  14 -10  156.87   22.04
  14   8 -10  184.76   24.38
  14   8  10  192.70   25.43
  -8  14 -12   11.82    8.60
 -14  -8  12   10.06    7.09
  14   8 -12   34.51   12.90
  14   8  12   24.74   13.11
  14   8  14   -7.83    8.43
  14   8 -14   -2.48    8.15
  -9  14   1  155.33   25.03
  -9  14  -1  122.65   24.01
  14   9   1  133.71   21.03
  -9  14   3  -10.00   12.59
  -9  14  -3  -22.34   16.45
  14   9  -3    6.48   12.24
  14   9   3   13.33   12.74
  -9  14   5   40.03   13.27
  -9  14  -5   77.00   21.75
  14   9  -5   47.30   13.76
  14   9   5   33.74   14.49
  -9  14   7   86.76   16.98
  -9  14  -7  134.56   22.55
  14   9  -7   92.23   17.83
  14   9   7  111.36   21.16
  -9  14  -9   45.40   13.61
  14   9  -9   59.88   16.20
  14   9   9   78.67   20.80
  -9  14 -11   16.47    8.73
  14   9 -11   49.79   13.76
  14   9  11   34.41   12.20
  14   9  13   47.19   10.99
  14   9 -13   41.00    9.85
 -10  14   0  423.81   36.34
 -10  14   2   14.86   12.25
 -10  14  -2  -21.05   15.37
  14  10   2  -16.04   11.50
 -10  14   4   18.54   11.00
 -10  14  -4   11.67   11.93
  14  10  -4   35.80   10.81
  14  10   4   33.25   13.63
 -10  14   6   -3.33   10.42
 -10  14  -6  -12.40   11.78
  14  10  -6    2.59    9.97
  14  10   6    2.07   11.43
 -10  14  -8  121.90   18.09
  14  10  -8   93.55   17.08
  14  10   8   90.40   17.78
 -10  14 -10   -1.96    7.52
  14  10  10   -9.95    9.87
  14  10 -10   -0.74    7.93
  14  10  12   58.31   11.52
  14  10 -12   72.89   12.54
 -11  14   1   31.96   13.08
 -11  14  -1   46.06   15.95
 -11  14   3   90.40   17.62
 -11  14  -3   76.26   16.29
  14  11   3   80.21   14.04
 -11  14  -5   25.48   12.35
  14  11  -5   58.40   11.99
  14  11   5   42.44   12.38
 -11  14  -7    2.11    8.83
  14  11   7   19.62   10.87
  14  11  -7   -3.12    8.30
  14  11   9    0.74    8.10
  14  11  -9   18.55    8.53
  14  11  11   39.21    8.97
 -12  14   0   -0.85    9.81
 -12  14   2   64.41   13.88
 -12  14  -2   68.32   13.60
 -12  14  -4   -3.64    8.19
 -12  14  -6   48.96   11.38
  14  12   6   35.39    9.13
  15 -12   1   -1.53    7.19
  15 -12   3    7.28    5.19
  15 -11   2   36.58   11.63
  15 -11   4    1.88    6.87
  15 -11   6   47.43    9.35
  15 -10   3    1.50   10.00
  15 -10   5   64.81   13.65
  10  15  -5   64.40   12.22
  15 -10   7   59.67   11.52
  10  15  -7   48.37   10.54
  10  15  -9   13.51    7.74
   9  15  -4  221.15   22.91
  15  -9   4  260.42   26.84
  15  -9   6    4.11    9.36
   9  15  -6   15.81    9.86
  15  -9   8   27.86   10.38
   9  15  -8   39.56   11.13
   9  15 -10    0.25    7.73
   9  15 -12   51.97   10.54
   8  15  -3  245.63   25.33
  15  -8   5  151.46   22.40
   8  15  -5  136.49   20.72
  15  -8   7   11.62   11.01
   8  15  -7   -0.73   10.77
  15  -8   9   99.66   15.98
   8  15  -9  108.50   17.63
   8  15 -11  156.80   19.16
   8  15 -13   -3.05    6.63
   7  15  -2   62.76   15.42
  15  -7   4   86.62   18.77
   7  15  -4   36.74   14.45
  15  -7   6  139.50   22.33
   7  15  -6  184.45   25.55
  15  -7   8   24.91   12.50
   7  15  -8   10.21   13.04
  15  -7  10    3.04    8.16
   7  15 -10   24.53   12.84
   7  15 -12   41.78   12.24
   7  15 -14   65.27   11.31
   6  15  -1  419.29   35.10
  15  -6   3   -6.54   13.56
   6  15  -3  -24.53   15.34
  15  -6   5  128.57   23.96
   6  15  -5  105.37   21.25
   6  15  -7  389.37   35.69
  15  -6   7  327.05   31.48
  15  -6   9  145.91   19.86
   6  15  -9  200.05   25.94
   6  15 -11  -16.89   11.72
  15  -6  11  -21.15   10.45
   6  15 -13  103.18   16.38
   6  15 -15   55.36   10.77
   5  15   0   10.14   10.12
  15  -5   2   27.64   16.77
   5  15  -2   27.29   14.23
  15  -5   4  132.78   22.96
   5  15  -4  126.52   21.99
  15  -5   6   99.15   21.68
   5  15  -6   80.53   19.12
  15  -5   8   26.25   13.22
   5  15  -8   20.90   13.91
  15  -5  10   40.39   13.06
   5  15 -10   33.51   13.52
   5  15 -12   42.65   14.03
  15  -5  12   24.94    8.98
   5  15 -14   37.65   11.40
  15  -4   1  257.96   30.70
  15  -4  -1  210.23   28.37
   4  15   1  243.28   27.32
   4  15  -1  197.17   26.40
   4  15  -3  478.78   40.48
  15  -4   3  498.70   42.27
  15  -4  -3  429.52   36.81
  15  -4   5   62.12   20.62
  15  -4  -5   69.35   17.67
   4  15  -5   70.38   19.04
  15  -4   7   12.50   13.02
  15  -4  -7  -21.47   12.38
   4  15  -7   -8.53   14.05
  15  -4   9  106.52   19.75
 -15   4   9   89.23   16.14
   4  15  -9  107.14   22.61
 -15   4  11   76.04   12.91
   4  15 -11  126.44   22.13
  15  -4  11   89.67   15.58
 -15   4  13    9.65    6.80
   4  15 -13   23.75   13.70
  15  -4  13    1.60    7.35
   4  15 -15   15.81    9.59
  15  -4 -15   10.21    7.51
  15  -3   0   -5.40   12.06
   3  15   0   -2.49   12.07
  15  -3   2   16.69   16.94
  15  -3  -2   29.72   16.26
   3  15  -2  -11.13   16.50
  15  -3   4  172.35   26.06
  15  -3  -4  190.76   24.75
  15  -3   6  -11.98   14.45
  15  -3  -6  -11.10    8.70
   3  15  -6    4.10   14.41
  15  -3   8    4.73   14.22
   3  15  -8   47.18   19.04
 -15   3  10   19.45   10.92
   3  15 -10   20.03   16.53
  15  -3  10   10.74   12.00
 -15   3  12   19.45    9.78
   3  15 -12   24.06   13.40
  15  -3  12   30.22   12.26
 -15   3  14    5.72    6.94
  15  -3  14    0.49    6.35
 -15   3  16   26.38    7.85
  15  -3 -16   21.63    7.26
  15  -2   1  259.60   30.69
  15  -2  -1  221.08   28.17
   2  15   1  229.28   27.69
   2  15  -1  251.00   31.16
  15  -2   3   16.13   16.18
  15  -2  -3    9.72   12.61
   2  15  -3    6.30   14.36
  15  -2   5   11.93   16.55
  15  -2  -5  -12.41   13.30
   2  15  -5   23.09   17.09
  15  -2   7   41.50   17.84
   2  15  -7   50.45   18.11
   2  15  -9   57.89   19.30
  15  -2   9   93.85   20.54
 -15   2  11  156.28   21.71
   2  15 -11  228.40   29.10
  15  -2  11  173.70   23.31
 -15   2  13   21.92   11.08
   2  15 -13   -2.50   12.01
  15  -2  13    7.15    9.18
 -15   2  15    5.32    7.07
   2  15 -15   12.45   10.55
  15  -2 -15   10.25    9.53
 -15   2  17  -11.72    5.90
  15  -1   0    4.15   13.48
   1  15   0   -5.96   15.19
  15  -1   2   71.20   21.19
  15  -1  -2   77.41   19.09
   1  15   2   65.11   15.55
   1  15  -2  119.45   23.83
  15  -1   4  218.53   29.00
  15  -1  -4  195.96   24.46
   1  15  -4  241.34   31.81
  15  -1   6   88.02   22.44
   1  15  -6  127.60   23.80
   1  15  -8   29.98   15.52
  15  -1   8   37.64   17.11
   1  15 -10    2.85   15.76
  15  -1  10   27.04   13.94
 -15   1  12  206.05   24.60
   1  15 -12  208.35   27.10
  15  -1  12  189.62   22.97
 -15   1  14   16.00   10.92
   1  15 -14   31.13   13.31
  15  -1 -14    3.91    8.94
  15  -1  14   27.50    9.51
 -15   1  16   35.55    9.53
   1  15 -16   39.29   10.36
  15   0   1   20.84   16.77
  15   0  -1   10.44   12.74
   0  15   1   40.10   15.25
   0  15  -1   50.65   19.10
  15   0   3   28.74   15.58
  15   0  -3   30.80   13.75
   0  15   3   28.79   12.35
   0  15  -3   20.51   16.47
  15   0   5    3.68   14.21
   0  15  -5   26.88   17.90
   0  15  -7   73.83   21.31
  15   0   7   29.69   16.70
   0  15  -9   12.56   17.75
  15   0   9   13.16   13.66
   0  15 -11   14.10   15.94
  15   0  11    9.53   11.77
 -15   0  13  126.46   19.60
   0  15 -13  143.44   21.91
  15   0 -13  122.02   20.54
  15   0  13  104.77   17.83
 -15   0  15   31.59   10.18
   0  15 -15   38.54   12.60
  15   0 -15   30.41   10.63
  15   0  15   44.26   10.81
 -15   0  17   12.47    7.53
  15   1   0  -16.00   13.46
  -1  15   0   -3.18   14.26
  15   1   2  188.77   28.74
  15   1  -2  171.82   24.44
  -1  15   2  170.05   25.76
  -1  15  -2  166.18   26.99
  -1  15   4   -9.67   12.29
  -1  15  -4    8.85   15.92
  15   1   4   -3.49   14.74
  15   1  -4   -4.96   11.54
  15   1   6  335.53   35.34
  -1  15  -6  287.23   33.84
  -1  15  -8   19.98   15.32
  15   1   8   51.19   16.94
  -1  15 -10    0.56   14.86
  15   1  10   -0.44   14.05
  -1  15 -12   -1.29   12.78
  15   1 -12    6.62   12.25
  15   1  12   -8.32   12.24
  -1  15 -14  365.80   29.79
  15   1 -14  364.75   29.66
  15   1  14  346.07   27.02
 -15  -1  14  342.90   28.14
 -15  -1  16   -3.64    8.55
  15   1 -16    0.84    7.79
  -2  15   1   82.35   19.75
  -2  15  -1   90.42   22.63
  15   2  -1   40.73   14.89
  15   2   1   58.36   17.70
  -2  15   3   53.11   18.24
  -2  15  -3   67.80   20.03
  15   2  -3   71.25   17.27
  15   2   3   76.97   19.38
  -2  15  -5  144.74   27.27
  15   2   5  177.51   27.17
  -2  15  -7  269.64   33.28
  15   2   7  241.18   29.54
  -2  15  -9  -10.51   15.68
  15   2   9    6.40   12.86
  -2  15 -11   -1.66   12.39
  15   2 -11   19.63   14.28
  15   2  11    8.52   11.08
  -2  15 -13   93.88   17.76
  15   2 -13  110.96   19.72
  15   2  13   75.44   15.74
 -15  -2  15   48.53   12.82
  -2  15 -15   57.87   12.50
  15   2 -15   34.65   13.07
  15   2  15   44.71   12.46
 -15  -2  17   19.14    7.13
  -3  15   0    1.25   14.19
  15   3   0    2.54   12.63
  -3  15   2    5.97   11.55
  -3  15  -2   11.01   14.97
  15   3  -2   -8.35   12.59
  15   3   2    0.27   13.98
  -3  15   4  378.80   35.18
  -3  15  -4  421.05   40.92
  15   3   4  402.86   37.63
  -3  15  -6   96.54   23.74
  15   3   6  138.54   23.78
  -3  15  -8   73.38   21.19
  15   3  -8   77.85   19.82
  15   3   8   77.16   20.46
  -3  15 -10    7.39   13.62
  15   3 -10    3.27   12.90
  15   3  10    6.62   12.78
  -3  15 -12  264.78   28.96
  15   3 -12  246.77   27.52
  15   3  12  251.01   25.91
 -15  -3  14   17.27   12.44
  -3  15 -14    3.08    8.64
  15   3 -14   -3.29    9.84
  15   3  14  -16.60   11.54
  15   3 -16  220.10   19.01
 -15  -3  16  206.04   18.87
  -4  15   1   -1.29   12.96
  -4  15  -1    0.12   16.13
  15   4  -1   13.56   12.25
  15   4  -1   11.39   11.01
  15   4   1   -7.11   12.63
  -4  15   3   56.24   15.13
  -4  15  -3   70.88   21.55
  15   4  -3   51.75   15.25
  15   4   3   80.87   19.69
  -4  15   5  195.14   25.74
  -4  15  -5  165.36   27.07
  15   4  -5  138.68   25.17
  15   4   5  181.85   26.21
  -4  15  -7   98.45   22.37
  15   4  -7   98.58   20.96
  15   4   7   94.97   19.72
  -4  15  -9   -5.38   12.97
  15   4  -9   12.39   13.59
  15   4   9    0.15   13.75
  -4  15 -11  152.53   23.91
  15   4 -11  141.63   23.68
  15   4  11  143.03   22.15
  -4  15 -13   -1.41    9.86
  15   4 -13   18.67   12.96
  15   4  13   10.44   10.42
  15   4 -15  162.15   18.18
  15   4  15  141.02   15.83
 -15  -4  15  149.81   17.68
  -5  15   0   20.59   16.88
  15   5   0  -16.84   13.18
  -5  15   2   79.68   19.94
  -5  15  -2   53.16   20.97
  15   5  -2   59.37   17.60
  15   5   2   53.97   17.49
  -5  15   4   -4.74   11.69
  -5  15  -4   -1.69   14.91
  15   5  -4    1.86   13.31
  15   5   4   13.00   12.92
  -5  15   6  238.17   26.64
  -5  15  -6  229.35   30.06
  15   5  -6  239.92   28.61
  15   5   6  253.12   29.82
  -5  15  -8  -20.97   15.52
  15   5  -8   18.67   15.43
  15   5   8    7.06   13.60
  -5  15 -10   30.09   14.59
  15   5 -10   -0.33   12.75
  15   5  10    1.83   11.91
  -5  15 -12   -0.49    9.46
  15   5 -12   28.12   13.98
  15   5  12   -5.15   10.88
  15   5 -14  265.28   23.34
  15   5  14  290.99   23.76
 -15  -5  14  255.22   21.46
  15   5 -16   13.70    7.16
  -6  15   1   16.51   16.64
  -6  15  -1   26.51   16.40
  15   6  -1    9.72    9.11
  15   6   1   28.62   14.17
  -6  15   3    1.66   13.35
  -6  15  -3   -1.02   14.11
  15   6  -3   -8.58   11.79
  15   6   3   26.33   14.06
  -6  15   5   35.90   14.31
  -6  15  -5   37.60   18.36
  15   6  -5   93.52   19.35
  15   6   5   97.44   20.68
  -6  15   7   22.29   12.35
  -6  15  -7   22.20   14.96
  15   6  -7   14.60   12.77
  15   6   7   15.33   14.31
  -6  15  -9   30.99   14.15
  15   6  -9   28.78   13.55
  15   6   9   18.90   12.92
  -6  15 -11    1.50    9.52
  15   6 -11   16.57   11.67
  15   6  11   -7.95   12.03
 -15  -6  13   67.31   12.58
  -6  15 -13   28.70    9.39
  15   6 -13   70.74   14.64
  15   6  13   60.97   13.06
  15   6  15   79.49   11.40
  15   6 -15  101.58   13.98
  -7  15   0   -2.61   14.81
  15   7   0   -5.28    9.51
  -7  15   2    5.35   12.01
  -7  15  -2   -0.16   14.64
  15   7  -2   12.07   10.34
  15   7   2   -7.58   13.66
  -7  15   4  213.46   26.17
  -7  15  -4  203.91   26.83
  15   7  -4  183.25   23.52
  15   7   4  197.31   25.26
  -7  15   6    5.99   10.11
  -7  15  -6    1.96   13.94
  15   7  -6   26.61   12.26
  15   7   6   -2.80   12.83
  -7  15  -8   96.91   19.73
  15   7  -8   92.75   18.94
  15   7   8   86.78   20.60
  -7  15 -10   63.48   15.31
  15   7 -10   82.53   17.54
  15   7  10   92.91   19.01
  -7  15 -12   62.31   12.14
 -15  -7  12   61.11   12.10
  15   7 -12   72.99   14.59
  15   7  12   67.73   14.11
  15   7  14    6.70    7.09
  15   7 -14   21.32    7.97
  -8  15   1   -8.49   13.18
  -8  15  -1   12.63   13.80
  15   8   1  -11.07   11.51
  -8  15   3   64.54   17.00
  -8  15  -3   55.59   17.14
  15   8  -3   48.07   13.73
  15   8   3   51.18   15.80
  -8  15   5   -1.86   12.20
  -8  15  -5   -3.36   12.22
  15   8  -5    3.51   10.11
  15   8   5   -1.45   10.70
  -8  15   7   39.44   11.26
  -8  15  -7   62.43   15.90
  15   8  -7   84.02   16.15
  15   8   7   54.67   15.27
  -8  15  -9   96.09   16.36
  15   8  -9   95.09   16.55
  15   8   9  108.51   18.13
  -8  15 -11   -6.66    7.64
  15   8 -11   -9.70    9.70
  15   8  11   -1.75    9.65
  15   8  13    7.49    6.96
  15   8 -13    6.85    7.84
  -9  15   0   10.42   11.58
  -9  15   2   -2.98   11.62
  -9  15  -2   11.79   12.64
  15   9   2   12.37    9.28
  -9  15   4   32.02   13.42
  -9  15  -4    2.54   11.42
  15   9  -4   22.70   11.02
  15   9   4   21.05   11.14
  -9  15   6   40.75   11.40
  -9  15  -6   33.59   13.73
  15   9  -6   37.45   11.87
  15   9   6   38.16   13.82
  -9  15  -8   18.08   10.52
  15   9  -8    9.26    8.96
  15   9   8   18.30   10.69
  -9  15 -10   18.16    8.63
  15   9 -10    7.75    8.05
  15   9  10   31.85   10.96
  15   9  12   28.19    9.59
  15   9 -12   15.91    7.32
 -10  15   1   30.61   12.16
 -10  15  -1   27.56   12.60
 -10  15   3   68.61   15.05
 -10  15  -3   84.75   17.77
  15  10   3   60.22   12.62
 -10  15   5   15.94    9.82
 -10  15  -5   14.19    9.50
  15  10  -5   12.83    7.19
  15  10   5   27.30   10.72
 -10  15  -7   76.75   14.49
  15  10  -7   40.56   10.17
  15  10   7   92.28   15.12
  15  10   9    7.16    7.90
  15  10  -9   20.96    9.54
 -11  15   0   -7.79    9.45
 -11  15   2   60.68   12.07
 -11  15  -2   79.77   14.88
 -11  15  -4   -1.92    8.63
 -11  15  -6   10.41    6.38
  15  11   6   22.50    8.21
 -12  15  -1   74.16   12.61
 -12  15  -3    4.58    6.98
  16 -11   1   23.07    7.60
  16 -11  -1   24.09    7.77
  16 -10   0   90.86   14.10
  16 -10   2   19.68    9.39
  16 -10  -2    2.34    7.73
  16 -10   4   12.80    7.14
  16 -10  -4    8.79    6.87
  16  -9   1   11.36    8.86
  16  -9  -1    6.69   10.27
  16  -9   3  -11.53   10.18
  16  -9  -3   28.71    9.93
  16  -9   5   11.69    8.26
  16  -9  -5   -6.08    8.24
   9  16  -5    7.93    6.97
  16  -9   7   20.09    8.59
   9  16  -7    7.10    6.78
  16  -8   0   85.62   17.14
  16  -8   2   69.44   15.07
  16  -8  -2   61.63   14.44
  16  -8   4   18.70   12.00
  16  -8  -4   48.99   12.35
   8  16  -4   33.95   11.05
  16  -8   6    4.76    9.53
  16  -8  -6    7.91    7.09
   8  16  -6   18.70    9.10
  16  -8   8   33.25    9.76
   8  16  -8   44.55   10.40
   8  16 -10   69.99   12.40
  16  -7   1    8.47   12.54
  16  -7  -1   24.59   13.55
  16  -7   3   10.64   10.23
  16  -7  -3   32.15   13.60
   7  16  -3   16.65   11.21
  16  -7   5    4.91   10.81
  16  -7  -5    0.42    9.84
   7  16  -5   -3.46    9.97
  16  -7   7    1.35    9.23
  16  -7  -7   12.08    8.06
   7  16  -7    5.62    9.87
   7  16  -9    1.60    8.86
  16  -7   9   22.09    9.33
   7  16 -11    4.94    7.09
  16  -6   0   34.17   15.48
   6  16  -2  277.10   26.70
  16  -6   2  368.13   32.98
  16  -6  -2  328.57   30.26
  16  -6   4  -15.41   13.49
  16  -6  -4    2.30   10.25
   6  16  -4   -1.07   10.38
  16  -6   6   28.69   12.39
  16  -6  -6   36.01   12.57
   6  16  -6   42.27   14.39
  16  -6   8   24.70   11.69
   6  16  -8   19.73   12.33
   6  16 -10  104.81   17.11
  16  -6  10   85.81   13.88
   6  16 -12   11.74    9.46
  16  -5   1   60.70   17.80
  16  -5  -1  102.56   20.61
   5  16  -1   59.02   16.59
  16  -5   3   62.18   19.13
  16  -5  -3   97.97   18.70
   5  16  -3   93.98   17.95
  16  -5   5   39.08   14.46
  16  -5  -5   43.91   13.05
   5  16  -5   38.58   14.75
  16  -5   7   -2.03   11.63
   5  16  -7   17.84   11.98
   5  16  -9   16.71   12.59
  16  -5   9   20.61    9.79
   5  16 -11    5.00    9.52
  16  -5  11   21.91    8.62
   5  16 -13    6.76    8.30
   4  16   0  558.78   39.08
  16  -4   0  625.21   42.19
  16  -4   2    2.34   13.90
  16  -4  -2    0.65   11.47
   4  16  -2   31.64   14.44
  16  -4   4   12.76   12.73
  16  -4  -4    6.84    9.76
   4  16  -4   39.57   16.85
  16  -4   6  -13.84   12.45
  16  -4  -6    8.31    9.35
   4  16  -6  -17.98   12.86
  16  -4   8  160.46   22.56
   4  16  -8  151.68   24.77
   4  16 -10   17.31   13.49
  16  -4  10    7.98   10.23
   4  16 -12   91.33   16.12
  16  -4  12   77.76   12.21
   4  16 -14   19.82    8.84
  16  -4 -14    2.97    5.31
   3  16  -1  252.87   29.23
  16  -3   1  263.14   31.82
   3  16   1  197.87   23.96
  16  -3  -1  243.95   28.42
  16  -3   3   21.01   16.52
  16  -3  -3   34.84   12.96
   3  16  -3   37.27   16.52
  16  -3   5   82.64   18.39
  16  -3  -5   44.54   13.08
   3  16  -5   90.40   20.57
  16  -3   7  218.51   26.50
   3  16  -7  237.38   29.23
 -16   3   9   80.95   14.05
   3  16  -9   47.96   17.14
  16  -3   9   81.68   16.97
 -16   3  11   25.78    9.36
   3  16 -11   15.05   12.00
  16  -3  11    6.84    9.15
 -16   3  13  103.54   13.15
  16  -3  13   89.54   12.37
  16  -2   0   13.19   13.37
   2  16   0   50.35   16.71
   2  16  -2  317.49   33.26
  16  -2   2  297.35   31.42
  16  -2  -2  314.66   29.84
  16  -2   4    2.81   13.84
  16  -2  -4   -7.45   10.70
   2  16  -4   15.59   12.52
  16  -2   6   72.22   18.32
   2  16  -6  104.66   22.43
   2  16  -8    6.18   12.73
  16  -2   8    5.35   12.72
   2  16 -10  368.90   33.24
  16  -2  10  333.08   29.37
 -16   2  10  320.40   26.81
 -16   2  12    1.76    7.38
   2  16 -12    6.62   11.32
  16  -2  12    5.05    8.78
 -16   2  14    3.62    6.85
   2  16 -14   -1.14    7.85
  16  -2 -14   -5.32    8.85
  16  -1   1   40.75   14.63
  16  -1  -1   64.63   16.56
   1  16   1   37.10   15.02
   1  16  -1   78.35   19.30
  16  -1   3  232.45   28.63
  16  -1  -3  209.01   23.84
   1  16  -3  211.64   27.77
  16  -1   5  264.64   30.34
   1  16  -5  259.17   31.72
   1  16  -7  -20.81   16.70
  16  -1   7  -10.30   12.27
   1  16  -9  224.65   28.03
  16  -1   9  218.36   25.28
 -16   1  11  179.98   20.71
   1  16 -11  183.56   23.21
  16  -1  11  201.70   21.89
 -16   1  13   19.92    9.13
   1  16 -13   14.52   10.77
  16  -1 -13   -3.45    8.43
  16  -1  13   23.69    9.66
   1  16 -15   29.62    9.25
  16  -1 -15   29.35    8.77
   0  16   0  317.40   33.28
  16   0   0  264.34   29.06
  16   0  -2   20.75   14.59
   0  16   2    6.51   11.97
   0  16  -2   13.14   15.61
  16   0   2   -6.97   12.66
   0  16  -4   17.88   14.47
  16   0   4    9.50   13.95
  16   0  -4   33.44   12.70
   0  16  -6   45.16   16.01
  16   0   6   55.01   18.59
   0  16  -8  235.03   29.14
  16   0   8  209.71   26.17
   0  16 -10   28.08   14.32
  16   0  10   20.19   12.58
 -16   0  12   84.64   15.26
   0  16 -12   79.25   16.85
  16   0 -12   71.02   15.26
  16   0  12   69.84   14.29
 -16   0  14   -3.15    7.32
   0  16 -14   10.35    9.96
  16   0 -14    9.03    8.99
  16   0  14    0.60    7.30
  -1  16   1  146.50   24.22
  -1  16  -1  189.60   26.80
  16   1  -1  157.72   22.35
  16   1   1  150.14   24.00
  -1  16   3   54.58   15.52
  -1  16  -3   32.15   16.78
  16   1  -3   26.39   12.03
  16   1   3   39.81   17.16
  -1  16  -5  106.36   22.90
  16   1   5   15.86   13.11
  16   1   7  289.54   29.86
  -1  16  -7  266.47   30.78
  -1  16  -9   40.02   16.40
  16   1   9   35.56   14.93
  -1  16 -11  -16.10   11.55
  16   1 -11    6.12   12.39
  16   1  11    5.55    9.34
 -16  -1  13   80.78   14.45
  -1  16 -13   96.05   16.27
  16   1 -13   76.38   15.45
  16   1  13   89.11   14.74
 -16  -1  15   49.35    9.48
  16   1 -15   43.21    9.82
  -2  16   0  172.52   25.78
  16   2   0  166.37   22.95
  -2  16   2   40.82   36.44
  -2  16  -2   -6.42   13.50
  16   2  -2   12.76   10.77
  16   2   2    6.36   13.00
  -2  16   4   23.65   10.08
  -2  16  -4   31.27   17.24
  16   2   4    9.50   16.40
  -2  16  -6   19.38   17.88
  16   2   6   26.14   15.29
  -2  16  -8  300.83   32.98
  16   2  -8  245.67   28.54
  16   2   8  213.01   26.44
  -2  16 -10   -3.48   12.34
  16   2 -10   21.41   11.83
  16   2  10    5.84   11.75
  -2  16 -12   -9.74   10.85
  16   2 -12   -1.52   10.23
  16   2  12   19.37   10.72
 -16  -2  14   -6.45    6.94
  -2  16 -14  -10.17    7.93
  16   2 -14    0.79    8.46
  16   2  14  -20.18    7.99
  -3  16   1  -10.03   12.43
  -3  16  -1   -7.51   13.04
  16   3  -1   -9.02    9.48
  16   3   1   20.25   13.68
  -3  16   3  193.51   25.28
  -3  16  -3  181.38   26.20
  16   3  -3  185.65   24.26
  16   3   3  158.79   23.60
  -3  16  -5  161.56   25.61
  16   3  -5  169.23   23.61
  16   3   5  130.28   21.93
  -3  16  -7   -6.05   14.44
  16   3  -7   26.31   14.01
  16   3   7   19.86   14.56
  -3  16  -9   67.00   17.41
  16   3  -9   98.83   19.25
  16   3   9   84.00   17.72
  -3  16 -11    8.00   11.01
  16   3 -11   37.60   13.85
  16   3  11   24.96   10.61
 -16  -3  13   71.16   13.83
  -3  16 -13   70.58   13.90
  16   3 -13   64.18   13.03
  16   3  13   47.80   11.78
 -16  -3  15   59.40   10.40
  16   3 -15   57.48   10.17
  -4  16   0    8.41   13.46
  16   4   0   21.93   11.72
  -4  16   2   59.34   16.33
  -4  16  -2   45.92   18.31
  16   4  -2   63.94   15.18
  16   4   2   73.23   17.30
  -4  16   4   -8.65   10.72
  -4  16  -4    2.40   13.28
  16   4  -4   11.24   12.99
  16   4   4   11.01   13.78
  -4  16  -6   52.80   18.22
  16   4  -6   70.60   15.57
  16   4   6   53.27   17.04
  -4  16  -8   13.66   15.44
  16   4  -8   12.80   13.32
  16   4   8   -3.56   12.90
  -4  16 -10   45.67   15.27
  16   4 -10   50.29   14.02
  16   4  10   52.94   13.68
  -4  16 -12   97.16   15.47
  16   4 -12   77.30   14.41
  16   4  12   96.29   14.98
  16   4 -14  -15.36    7.92
  16   4  14   -8.03    7.50
  -5  16   1   26.73   14.75
  -5  16  -1   12.31   13.35
  16   5  -1  -13.16    9.92
  16   5   1    4.73   13.87
  -5  16   3   73.39   17.19
  -5  16  -3   51.99   18.23
  16   5  -3   69.43   15.62
  16   5   3   35.93   14.57
  -5  16   5   14.34   10.49
  -5  16  -5    4.43   13.54
  16   5  -5    9.18   11.34
  16   5   5    9.05   12.62
  -5  16  -7   11.67   13.26
  16   5  -7   30.29   12.68
  16   5   7   29.37   14.76
  -5  16  -9   31.14   13.14
  16   5  -9   33.75   13.72
  16   5   9    9.48   11.85
  -5  16 -11   97.03   15.55
  16   5 -11   98.77   16.95
  16   5  11   78.40   14.58
 -16  -5  13   -1.59    6.94
  16   5 -13   12.03    8.57
  16   5  13    7.93    6.64
  -6  16   0    3.54   12.55
  16   6   0   35.30   13.15
  -6  16   2   80.20   19.03
  -6  16  -2   80.23   19.61
  16   6   2   91.64   16.85
  -6  16   4    0.17    9.58
  -6  16  -4   32.54   16.93
  16   6  -4   -1.52    8.82
  16   6   4    8.08   10.35
  -6  16   6  -11.91   10.74
  -6  16  -6  -15.82   13.71
  16   6  -6   10.07   11.10
  16   6   6  -16.70   12.00
  -6  16  -8   71.32   18.16
  16   6  -8   47.39   15.26
  16   6   8   29.80   13.17
  -6  16 -10  175.15   20.90
  16   6 -10  150.82   19.32
  16   6  10  131.08   18.47
 -16  -6  12    1.89    6.15
  -6  16 -12  -10.64    7.43
  16   6 -12    9.08    8.09
  16   6  12   -9.08    7.89
  -7  16   1   17.00   12.45
  -7  16  -1   15.34   13.52
  16   7   1   12.77    9.28
  -7  16   3   12.83    9.59
  -7  16  -3    5.03   13.11
  16   7   3    0.92   10.32
  -7  16   5   30.23   10.50
  -7  16  -5   20.40   13.10
  16   7  -5   33.03   11.59
  16   7   5   24.58   10.35
  -7  16  -7   90.75   17.40
  16   7  -7   88.83   16.01
  16   7   7   81.27   16.09
  -7  16  -9  188.25   20.69
  16   7   9  208.85   21.44
  16   7  -9  157.21   18.60
  -7  16 -11   15.31    7.35
 -16  -7  11   19.24    7.33
  16   7 -11   -5.51    6.51
  16   7  11   21.96    8.65
  -8  16   0   27.00   13.33
  -8  16   2    7.56    9.68
  -8  16  -2   -2.41    9.89
  16   8   2  -14.03    9.46
  -8  16   4   28.90   10.91
  -8  16  -4   43.32   13.68
  16   8   4   34.69   11.14
  -8  16   6   22.05    8.86
  -8  16  -6   25.19   10.66
  16   8  -6   31.24   10.05
  16   8   6   32.96   11.28
  -8  16  -8  141.23   17.65
  16   8  -8  126.81   15.64
  16   8   8  133.46   17.23
  16   8 -10   36.83    9.77
  16   8  10   22.37    8.80
  -9  16   1   57.76   13.00
  -9  16  -1   53.45   13.59
  -9  16   3   26.91   10.13
  -9  16  -3   17.93   10.85
  16   9   3   10.21    6.62
  -9  16   5   -5.84    7.35
  -9  16  -5    6.73    8.83
  16   9   5    8.48    8.55
  -9  16  -7   49.20   11.53
  16   9   7   55.21   10.69
  16   9   9   64.69   10.97
 -10  16   0   49.12   11.89
 -10  16   2  163.14   17.35
 -10  16  -2  135.47   17.14
 -10  16  -4    4.91    7.30
 -10  16  -6   55.49   10.33
 -11  16  -1  121.79   14.12
  17  -9   0   -2.27    5.54
  17  -9   2   35.87    9.12
  17  -9  -2   38.48    9.36
  17  -8   1   95.30   14.32
  17  -8  -1   87.28   13.34
  17  -8   3    6.17    7.24
  17  -8  -3   16.67    8.04
  17  -8   5   54.60   10.84
  17  -7   0   15.81   12.11
  17  -7   2   16.78    8.66
  17  -7  -2   42.17   11.84
  17  -7   4   25.25   10.23
  17  -7  -4   22.35    8.82
   7  17  -4   18.37    8.49
  17  -7   6   73.56   12.94
   7  17  -6   62.64   11.88
   7  17  -8   -2.33    7.02
  17  -7   8  -11.10    7.74
  17  -6   1   14.18   10.18
  17  -6  -1   53.71   14.01
  17  -6   3  175.57   20.93
  17  -6  -3  152.66   18.11
   6  17  -3  128.87   15.51
  17  -6  -5   36.67    8.61
   6  17  -5   60.53   13.07
   6  17  -7   -2.03    7.38
  17  -6   7   16.35    8.81
   6  17  -9    4.96    7.81
  17  -6   9    8.98    6.79
  17  -5   0   21.07   11.54
  17  -5   2   25.97   12.18
  17  -5  -2    8.70    8.82
   5  17  -2   35.35   11.15
  17  -5   4  148.93   19.95
  17  -5  -4  155.56   17.74
   5  17  -4  158.12   20.63
  17  -5   6    9.43    8.90
   5  17  -6   15.39   10.25
   5  17  -8    8.65    8.39
  17  -5   8   24.80   10.61
   5  17 -10   11.14    8.40
  17  -5  10   -2.35    6.08
  17  -4   1  160.25   21.39
  17  -4  -1  161.27   20.70
   4  17  -1  145.43   19.47
  17  -4   3   -2.78   10.97
  17  -4  -3    3.98    8.26
   4  17  -3   -9.22   10.37
  17  -4   5   33.43   14.64
  17  -4  -5   14.79    7.71
   4  17  -5   13.56    9.88
   4  17  -7   40.07   12.55
  17  -4   7   43.93   12.70
   4  17  -9   -5.17   10.86
  17  -4   9   -4.55    7.18
   4  17 -11   -0.32    7.48
  17  -4  11   -6.97    6.51
  17  -3   0   21.39   12.59
   3  17   0   -4.43    8.28
  17  -3   2  146.42   21.33
  17  -3  -2  118.67   17.45
   3  17  -2  136.45   20.29
  17  -3   4   15.28   11.90
   3  17  -4    3.55   10.18
   3  17  -6  153.73   22.04
  17  -3   6  177.89   22.49
   3  17  -8    1.25   10.59
  17  -3   8   -1.57   10.45
   3  17 -10   21.45   10.51
  17  -3  10   28.15    9.93
   3  17 -12   23.37    8.85
  17  -3 -12   25.81    7.88
  17  -2   1   -1.22   11.17
  17  -2  -1    4.09   11.25
   2  17  -1   10.70   10.62
  17  -2   3    1.64   11.89
  17  -2  -3   13.55    9.19
   2  17  -3   12.45   13.12
   2  17  -5   18.75   12.20
  17  -2   5   13.73   12.01
   2  17  -7    8.42   11.79
  17  -2   7   17.60   11.51
 -17   2   9   73.98   11.98
   2  17  -9   67.80   13.91
  17  -2   9   85.37   15.04
 -17   2  11  -15.75    6.43
   2  17 -11   -4.24    8.54
  17  -2 -11   -5.80    9.43
  17  -2  11    6.88    7.26
   2  17 -13    6.43    6.15
  17  -2 -13    8.13    6.24
   1  17   0    5.29   10.67
  17  -1   0   24.35   14.24
   1  17  -2  119.09   20.19
  17  -1   2   79.33   18.41
  17  -1  -2   90.48   16.71
   1  17  -4  103.45   19.93
  17  -1  -4  100.83   15.78
  17  -1   4   86.98   18.76
   1  17  -6  118.16   20.78
  17  -1   6  102.37   18.96
   1  17  -8   22.65   11.70
  17  -1   8   48.56   13.83
 -17   1  10   13.52    7.91
   1  17 -10   21.20   11.37
  17  -1 -10    0.81    9.22
  17  -1  10   17.25   10.03
 -17   1  12   19.73    7.43
   1  17 -12   23.67    8.69
  17  -1 -12   38.47   11.66
  17  -1  12   34.56   10.08
   0  17   1   31.76   13.34
   0  17  -1   29.67   13.39
  17   0  -1   13.97    9.51
  17   0   1   38.73   15.00
   0  17  -3   21.98   11.92
  17   0  -3   22.30    9.07
  17   0   3   29.59   12.97
   0  17  -5   30.20   14.66
  17   0   5   10.82   11.04
   0  17  -7   12.05   12.74
  17   0   7   -6.06   10.89
   0  17  -9   -6.13   11.26
  17   0  -9  -10.55    9.45
  17   0   9   10.65   10.54
 -17   0  11   -2.02    6.65
   0  17 -11   17.06    9.75
  17   0 -11   20.52   11.88
  17   0  11   20.76    9.93
   0  17 -13   27.91    9.06
  17   0 -13   12.65    6.20
  -1  17   0   10.76   10.68
  17   1   0   -0.70   10.78
  -1  17   2   14.61   10.14
  -1  17  -2   -6.54   14.20
  17   1  -2   -9.25    9.64
  17   1   2   -6.56   10.19
  -1  17  -4  327.94   31.31
  17   1   4  330.41   30.20
  -1  17  -6    7.41   12.86
  17   1   6    7.36   12.61
  -1  17  -8   37.03   15.05
  17   1  -8    8.56   10.17
  17   1   8   16.98   11.52
  -1  17 -10    4.17    8.97
  17   1 -10   -2.28    8.99
  17   1  10   -5.55    9.75
 -17  -1  12   86.71   12.54
  -1  17 -12  131.16   16.67
  17   1 -12  103.92   14.67
  17   1  12  117.81   14.98
  -2  17   1    1.52   10.17
  -2  17  -1    9.58   10.86
  17   2  -1  -20.75   10.48
  17   2   1   -1.50    9.36
  -2  17   3  126.68   18.26
  -2  17  -3  128.09   21.61
  17   2  -3  100.24   17.03
  17   2   3  141.46   20.76
  -2  17  -5  143.89   23.30
  17   2  -5  114.17   18.53
  17   2   5  121.41   19.73
  -2  17  -7   -4.33   12.50
  17   2  -7   12.61   10.47
  17   2   7   23.80   12.62
  -2  17  -9   10.33   10.38
  17   2  -9   20.69   10.50
  17   2   9   34.65   12.92
 -17  -2  11   67.56   12.03
  -2  17 -11   47.39   12.42
  17   2 -11   78.14   13.45
  17   2  11   70.99   12.79
 -17  -2  13   22.07    7.51
  17   2 -13   28.28    7.74
  -3  17   0    4.15   10.92
  17   3   0   12.69    9.14
  -3  17   2  169.82   21.91
  -3  17  -2  177.30   24.14
  17   3  -2  156.00   19.91
  17   3   2  164.70   21.35
  -3  17  -4   -7.57   12.46
  17   3  -4    5.63    8.75
  17   3   4    2.55   10.05
  -3  17  -6  157.52   22.94
  17   3  -6  123.19   18.55
  17   3   6  156.57   21.48
  -3  17  -8   28.37   12.80
  17   3  -8   18.98   10.44
  17   3   8    2.38    9.59
  -3  17 -10   26.72   10.65
  17   3 -10   15.61    8.89
  17   3  10   25.34   12.18
 -17  -3  12   -0.62    6.27
  -3  17 -12    5.24    6.69
  17   3 -12   16.59    8.58
  17   3  12    3.70    6.63
  -4  17   1   72.92   15.64
  -4  17  -1   96.72   18.79
  17   4   1   66.16   14.25
  -4  17   3   29.57   11.72
  -4  17  -3   30.45   13.01
  17   4  -3   21.84    9.88
  17   4   3    7.47    9.47
  -4  17  -5   27.99   14.00
  17   4  -5   30.52   10.26
  17   4   5   33.76   11.97
  -4  17  -7   62.01   16.23
  17   4  -7   53.32   12.74
  17   4   7   47.93   12.64
  -4  17  -9   58.39   14.35
  17   4  -9   70.21   13.67
  17   4   9   47.60   11.61
 -17  -4  11   12.42    7.88
  -4  17 -11    8.19    6.63
  17   4 -11    0.81    6.69
  17   4  11   -4.39    6.90
  -5  17   0  -10.87   11.38
  17   5   0    6.32    7.60
  -5  17   2   24.27   11.47
  -5  17  -2    6.59   10.85
  17   5   2    5.01    9.16
  -5  17   4   92.50   14.92
  -5  17  -4  131.28   20.47
  17   5  -4  100.21   15.59
  17   5   4  133.69   18.92
  -5  17  -6   -8.98   10.89
  17   5  -6    6.49    7.93
  17   5   6   10.47   10.67
  -5  17  -8   33.54   12.01
  17   5  -8   28.38   10.97
  17   5   8   13.58   10.26
  -5  17 -10    7.16    7.62
  17   5 -10   -0.41    6.82
  17   5  10   -7.45    9.20
  -6  17   1   28.96   10.69
  -6  17  -1   37.30   14.07
  17   6   1   27.06    9.04
  -6  17   3   81.36   13.86
  17   6   3   68.57   13.65
  17   6  -5   33.32    9.41
  17   6   5   44.49   12.00
  -6  17  -7   26.21   11.73
  17   6  -7    6.67    6.75
  17   6   7   13.12    9.13
  -6  17  -9   18.06    8.17
  17   6  -9   17.63    7.85
  17   6   9   25.45    9.16
  -7  17   0  -12.24    9.79
  -7  17   2   -6.46    7.87
  -7  17  -2   13.85   10.21
  17   7   2   -1.21    6.17
  -7  17   4   47.86   10.68
  -7  17  -4   51.05   12.80
  17   7   4   41.87   11.37
  -7  17  -6  100.14   15.82
  17   7  -6   51.93    9.78
  17   7   6   91.93   13.56
  -7  17  -8   27.27    8.75
  17   7   8   50.04   10.10
  -8  17   1   28.43    9.25
  -8  17  -1   31.16   10.13
  -8  17   3    7.97    6.90
  -8  17  -3   10.96    8.62
  -8  17  -5   44.76   10.43
  -9  17   0   -9.10    7.41
  -9  17  -2    7.64    7.05
  -9  17  -4   -3.33    6.18
  18  -7   1   -2.06    6.30
  18  -7  -1   -1.43    6.15
  18  -7   3   12.80    6.13
  18  -6   0  104.09   13.73
  18  -6   2   10.12    7.53
  18  -6  -2    4.11    6.02
  18  -6   4    3.72    6.80
  18  -6   6    5.96    5.88
  18  -5   1   69.11   12.46
  18  -5  -1   51.35   10.74
  18  -5  -3    5.56    6.24
  18  -5   3    9.92    8.42
  18  -5   5   15.03    6.60
  18  -5   7   12.20    7.65
  18  -4   0   11.55    8.40
  18  -4   2   41.27   11.27
  18  -4  -2   51.42   11.10
  18  -4   4    6.11    7.47
  18  -4  -4   10.48    6.44
   4  18  -6    8.92    6.77
  18  -4   6    0.06    7.43
   4  18  -8   14.04    7.61
  18  -4   8   12.05    6.33
  18  -3   1   32.50   10.43
  18  -3  -1   35.67    9.85
   3  18  -3  126.95   17.14
  18  -3  -3  102.49   14.00
   3  18  -5   67.09   14.31
  18  -3   5   51.47   13.48
   3  18  -7    6.64    9.22
  18  -3   7    5.03    7.41
   3  18  -9   80.94   12.35
  18  -3  -9   73.15   12.18
  18  -3   9   55.47   10.30
  18  -2   0  197.74   20.86
   2  18  -2   22.72    9.47
  18  -2  -2   42.34   11.46
  18  -2   2   40.35   11.86
   2  18  -4    6.85    8.80
  18  -2   4   18.65   10.81
   2  18  -6    0.50   10.32
  18  -2   6    4.77    8.41
   2  18  -8  111.14   15.40
  18  -2   8  111.33   14.87
   2  18 -10    8.82    6.54
  18  -2 -10   34.65    8.26
   1  18  -1  174.70   19.67
  18  -1  -1  172.29   18.52
  18  -1   1  199.48   21.59
   1  18  -3   -7.15    9.88
  18  -1   3    5.16    9.00
   1  18  -5   39.64   11.51
  18  -1   5   17.12   10.84
   1  18  -7  151.28   18.33
  18  -1  -7  119.14   15.82
  18  -1   7  123.48   15.85
   1  18  -9   58.18   11.66
  18  -1  -9   30.69    9.47
  18  -1   9   36.65    8.96
   0  18   0  119.91   16.74
  18   0   0  172.60   19.02
   0  18  -2   95.88   15.94
  18   0  -2   94.68   14.32
  18   0  -2   84.40   13.19
  18   0   2   79.66   13.91
   0  18  -4  -10.05    9.94
  18   0  -4  -10.42    9.79
  18   0   4   -5.84    8.78
   0  18  -6    8.93    9.66
  18   0  -6   12.32    7.94
  18   0   6    7.80    7.77
   0  18  -8   78.62   12.93
  18   0  -8   93.54   14.02
  18   0   8   86.90   13.01
   0  18 -10   34.76    8.27
  18   0 -10   41.67   10.18
  18   0  10   43.59    9.38
  -1  18   1   93.35   15.70
  -1  18  -1   61.80   14.04
  18   1  -1   64.90   11.97
  18   1   1   80.52   13.91
  -1  18  -3  210.70   22.56
  18   1   3  176.75   19.15
  -1  18  -5  109.88   17.44
  18   1  -5   70.90   13.07
  18   1   5   87.94   13.97
  -1  18  -7    4.96    8.63
  18   1  -7   10.72    7.92
  18   1   7   -8.08   10.93
 -18  -1   9   78.27   11.12
  -1  18  -9   75.42   13.08
  18   1  -9   65.34   11.73
  18   1   9   93.92   13.66
  -2  18   0   29.72   11.22
  18   2   0   39.29   10.60
  -2  18   2   95.51   13.76
  -2  18  -2  155.30   20.44
  18   2   2  137.94   17.54
  -2  18  -4   19.49   11.58
  18   2  -4   -1.95    6.63
  18   2   4   19.48   10.29
  -2  18  -6   86.79   15.76
  18   2  -6   71.55   12.69
  18   2   6   86.50   14.07
  -2  18  -8  -11.07    7.97
  18   2  -8   16.04    8.17
  18   2   8   11.17    8.18
  -2  18 -10  217.11   18.20
  18   2 -10  161.81   15.32
  18   2  10  217.60   17.55
 -18  -2  10  199.34   15.64
  -3  18   1   56.29   12.30
  18   3   1   67.02   12.38
  -3  18  -3   16.95   10.43
  18   3   3    7.34    7.72
  -3  18  -5   33.65   11.80
  18   3  -5   10.38    7.20
  18   3   5   23.75    9.99
  -3  18  -7  138.68   17.47
  18   3  -7  102.26   14.04
  18   3   7  116.82   15.87
  -3  18  -9   47.88   10.49
  18   3  -9   39.56    8.62
  18   3   9   43.00    8.99
  -4  18   0  136.80   17.60
  -4  18   2   13.13    7.28
  -4  18  -2   13.88    9.82
  18   4   2   28.90    9.16
  -4  18  -4    4.41    9.02
  18   4   4  -10.72    8.54
  -4  18  -6  -18.86   10.20
  18   4  -6    1.42    6.45
  18   4   6    4.58    7.58
  -4  18  -8  104.34   14.46
  18   4   8   77.06   11.68
  -5  18   1  -27.42   10.36
  -5  18  -1   20.09    9.89
  -5  18  -3   21.66   10.06
  18   5   3   -3.56    6.43
  -5  18  -5   22.66    9.27
  18   5   5   17.92    7.64
  -5  18  -7    9.31    6.80
  18   5   7   -8.46    7.19
  -6  18   0   76.81   12.61
  -6  18  -2   13.02    8.01
  -6  18  -4    8.57    7.75
  -6  18  -6   -5.23    6.58
  -7  18  -1   18.23    7.31
  -7  18  -3   -2.80    5.86
  19  -3   2    9.18    5.94
  19  -3   4   63.30   10.04
  19  -2   1    2.01    5.28
  19  -2   3  -12.63    7.45
  19  -2   5    6.40    5.79
  19  -1   0    0.02    5.96
  19  -1   2   -3.32    6.32
  19  -1   4   43.59    9.86
  19   0   1    4.96    6.62
  19   0   3    7.35    6.87
  19   0   5    0.29    6.24
  19   1   2   17.03    7.26
  -1  19  -4    0.74    6.66
  19   1   4   -1.98    5.34
   0   0   0    0.00    0.00


TITL WL-20190624-A4 in I4(1)/a
REM I4(1)/a (#88 in standard setting)
CELL 1.54184  15.735382  15.735382  22.597027  90.0000  90.0000  90.0000
ZERR   78.00   0.000273   0.000273   0.000622   0.0000   0.0000   0.0000
LATT  2
SYMM -x+1/2,-y, z+1/2
SYMM -y+3/4, x+1/4, z+1/4
SYMM  y+3/4,-x+3/4, z+3/4
SFAC C H N O Cu
UNIT 78.00 78.00 78.00 78.00 78.00
TREF
HKLF 4
END
_computing_structure_solution     'SHELXT 2014/5 (Sheldrick, 2014)'
;
_shelx_hkl_checksum              19802
_olex2_submission_special_instructions 'No special instructions were received'
_oxdiff_exptl_absorpt_empirical_details
;
Empirical correction (ABSPACK) includes:
- Absorption correction using spherical harmonics
- Frame scaling
- Detector area scaling
;
_oxdiff_exptl_absorpt_empirical_full_max 1.208
_oxdiff_exptl_absorpt_empirical_full_min 0.875
loop_
_space_group_symop_operation_xyz
'x, y, z'
'-x+1/2, -y, z+1/2'
'-y+3/4, x+1/4, z+1/4'
'y+3/4, -x+3/4, z+3/4'
'x+1/2, y+1/2, z+1/2'
'-x+1, -y+1/2, z+1'
'-y+5/4, x+3/4, z+3/4'
'y+5/4, -x+5/4, z+5/4'
'-x, -y, -z'
'x-1/2, y, -z-1/2'
'y-3/4, -x-1/4, -z-1/4'
'-y-3/4, x-3/4, -z-3/4'
'-x+1/2, -y+1/2, -z+1/2'
'x, y+1/2, -z'
'y-1/4, -x+1/4, -z+1/4'
'-y-1/4, x-1/4, -z-1/4'
loop_
_atom_site_label
_atom_site_type_symbol
_atom_site_fract_x
_atom_site_fract_y
_atom_site_fract_z
_atom_site_U_iso_or_equiv
_atom_site_adp_type
_atom_site_occupancy
_atom_site_site_symmetry_order
_atom_site_calc_flag
_atom_site_refinement_flags_posn
_atom_site_refinement_flags_adp
_atom_site_refinement_flags_occupancy
_atom_site_disorder_assembly
_atom_site_disorder_group
Cu1 Cu 0.77673(4) 0.20588(5) 0.69718(3) 0.0303(3) Uani 1 1 d . . . . .
O1 O 0.8770(3) 0.1811(3) 0.74951(18) 0.0449(10) Uani 1 1 d . . . . .
O2 O 0.8380(2) 0.2531(3) 0.8294(2) 0.0539(12) Uani 1 1 d . . . . .
N1 N 0.8259(3) 0.3194(3) 0.67950(18) 0.0301(9) Uani 1 1 d . . . . .
N2 N 0.7827(4) 0.3948(3) 0.7677(3) 0.0577(16) Uani 1 1 d . U . . .
N3 N 0.8500(10) 0.5295(9) 0.7760(6) 0.062(3) Uani 0.5 1 d . U P A 1
N4 N 0.9253(13) 0.5938(11) 0.6949(9) 0.091(6) Uani 0.5 1 d . U P A 1
H4A H 0.933344 0.639408 0.715089 0.110 Uiso 0.5 1 calc R . P A 1
H4B H 0.944391 0.590212 0.659299 0.110 Uiso 0.5 1 calc R . P A 1
N5 N 0.8925(3) 0.4260(3) 0.63074(19) 0.0370(10) Uani 1 1 d . . . . .
C1 C 0.8906(3) 0.2130(4) 0.7990(2) 0.0366(12) Uani 1 1 d . . . . .
C2 C 0.9788(4) 0.2059(4) 0.8248(3) 0.0516(16) Uani 1 1 d . . . . .
H2A H 1.012382 0.166580 0.801481 0.062 Uiso 1 1 calc R . . . .
H2B H 0.975505 0.184355 0.864932 0.062 Uiso 1 1 calc R . . . .
C3 C 0.8215(4) 0.3883(4) 0.7137(3) 0.0396(12) Uani 1 1 d . U . . .
C4 C 0.8081(10) 0.4628(10) 0.7973(7) 0.054(3) Uani 0.5 1 d . U P A 1
H4 H 0.795119 0.464114 0.837417 0.065 Uiso 0.5 1 calc R . P A 1
C5 C 0.8825(11) 0.5279(11) 0.7190(8) 0.057(4) Uani 0.5 1 d . U P A 1
C6 C 0.8630(5) 0.4535(4) 0.6841(3) 0.0515(15) Uani 1 1 d . U . . .
C7 C 0.8691(3) 0.3452(3) 0.6311(2) 0.0349(11) Uani 1 1 d . . . . .
H7 H 0.881535 0.308605 0.600012 0.042 Uiso 1 1 calc R . . . .
O3 O 0.8742(14) 0.7812(9) 0.7169(8) 0.141(6) Uani 0.5 1 d . U P . .
N6 N 0.8794(11) 0.9014(11) 0.7718(8) 0.091(4) Uani 0.5 1 d . U P . .
C10 C 0.8635(13) 0.9555(11) 0.8231(9) 0.084(5) Uani 0.5 1 d . U P . .
H10A H 0.814054 0.989767 0.815993 0.125 Uiso 0.5 1 calc GR . P . .
H10B H 0.911694 0.991653 0.829717 0.125 Uiso 0.5 1 calc GR . P . .
H10C H 0.854218 0.920640 0.857389 0.125 Uiso 0.5 1 calc GR . P . .
C8 C 0.8668(15) 0.8241(14) 0.7670(11) 0.099(5) Uani 0.5 1 d . U P . .
C11 C 0.9160(19) 0.9423(16) 0.7205(12) 0.131(8) Uani 0.5 1 d . U P . .
H11A H 0.908774 1.002716 0.723712 0.197 Uiso 0.5 1 calc GR . P . .
H11B H 0.888092 0.922242 0.685434 0.197 Uiso 0.5 1 calc GR . P . .
H11C H 0.975508 0.929142 0.718365 0.197 Uiso 0.5 1 calc GR . P . .
C9 C 0.812(2) 0.7778(17) 0.8149(13) 0.152(10) Uani 0.5 1 d . U P . .
H9A H 0.759103 0.760691 0.797994 0.229 Uiso 0.5 1 calc GR . P . .
H9B H 0.802130 0.815778 0.847428 0.229 Uiso 0.5 1 calc GR . P . .
H9C H 0.842380 0.728637 0.828846 0.229 Uiso 0.5 1 calc GR . P . .
N4A N 0.8745(11) 0.6072(9) 0.6787(8) 0.074(5) Uani 0.5 1 d . U P A 2
H4AA H 0.871085 0.655528 0.696322 0.088 Uiso 0.5 1 calc R . P A 2
H4AB H 0.898035 0.603681 0.644460 0.088 Uiso 0.5 1 calc R . P A 2
C5A C 0.8437(11) 0.5385(10) 0.7043(7) 0.052(3) Uani 0.5 1 d . U P A 2
N3A N 0.8068(10) 0.5462(8) 0.7585(6) 0.061(3) Uani 0.5 1 d . U P A 2
C4A C 0.7696(11) 0.4784(9) 0.7839(8) 0.056(4) Uani 0.5 1 d . U P A 2
H4AC H 0.732078 0.488654 0.814811 0.067 Uiso 0.5 1 calc R . P A 2
loop_
_atom_site_aniso_label
_atom_site_aniso_U_11
_atom_site_aniso_U_22
_atom_site_aniso_U_33
_atom_site_aniso_U_23
_atom_site_aniso_U_13
_atom_site_aniso_U_12
Cu1 0.0290(4) 0.0321(4) 0.0298(4) -0.0039(3) 0.0097(3) -0.0055(3)
O1 0.041(2) 0.053(2) 0.040(2) 0.0045(19) 0.0021(17) 0.0124(18)
O2 0.0241(18) 0.083(3) 0.055(3) -0.017(2) -0.0007(18) 0.0075(19)
N1 0.029(2) 0.034(2) 0.028(2) 0.0063(17) 0.0076(16) -0.0031(17)
N2 0.079(4) 0.039(3) 0.055(3) -0.012(2) 0.031(3) -0.024(3)
N3 0.077(7) 0.054(6) 0.057(6) -0.020(5) 0.021(5) -0.024(5)
N4 0.126(13) 0.063(8) 0.085(10) -0.011(7) 0.025(10) -0.056(9)
N5 0.042(2) 0.039(2) 0.030(2) 0.0087(19) 0.0170(19) 0.0017(19)
C1 0.029(2) 0.042(3) 0.039(3) 0.010(2) 0.003(2) -0.003(2)
C2 0.026(3) 0.062(4) 0.067(4) 0.012(3) -0.003(3) 0.003(3)
C3 0.038(3) 0.036(3) 0.044(3) 0.001(2) 0.012(2) -0.008(2)
C4 0.062(7) 0.052(6) 0.048(6) -0.010(5) 0.015(6) -0.017(5)
C5 0.065(7) 0.050(6) 0.055(6) -0.008(5) 0.015(6) -0.018(6)
C6 0.067(4) 0.042(3) 0.045(3) -0.001(2) 0.020(3) -0.010(3)
C7 0.038(3) 0.035(3) 0.032(3) 0.006(2) 0.007(2) -0.002(2)
O3 0.251(16) 0.055(7) 0.116(9) -0.002(6) 0.095(10) -0.010(9)
N6 0.104(8) 0.075(6) 0.096(7) -0.004(5) 0.031(7) 0.008(6)
C10 0.099(12) 0.061(8) 0.090(9) -0.001(7) 0.010(9) 0.015(8)
C8 0.116(10) 0.079(6) 0.102(8) -0.005(6) 0.034(8) -0.003(7)
C11 0.166(17) 0.097(12) 0.131(13) 0.013(10) 0.068(13) -0.008(12)
C9 0.205(19) 0.116(14) 0.136(15) 0.017(12) 0.078(14) -0.012(14)
N4A 0.102(11) 0.035(5) 0.084(10) -0.004(6) 0.049(9) -0.012(7)
C5A 0.062(7) 0.041(4) 0.052(6) 0.000(5) 0.021(6) -0.005(5)
N3A 0.079(7) 0.039(5) 0.064(6) -0.007(4) 0.036(6) -0.007(5)
C4A 0.069(8) 0.037(5) 0.062(7) -0.002(5) 0.024(6) -0.002(5)
loop_
_atom_type_symbol
_atom_type_description
_atom_type_scat_dispersion_real
_atom_type_scat_dispersion_imag
_atom_type_scat_source
C C 0.0181 0.0091 'International Tables Vol C Tables 4.2.6.8 and 6.1.1.4'
H H 0.0000 0.0000 'International Tables Vol C Tables 4.2.6.8 and 6.1.1.4'
Cu Cu -1.9646 0.5888 'International Tables Vol C Tables 4.2.6.8 and 6.1.1.4'
N N 0.0311 0.0180 'International Tables Vol C Tables 4.2.6.8 and 6.1.1.4'
O O 0.0492 0.0322 'International Tables Vol C Tables 4.2.6.8 and 6.1.1.4'
loop_
_geom_angle_atom_site_label_1
_geom_angle_atom_site_label_2
_geom_angle_atom_site_label_3
_geom_angle
_geom_angle_site_symmetry_1
_geom_angle_site_symmetry_3
_geom_angle_publ_flag
O1 Cu1 Cu1 80.52(12) . 13_656 ?
O1 Cu1 N5 96.89(17) . 12_757 ?
O2 Cu1 Cu1 80.24(13) 13_656 13_656 ?
O2 Cu1 O1 160.63(17) 13_656 . ?
O2 Cu1 N5 102.42(18) 13_656 12_757 ?
N1 Cu1 Cu1 81.22(12) . 13_656 ?
N1 Cu1 O1 89.25(18) . . ?
N1 Cu1 O2 90.06(19) . 13_656 ?
N1 Cu1 N2 166.44(19) . 13_656 ?
N1 Cu1 N5 96.72(17) . 12_757 ?
N2 Cu1 Cu1 85.23(15) 13_656 13_656 ?
N2 Cu1 O1 88.9(2) 13_656 . ?
N2 Cu1 O2 87.3(2) 13_656 13_656 ?
N2 Cu1 N5 96.8(2) 13_656 12_757 ?
N5 Cu1 Cu1 176.68(13) 12_757 13_656 ?
C1 O1 Cu1 125.9(4) . . ?
C1 O2 Cu1 126.5(4) . 13_656 ?
C3 N1 Cu1 126.4(3) . . ?
C3 N1 C7 104.5(4) . . ?
C7 N1 Cu1 129.0(4) . . ?
C3 N2 Cu1 120.1(4) . 13_656 ?
C3 N2 C4A 112.0(8) . . ?
C4 N2 Cu1 125.5(8) . 13_656 ?
C4 N2 C3 112.2(8) . . ?
C4A N2 Cu1 125.4(7) . 13_656 ?
C4 N3 C5 120.3(13) . . ?
H4A N4 H4B 120.0 . . ?
C5 N4 H4A 120.0 . . ?
C5 N4 H4B 120.0 . . ?
C6 N5 Cu1 140.4(4) . 15_666 ?
C7 N5 Cu1 117.8(4) . 15_666 ?
C7 N5 C6 101.8(4) . . ?
O1 C1 O2 125.7(5) . . ?
O1 C1 C2 118.5(5) . . ?
O2 C1 C2 115.8(5) . . ?
C1 C2 C2 109.5(6) . 6_654 ?
C1 C2 H2A 109.8 . . ?
C1 C2 H2B 109.8 . . ?
C2 C2 H2A 109.8 6_654 . ?
C2 C2 H2B 109.8 6_654 . ?
H2A C2 H2B 108.2 . . ?
N1 C3 N2 127.0(5) . . ?
N1 C3 C6 107.3(5) . . ?
N2 C3 C6 125.7(5) . . ?
N2 C4 N3 127.2(14) . . ?
N2 C4 H4 116.4 . . ?
N3 C4 H4 116.4 . . ?
N3 C5 C6 116.4(12) . . ?
N4 C5 N3 122.9(16) . . ?
N4 C5 C6 120.5(15) . . ?
N5 C6 C3 110.6(5) . . ?
N5 C6 C5 132.0(8) . . ?
N5 C6 C5A 130.2(8) . . ?
C3 C6 C5 115.8(8) . . ?
C3 C6 C5A 115.6(8) . . ?
N1 C7 H7 122.1 . . ?
N5 C7 N1 115.8(5) . . ?
N5 C7 H7 122.1 . . ?
C8 N6 C10 128.1(19) . . ?
C8 N6 C11 115.5(19) . . ?
C11 N6 C10 116.4(18) . . ?
N6 C10 H10A 109.5 . . ?
N6 C10 H10B 109.5 . . ?
N6 C10 H10C 109.5 . . ?
H10A C10 H10B 109.5 . . ?
H10A C10 H10C 109.5 . . ?
H10B C10 H10C 109.5 . . ?
O3 C8 C9 114(2) . . ?
N6 C8 O3 124(2) . . ?
N6 C8 C9 119(2) . . ?
N6 C11 H11A 109.5 . . ?
N6 C11 H11B 109.5 . . ?
N6 C11 H11C 109.5 . . ?
H11A C11 H11B 109.5 . . ?
H11A C11 H11C 109.5 . . ?
H11B C11 H11C 109.5 . . ?
C8 C9 H9A 109.5 . . ?
C8 C9 H9B 109.5 . . ?
C8 C9 H9C 109.5 . . ?
H9A C9 H9B 109.5 . . ?
H9A C9 H9C 109.5 . . ?
H9B C9 H9C 109.5 . . ?
H4AA N4A H4AB 120.0 . . ?
C5A N4A H4AA 120.0 . . ?
C5A N4A H4AB 120.0 . . ?
N4A C5A C6 122.9(13) . . ?
N4A C5A N3A 118.6(14) . . ?
N3A C5A C6 117.1(12) . . ?
C4A N3A C5A 119.9(14) . . ?
N2 C4A H4AC 117.4 . . ?
N3A C4A N2 125.3(14) . . ?
N3A C4A H4AC 117.4 . . ?
loop_
_geom_bond_atom_site_label_1
_geom_bond_atom_site_label_2
_geom_bond_distance
_geom_bond_site_symmetry_2
_geom_bond_publ_flag
Cu1 Cu1 2.8871(14) 13_656 ?
Cu1 O1 2.009(4) . ?
Cu1 O2 2.009(4) 13_656 ?
Cu1 N1 1.987(4) . ?
Cu1 N2 2.004(5) 13_656 ?
Cu1 N5 2.156(4) 12_757 ?
O1 C1 1.244(7) . ?
O2 C1 1.247(7) . ?
N1 C3 1.333(7) . ?
N1 C7 1.350(6) . ?
N2 C3 1.367(8) . ?
N2 C4 1.323(16) . ?
N2 C4A 1.380(16) . ?
N3 C4 1.33(2) . ?
N3 C5 1.39(2) . ?
N4 H4A 0.8600 . ?
N4 H4B 0.8600 . ?
N4 C5 1.35(2) . ?
N5 C6 1.363(8) . ?
N5 C7 1.323(7) . ?
C1 C2 1.508(8) . ?
C2 C2 1.539(13) 6_654 ?
C2 H2A 0.9700 . ?
C2 H2B 0.9700 . ?
C3 C6 1.390(8) . ?
C4 H4 0.9300 . ?
C5 C6 1.444(17) . ?
C6 C5A 1.445(16) . ?
C7 H7 0.9300 . ?
O3 C8 1.32(3) . ?
N6 C10 1.46(2) . ?
N6 C8 1.24(3) . ?
N6 C11 1.45(3) . ?
C10 H10A 0.9600 . ?
C10 H10B 0.9600 . ?
C10 H10C 0.9600 . ?
C8 C9 1.56(3) . ?
C11 H11A 0.9600 . ?
C11 H11B 0.9600 . ?
C11 H11C 0.9600 . ?
C9 H9A 0.9600 . ?
C9 H9B 0.9600 . ?
C9 H9C 0.9600 . ?
N4A H4AA 0.8600 . ?
N4A H4AB 0.8600 . ?
N4A C5A 1.32(2) . ?
C5A N3A 1.361(19) . ?
N3A C4A 1.345(19) . ?
C4A H4AC 0.9300 . ?
loop_
_geom_torsion_atom_site_label_1
_geom_torsion_atom_site_label_2
_geom_torsion_atom_site_label_3
_geom_torsion_atom_site_label_4
_geom_torsion
_geom_torsion_site_symmetry_1
_geom_torsion_site_symmetry_2
_geom_torsion_site_symmetry_3
_geom_torsion_site_symmetry_4
_geom_torsion_publ_flag
Cu1 O1 C1 O2 14.1(8) . . . . ?
Cu1 O1 C1 C2 -163.8(4) . . . . ?
Cu1 O2 C1 O1 -10.5(9) 13_656 . . . ?
Cu1 O2 C1 C2 167.4(4) 13_656 . . . ?
Cu1 N1 C3 N2 0.2(9) . . . . ?
Cu1 N1 C3 C6 -179.1(4) . . . . ?
Cu1 N1 C7 N5 178.2(4) . . . . ?
Cu1 N2 C3 N1 -0.7(10) 13_656 . . . ?
Cu1 N2 C3 C6 178.5(6) 13_656 . . . ?
Cu1 N2 C4 N3 177.7(14) 13_656 . . . ?
Cu1 N2 C4A N3A -176.9(14) 13_656 . . . ?
Cu1 N5 C6 C3 176.0(5) 15_666 . . . ?
Cu1 N5 C6 C5 -19.6(17) 15_666 . . . ?
Cu1 N5 C6 C5A 18.7(15) 15_666 . . . ?
Cu1 N5 C7 N1 -176.8(3) 15_666 . . . ?
O1 C1 C2 C2 109.7(5) . . . 6_654 ?
O2 C1 C2 C2 -68.4(6) . . . 6_654 ?
N1 C3 C6 N5 0.9(8) . . . . ?
N1 C3 C6 C5 -166.3(10) . . . . ?
N1 C3 C6 C5A 161.8(9) . . . . ?
N2 C3 C6 N5 -178.5(6) . . . . ?
N2 C3 C6 C5 14.4(13) . . . . ?
N2 C3 C6 C5A -17.5(13) . . . . ?
N3 C5 C6 N5 -170.3(12) . . . . ?
N3 C5 C6 C3 -7(2) . . . . ?
N4 C5 C6 N5 14(3) . . . . ?
N4 C5 C6 C3 177.8(15) . . . . ?
N5 C6 C5A N4A -20(2) . . . . ?
N5 C6 C5A N3A 173.7(12) . . . . ?
C3 N1 C7 N5 -0.6(7) . . . . ?
C3 N2 C4 N3 15(2) . . . . ?
C3 N2 C4A N3A -15(2) . . . . ?
C3 C6 C5A N4A -176.4(15) . . . . ?
C3 C6 C5A N3A 17.3(19) . . . . ?
C4 N2 C3 N1 163.1(10) . . . . ?
C4 N2 C3 C6 -17.7(13) . . . . ?
C4 N3 C5 N4 179.7(19) . . . . ?
C4 N3 C5 C6 4(3) . . . . ?
C5 N3 C4 N2 -9(3) . . . . ?
C6 N5 C7 N1 1.1(7) . . . . ?
C6 C5A N3A C4A -18(3) . . . . ?
C7 N1 C3 N2 179.2(6) . . . . ?
C7 N1 C3 C6 -0.2(7) . . . . ?
C7 N5 C6 C3 -1.2(7) . . . . ?
C7 N5 C6 C5 163.2(13) . . . . ?
C7 N5 C6 C5A -158.5(11) . . . . ?
C10 N6 C8 O3 172(2) . . . . ?
C10 N6 C8 C9 13(4) . . . . ?
C11 N6 C8 O3 -9(4) . . . . ?
C11 N6 C8 C9 -169(3) . . . . ?
N4A C5A N3A C4A 175.5(17) . . . . ?
C5A N3A C4A N2 17(3) . . . . ?
C4A N2 C3 N1 -163.6(10) . . . . ?
C4A N2 C3 C6 15.6(13) . . . . ?
