#------------------------------------------------------------------------------
#$Date: 2022-01-03 22:18:29 +0200 (Mon, 03 Jan 2022) $
#$Revision: 271709 $
#$URL: file:///home/coder/svn-repositories/cod/cif/4/51/92/4519213.cif $
#------------------------------------------------------------------------------
#
# This file is available in the Crystallography Open Database (COD),
# http://www.crystallography.net/
#
# All data on this site have been placed in the public domain by the
# contributors.
#
data_4519213
loop_
_publ_author_name
'Cui, Ruixue'
'Sun, Wei'
'Liu, Meiying'
'Shi, Jing'
'Liu, Zhiliang'
_publ_section_title
;
 Near-Infrared Emissive Lanthanide Metal-Organic Frameworks for Targeted
 Biological Imaging and pH-Controlled Chemotherapy.
;
_journal_issue                   49
_journal_name_full               'ACS applied materials &amp; interfaces'
_journal_page_first              59164
_journal_page_last               59173
_journal_paper_doi               10.1021/acsami.1c20817
_journal_volume                  13
_journal_year                    2021
_chemical_formula_moiety         'C16 H7 Nd O8, C2 H6 O, H2O'
_chemical_formula_sum            'C18 H15 Nd O10'
_chemical_formula_weight         535.54
_space_group_crystal_system      orthorhombic
_space_group_IT_number           56
_space_group_name_Hall           '-P 2ab 2ac'
_space_group_name_H-M_alt        'P c c n'
_atom_sites_solution_hydrogens   mixed
_audit_creation_method           SHELXL-2018/3
_cell_angle_alpha                90
_cell_angle_beta                 90
_cell_angle_gamma                90
_cell_formula_units_Z            8
_cell_length_a                   17.4501(6)
_cell_length_b                   15.8364(5)
_cell_length_c                   15.8064(5)
_cell_measurement_reflns_used    8468
_cell_measurement_temperature    293(2)
_cell_measurement_theta_max      71.6460
_cell_measurement_theta_min      4.6870
_cell_volume                     4368.0(2)
_computing_cell_refinement       'Bruker FRAMBO'
_computing_data_collection       'Bruker FRAMBO'
_computing_data_reduction        'Bruker SAINT'
_computing_molecular_graphics    'Bruker SHELXTL'
_computing_publication_material  'Bruker SHELXTL'
_computing_structure_refinement  'SHELXL-2018/3 (Sheldrick, 2018)'
_computing_structure_solution    'Bruker SHELXTL'
_diffrn_ambient_temperature      293(2)
_diffrn_measured_fraction_theta_full 0.999
_diffrn_measured_fraction_theta_max 0.999
_diffrn_measurement_device_type  'Xcalibur, Eos, Gemini'
_diffrn_radiation_type           CuK\a
_diffrn_radiation_wavelength     1.54178
_diffrn_reflns_av_R_equivalents  0.0832
_diffrn_reflns_av_unetI/netI     0.0428
_diffrn_reflns_Laue_measured_fraction_full 0.999
_diffrn_reflns_Laue_measured_fraction_max 0.999
_diffrn_reflns_limit_h_max       20
_diffrn_reflns_limit_h_min       -20
_diffrn_reflns_limit_k_max       13
_diffrn_reflns_limit_k_min       -18
_diffrn_reflns_limit_l_max       18
_diffrn_reflns_limit_l_min       -18
_diffrn_reflns_number            27042
_diffrn_reflns_point_group_measured_fraction_full 0.999
_diffrn_reflns_point_group_measured_fraction_max 0.999
_diffrn_reflns_theta_full        67.245
_diffrn_reflns_theta_max         67.245
_diffrn_reflns_theta_min         3.769
_exptl_absorpt_coefficient_mu    18.584
_exptl_absorpt_correction_T_max  1.00000
_exptl_absorpt_correction_T_min  0.05994
_exptl_absorpt_correction_type   multi-scan
_exptl_absorpt_process_details   sadabs
_exptl_crystal_colour            purple
_exptl_crystal_density_diffrn    1.629
_exptl_crystal_description       rodlike
_exptl_crystal_F_000             2104
_exptl_crystal_size_max          0.2
_exptl_crystal_size_mid          0.1
_exptl_crystal_size_min          0.1
_refine_diff_density_max         2.804
_refine_diff_density_min         -1.006
_refine_diff_density_rms         0.233
_refine_ls_extinction_method     none
_refine_ls_goodness_of_fit_ref   1.102
_refine_ls_hydrogen_treatment    mixed
_refine_ls_matrix_type           full
_refine_ls_number_parameters     273
_refine_ls_number_reflns         3915
_refine_ls_number_restraints     13
_refine_ls_restrained_S_all      1.107
_refine_ls_R_factor_all          0.0569
_refine_ls_R_factor_gt           0.0492
_refine_ls_shift/su_max          0.068
_refine_ls_shift/su_mean         0.012
_refine_ls_structure_factor_coef Fsqd
_refine_ls_weighting_details
'w=1/[\s^2^(Fo^2^)+(0.0998P)^2^+11.8892P] where P=(Fo^2^+2Fc^2^)/3'
_refine_ls_weighting_scheme      calc
_refine_ls_wR_factor_gt          0.1558
_refine_ls_wR_factor_ref         0.1643
_reflns_Friedel_coverage         0.000
_reflns_number_gt                3314
_reflns_number_total             3915
_reflns_threshold_expression     'I > 2\s(I)'
_cod_data_source_file            am1c20817_si_002.cif
_cod_data_source_block           1_sq
_cod_database_code               4519213
_shelx_shelxl_version_number     2018/3
_shelx_space_group_comment
;
The symmetry employed for this shelxl refinement is uniquely defined
by the following loop, which should always be used as a source of
symmetry information in preference to the above space-group names.
They are only intended as comments.
;
_shelx_res_file
;
TITL 1 in P-1 New: Pccn
    1_sq.res
    created by SHELXL-2018/3 at 18:39:53 on 22-Jul-2020
CELL 1.54178 17.4501 15.8364 15.8064 90 90 90
ZERR 8 0.0006 0.0005 0.0005 0 0 0
LATT 1
SYMM 0.5-X,0.5-Y,+Z
SYMM 0.5+X,-Y,0.5-Z
SYMM -X,0.5+Y,0.5-Z
SFAC C  H  Nd O
UNIT 144 120 8 80
OMIT 1 1 1
OMIT 2 1 5
OMIT 20 1 5
OMIT 3 0 6
OMIT  -3.00 134.50
L.S. 10
ACTA
BOND
FMAP 2
PLAN 20
BUMP 0.05
ISOR 0.01 0.02 C17
DFIX 0.85 0.01 O6 H6
FREE Nd1  C1
FREE O7   O8
WGHT    0.099800   11.889200
SWAT    0.000033    0.0000
FVAR       0.17591
ND1   3    0.402901   -0.047343   -0.042996    11.00000    0.01302    0.02473 =
         0.01362    0.00085   -0.00192   -0.00256
O1    4    0.353420    0.103430   -0.053832    11.00000    0.02191    0.02928 =
         0.07011   -0.00834   -0.02051   -0.00432
O2    4    0.469918    0.089348   -0.004333    11.00000    0.01984    0.02847 =
         0.02471   -0.00332   -0.00575   -0.00104
O3    4    0.597406    0.202159   -0.002893    11.00000    0.02882    0.03382 =
         0.05691   -0.00159    0.00949   -0.00262
O4    4    0.552381    0.179826    0.124666    11.00000    0.05218    0.03917 =
         0.02579   -0.00224   -0.01534    0.00703
O8    4    0.763555    0.431815    0.027664    11.00000    0.02235    0.06425 =
         0.02263   -0.00788    0.00644   -0.00824
O7    4    0.803984    0.442404    0.158453    11.00000    0.02077    0.05780 =
         0.02029    0.00070    0.00266   -0.00405
O6    4    0.601048    0.468809    0.388467    11.00000    0.02044    0.05451 =
         0.01628   -0.00111    0.00128    0.00405
O5    4    0.483473    0.501725    0.341866    11.00000    0.02599    0.04735 =
         0.01749   -0.00720    0.00214    0.00787
C1    1    0.412471    0.136611   -0.024735    11.00000    0.02556    0.02229 =
         0.02512   -0.00285    0.00095    0.00025
C2    1    0.417240    0.228715   -0.008536    11.00000    0.02679    0.03474 =
         0.02959    0.00085   -0.00143   -0.00169
C7    1    0.479364    0.267093    0.033392    11.00000    0.02457    0.03079 =
         0.01713    0.00105   -0.00203   -0.00221
C8    1    0.548654    0.214606    0.054635    11.00000    0.02226    0.02243 =
         0.03801   -0.00727   -0.00561   -0.00317
C6    1    0.476547    0.352114    0.054464    11.00000    0.02074    0.02899 =
         0.01854   -0.00306   -0.00132   -0.00250
C5    1    0.412732    0.399909    0.030238    11.00000    0.02726    0.03690 =
         0.05544   -0.01071   -0.01396    0.01067
AFIX  43
H5    2    0.409967    0.456665    0.045036    11.00000   -1.20000
AFIX   0
C4    1    0.353836    0.363615   -0.015420    11.00000    0.03558    0.03758 =
         0.08843   -0.00849   -0.02390    0.01438
AFIX  43
H4    2    0.312586    0.396120   -0.033512    11.00000   -1.20000
AFIX   0
C3    1    0.356986    0.277960   -0.033978    11.00000    0.03033    0.03406 =
         0.07657   -0.00428   -0.02911    0.00005
AFIX  43
H3    2    0.317188    0.253440   -0.064438    11.00000   -1.20000
AFIX   0
C9    1    0.536917    0.391183    0.108771    11.00000    0.02233    0.02366 =
         0.02058   -0.00087   -0.00339    0.00082
C10   1    0.613263    0.395859    0.082543    11.00000    0.02676    0.02667 =
         0.01572   -0.00461    0.00383   -0.00034
AFIX  43
H10   2    0.626628    0.377517    0.028632    11.00000   -1.20000
AFIX   0
C14   1    0.669098    0.427415    0.135782    11.00000    0.01606    0.02633 =
         0.02606   -0.00125    0.00398   -0.00016
C16   1    0.750629    0.434195    0.105529    11.00000    0.01437    0.02597 =
         0.02332   -0.00316    0.00547   -0.00398
C13   1    0.650040    0.453805    0.218043    11.00000    0.01544    0.03526 =
         0.01468   -0.00375    0.00082   -0.00017
AFIX  43
H13   2    0.688078    0.472250    0.254879    11.00000   -1.20000
AFIX   0
C12   1    0.573885    0.452130    0.243945    11.00000    0.02370    0.02467 =
         0.01826   -0.00112    0.00338    0.00035
C15   1    0.551207    0.477085    0.332703    11.00000    0.02995    0.03393 =
         0.01489   -0.00158    0.00314   -0.00147
C11   1    0.518508    0.421664    0.188911    11.00000    0.01952    0.02931 =
         0.02227    0.00284    0.00238    0.00002
AFIX  43
H11   2    0.467519    0.421580    0.206029    11.00000   -1.20000
AFIX   6
O10   4    0.304683    0.539264    0.128566    11.00000    0.14358    0.18059 =
         0.10971   -0.00197    0.03429   -0.00616
H10A  2    0.304829    0.502139    0.089794    11.00000   -1.50000
H10B  2    0.262737    0.567012    0.126579    11.00000   -1.50000
AFIX   0
C18   1    0.605554    0.154724    0.289317    11.00000    0.16016    0.11425 =
         0.04043   -0.01140   -0.00069    0.05509
AFIX  23
H18A  2    0.597961    0.132978    0.232563    11.00000   -1.20000
H18B  2    0.641411    0.118535    0.319054    11.00000   -1.20000
AFIX   0
C17   1    0.632676    0.241812    0.287310    11.00000    0.16026    0.13202 =
         0.13109   -0.01318   -0.04041   -0.03304
AFIX 137
H17A  2    0.649352    0.255584    0.231101    11.00000   -1.50000
H17B  2    0.674724    0.248169    0.325953    11.00000   -1.50000
H17C  2    0.591803    0.279009    0.303554    11.00000   -1.50000
AFIX   0
O9    4    0.537580    0.160359    0.331881    11.00000    0.27371    0.43273 =
         0.11411   -0.05900    0.05785    0.05202
AFIX 147
H9    2    0.545859    0.172246    0.381539    11.00000   -1.50000
AFIX   0
H6    2    0.634115    0.487449    0.423287    11.00000    0.18017
HKLF 4 1 0 0 -1 0 1 0 1 0 0




REM  1 in P-1 New: Pccn
REM wR2 = 0.164332, GooF = S = 1.10245, Restrained GooF = 1.10654 for all data
REM R1 = 0.049192 for 3314 Fo > 4sig(Fo) and 0.056878 for all 3915 data
REM 273 parameters refined using 13 restraints

END

WGHT      0.0990     12.1058

REM Highest difference peak  2.804,  deepest hole -1.006,  1-sigma level  0.233
Q1    1   0.7500  0.2500  0.4378  10.50000  0.05    2.80
Q2    1   0.2500  0.2500 -0.2844  10.50000  0.05    2.55
Q3    1   0.2776  0.3735  0.1981  11.00000  0.05    1.22
Q4    1   0.3913  0.2284  0.2222  11.00000  0.05    1.01
Q5    1   0.4017 -0.0461 -0.1213  11.00000  0.05    0.94
Q6    1   0.5977  0.4538  0.4632  11.00000  0.05    0.81
Q7    1   0.7500  0.2500  0.0959  10.50000  0.05    0.81
Q8    1   0.4013 -0.0773 -0.0008  11.00000  0.05    0.74
Q9    1   0.6558  0.2361  0.2764  11.00000  0.05    0.71
Q10   1   0.4055  0.2773  0.2631  11.00000  0.05    0.70
Q11   1   0.6040  0.2034  0.3422  11.00000  0.05    0.64
Q12   1   0.3536 -0.0419 -0.0416  11.00000  0.05    0.63
Q13   1   0.4177  0.2461 -0.0307  11.00000  0.05    0.60
Q14   1   0.4542 -0.0563 -0.0444  11.00000  0.05    0.59
Q15   1   0.4479  0.2071  0.1915  11.00000  0.05    0.53
Q16   1   0.5083  0.2152  0.1373  11.00000  0.05    0.53
Q17   1   0.6636  0.1710  0.3032  11.00000  0.05    0.50
Q18   1   0.3524  0.1116 -0.0349  11.00000  0.05    0.47
Q19   1   0.4772  0.2503  0.0628  11.00000  0.05    0.46
Q20   1   0.4942  0.2186  0.2832  11.00000  0.05    0.45
;
_shelx_res_checksum              92372
_shelx_hkl_file
;
   1   0   0    1.09    4.34
   2   0   0 7656.98  223.86
   3   0   0    9.95   11.50
   4   0   0 3751.18  189.39
  -5   0   0   21.04    8.60
   5   0   0   15.30   12.06
   6   0   0 1001.60   43.55
  -6   0   0  965.53   40.80
  -6   0   0  908.10   49.03
  -7   0   0   10.52    5.09
  -7   0   0   12.37    7.18
   7   0   0    6.99    3.93
  -8   0   0  180.37   19.90
  -8   0   0  228.67   23.44
  -8   0   0  197.52   21.05
  -9   0   0    0.70    3.87
  -9   0   0    5.27    4.11
 -10   0   0 2060.32   72.22
 -10   0   0 2072.71   70.63
 -11   0   0    2.61    2.29
 -11   0   0    3.45    4.23
 -12   0   0 2192.00   78.08
 -13   0   0    9.26    6.70
 -14   0   0 1191.39   61.49
  14   0   0 1115.59   65.81
 -14   0   0 1219.74   63.65
  14   0   0 1215.07   66.46
 -15   0   0   -3.16    5.00
  15   0   0    1.79    5.28
  16   0   0  219.24   26.75
  17   0   0    1.40    4.01
  18   0   0   90.08   13.97
  19   0   0   -2.52    1.85
   0   1   0   18.48    2.90
   1  -1   0    6.16    1.74
  -1  -1   0    3.47    2.09
  -1   1   0    5.65    1.47
   2  -1   0  943.37   43.64
  -2  -1   0  870.19   61.69
  -3  -1   0    7.30   15.79
   3   1   0   -0.86    3.45
   3  -1   0    5.46    5.61
   4   1   0  554.41   58.12
   4  -1   0  552.24   58.09
  -5   1   0   15.46    6.39
  -5  -1   0   10.32    5.34
   5  -1   0    6.96    4.74
  -5  -1   0   24.96    6.91
  -5  -1   0   27.58    8.90
   5   1   0   34.89   21.33
  -6   1   0   82.41   15.44
   6   1   0  100.37   27.18
  -6  -1   0  101.96   13.94
  -6  -1   0  143.30   18.23
  -6   1   0  127.60   14.48
   6  -1   0  101.74   13.96
  -7   1   0    9.78    7.52
  -7  -1   0   22.10    6.67
   7  -1   0   10.69    5.70
  -7  -1   0    5.03    3.11
  -7   1   0    7.62    3.46
   7   1   0    8.11    4.79
  -7  -1   0    4.45    4.05
  -8  -1   0   85.11   13.51
  -8  -1   0   98.58   14.47
  -8   1   0  108.60   17.35
  -8  -1   0  115.41   16.01
  -9  -1   0   -2.49    4.05
  -9  -1   0    5.47    3.95
  -9  -1   0    2.73    2.60
  -9   1   0   -0.23    2.79
  -9   1   0    9.65    4.33
 -10   1   0   77.60   14.83
 -10  -1   0   67.54   12.66
 -10   1   0   63.01   12.89
 -10  -1   0   67.08   12.27
 -11   1   0    6.09    5.65
 -11   1   0   -0.63    3.58
 -11  -1   0   -3.39    2.24
 -12   1   0   15.64    7.55
 -12   1   0    8.31    4.40
 -12  -1   0    8.31    4.40
 -13   1   0   -0.28    3.90
 -13  -1   0   -7.10    3.07
 -14   1   0  143.36   20.67
  14  -1   0  141.18   22.67
 -14  -1   0  159.73   21.99
 -14   1   0  145.87   21.28
  14  -1   0  168.03   24.21
  14   1   0  142.31   21.84
  14  -1   0  171.89   25.69
  14   1   0  144.11   23.00
 -14  -1   0  145.94   21.73
  15  -1   0    3.69    3.05
  15  -1   0   -3.91    5.09
 -15  -1   0   -2.55    5.07
  15   1   0   -1.38    2.91
 -15   1   0    4.57    5.27
  16   1   0  163.70   23.00
  16  -1   0  175.54   23.24
  17  -1   0    0.01    6.02
  17   1   0    1.44    4.43
  18  -1   0   98.37   14.28
  18   1   0   90.59   14.29
  19  -1   0    2.77    3.01
  19   1   0    1.55    3.52
   0   2   0 4570.65   67.92
   0   2   0 4533.65   86.35
  -1   2   0    1.61    0.94
  -1  -2   0    1.96    1.97
   1  -2   0    0.28    1.61
  -2  -2   0 1022.60   48.29
   2  -2   0 1066.12   31.09
  -3  -2   0   -2.30    2.92
   3  -2   0    0.12    1.07
   3   2   0    3.80    8.00
   3  -2   0   -0.67    1.64
   4  -2   0  326.99   21.24
   4  -2   0  305.61   38.27
   5  -2   0    5.36    4.54
  -5  -2   0    3.22    4.11
   5  -2   0    0.75    3.66
  -5   2   0   -4.03    7.05
  -5   2   0   -0.75    2.61
   5   2   0    0.30    7.93
  -5  -2   0    1.23    4.84
   6   2   0   22.57   12.02
  -6  -2   0   12.86    3.87
  -6   2   0   14.29    5.64
  -6  -2   0   19.78    6.59
   6  -2   0   16.25    4.94
  -7   2   0    2.07    3.23
  -7  -2   0   -3.71    3.74
   7  -2   0   -3.08    2.77
  -7  -2   0    0.02    3.44
  -8  -2   0  389.84   29.51
  -8   2   0  305.23   32.32
  -8  -2   0  395.22   28.86
   8  -2   0  419.13   31.60
  -9   2   0    1.72    5.75
  -9  -2   0   -1.39    2.44
  -9  -2   0    1.17    4.09
 -10  -2   0 2002.42   70.17
 -10  -2   0 1806.15   67.74
 -10   2   0 1846.55   82.09
 -11  -2   0   -1.93    2.46
 -11   2   0    2.94    4.36
 -11  -2   0    2.23    2.39
 -11   2   0   -1.05    3.02
 -12  -2   0  830.69   48.82
 -12   2   0  739.41   45.99
 -12   2   0  778.49   51.81
 -13   2   0    3.78    2.03
 -13   2   0   -3.24    6.11
 -13  -2   0    1.19    3.11
  14  -2   0  796.83   56.22
  14  -2   0  917.30   58.00
 -14   2   0  901.04   52.45
 -14  -2   0  868.90   54.29
  14   2   0  917.51   58.62
 -14  -2   0  917.38   53.98
  14  -2   0  934.04   57.80
  15  -2   0    2.78    2.29
  15  -2   0    4.78    5.82
  15   2   0    2.47    7.16
 -15  -2   0   -2.64    5.10
  16  -2   0  193.58   24.55
  16  -2   0  244.27   26.45
  16   2   0  220.06   26.57
  17   2   0    3.15    4.05
  17  -2   0   -4.34    2.83
  17  -2   0   -2.06    2.70
  18   2   0   37.86    9.15
  18  -2   0   37.70    9.05
  19   2   0    0.39    1.82
  19  -2   0    1.74    1.97
   0  -3   0    8.73    5.16
   0   3   0    8.90    3.53
   0  -3   0    6.22    2.79
   1   3   0    6.01    3.07
  -1   3   0    2.42    2.04
   1  -3   0    4.95    3.23
  -1  -3   0    2.24    5.80
   1  -3   0    9.98    4.49
  -2  -3   0 2723.19   84.91
   2  -3   0 2820.51   81.11
  -2   3   0 2982.45   60.17
  -2   3   0 3103.99   90.05
  -3   3   0    2.07    3.01
   3  -3   0   -5.22    5.17
   3   3   0   -0.45    2.05
  -3  -3   0   -1.06    5.76
  -4  -3   0 1294.89   44.54
   4   3   0 1592.88  108.21
  -4  -3   0 1263.67   46.32
  -4   3   0 1497.71   85.42
  -4  -3   0 1239.66   87.65
  -4   3   0 1488.79   41.25
   5  -3   0    1.06    1.20
  -5  -3   0    4.97    3.45
  -5  -3   0    2.25    3.58
  -5   3   0   -2.62    2.77
   5   3   0    0.39    5.12
  -5  -3   0    1.09    1.83
  -6   3   0 2751.67   80.40
   6  -3   0 2920.34   72.98
  -6  -3   0 2992.11   78.58
  -6  -3   0 2902.54   68.97
   6  -3   0 2658.13   61.87
  -7   3   0   -2.47    3.11
   7  -3   0    2.15    1.93
  -7  -3   0    1.04    2.29
  -7  -3   0   -1.05    2.13
  -7  -3   0    2.44    3.72
  -8  -3   0 1269.37   53.96
   8  -3   0 1212.56   57.03
  -8  -3   0 1183.64   56.80
  -9  -3   0   -1.27    4.17
  -9  -3   0    2.83    2.93
 -10  -3   0  360.96   31.13
 -10  -3   0  361.38   30.84
 -10   3   0  356.70   39.45
 -11  -3   0    0.41    2.85
 -11  -3   0   -1.13    2.68
 -11   3   0    4.56    2.82
 -11   3   0    3.50    4.56
 -12   3   0    4.81    4.20
 -12  -3   0   -1.79    2.85
 -12   3   0    3.97    5.62
 -12  -3   0    4.38    2.84
  13  -3   0    3.44    4.83
 -13  -3   0    3.18    4.79
 -13   3   0    6.89    6.82
 -13   3   0   -3.53    2.71
 -13  -3   0   -1.22    4.12
  14  -3   0  146.83   22.66
  14  -3   0  137.91   23.47
 -14  -3   0  154.59   22.66
  14   3   0  124.06   22.26
  14  -3   0  153.29   23.01
 -15  -3   0    1.26    5.57
  15  -3   0    3.29    2.40
  15  -3   0   -0.90    3.96
  15   3   0   -2.25    4.91
  16  -3   0  458.15   37.06
  16  -3   0  429.45   36.35
  16   3   0  469.88   38.36
  17  -3   0    4.51    4.74
  17  -3   0   -2.51    4.04
  17   3   0   -4.10    6.57
  18  -3   0  531.50   31.46
  18   3   0  480.52   31.49
  18  -3   0  467.74   28.79
  19   3   0    6.87    3.32
   0  -4   0  681.03   53.26
   0   4   0  728.41   39.52
   1   4   0    3.51    2.82
  -1  -4   0    1.17    2.15
   1  -4   0    1.55    1.64
  -1   4   0    3.66    3.68
   1   4   0    7.06    7.30
   2  -4   0   39.58   11.16
   2  -4   0   45.64   11.22
  -2   4   0   37.11   10.43
   2   4   0   31.13    8.20
   2   4   0   34.68   11.22
  -2   4   0   33.11    7.64
  -3   4   0    0.80    0.99
  -3   4   0   -0.11    3.69
   3   4   0   -2.59    8.80
  -3   4   0    0.91    1.36
  -3  -4   0   -3.42    4.10
   3  -4   0    7.45    4.24
   3   4   0   -3.24    5.79
  -3  -4   0    2.80    1.76
  -3  -4   0   -1.37    1.77
   3  -4   0    2.67    3.33
   4  -4   0   42.34   10.21
   4  -4   0   53.88    6.62
  -4  -4   0   42.93    8.88
  -4  -4   0   50.37   16.74
  -4   4   0   51.75    7.70
  -4   4   0   34.18   12.50
  -4  -4   0   38.56    8.16
  -4  -4   0   52.57    8.57
   4  -4   0   51.95   15.80
  -5  -4   0   -1.42    2.05
  -5  -4   0    2.26    1.93
   5  -4   0    0.75    0.88
  -5   4   0    4.22    3.27
  -5  -4   0    0.33    2.71
  -6  -4   0   16.76    6.03
  -6   4   0   17.68    7.60
  -6  -4   0   20.59    6.57
   6  -4   0   16.60    4.83
  -6  -4   0   15.73    7.02
  -7  -4   0    1.35    2.53
  -7   4   0    5.18    5.49
  -7  -4   0    6.32    3.99
  -7  -4   0   -1.32    2.93
  -8  -4   0   54.93   11.55
  -8  -4   0   49.76   11.74
  -8   4   0   34.69   10.75
  -9   4   0    7.55    9.18
  -9  -4   0    7.44    5.88
  -9  -4   0    2.52    2.23
 -10   4   0  440.00   47.20
 -10  -4   0  549.09   38.99
 -10  -4   0  524.24   39.99
 -11   4   0   -2.26    4.60
 -11  -4   0    0.27    4.32
 -11  -4   0    6.92    4.73
 -12  -4   0  187.10   24.33
 -12   4   0  152.71   25.21
 -12  -4   0  166.33   23.06
 -12   4   0  142.22   20.36
 -13   4   0   -6.14    8.45
  13  -4   0    0.79    3.65
 -13   4   0    3.48    1.70
 -13  -4   0   -0.43    4.41
 -13  -4   0    4.69    4.90
  13   4   0   -2.20    3.49
  13  -4   0   -5.14    5.87
  14   4   0  123.92   20.49
  14  -4   0  120.31   20.65
  14  -4   0  103.91   21.45
 -14  -4   0  147.22   22.20
  15   4   0   -2.34    5.44
  15  -4   0    2.83    5.87
 -15  -4   0   -4.73    3.81
  15  -4   0    3.34    3.57
 -16  -4   0   61.23   13.62
  16   4   0   65.76   14.44
  16  -4   0   66.56   14.22
  17   4   0    5.85    4.81
 -17  -4   0   -2.56    4.10
  17  -4   0   -6.45    5.47
  18  -4   0   30.47    7.72
  18   4   0   22.59    6.54
   0  -5   0   14.21    9.28
   0  -5   0   17.40    6.73
   0   5   0    9.09    4.85
  -1  -5   0    1.79    2.04
   1  -5   0    2.92    3.35
  -1  -5   0    4.27    3.16
  -1   5   0    2.84    3.78
  -1   5   0    2.92    3.86
   1  -5   0    1.60    3.03
   1   5   0   -2.62    3.41
  -1  -5   0    4.66    2.26
   1  -5   0   12.79    6.95
   1   5   0    3.87    3.64
   2   5   0 1324.04   60.70
  -2  -5   0 1485.69   42.25
   2  -5   0 1543.15   71.38
  -2   5   0 1614.14   77.58
   2  -5   0 1506.98   69.47
   2  -5   0 1494.70   53.44
  -2   5   0 1463.12   60.91
  -2  -5   0 1484.96   51.38
   2  -5   0 1409.43   83.41
  -2  -5   0 1497.80   48.50
   2   5   0 1589.12   78.09
   2   5   0 1519.92  101.15
  -3  -5   0    0.72    1.79
  -3   5   0    1.91    2.15
  -3   5   0    0.64    1.26
  -3  -5   0    2.04    1.52
   3  -5   0    2.98    3.08
   3  -5   0    1.71    1.36
   3  -5   0   -1.72    5.31
  -3  -5   0   -2.36    1.45
  -4  -5   0 1849.33   62.44
  -4  -5   0 2040.50   56.54
  -4   5   0 1972.90   48.87
   4  -5   0 1992.95   54.78
  -5  -5   0    3.60    1.73
   5  -5   0    6.29    3.63
  -5   5   0    4.83    3.51
  -5  -5   0   -0.13    2.99
  -6  -5   0 5332.03  109.96
  -6  -5   0 5419.71  119.68
  -6   5   0 5550.12  107.01
   6  -5   0 5377.59   88.83
  -7  -5   0    2.23    5.76
  -7  -5   0    1.64    3.39
  -7   5   0   -1.40    2.32
  -7  -5   0    1.41    1.56
  -8  -5   0 2602.90   85.81
  -8   5   0 2308.71   96.21
  -8  -5   0 2331.22   90.71
  -8  -5   0 2753.64   77.97
  -9  -5   0   15.21    8.37
  -9  -5   0   -5.82    5.54
  -9   5   0   -1.18    7.99
 -10  -5   0  640.96   44.39
 -10   5   0  544.29   54.79
 -10  -5   0  674.85   48.55
 -11   5   0   -7.52   11.37
 -11  -5   0   -2.84    5.85
 -11  -5   0   -0.85    5.08
 -12   5   0   10.34    7.93
 -12  -5   0    7.20    2.96
 -13  -5   0    9.34    5.87
  13  -5   0   -2.56    5.02
 -13   5   0    3.89    3.36
  13   5   0    3.30    6.25
  13  -5   0   12.50    8.13
 -13  -5   0   -3.03    3.08
  14   5   0  200.35   26.18
  14  -5   0  138.67   26.56
  14  -5   0  200.99   27.63
 -14  -5   0  197.66   28.24
  15  -5   0    4.06    5.70
 -15  -5   0   -1.78    6.02
  15  -5   0    3.83    4.13
  15   5   0   -0.39    3.53
  16   5   0  736.38   46.37
 -16  -5   0  710.12   44.13
  16  -5   0  654.73   43.76
 -17  -5   0    1.73    2.72
  17   5   0   -0.70    2.70
  17  -5   0    5.59    5.86
 -18  -5   0  839.52   34.24
  18   5   0  880.19   39.19
  18  -5   0  795.79   37.77
   0   6   0 2335.56   92.81
   0  -6   0 2419.18   46.38
   1  -6   0    2.57    4.39
   1   6   0   -1.13    3.67
  -1  -6   0    5.99    2.94
   1  -6   0   17.44   15.55
  -1  -6   0    6.66    5.37
  -1   6   0    4.24    3.05
   1  -6   0    6.09    3.25
  -1   6   0    5.51    4.99
   2   6   0 1156.10   63.10
   2  -6   0 1291.04   96.32
   2  -6   0 1419.77   58.13
  -2  -6   0 1343.98   42.48
  -2  -6   0 1357.92   54.38
  -2   6   0 1358.87   66.57
  -3  -6   0    3.92    3.40
   3   6   0   -0.32    2.91
  -3  -6   0    0.89    2.00
   3  -6   0   -1.66    3.09
  -3  -6   0   -3.39    4.28
  -4  -6   0  670.17   38.41
  -4  -6   0  710.39   36.83
  -4  -6   0  657.17   40.21
  -4   6   0  731.77   31.10
   4  -6   0  753.72   38.23
  -5  -6   0    1.89    4.16
  -5   6   0    0.01    2.16
   5  -6   0    5.54    3.21
  -5  -6   0    0.97    1.39
  -5  -6   0    7.44    4.33
  -6   6   0   -0.02    2.75
  -6  -6   0    3.97    2.22
  -6  -6   0    0.90    2.54
  -7  -6   0    1.78    4.27
  -7  -6   0    2.38    2.54
  -7   6   0   -2.33    2.21
  -8  -6   0   21.33    8.16
  -8   6   0   26.76   11.34
  -8  -6   0   15.96    6.86
  -9  -6   0    3.19    3.43
  -9   6   0    7.15    6.55
 -10  -6   0   21.15    8.94
 -10   6   0   15.24    9.45
 -11   6   0   -4.11    8.98
 -11  -6   0    1.75    2.77
  12  -6   0   50.34   14.74
  12  -6   0   84.78   19.67
 -12  -6   0   87.73   16.49
 -12  -6   0   78.60   17.07
 -12   6   0   73.53   19.93
  13  -6   0    5.85    3.97
 -13  -6   0    5.89    5.05
  13   6   0   -0.87    2.38
 -13  -6   0   -0.61    3.26
  13  -6   0    2.66    3.27
  14  -6   0   43.02   11.49
 -14  -6   0   41.14   11.92
  14   6   0   45.48   12.54
 -15  -6   0    2.73    2.42
  15  -6   0    5.48    5.92
  15   6   0   -1.08    3.13
  15  -6   0   -5.08    5.28
  16   6   0    1.64    4.74
 -16  -6   0    0.82    2.05
  16  -6   0   11.50    6.13
  17   6   0    1.19    1.64
  17  -6   0   -1.70    2.55
 -17  -6   0   -1.36    3.56
  17  -6   0    2.77    2.66
  18   6   0   12.54    4.73
  18  -6   0    9.93    2.84
 -18  -6   0   11.39    4.07
   0  -7   0    5.39    3.28
   0  -7   0    2.67    4.31
   0  -7   0    4.49    2.25
  -1  -7   0    0.44    2.35
   1  -7   0    1.64    2.80
  -1  -7   0    3.53    2.31
  -2  -7   0  527.18   28.17
   2  -7   0  504.69   38.09
  -2  -7   0  519.13   37.39
  -3  -7   0   -0.62    2.31
  -3  -7   0   10.17    5.78
   3  -7   0    6.91    5.63
  -3  -7   0    1.99    6.46
  -4   7   0 1791.13   51.58
  -4  -7   0 1668.23   63.89
   4  -7   0 1794.63   64.12
  -4  -7   0 1888.79   64.37
  -5  -7   0   -3.08    3.47
  -5  -7   0   -2.07    3.28
  -5  -7   0   -2.32    4.11
  -5   7   0   -2.26    2.70
   5  -7   0    4.34    3.27
  -6   7   0 2562.04   75.24
  -6  -7   0 2483.38   86.86
  -6  -7   0 2555.18   92.13
  -7   7   0   -0.79    2.53
  -7  -7   0   -0.21    5.79
  -7  -7   0   -1.91    4.28
  -8  -7   0 1520.70   74.12
  -8  -7   0 1670.64   68.68
  -9  -7   0    6.27    6.23
  -9   7   0   -1.86    5.80
 -10   7   0  277.94   37.93
 -10  -7   0  367.07   35.91
 -11  -7   0    1.69    4.65
 -11   7   0    4.45    6.43
  12  -7   0  115.37   22.06
 -12  -7   0  115.65   19.81
 -12  -7   0  123.47   20.43
  12  -7   0   77.33   19.33
 -12  -7   0  114.86   20.07
 -12   7   0  101.54   23.33
 -13  -7   0    0.46    3.67
 -13  -7   0    0.61    2.55
  13  -7   0    4.72    2.77
  14  -7   0  272.52   31.57
 -14  -7   0  302.52   31.12
  14  -7   0  298.39   32.96
 -14  -7   0  318.89   30.76
  15  -7   0    6.41    6.02
 -15  -7   0   -1.96    2.78
 -15  -7   0    6.52    4.76
  15  -7   0   -1.01    4.24
 -16  -7   0  493.41   35.04
  16  -7   0  437.69   34.69
  17  -7   0   -4.36    2.06
 -17  -7   0   -1.25    2.49
  18  -7   0  343.09   22.65
   0  -8   0 2020.08   49.16
   0  -8   0 1699.32   80.49
   1  -8   0    9.10    7.88
  -1  -8   0    7.90    7.12
  -1  -8   0    2.69    2.85
   1  -8   0    2.62    2.65
  -2  -8   0  596.28   43.88
   2  -8   0  594.90   46.15
  -2  -8   0  631.57   32.59
  -3  -8   0    2.22    3.28
   3  -8   0   -1.50    3.70
  -3  -8   0   -0.81    3.55
  -4   8   0  135.83   14.99
  -4  -8   0  130.45   18.62
   4  -8   0  136.55   19.21
  -4  -8   0  128.74   17.84
  -5   8   0   -0.01    2.83
   5  -8   0   -1.09    1.71
  -5  -8   0   -1.73    2.11
  -5  -8   0    2.71    3.12
  -6  -8   0   -1.51    3.52
  -6   8   0    0.08    3.22
  -7   8   0    2.30    5.33
  -7  -8   0   -2.54    4.37
  -8  -8   0   71.28   17.00
  -8   8   0   60.40   15.67
  -9  -8   0   -2.12    4.81
  -9   8   0    0.85    5.65
 -10   8   0  457.09   51.13
 -10  -8   0  576.11   46.45
 -11  -8   0    2.24    2.81
  11  -8   0   -2.04    4.24
 -11  -8   0    7.10    4.11
 -11   8   0    9.60    9.37
 -11  -8   0    1.72    4.58
 -12  -8   0  721.62   51.01
  12  -8   0  712.32   55.86
 -12  -8   0  757.98   51.60
  13  -8   0   -0.36    3.14
 -13  -8   0   -1.81    3.48
 -13  -8   0   -1.98    5.82
  14  -8   0  283.44   31.01
  14  -8   0  316.89   33.30
 -14  -8   0  257.13   28.18
 -14  -8   0  259.94   27.52
  15  -8   0    2.33    3.31
  15  -8   0   -1.15    2.54
 -15  -8   0    5.68    4.96
 -15  -8   0   -2.37    5.67
  16  -8   0   12.40    4.68
 -16  -8   0   14.35    5.30
  17  -8   0   -3.13    3.55
 -17  -8   0    5.48    3.10
  17  -8   0   -3.37    3.72
   0  -9   0    6.19    6.34
  -1  -9   0    0.63    6.51
   1  -9   0   -4.66    7.19
  -1  -9   0   -0.40    1.13
   2  -9   0  125.08   14.04
  -2  -9   0  101.82   20.27
   2  -9   0   90.00   19.42
  -2  -9   0  107.05   14.16
   3  -9   0   -2.31    4.11
  -3  -9   0    0.87    2.05
  -3  -9   0   -3.83    5.07
  -4   9   0  478.83   30.33
  -4  -9   0  469.35   36.95
  -4  -9   0  486.93   37.93
   4  -9   0  470.81   39.78
   5  -9   0    2.12    2.39
  -5   9   0   -0.82    1.72
  -5  -9   0   -2.11    3.79
  -5  -9   0   -1.94    2.82
  -6   9   0  628.26   41.04
  -6  -9   0  572.80   47.98
  -7  -9   0   12.54    8.83
  -7   9   0    9.01    6.56
  -8   9   0  170.79   27.27
  -8  -9   0  193.91   28.39
  -9   9   0   -8.50    8.86
  -9  -9   0   -0.49    6.02
 -10   9   0    3.17    6.90
 -10  -9   0   15.73    8.70
  10  -9   0   22.82   11.10
 -10  -9   0   14.56    8.04
 -10  -9   0    9.59    6.90
 -11  -9   0   -6.24    8.42
 -11  -9   0    2.52    3.40
  11  -9   0   -3.41    2.82
 -12  -9   0   65.10   15.00
  12  -9   0   80.56   19.38
 -12  -9   0   65.87   16.04
 -13  -9   0    4.06    4.53
  13  -9   0    2.96    4.68
 -13  -9   0   -2.55    4.99
  13  -9   0   -6.94    7.47
  14  -9   0   48.49   12.27
  14  -9   0   66.63   14.71
 -14  -9   0   64.06   14.03
 -14  -9   0   64.95   13.61
  15  -9   0    1.01    4.07
  15  -9   0    0.39    3.89
 -15  -9   0   -0.94    1.90
 -15  -9   0   -2.56    4.31
 -16  -9   0  136.28   15.45
 -16  -9   0  135.71   16.32
  16  -9   0  104.89   17.53
  16  -9   0  141.90   17.32
  17  -9   0    0.52    3.17
 -17  -9   0    2.56    2.91
  17  -9   0   -1.34    2.00
   0 -10   0 1741.25   96.67
  -1 -10   0   -0.30    7.26
   1 -10   0    3.80    6.46
  -2 -10   0  635.38   36.33
   2 -10   0  643.17   56.19
  -2 -10   0  691.54   54.56
   3 -10   0   -1.26    2.47
   3 -10   0    1.31    3.63
  -3 -10   0   -0.12    2.13
  -3 -10   0   -0.59    2.51
  -4 -10   0  504.24   40.06
  -4 -10   0  573.66   43.83
  -4  10   0  523.38   34.11
   4 -10   0  506.41   44.70
  -5 -10   0    1.06    4.51
  -5 -10   0    0.68    5.55
  -5  10   0    4.77    4.29
   5 -10   0    1.68    3.09
  -6  10   0   56.07   13.37
  -6 -10   0   45.41   14.36
  -7  10   0    5.70    4.29
  -7 -10   0    0.92    3.50
  -8 -10   0  376.23   41.90
  -8  10   0  328.16   38.36
  -9 -10   0   -2.27    3.23
  -9 -10   0   -4.86    7.09
   9 -10   0    1.45    4.07
  -9 -10   0    8.52    7.02
  -9  10   0   -3.86    4.59
 -10 -10   0 1195.65   70.62
  10 -10   0 1144.97   75.86
 -10 -10   0 1158.69   65.24
 -10  10   0  904.38   74.31
 -10 -10   0 1141.34   69.21
 -11 -10   0    1.23    2.80
 -11 -10   0   -2.72    6.07
  11 -10   0    5.58    6.98
  12 -10   0 1276.96   71.67
 -12 -10   0 1223.80   64.58
 -12 -10   0 1322.82   65.92
  12 -10   0 1210.83   70.47
 -13 -10   0    2.90    3.87
  13 -10   0    2.54    3.45
 -13 -10   0    3.19    4.69
  13 -10   0    9.07    5.65
  14 -10   0  546.55   40.62
 -14 -10   0  615.60   40.07
  14 -10   0  575.07   42.27
 -14 -10   0  551.68   38.08
  15 -10   0    2.79    4.27
 -15 -10   0   -5.19    4.99
  15 -10   0    8.13    5.60
 -15 -10   0    1.82    2.56
  16 -10   0  139.57   15.40
  16 -10   0  110.76   15.43
 -16 -10   0  141.53   15.68
 -16 -10   0  132.97   14.62
   0 -11   0    0.07    9.37
   1 -11   0    1.05    6.96
  -1 -11   0    7.21    6.81
   2 -11   0  222.47   36.25
  -2 -11   0  223.95   32.88
  -3 -11   0    2.16    5.76
   3 -11   0    8.82    9.64
  -3  11   0   -2.08    2.68
  -3 -11   0    1.40    5.36
  -4 -11   0   16.75    7.06
   4 -11   0   19.72    9.48
   4 -11   0   17.54    7.27
  -4 -11   0   14.39    6.39
  -4  11   0   14.10    6.57
  -5 -11   0    4.06    5.48
  -5  11   0   -3.70    3.97
   5 -11   0   -5.34    9.07
  -5 -11   0    4.52    2.53
   5 -11   0   -1.51    5.81
  -6 -11   0   21.58   10.78
  -6  11   0   16.16    8.35
   6 -11   0   17.45    9.01
  -7  11   0    1.38    4.53
  -7 -11   0   -2.31    6.53
   8 -11   0  136.74   27.66
  -8 -11   0  129.61   25.61
  -8 -11   0   96.29   22.21
  -8  11   0   99.67   23.01
   8 -11   0  111.01   24.64
  -8 -11   0  115.66   22.40
   9 -11   0    5.90    8.43
   9 -11   0    9.29    9.08
  -9 -11   0   -9.05    2.58
  -9 -11   0    0.55    3.18
 -10 -11   0   12.78    7.61
 -10 -11   0   17.79   11.62
  10 -11   0   17.36    9.26
  10 -11   0   23.92   11.18
  11 -11   0   -2.14    6.06
 -11 -11   0   -5.45    4.94
 -11 -11   0    0.83    3.61
  12 -11   0   -5.26    5.65
 -12 -11   0   -1.13    4.27
 -12 -11   0    4.76    4.62
  12 -11   0   -9.06    7.70
 -13 -11   0    0.92    4.60
 -13 -11   0    3.57    4.12
  13 -11   0   -4.79    5.90
  13 -11   0    1.29    2.75
 -14 -11   0    5.42    5.84
  14 -11   0    9.58    4.91
 -14 -11   0    5.10    3.47
  14 -11   0    2.49    3.57
  15 -11   0    4.57    3.91
 -15 -11   0   -2.93    2.77
 -15 -11   0    1.49    2.43
  15 -11   0    0.26    3.11
  16 -11   0   15.56    5.68
 -16 -11   0   25.27    5.55
   0 -12   0 1261.77   94.17
  -1 -12   0    1.60    4.64
   1 -12   0    6.84    6.52
  -2 -12   0 1200.02   81.67
   2 -12   0  952.61   79.88
  -3 -12   0   -3.97    5.26
  -3  12   0    0.88    2.01
   3 -12   0    4.53    5.84
  -4 -12   0  453.28   44.98
   4 -12   0  379.72   44.85
  -4  12   0  384.85   32.92
  -5  12   0    0.57    3.58
  -5 -12   0   -1.12    3.24
  -5 -12   0   -6.57    6.09
   6 -12   0   57.29   18.82
  -6  12   0   36.74   11.31
  -6 -12   0   33.64   11.76
   6 -12   0   39.23   11.59
   7 -12   0    0.48    6.16
  -7 -12   0   17.09   11.74
   7 -12   0    5.52   12.71
  -7 -12   0   17.97    9.24
  -7  12   0   -7.95    8.58
  -7 -12   0   -1.65    5.99
  -8 -12   0  228.78   31.01
  -8 -12   0  205.75   32.61
  -8 -12   0  209.73   28.24
   8 -12   0  208.29   34.63
  -9 -12   0    0.82    3.29
  -9 -12   0    1.00    5.38
   9 -12   0    5.95    4.85
   9 -12   0   -3.45    4.83
 -10 -12   0  660.18   52.87
  10 -12   0  727.32   58.46
  10 -12   0  660.07   53.34
 -10 -12   0  670.03   47.85
 -11 -12   0    3.40    5.55
 -11 -12   0   -4.36    6.63
  11 -12   0    5.79    3.26
 -12 -12   0  637.39   43.13
  12 -12   0  645.02   46.22
 -12 -12   0  648.38   42.39
 -13 -12   0    6.49    4.47
  13 -12   0   -0.66    3.21
 -13 -12   0    6.70    4.33
  14 -12   0  368.69   28.77
  14 -12   0  348.92   32.05
 -14 -12   0  415.22   28.37
 -15 -12   0   -0.85    2.48
 -15 -12   0   -1.63    2.85
  15 -12   0    0.78    2.38
   0 -13   0    7.08   13.02
  -1 -13   0    2.15    8.55
   1 -13   0   13.38   12.75
   2 -13   0  218.25   42.08
  -2 -13   0  291.87   42.62
   3 -13   0   -2.92    8.70
  -3 -13   0   -1.80    3.14
   3 -13   0    6.18    2.74
  -3 -13   0   -4.87    8.02
  -4 -13   0  309.10   33.70
  -4 -13   0  328.60   38.98
   4 -13   0  319.88   50.79
  -4 -13   0  367.64   44.60
   4 -13   0  330.45   43.64
   4 -13   0  321.32   32.60
   4 -13   0  305.89   34.18
  -5 -13   0   -6.13    8.37
  -5 -13   0    9.92    9.59
   5 -13   0   -3.25    5.17
  -5 -13   0    2.76    5.32
   5 -13   0    4.00    5.13
   6 -13   0  563.97   67.16
  -6 -13   0  543.42   48.45
  -7 -13   0   -6.86    6.38
   7 -13   0   -7.02    9.69
  -7 -13   0   10.40    9.65
  -8 -13   0  265.05   31.15
   8 -13   0  281.10   40.71
  -8 -13   0  275.82   33.96
   9 -13   0    8.59    8.44
  -9 -13   0   -3.39    5.31
  -9 -13   0    7.94    5.88
  10 -13   0   22.47    9.99
  10 -13   0   31.41   12.74
 -10 -13   0   34.15   12.06
 -10 -13   0   28.98   10.12
 -11 -13   0    0.95    2.69
  11 -13   0   -1.31    4.76
  11 -13   0   -0.19    4.28
 -11 -13   0   -0.27    2.62
 -12 -13   0   40.39    9.55
  12 -13   0   36.11   10.01
 -12 -13   0   38.91   10.45
  13 -13   0   -0.55    2.25
 -13 -13   0   -0.35    2.34
 -13 -13   0    2.73    2.17
 -14 -13   0  110.27   13.62
 -14 -13   0  123.23   13.40
   0 -14   0  202.36   34.76
   0 -14   0  204.60   43.87
   0 -14   0  187.43   33.38
   0 -14   0  220.79   26.95
   1 -14   0   -4.23   10.05
   1 -14   0  -11.26   12.51
   1 -14   0    2.72    5.78
  -1 -14   0    0.85    2.73
   1 -14   0    1.40    3.43
  -1 -14   0    8.21    4.13
  -1 -14   0    5.63    6.64
  -1 -14   0   -3.39    8.93
   1 -14   0    7.01    7.36
   2 -14   0  103.32   17.55
  -2 -14   0   75.21   22.88
  -2 -14   0   97.36   24.33
   2 -14   0  109.93   22.99
   2 -14   0   98.45   24.38
  -2 -14   0  145.23   31.22
   2 -14   0   99.44   31.10
  -2 -14   0  120.17   20.97
   3 -14   0   -0.10    4.09
   3 -14   0    1.59    7.38
  -3 -14   0   -2.23    7.73
  -3 -14   0    6.34    8.19
  -3 -14   0    4.46    6.24
   3 -14   0    2.68    5.02
   4 -14   0   15.02    8.60
  -4 -14   0   17.51   11.48
  -4 -14   0   19.50    9.28
   4 -14   0   10.65    6.22
  -4 -14   0   13.42    9.50
  -5 -14   0    5.49    6.89
   5 -14   0   16.78   15.87
  -5 -14   0    2.32    4.73
  -5 -14   0    3.02    2.88
   5 -14   0   -0.82    6.51
   6 -14   0   65.58   15.97
   6 -14   0   98.12   29.47
  -6 -14   0   84.44   18.75
  -6 -14   0   61.06   19.12
   7 -14   0   -5.78    5.82
  -7 -14   0    4.55    6.12
  -8 -14   0   39.53   12.91
   8 -14   0   49.25   16.40
  -8 -14   0   43.70   13.22
   9 -14   0    0.51    3.25
  -9 -14   0   -3.59    7.53
 -10 -14   0   95.49   16.47
 -10 -14   0  105.59   19.72
  10 -14   0   79.10   17.19
 -11 -14   0    2.82    3.38
  11 -14   0   -2.86    5.84
  11 -14   0   -3.09    4.66
 -11 -14   0   -0.54    2.35
  12 -14   0  143.81   18.53
 -12 -14   0  183.11   18.78
  12 -14   0  140.74   20.63
 -12 -14   0  196.48   19.94
  13 -14   0    3.16    2.39
 -13 -14   0   -1.86    3.37
 -13 -14   0    7.14    4.55
 -13 -14   0    1.08    2.66
   0 -15   0   -1.07    4.37
   0 -15   0   -1.94    7.18
   0 -15   0   12.35   10.41
  -1 -15   0   -3.81    3.90
  -1 -15   0   -1.48    8.66
   1 -15   0    3.00    4.24
   1 -15   0   -5.68    7.90
  -1 -15   0   -3.31    7.67
   1 -15   0    3.32    4.43
   1 -15   0    5.25    4.34
   2 -15   0  271.65   38.64
  -2 -15   0  314.59   33.91
   2 -15   0  273.47   29.42
  -2 -15   0  256.56   42.08
   2 -15   0  305.39   38.77
  -2 -15   0  215.19   37.43
   3 -15   0   -3.26    4.62
   3 -15   0   -2.23    5.58
  -3 -15   0    2.35    6.58
   3 -15   0   -4.28    7.83
  -3 -15   0    1.04    3.81
  -3 -15   0    3.74    4.36
   4 -15   0  445.75   60.81
  -4 -15   0  533.79   54.18
   4 -15   0  429.56   42.64
  -4 -15   0  499.36   52.10
  -4 -15   0  433.06   44.82
  -5 -15   0    8.75    7.66
  -5 -15   0    0.30    5.08
  -5 -15   0    3.26    2.82
   5 -15   0    0.82    6.14
   5 -15   0    0.95    9.52
   6 -15   0  511.84   47.12
   6 -15   0  679.68   75.72
  -6 -15   0  610.12   49.09
   7 -15   0   -1.34    4.94
  -7 -15   0   -0.86    4.93
  -7 -15   0    4.82    5.91
  -8 -15   0  216.23   34.32
   8 -15   0  404.68   47.79
  -9 -15   0    6.16    4.79
   9 -15   0   -3.45    5.86
  -9 -15   0  -11.63    7.21
 -10 -15   0  196.63   21.42
 -10 -15   0  240.74   28.16
  10 -15   0  183.49   24.32
 -11 -15   0   -5.57    4.61
 -11 -15   0   -6.37    4.26
  11 -15   0   -2.79    3.18
 -12 -15   0    4.01    3.43
 -12 -15   0   -3.42    3.12
   0 -16   0   17.35   11.10
   0 -16   0    6.58    5.01
  -1 -16   0    2.35    2.54
   1 -16   0    1.07    2.93
   1 -16   0   -0.77    6.17
  -1 -16   0    0.38    3.50
   1 -16   0   -1.96    3.56
  -1 -16   0   12.32    9.32
  -2 -16   0    8.11    4.33
  -2 -16   0   12.17    8.28
   2 -16   0    7.96    7.60
   2 -16   0   11.49    8.55
  -2 -16   0   16.30    7.65
   3 -16   0    6.16    5.28
  -3 -16   0   10.25    9.03
   3 -16   0    7.95    8.47
  -3 -16   0   -6.60    9.61
  -3 -16   0    1.80    3.47
   4 -16   0   24.88   14.28
  -4 -16   0   28.07   12.05
  -4 -16   0   19.43    9.55
   4 -16   0   20.00   10.38
  -4 -16   0   36.90   14.29
   5 -16   0    6.34    4.97
   5 -16   0   18.19   17.22
  -5 -16   0    4.48    6.89
  -5 -16   0    0.32    3.54
  -5 -16   0    2.17    3.49
   6 -16   0  -13.47   11.78
   6 -16   0    9.42    5.90
  -6 -16   0   -3.09    5.74
   7 -16   0    5.89    7.98
  -7 -16   0   -6.14    8.06
   8 -16   0   -7.09    9.10
  -8 -16   0    4.51    3.10
  -9 -16   0   -0.06    4.98
   9 -16   0   -4.10    3.52
  10 -16   0   -1.60    3.77
 -10 -16   0    4.84    4.23
 -10 -16   0    5.53    2.81
 -11 -16   0   -3.23    3.52
   0 -17   0   13.18   13.70
   0 -17   0   -1.17    4.59
   1 -17   0   -1.23    4.72
  -1 -17   0  -10.77   11.73
   1 -17   0    2.58   10.89
  -1 -17   0   -0.87    4.26
  -2 -17   0  119.44   20.84
   2 -17   0  121.87   25.62
  -2 -17   0   89.52   23.83
   2 -17   0  105.57   22.49
  -3 -17   0    7.73    9.80
  -3 -17   0   -4.23    4.20
   3 -17   0   -4.74    9.52
   3 -17   0   -0.15    4.10
   4 -17   0  463.34   58.25
  -4 -17   0  366.76   42.03
   4 -17   0  416.97   41.71
   5 -17   0    0.39    7.12
  -5 -17   0   -1.52    5.01
  -5 -17   0    2.33    5.75
   5 -17   0   -4.37   12.98
  -6 -17   0  245.61   34.81
   6 -17   0  451.85   39.29
   7 -17   0   14.59   10.12
  -7 -17   0   -2.54    6.05
   8 -17   0  322.77   38.19
  -8 -17   0  312.49   32.80
   9 -17   0   -9.26    5.42
  -9 -17   0    2.22    2.51
   0 -18   0  175.55   36.81
  -1 -18   0    3.65    2.71
  -1 -18   0    6.49   11.20
   1 -18   0   12.79   15.53
   2 -18   0  102.07   19.83
  -2 -18   0   84.47   17.59
   2 -18   0  101.69   25.23
  -2 -18   0  131.08   29.87
  -3 -18   0    1.83    4.28
  -3 -18   0   -3.52    5.53
   3 -18   0    6.28    6.41
   3 -18   0    4.97    6.01
   4 -18   0   18.86    9.61
  -4 -18   0    4.08    4.37
  -4 -18   0   34.36   11.32
   4 -18   0   19.18   12.78
  -5 -18   0   -0.11    3.31
   5 -18   0   -2.81   10.44
   5 -18   0   -4.30    8.20
  -5 -18   0   -0.56    4.51
  -6 -18   0   29.58   10.69
   6 -18   0   23.87   12.42
   7 -18   0   -5.30    7.46
  -7 -18   0   -0.31    1.68
   0 -19   0   13.21   11.31
   1 -19   0   13.40   13.81
  -1 -19   0    0.87   10.18
   2 -19   0   23.63   20.08
  -2 -19   0   22.55   13.56
   3 -19   0   -6.61    9.87
  -3 -19   0    2.93    5.68
  -4 -19   0   39.31   11.76
   1   0  -1   10.31    2.96
  -1   0  -1    5.25    1.84
  -2   0  -1 1234.43   40.56
   2   0  -1 1039.14   48.36
   3   0  -1    3.50    5.03
   3   0   1    4.49    5.25
   4   0   1 4420.07  115.93
   4   0  -1 4202.06  164.10
   5   0   1    1.91   14.43
  -5   0   1    9.21    5.05
  -5   0   1    1.30    3.30
   5   0  -1   -1.05    6.91
  -5   0   1    4.21    4.13
   5   0   1    4.06    4.16
  -5   0  -1    6.93    2.89
  -6   0  -1 2218.29   73.63
  -6   0   1 1860.10   69.48
  -6   0  -1 2023.39   55.24
  -6   0   1 1772.05   58.61
  -6   0   1 1948.42   61.06
   6   0   1 2249.51   72.50
  -7   0  -1   -3.04    3.73
   7   0   1    2.19    3.36
  -7   0   1    2.16    2.76
  -7   0   1    0.85    2.14
  -7   0   1    0.61    2.05
  -7   0  -1   -0.37    3.13
  -8   0  -1 1986.91   68.28
  -8   0   1 1844.27   62.65
  -8   0   1 1918.21   65.48
  -8   0   1 2006.19   71.13
   8   0   1 2087.28   66.25
  -9   0  -1    1.91    1.96
  -9   0   1    0.34    2.92
  -9   0   1   -1.83    1.53
  -9   0   1    0.78    3.49
  -9   0  -1    1.62    1.90
 -10   0   1  344.87   30.05
 -10   0  -1  339.71   28.85
 -10   0  -1  306.39   28.01
 -10   0   1  361.79   29.45
 -11   0   1    1.31    3.53
 -11   0  -1   -0.17    3.76
 -11   0   1   -1.11    1.91
 -12   0  -1   -5.06    3.99
 -12   0   1    0.50    2.79
 -13   0   1   -0.87    3.90
 -13   0  -1    3.29    2.68
 -14   0  -1   53.25   15.76
  14   0  -1   62.69   14.95
 -14   0  -1   52.40   12.70
 -14   0   1   38.00   10.86
 -14   0   1   48.05   12.87
  14   0   1   49.75   13.72
 -15   0   1   -1.87    3.52
  15   0  -1    3.07    5.25
  15   0   1   -4.03    5.81
  15   0  -1   -7.64    8.03
 -16   0   1  224.58   25.99
  16   0   1  283.48   29.45
  16   0  -1  244.56   28.25
  17   0   1   -0.28    4.02
  17   0  -1    9.75    5.83
  18   0   1  257.96   23.47
  18   0  -1  289.30   24.95
  19   0  -1   -0.41    2.17
  19   0   1    0.15    1.55
   0  -1  -1  433.47   20.54
   0   1  -1  441.47   19.01
   1  -1   1 3502.18   63.16
  -1   1  -1 3240.84   67.83
  -1  -1   1 3389.67   66.37
  -1   1   1 4560.93   69.06
   1  -1  -1 4728.94   73.84
   1   1   1 3835.59   59.83
  -1  -1  -1 3701.83   56.50
   1  -1  -1 4158.79   64.87
   2   1   1   15.83    6.04
   2  -1  -1   11.50    5.41
   2  -1   1   13.36    6.09
  -2  -1  -1   11.36    3.91
  -2  -1  -1    8.95    4.63
  -2  -1   1   10.13    9.66
  -2   1  -1   10.75    6.81
   3  -1  -1 1863.61   75.27
  -3  -1   1 1326.76  146.20
  -3  -1  -1 1572.46  139.47
   3  -1   1 1717.55  101.06
   3   1   1 1963.92   77.99
   3  -1   1 1962.81   41.31
   3   1  -1 2187.28  143.25
   4  -1  -1  308.09   38.57
   4  -1   1  362.84   56.13
   4  -1   1  388.97   25.94
   4   1   1  351.84   38.08
   4   1  -1  384.97   60.58
  -5  -1   1  222.68   24.19
   5  -1  -1  131.21   29.42
  -5   1   1  114.50   14.83
  -5  -1   1  131.69   15.65
  -5   1  -1  124.20   17.79
  -5  -1  -1  198.25   21.02
  -5  -1   1  129.25   14.95
   5   1  -1  182.86   41.80
   5  -1   1  156.28   19.83
   5  -1   1  124.52   16.32
   5  -1   1  136.76   36.29
  -6  -1   1   15.83    7.57
   6   1   1    7.73    3.82
  -6   1  -1   14.87    6.81
  -6  -1  -1   12.50    5.36
  -6  -1   1    9.77    4.98
  -6  -1   1   11.73    4.66
  -6   1   1    2.03    3.41
  -6   1   1    4.78    3.26
   6  -1   1    3.31    2.15
  -6  -1  -1    8.17    2.81
  -7  -1   1  139.58   17.56
  -7  -1  -1  110.29   15.72
  -7  -1   1  115.68   15.66
  -7  -1   1  120.71   16.03
   7  -1   1  105.65   15.95
  -7   1   1  100.15   14.28
   7   1   1  109.98   14.90
  -7   1  -1   85.77   15.45
  -7   1   1   75.48   14.96
  -7  -1  -1  129.46   15.27
  -8  -1  -1    2.66    2.58
  -8   1   1   -2.82    5.38
  -8  -1  -1    2.83    2.03
  -8  -1   1    1.28    2.89
  -8   1  -1   -1.26    4.12
  -8  -1   1    5.00    3.19
   8  -1   1    4.89    3.08
  -8  -1  -1    7.93    5.45
  -8   1   1    4.55    4.86
   8   1   1   -0.57    2.51
  -8  -1   1   -0.21    3.29
  -8   1   1    1.39    3.57
  -9   1   1 1270.99   62.80
  -9  -1  -1 1193.32   52.08
   9  -1   1 1415.06   58.61
  -9  -1  -1 1435.64   55.58
  -9   1  -1 1242.06   58.27
  -9  -1   1 1216.28   52.86
  -9  -1   1 1248.90   52.69
  -9  -1   1 1255.03   55.41
  -9   1   1 1228.16   52.35
 -10   1   1   42.16    9.71
 -10  -1   1   31.74    8.34
 -10   1   1   34.98    9.93
 -10  -1  -1   27.60    7.58
 -10  -1   1   33.07    8.72
 -10   1  -1   36.20    9.85
 -10   1  -1   37.67   10.88
 -10  -1   1   39.45    9.69
 -11   1   1 1085.79   58.21
 -11   1  -1  928.66   50.71
 -11   1  -1  996.71   53.20
 -11   1   1  999.09   50.49
 -11  -1   1 1003.94   51.72
 -11  -1  -1  991.11   51.18
 -12  -1  -1   47.08   10.70
 -12   1   1   51.94   12.34
 -12  -1   1   52.42   12.69
 -12   1   1   49.12   11.37
 -12   1  -1   57.31   12.98
 -13  -1   1  620.02   43.74
 -13   1   1  633.10   43.49
 -13   1  -1  581.02   42.25
 -13  -1  -1  626.02   43.73
 -14   1  -1   14.23    6.11
 -14   1   1   15.76    7.54
  14   1  -1    7.87    6.14
 -14  -1  -1   20.07    7.70
  14  -1   1   29.68   10.92
 -14  -1   1    9.32    6.64
 -14   1  -1   15.81    7.22
  14  -1  -1   18.41    8.72
  14  -1   1   15.30    7.51
 -14  -1   1   16.71    7.24
  14   1   1   21.29   10.23
  14   1  -1   10.43    6.35
 -14   1   1   12.94    6.96
 -14  -1  -1    8.28    3.37
  15  -1  -1  330.33   35.37
 -15  -1   1  352.34   33.70
  15  -1   1  371.27   35.10
 -15   1   1  342.92   33.23
  15   1  -1  347.94   34.57
  15   1   1  327.29   35.53
  15  -1   1  336.13   35.75
  15  -1  -1  371.72   34.84
  15   1  -1  406.89   37.98
  16  -1  -1   10.46    5.20
  16   1  -1   10.03    8.54
  16   1   1    4.97    5.58
  16  -1   1   14.56    7.64
  16  -1   1    9.30    5.63
 -16  -1   1   10.79    6.31
 -16   1   1   15.87    7.67
  17  -1   1   -1.74    4.95
  17   1  -1    7.12    6.93
  17  -1  -1    2.56    3.17
  17   1   1    2.92    5.76
  18   1   1   12.21    6.21
  18  -1   1    7.05    3.94
  18   1  -1    5.94    6.02
  18  -1  -1    3.05    3.30
  19  -1   1  178.32   16.39
  19  -1  -1  191.04   16.73
  19   1   1  190.47   17.34
  19   1  -1  190.30   16.94
   0   2  -1    1.56    1.03
   0  -2  -1    0.50    1.43
   0   2  -1    0.45    2.34
   1   2   1    2.47    0.84
  -1  -2  -1    6.99    4.20
  -1  -2   1    4.11    2.54
   1  -2  -1    3.74    2.61
   1   2   1    8.97    3.99
  -1   2   1    5.88    2.78
  -1   2  -1    5.36    2.90
   1  -2  -1    5.09    3.36
  -1   2  -1    4.38    2.51
   1  -2   1    7.35    3.33
   2  -2  -1 1022.27   46.03
  -2   2   1 1153.92   41.41
  -2  -2   1  902.09   48.06
  -2   2  -1  994.53   48.34
   2  -2  -1 1022.60   37.81
  -2  -2  -1 1023.67   45.04
   2   2   1 1041.05   47.98
  -2  -2  -1 1075.73   55.59
   2  -2   1 1065.93   46.38
  -3   2  -1   73.48   16.84
   3  -2  -1   75.88   11.43
   3   2   1   68.33   16.81
  -3  -2   1   62.56   17.77
  -3  -2  -1   64.04   15.60
   3  -2   1   80.98   17.02
  -4   2  -1  187.96   16.58
   4  -2  -1  215.42   22.93
   4  -2   1  169.29   30.77
   4  -2  -1  187.41   28.64
  -4   2  -1  134.65   28.54
  -4  -2  -1  155.41   33.08
  -4  -2   1  103.80   30.97
  -4  -2   1  191.69   16.86
  -5  -2  -1   63.36    9.99
  -5  -2  -1   65.76   12.25
   5  -2  -1   56.95   19.37
  -5  -2   1   51.65   27.65
  -5  -2  -1   68.99   29.63
  -5   2   1   72.49   10.70
   5   2  -1   50.58   25.99
   5   2   1   81.21   21.74
  -5  -2   1   83.51   12.58
  -5  -2   1   68.39   13.39
  -5   2   1   77.91   22.78
  -5   2  -1   66.35   11.66
   5  -2   1   72.25   10.97
   5  -2   1   63.97   21.93
   5  -2  -1   68.16   15.83
   6  -2   1 1944.55   66.38
  -6  -2  -1 1896.07   58.69
  -6   2   1 1829.02   65.12
  -6  -2   1 2109.32   66.30
   6  -2  -1 2062.54   54.32
  -6  -2   1 2084.38   71.65
   6   2   1 2243.25  126.15
  -7  -2  -1  510.59   31.80
  -7   2   1  513.56   32.50
   7  -2   1  533.55   37.09
  -7  -2   1  539.64   33.99
  -7  -2   1  569.42   35.40
  -7   2  -1  452.02   38.05
  -7  -2  -1  566.65   34.75
  -7   2   1  497.02   38.64
  -8  -2   1  468.66   32.82
  -8   2  -1  429.11   37.15
  -8  -2   1  498.64   33.78
   8   2   1  333.36   25.58
  -8  -2  -1  500.84   32.93
  -8   2   1  397.44   38.25
   8  -2   1  509.29   37.34
  -8  -2  -1  475.87   31.70
  -9  -2   1  238.87   24.21
   9  -2   1  244.46   25.76
  -9  -2  -1  235.68   23.75
  -9  -2   1  230.34   24.04
  -9  -2  -1  225.35   22.90
  -9   2   1  214.24   30.79
  -9   2   1  220.20   22.86
  -9   2  -1  221.98   27.30
 -10   2   1  123.67   17.35
 -10  -2  -1  127.84   17.80
 -10  -2   1  132.33   18.36
 -10  -2   1  140.51   19.03
 -10   2   1  106.94   20.74
 -10   2  -1  117.87   19.82
 -10  -2  -1  142.80   18.51
 -11   2   1   -1.30    3.77
 -11   2   1   -5.12    5.93
 -11  -2   1    2.60    3.55
 -11   2  -1    3.64    4.06
 -11   2  -1   -4.36    5.39
 -11  -2   1    1.60    3.98
 -11  -2  -1   -2.10    4.02
 -12   2  -1   34.20   11.33
 -12   2   1   32.15   10.37
 -12   2   1   25.52    8.09
 -12   2  -1   26.85    9.47
 -12  -2   1   25.36    9.15
 -12  -2  -1   35.07   10.05
 -13  -2  -1  134.79   19.92
 -13   2  -1  127.12   19.92
 -13   2   1  159.46   21.40
 -13   2   1  157.40   23.45
 -13  -2   1  110.15   18.24
 -14   2   1   34.46    9.37
  14   2   1   33.23   11.70
 -14  -2  -1   45.50   11.86
 -14  -2   1   45.74   11.64
 -14  -2  -1   36.59   10.46
  14  -2  -1   50.93   13.63
 -14   2  -1   38.97   10.57
 -14  -2   1   36.77   10.68
  14  -2   1   45.04   14.39
  14   2  -1   38.37   12.45
  14  -2   1   51.45   13.99
  15   2  -1  156.22   23.47
  15   2   1  127.27   22.53
  15  -2  -1  150.91   22.85
  15  -2  -1  170.83   23.92
  15  -2   1  151.93   22.68
  15  -2   1  145.84   22.36
 -15  -2   1  128.88   20.33
  15  -2  -1  105.89   21.58
  16   2  -1  156.61   22.61
  16  -2   1  158.79   21.59
  16  -2  -1  168.95   22.47
  16  -2  -1  170.16   22.59
  16  -2   1  164.89   22.87
  16   2   1  128.97   20.81
 -16  -2   1  148.51   21.67
  17   2   1  217.14   24.37
  17  -2  -1  276.34   25.46
  17  -2   1  248.33   24.61
  17  -2  -1  233.05   24.96
  17  -2   1  242.87   24.87
  17   2  -1  227.50   25.20
  18  -2   1  215.44   20.44
  18  -2   1  191.83   18.61
  18   2  -1  247.33   23.17
  18   2   1  249.44   23.41
  18  -2  -1  243.11   22.41
  19  -2   1  111.66   12.50
  19   2  -1   97.43   12.15
  19   2   1   85.44   11.42
  19  -2  -1  117.98   12.83
   0   3  -1 4288.36   76.47
   0   3   1 4374.14  100.63
   0  -3  -1 4590.09  109.40
   0   3  -1 4280.02  117.45
   0   3  -1 4596.12   90.83
   0  -3  -1 4423.55   73.58
   1   3  -1 2177.37  105.68
   1   3  -1 2181.75   64.71
  -1  -3  -1 2131.18   81.91
   1   3   1 2128.08   49.97
   1  -3   1 2130.97   58.97
  -1   3   1 2246.92   65.35
   1   3   1 2351.10   68.52
  -1   3  -1 2175.40   62.48
  -2  -3   1  227.86   25.15
   2  -3   1  240.95   23.31
  -2   3   1  240.77   20.51
   2  -3  -1  195.29   20.12
   2   3   1  256.87   25.83
  -2   3  -1  262.81   15.99
  -2  -3  -1  216.78   29.18
   2  -3  -1  246.64   25.11
  -2   3  -1  248.73   25.05
   3  -3  -1   26.93    7.50
  -3  -3   1   22.43    9.14
   3  -3  -1   21.80    7.96
  -3  -3  -1   32.62   10.31
  -3   3  -1   35.50   11.44
  -3  -3  -1   13.30    8.42
   3   3   1   25.18    9.66
  -4  -3   1   33.85    8.83
  -4   3  -1   21.90    9.71
  -4   3  -1   27.38    6.02
   4   3  -1   23.61   15.64
  -4  -3  -1   21.45    6.55
   4  -3  -1   28.37   10.47
  -4  -3  -1   40.48    8.06
   4   3   1   29.43   12.41
  -4  -3  -1   19.64   10.79
  -4   3   1   26.19   11.48
   4  -3   1   31.08    6.06
  -4  -3   1   20.10    7.52
  -4  -3   1   17.63    6.35
  -4  -3  -1   23.09    6.27
  -4   3   1   35.46    6.10
   4  -3  -1   31.78    8.65
   4  -3   1   18.40    9.26
  -5  -3  -1   32.07    7.44
  -5   3   1   33.19    6.80
   5  -3  -1   34.62    6.29
  -5  -3  -1   38.70    9.47
  -5  -3  -1   27.35   15.05
   5  -3   1   33.40    7.80
  -5  -3  -1   42.64    8.58
  -5  -3   1   35.14    7.50
  -5   3  -1   33.85    7.92
  -5  -3   1   48.61   10.12
   5   3   1   40.59   15.95
   5  -3  -1   37.13   10.66
   5  -3   1   43.72   16.39
   6  -3  -1    3.49    1.87
  -6   3   1    1.66    3.30
  -6  -3  -1   -1.61    3.76
  -6  -3  -1   -0.51    1.88
   6  -3   1    1.68    3.21
  -6  -3   1    4.84    4.61
  -6  -3  -1   -1.03    3.47
  -6  -3   1    5.61    2.74
  -6   3  -1   -4.69    3.09
  -7  -3   1  125.21   16.59
   7  -3  -1  109.54   15.85
  -7  -3  -1  143.02   17.52
  -7  -3  -1  139.06   18.18
  -7   3  -1  104.84   19.14
  -7  -3   1   88.35   16.09
   7  -3   1  126.46   18.14
  -7   3   1  150.39   21.02
  -7  -3  -1  130.88   14.89
  -8   3  -1   24.44   11.06
   8  -3   1   17.95    6.93
  -8  -3   1   15.19    6.56
  -8   3   1   13.78    7.49
  -8  -3  -1   19.36    7.73
  -8  -3  -1   17.02    6.39
  -8  -3   1   16.23    5.84
   8  -3  -1   19.76    7.19
  -9   3  -1 1119.46   66.24
  -9   3   1  981.52   67.75
  -9  -3  -1 1157.50   54.93
  -9  -3   1 1164.27   53.67
  -9  -3   1 1148.91   56.91
   9  -3   1 1206.65   61.11
  -9  -3  -1 1238.75   55.76
 -10   3  -1  379.20   39.11
 -10  -3   1  444.85   34.17
 -10  -3   1  384.00   32.45
 -10   3   1  385.70   43.09
 -10   3   1  366.23   30.67
 -10  -3  -1  400.82   32.77
 -10  -3  -1  403.99   33.51
 -11   3   1  442.32   43.83
 -11   3  -1  397.51   38.48
 -11  -3  -1  431.29   35.90
 -11   3   1  386.17   32.11
 -11  -3   1  451.25   36.53
 -11  -3  -1  394.56   33.21
 -11  -3   1  409.30   34.06
 -12  -3  -1  393.66   34.03
 -12   3   1  405.61   34.18
 -12  -3   1  417.60   35.49
 -12  -3   1  395.51   35.13
 -12   3   1  473.53   43.97
 -12   3  -1  431.78   39.27
 -12   3  -1  318.76   31.51
 -13  -3   1  362.70   34.44
 -13   3  -1  306.43   30.75
  13  -3   1  320.61   33.96
  13   3  -1  310.32   34.08
 -13  -3  -1  375.42   34.43
 -13   3  -1  304.02   32.95
  13  -3  -1  316.58   35.40
 -13  -3  -1  367.36   35.96
  13  -3   1  246.98   33.32
 -13   3   1  323.14   35.40
  13   3   1  329.19   34.55
 -13  -3   1  339.48   34.28
 -13   3   1  330.23   31.12
  14   3   1  248.61   30.56
  14  -3   1  265.63   29.64
 -14  -3  -1  218.13   29.22
  14   3  -1  224.28   29.04
  14  -3   1  261.59   31.23
  14  -3  -1  238.17   30.70
  14  -3  -1  261.34   30.87
 -14  -3   1  251.85   29.16
  14  -3   1  258.79   30.71
  15  -3   1  339.19   33.12
  15  -3  -1  340.31   34.60
 -15  -3   1  341.13   34.03
  15   3   1  331.96   34.31
  15  -3   1  272.04   30.84
  15  -3  -1  360.15   34.00
  15  -3  -1  295.83   35.10
  15   3  -1  364.48   35.71
  16  -3   1  109.34   18.57
  16   3   1   98.44   17.30
  16  -3   1   98.81   16.81
  16   3  -1   87.04   17.67
  16  -3  -1  111.07   18.37
  16  -3  -1   84.31   16.07
  17  -3   1    5.13    2.49
  17   3   1   12.74    6.80
  17   3  -1   13.24    3.63
  17  -3  -1    3.39    3.04
  17  -3   1    5.79    3.41
  17  -3  -1   20.68    8.18
  18  -3  -1    0.04    3.30
  18  -3   1   -3.01    4.00
  18   3   1   -0.14    2.85
  18  -3   1    5.74    3.00
  18   3  -1   -4.06    4.39
  18  -3  -1   -3.16    3.14
  19   3  -1  116.35   12.86
  19   3   1  109.48   12.21
   0   4  -1   -0.24    2.01
   0   4   1    0.74    2.76
   0   4   1   -3.37    3.42
   0  -4  -1   -0.66    4.87
   0   4  -1    6.53    4.59
   0   4  -1   -0.94    1.99
   0  -4  -1   -0.01    2.01
   1  -4  -1  646.79   46.01
   1   4   1  691.90   41.86
  -1   4   1  696.91   41.93
   1   4  -1  612.75   38.46
  -1   4   1  668.29   41.36
  -1  -4  -1  624.92   51.48
   1   4  -1  648.00   60.23
   1   4   1  618.04   32.52
  -1   4  -1  698.12   39.69
  -2   4   1   80.48   13.28
  -2   4  -1   75.77   15.04
  -2  -4  -1   70.00   18.52
   2   4   1   59.25   10.35
  -2   4   1   72.53   14.97
  -2  -4  -1   73.87   12.49
  -2   4  -1   63.01   10.60
   2  -4   1   81.96   14.60
   2   4  -1   57.20   18.79
   2   4   1   70.26   14.78
   2  -4  -1   61.89   13.24
  -2  -4  -1   85.81   11.34
  -3   4  -1 1203.03   34.68
   3   4  -1 1059.81   69.75
  -3   4  -1 1093.15   65.89
   3  -4   1 1054.16   58.57
  -3  -4  -1 1270.82   49.59
  -3   4  -1 1135.19   32.17
  -3  -4   1 1014.17   65.35
  -3  -4  -1  967.65   42.20
   3  -4  -1 1084.62   61.43
  -3  -4   1 1108.21   39.67
  -3   4   1 1115.17   49.62
   3  -4  -1 1121.35   30.36
  -3  -4  -1 1027.20   36.45
   3   4   1 1239.02   72.12
   3   4  -1 1055.51   96.42
  -3  -4   1  915.74   39.72
  -3   4   1 1170.86   67.91
   4  -4  -1    9.24    2.94
  -4  -4  -1   14.38    5.29
  -4  -4   1    9.89    4.12
   4  -4   1   12.14    7.41
  -4  -4  -1    7.38    2.59
  -4  -4   1   10.33    4.60
  -4  -4  -1    7.02    6.43
  -4   4  -1    7.79    8.16
   4   4   1   13.66    7.57
  -4   4   1    9.34    3.36
  -4  -4  -1   10.85    4.84
  -4  -4  -1    9.29    4.87
  -4   4  -1   14.60    4.23
   5  -4   1 2125.78   60.29
  -5  -4  -1 2185.98   66.77
  -5  -4  -1 1779.00   59.46
  -5  -4   1 1911.91   58.14
   5  -4  -1 2152.84   52.23
  -5   4  -1 2195.80   61.68
  -5  -4  -1 1637.19   60.25
  -5  -4   1 2252.16   71.77
  -5   4   1 2267.51   57.58
  -6  -4   1  202.21   21.80
   6  -4   1  178.19   20.02
  -6  -4  -1  188.75   20.53
  -6  -4   1  135.37   18.94
  -6  -4  -1  138.67   19.65
  -6  -4   1  180.15   18.20
  -6   4   1  186.96   18.72
  -6   4  -1  180.26   21.58
   6  -4  -1  181.96   17.44
  -6  -4  -1  210.60   20.72
  -7  -4  -1 2135.62   77.92
  -7  -4   1 2214.70   63.60
  -7  -4  -1 2267.68   75.20
  -7  -4   1 1658.77   70.57
   7  -4  -1 1872.13   63.54
  -7   4  -1 2041.60   83.27
  -7   4   1 2098.46   78.11
  -7  -4   1 2259.58   74.06
   7  -4   1 2183.54   77.87
  -7  -4  -1 2538.26   71.17
  -8  -4  -1  140.43   19.22
   8  -4   1  120.47   20.15
  -8  -4   1   92.79   18.96
  -8  -4   1  135.95   18.72
  -8  -4  -1  136.21   16.24
  -8  -4  -1  143.99   19.62
  -8   4   1  111.58   20.86
  -8   4  -1   88.62   18.38
  -9  -4  -1  725.33   44.60
  -9  -4  -1  734.19   45.27
  -9   4  -1  552.89   50.77
  -9  -4   1  686.72   42.37
  -9  -4   1  733.08   47.88
  -9   4   1  502.88   51.77
 -10  -4   1    3.62    3.06
 -10   4   1  -10.97    9.38
 -10  -4  -1    1.45    2.55
 -10   4  -1   15.26    9.43
 -10  -4   1   -3.96    6.42
 -10  -4  -1   11.86    7.35
 -11  -4  -1    5.86    5.97
 -11   4   1   -7.60    9.61
 -11  -4   1    7.48    4.88
 -11   4  -1    1.98    6.87
 -11  -4   1    7.16    2.09
 -11  -4  -1    2.95    3.40
 -11   4   1    5.36    6.71
 -12  -4   1    9.30    4.73
 -12  -4  -1    3.94    4.16
 -12  -4   1    1.53    3.10
 -12   4  -1    7.21    5.72
 -12  -4  -1   12.26    5.12
 -12   4   1    4.87    3.99
 -12   4  -1    5.04    3.12
 -13  -4   1   82.39   17.25
  13  -4  -1   98.96   19.87
  13  -4   1   59.95   16.95
 -13  -4   1   97.56   17.66
  13   4   1   99.44   19.08
 -13   4  -1   97.29   18.52
 -13  -4  -1  103.88   18.65
  13   4  -1  113.17   20.31
 -13   4  -1   79.98   16.15
  13  -4  -1   75.62   17.70
 -13   4   1   97.18   21.04
 -13  -4  -1  104.19   18.48
  13  -4   1  110.33   19.76
  14  -4   1   21.26    8.72
  14  -4   1   11.18    5.06
 -14  -4   1   20.84    9.76
  14  -4  -1   17.55    6.83
  14  -4  -1   22.23    9.48
  14   4  -1   16.88    7.49
  14  -4  -1   11.66    7.72
  14   4   1   21.19    7.24
 -14  -4  -1   25.29    9.34
  15  -4  -1  325.07   31.40
  15  -4  -1  269.34   29.94
  15  -4   1  183.59   28.60
 -15  -4  -1  259.24   28.39
 -15  -4   1  260.11   29.94
  15   4  -1  278.12   32.36
  15  -4  -1  248.79   30.84
  15  -4  -1  289.44   31.40
  15   4   1  270.32   29.72
  16  -4  -1   51.47   11.53
  16   4   1   44.99   11.84
  16  -4  -1   40.54   10.38
  16  -4   1   45.98   12.27
 -16  -4  -1   40.65   10.39
 -16  -4   1   43.10   11.76
  16   4  -1   52.90   13.07
  17   4   1  594.16   39.14
  17  -4  -1  594.85   37.79
  17   4  -1  565.05   38.20
 -17  -4   1  553.83   35.24
  17  -4  -1  515.89   34.69
  17  -4   1  688.17   40.38
  18  -4  -1   39.98    8.36
  18   4  -1   47.41    9.74
  18  -4   1   39.58    8.09
  18   4   1   55.19   10.86
   0  -5  -1 6879.89   87.44
   0   5   1 6944.35  149.55
   0  -5   1 6320.90  113.70
   0   5  -1 6833.68  132.50
   0  -5  -1 6361.61  119.61
   0   5   1 6772.74  162.58
   0  -5  -1 7212.38   75.16
   0   5  -1 6659.67  173.69
   0  -5  -1 6394.99  179.16
   1   5  -1  840.36   45.88
   1   5  -1  815.41   70.93
  -1  -5  -1  898.13   29.21
   1  -5   1  820.15   49.93
   1   5   1  895.78   54.27
   1  -5  -1  957.25   45.82
  -1  -5  -1  857.34   42.40
  -1   5  -1  915.72   51.65
  -1  -5  -1  767.49   65.23
  -1   5   1  892.61   54.39
   1   5  -1  803.77   48.90
   1   5  -1  902.65   55.91
   1  -5  -1  802.46   60.96
  -1  -5   1  782.31   39.44
  -1  -5  -1  909.04   35.49
  -1   5   1  900.35   54.18
   1  -5   1  834.13   41.14
   2   5   1  995.97   61.00
   2   5  -1  997.58   63.09
   2   5  -1  843.95   51.60
  -2   5   1  928.76   51.75
   2  -5  -1 1029.14   45.56
  -2  -5  -1  935.80   33.09
   2  -5   1  931.45   56.44
  -2  -5  -1  898.76   75.22
   2   5  -1  895.60   85.58
   2  -5  -1  892.51   63.22
   2  -5  -1  974.44   54.94
   2  -5   1  933.96   54.18
  -2   5   1  964.20   59.59
  -2   5  -1  960.30   58.73
  -2  -5   1  810.32   33.07
  -2   5  -1  972.48   47.81
  -2  -5  -1  946.76   41.89
   2   5   1  814.40   44.06
  -2  -5   1  942.25   41.53
   2  -5   1  965.30   42.36
  -3  -5   1  428.89   27.30
   3  -5   1  385.51   37.26
  -3  -5  -1  447.39   27.01
  -3   5  -1  436.86   26.42
  -3  -5   1  350.24   25.40
  -3   5   1  417.15   32.87
   3   5   1  370.22   31.82
  -3   5  -1  451.95   21.02
   3  -5   1  442.54   27.57
  -3   5  -1  445.72   44.06
   3  -5  -1  429.41   28.04
  -3  -5   1  468.19   27.94
  -3  -5  -1  395.38   24.11
  -4  -5  -1  117.26   14.57
   4  -5  -1  129.30   12.08
  -4   5   1  135.10   12.72
  -4  -5   1  111.32   15.60
  -4  -5   1  140.01   16.35
   4  -5   1  134.99   14.55
  -4  -5   1  138.49   14.73
   4  -5  -1  122.23   13.55
  -4   5  -1  127.15   12.79
  -4  -5  -1  123.79   15.60
  -4  -5  -1  116.24   16.42
  -4  -5  -1  136.15   14.13
  -5  -5   1   21.96    6.84
  -5  -5  -1   32.73    9.45
  -5  -5  -1   27.28    8.12
  -5  -5  -1   37.47    9.67
  -5   5  -1   35.98    8.24
  -5  -5  -1   32.93    6.61
  -5  -5   1   28.26    8.30
  -5   5   1   32.68    7.02
   5  -5  -1   39.56    7.29
  -6  -5   1    3.69    2.02
  -6  -5  -1    6.79    4.57
  -6  -5  -1   -3.05    3.13
  -6  -5  -1    2.43    4.13
   6  -5  -1    3.99    3.28
  -6   5   1    5.37    4.62
  -6  -5   1    2.69    3.27
  -6   5  -1    3.02    3.35
  -7   5  -1   22.08    8.84
   7  -5  -1   27.09    7.81
  -7  -5  -1   28.33    9.21
  -7  -5  -1   22.41    7.56
  -7   5   1   15.29    6.28
  -7  -5  -1   38.28    9.32
  -7  -5   1   31.79    8.40
  -7  -5   1   23.04    8.48
  -8  -5   1   97.38   16.73
  -8  -5  -1  112.42   15.63
  -8  -5   1   88.05   16.71
  -8  -5  -1  100.90   17.04
  -8   5  -1   94.33   19.87
  -8  -5  -1  111.25   19.57
  -8   5   1   98.13   19.23
  -9  -5  -1    7.29    5.32
  -9   5   1    1.46    8.52
  -9  -5   1   10.01    6.81
  -9  -5   1    0.19    2.39
  -9  -5  -1    1.59    3.18
  -9   5  -1   -2.86    4.71
 -10  -5  -1  772.50   48.89
 -10  -5   1  695.58   46.02
 -10  -5  -1  754.66   50.67
 -10   5  -1  649.64   57.66
 -11   5  -1   11.41    7.16
 -11  -5  -1   -1.12    3.97
 -11  -5   1   -0.65    2.19
 -11   5   1    5.13    7.97
 -11  -5  -1   -4.51    4.35
 -12  -5  -1  608.22   44.45
 -12   5  -1  562.76   49.74
 -12   5   1  519.76   50.77
 -12  -5   1  584.24   44.16
 -12  -5  -1  564.90   43.95
  13  -5  -1    6.07    5.95
 -13   5  -1   14.83    8.47
 -13  -5  -1    5.49    6.32
  13  -5   1   11.90    7.48
  13  -5  -1   15.46    8.97
 -13  -5   1   12.91    7.31
 -13  -5   1   14.74    7.14
 -13   5   1    3.46    5.29
  13   5  -1   11.54    7.61
  13   5   1   11.89    5.13
  14  -5  -1  302.81   33.64
 -14  -5   1  362.38   34.90
 -14  -5  -1  361.43   35.09
  14  -5   1  315.47   34.41
  14  -5  -1  286.45   33.54
  14   5   1  332.23   34.16
  14  -5   1  323.69   34.34
  14   5  -1  355.27   35.12
 -15  -5   1    0.99    3.62
  15  -5   1    9.49    5.50
  15  -5  -1    1.75    3.24
  15   5  -1   10.40    5.99
  15  -5  -1    6.79    4.19
  15   5   1   11.49    8.02
  15  -5   1    2.55    3.46
 -15  -5  -1   16.17    7.04
  16  -5   1   75.21   14.02
 -16  -5  -1   95.49   16.05
 -16  -5   1   88.01   15.89
  16   5  -1   98.03   16.58
  16  -5  -1   83.54   15.69
  16   5   1  111.95   17.86
 -17  -5   1   -3.84    4.09
  17   5  -1    1.72    2.37
  17  -5   1    1.11    2.57
  17  -5  -1    5.39    2.75
 -17  -5  -1   -0.32    1.75
  17   5   1    9.69    4.23
  18  -5  -1   16.43    5.12
  18   5  -1    3.88    2.68
  18  -5   1    9.17    4.31
 -18  -5   1   11.74    4.52
  18   5   1    5.94    3.34
   0   6   1   -1.89    2.52
   0  -6  -1    2.60    5.27
   0  -6   1    2.48    1.70
   0   6  -1    2.47    3.65
   0  -6   1    5.42    4.97
   0  -6  -1    1.30    1.69
   0  -6   1    2.43    1.57
   0  -6  -1   -3.18    2.78
  -1  -6   1  118.87   11.31
  -1  -6   1  123.51    9.57
   1  -6  -1  132.37   20.36
   1   6  -1  107.75   19.80
   1  -6  -1  125.93   18.36
   1   6  -1  101.87   18.06
  -1  -6  -1  106.84   16.18
  -1   6   1  134.17   22.94
  -1  -6   1  115.42   16.49
   1  -6   1  129.59   18.33
  -1   6  -1  120.98   20.96
  -1  -6  -1  124.28   11.68
   1  -6  -1  132.53   29.72
  -1  -6  -1  111.81   14.05
   2  -6   1  570.73   36.92
  -2  -6  -1  612.43   36.70
  -2  -6  -1  563.56   27.27
  -2   6  -1  579.83   50.06
   2  -6  -1  584.19   37.88
  -2   6   1  574.78   45.27
  -2  -6   1  572.71   28.50
   2   6   1  529.77   40.00
  -2   6  -1  553.54   41.23
   2  -6  -1  516.80   56.84
  -2  -6   1  531.39   34.28
  -3  -6   1 3380.63   82.85
  -3  -6   1 2813.70   74.22
   3  -6  -1 3186.49   83.92
  -3  -6  -1 3186.51   79.91
  -3  -6  -1 2912.38   70.24
  -3   6  -1 3187.37   60.51
   3  -6   1 3196.68   83.12
   3   6   1 2683.67   94.32
  -4   6  -1  145.60   14.48
  -4  -6  -1  147.00   17.49
  -4  -6  -1  165.47   20.62
   4  -6   1  167.40   18.26
   4  -6  -1  157.41   17.86
  -4  -6   1  169.94   17.94
  -4  -6  -1  156.41   17.25
  -4  -6   1  119.25   16.73
  -4   6   1  158.21   14.52
  -5   6   1 2444.63   62.24
   5  -6   1 2504.81   67.81
  -5   6  -1 2426.93   65.06
  -5  -6  -1 2209.43   77.87
  -5  -6  -1 2146.11   73.68
  -5  -6   1 2878.50   71.73
  -5  -6   1 2134.68   77.95
  -5  -6  -1 2561.25   66.51
  -6  -6  -1   50.40   11.83
   6  -6  -1   49.83    9.57
  -6  -6   1   61.80   13.81
  -6   6   1   48.77    9.84
  -6  -6  -1   50.02   11.76
  -6   6  -1   58.96   11.28
  -7   6   1 1829.44   68.40
  -7  -6  -1 2054.78   79.84
  -7   6  -1 1897.98   78.77
  -7  -6   1 2033.29   80.28
   7  -6  -1 1771.79   63.77
  -7  -6  -1 1896.90   70.84
  -8   6  -1   87.85   19.35
  -8  -6  -1   72.10   16.49
  -8  -6  -1   74.86   15.06
  -8   6   1   82.50   18.16
  -8  -6   1   73.58   14.45
  -8  -6  -1   77.65   13.28
  -9  -6  -1  616.50   45.38
  -9   6   1  443.65   45.82
  -9  -6  -1  610.07   39.23
  -9  -6   1  612.77   43.63
  -9  -6  -1  658.84   50.35
  -9   6  -1  506.41   50.91
 -10  -6   1   26.22    8.61
 -10  -6  -1   19.40    8.31
 -10   6   1    7.03    6.77
 -10   6  -1    9.31    6.07
 -11   6  -1   16.83   10.45
 -11   6   1    8.34    5.83
 -11  -6   1   27.44   10.60
 -12  -6  -1    4.74    3.60
 -12  -6   1    7.53    6.35
 -12  -6  -1    7.44    5.70
 -12   6   1    4.32    3.81
  12  -6  -1    5.44    5.64
  12  -6   1    5.03    3.09
 -12  -6  -1   -3.05    3.45
 -12  -6   1   -3.72    4.94
 -12   6  -1    7.62    7.22
  12  -6   1   -5.89    7.54
 -12  -6   1    8.42    6.40
  12  -6  -1   -5.68    5.90
  13  -6  -1  155.76   27.56
  13  -6  -1  206.32   29.05
  13   6  -1  220.85   27.54
 -13  -6   1  259.75   29.60
 -13  -6  -1  240.56   27.45
 -13  -6   1  217.61   26.38
 -13  -6  -1  219.30   27.49
  13  -6   1  191.21   27.80
  13   6   1  201.04   26.32
 -14  -6   1   -9.63    6.06
  14   6  -1   -3.90    3.95
  14  -6  -1    8.11    6.45
 -14  -6  -1    7.65    5.94
  14  -6   1   -1.61    3.85
  14  -6   1    5.83    4.04
  14   6   1   -1.16    4.75
  14  -6  -1    1.02    4.01
 -14  -6   1    9.49    7.33
 -15  -6   1  474.80   38.38
  15  -6  -1  425.16   37.91
  15   6  -1  466.03   37.88
  15  -6   1  377.05   34.99
  15  -6   1  423.23   37.85
 -15  -6  -1  467.12   37.09
  15   6   1  489.02   38.14
  15  -6  -1  478.24   39.22
 -16  -6  -1   13.36    6.34
  16   6  -1   20.58    7.44
  16  -6   1    8.78    7.11
  16   6   1   14.61    6.85
  16  -6  -1   17.51    7.89
  16  -6  -1   10.82    5.81
 -16  -6   1    8.53    4.78
  17  -6   1  547.87   34.64
  17  -6  -1  506.52   33.71
 -17  -6   1  534.98   33.27
  17   6  -1  554.05   33.69
 -17  -6  -1  511.12   31.70
  17   6   1  521.49   33.14
  18   6   1   18.75    5.22
  18  -6   1   16.07    4.80
  18  -6  -1   15.42    4.45
  18   6  -1   12.36    3.96
 -18  -6   1   12.38    4.70
 -18  -6  -1    5.26    1.97
   0  -7   1 3257.81  101.39
   0  -7   1 3799.25   63.24
   0  -7  -1 3740.32   64.53
   0  -7  -1 3220.61  102.25
   0  -7   1 3738.62   60.90
  -1  -7   1  970.70   34.61
   1  -7   1  936.82   54.01
  -1  -7  -1  896.97   52.05
  -1  -7   1  865.11   50.10
  -1  -7  -1  938.37   34.85
  -1  -7   1  971.87   29.43
   1  -7   1 1073.33   35.85
  -1  -7  -1  956.07   42.39
   1  -7  -1  978.94   56.01
  -2  -7  -1  898.29   45.63
  -2  -7   1  968.15   38.99
   2  -7   1  980.09   53.28
  -2  -7  -1  950.59   37.92
  -2  -7  -1  983.09   50.87
  -2  -7   1  962.84   50.77
   2  -7  -1  933.03   53.46
  -3  -7   1 1329.67   52.67
  -3  -7  -1 1333.89   49.96
  -3  -7  -1 1257.47   58.44
  -3   7  -1 1306.20   41.72
  -3  -7  -1 1353.87   57.08
   3  -7  -1 1366.22   60.40
   3  -7   1 1349.73   60.17
  -3  -7   1 1457.93   59.33
  -4   7   1  266.17   19.99
  -4  -7  -1  243.02   26.91
   4  -7  -1  291.28   26.20
  -4  -7   1  314.55   26.58
  -4  -7   1  257.64   26.13
  -4  -7  -1  269.45   24.57
   4  -7   1  292.55   26.66
  -4   7  -1  260.14   20.18
  -4  -7  -1  288.81   25.28
  -5  -7  -1   58.24   11.09
   5  -7   1   53.21   10.60
  -5  -7   1   67.72   11.92
  -5  -7   1   53.29   13.16
  -5   7   1   56.59   10.29
  -5  -7  -1   48.47   12.13
  -5   7  -1   55.24    9.75
  -5  -7  -1   60.85   13.03
   5  -7  -1   68.03   11.67
  -6   7  -1   18.81    7.31
  -6  -7   1   20.47    9.62
  -6  -7  -1   19.43    8.65
  -6   7   1    7.67    3.37
  -6  -7  -1   18.15    7.15
  -7  -7  -1   35.77   10.82
  -7   7   1   37.37   10.24
  -7  -7  -1   41.32   11.06
  -7   7  -1   30.80   10.77
  -7  -7   1   37.87   11.84
  -8  -7   1   43.35   12.30
  -8  -7  -1   40.07   11.86
  -8  -7  -1   38.36   10.71
  -8   7  -1   38.94   12.80
  -8   7   1   29.76   12.17
  -9   7  -1   62.97   16.64
  -9   7   1   52.83   15.85
  -9  -7   1   97.00   18.80
  -9  -7  -1   88.43   19.05
  -9  -7  -1   85.58   15.42
 -10  -7  -1  442.32   39.98
 -10   7  -1  310.69   41.44
 -10   7   1  280.08   40.26
 -10  -7   1  402.52   37.58
 -11  -7  -1  160.35   24.01
 -11   7   1  132.73   27.14
 -11  -7   1  199.85   26.04
 -11   7  -1  144.20   28.73
  12  -7  -1  357.90   39.99
 -12  -7  -1  466.69   40.20
 -12  -7   1  466.13   39.54
  12  -7  -1  436.70   43.66
 -12  -7  -1  407.46   38.43
 -12  -7   1  441.34   39.38
 -12  -7   1  448.58   39.58
 -12   7  -1  417.26   43.94
  12  -7   1  427.34   42.30
 -12   7   1  376.33   43.87
 -12  -7  -1  460.88   39.62
 -13  -7  -1   84.73   16.63
 -13  -7   1   84.18   17.14
  13  -7   1   99.33   19.23
 -13  -7  -1   83.25   16.59
  13  -7  -1   89.05   17.64
  13  -7   1  100.45   19.53
  13  -7  -1   93.28   18.84
 -13  -7   1   83.31   17.61
 -14  -7  -1  193.22   24.39
 -14  -7  -1  190.10   23.35
  14  -7  -1  184.15   26.05
 -14  -7   1  217.87   25.75
  14  -7   1  191.10   25.90
  14  -7   1  177.50   25.35
 -14  -7   1  208.08   25.82
 -15  -7   1   12.04    6.04
  15  -7  -1    0.58    4.31
  15   7   1    1.56    2.63
  15  -7   1   11.39    6.91
  15  -7   1   12.31    6.68
 -15  -7   1    8.66    4.63
  15  -7  -1   10.04    5.27
 -15  -7  -1    7.70    5.36
  16  -7  -1   38.24   10.89
 -16  -7   1   27.89    8.03
 -16  -7  -1   35.89    9.06
  16   7   1   35.76    9.03
  16  -7  -1   41.30   10.48
  16  -7   1   32.52    9.19
 -17  -7   1    8.81    3.63
 -17  -7  -1   23.40    6.99
  17  -7  -1   15.04    4.93
  17  -7   1   18.94    7.44
  17  -7   1   22.78    6.28
  18  -7   1    6.47    4.49
  18  -7  -1   21.36    5.65
   0  -8   1   -0.08    1.23
   0  -8  -1    0.14    5.42
   0  -8   1   -5.14    4.86
   1  -8   1  105.26   20.24
  -1  -8   1   89.25   11.08
  -1  -8  -1   97.63   11.76
  -1  -8  -1   90.11   18.40
   1  -8   1   99.00   12.18
   1  -8  -1   74.47   18.24
  -1  -8   1   77.07   16.75
   2  -8  -1  534.91   44.55
  -2  -8  -1  554.24   41.99
   2  -8   1  519.70   43.25
  -2  -8   1  540.15   30.50
   2  -8   1  514.92   27.92
  -2  -8  -1  502.30   29.16
  -2  -8   1  529.21   41.41
   3  -8  -1  574.70   43.41
  -3  -8  -1  598.68   41.81
  -3  -8  -1  526.46   40.38
   3  -8   1  614.69   44.50
  -3  -8  -1  632.62   36.06
  -3  -8   1  657.65   43.31
  -3   8  -1  584.08   29.84
  -3  -8   1  626.42   37.24
  -4  -8  -1  132.09   18.62
  -4   8  -1  136.65   15.12
  -4  -8   1  136.45   20.12
  -4  -8   1  176.83   21.52
  -4   8   1  145.80   15.85
   4  -8   1  145.75   20.46
  -4  -8  -1  118.65   20.63
   4  -8  -1  158.78   21.06
  -4  -8  -1  130.16   18.37
  -5  -8  -1  545.96   41.41
  -5  -8   1  502.39   42.29
   5  -8  -1  608.14   38.44
  -5  -8  -1  629.74   39.07
  -5  -8   1  694.91   41.87
   5  -8   1  593.16   39.65
  -5   8   1  651.25   35.26
  -5  -8  -1  485.01   41.54
  -5   8  -1  584.99   34.73
  -6   8  -1  312.78   28.15
  -6  -8  -1  292.33   31.63
  -6  -8  -1  290.87   31.68
  -6  -8   1  256.99   31.79
  -6   8   1  323.66   27.56
  -7  -8  -1  719.90   52.01
  -7  -8   1  759.76   55.44
  -7   8  -1  610.28   45.88
  -7  -8  -1  741.96   49.63
  -7   8   1  627.23   41.99
  -8  -8  -1  286.62   33.18
  -8  -8  -1  245.72   27.59
  -8   8  -1  217.47   30.12
  -8  -8   1  249.24   31.36
  -8   8   1  203.64   27.63
  -9  -8   1  262.24   31.92
  -9   8  -1  180.62   30.80
  -9   8   1  188.52   29.81
  -9  -8  -1  269.72   31.30
 -10   8  -1  103.09   24.84
 -10  -8  -1  125.09   21.02
 -10   8   1   60.50   20.09
 -10  -8   1  147.30   22.83
 -11   8  -1   97.26   23.98
 -11  -8   1  102.34   20.71
 -11  -8  -1   94.85   18.84
 -11  -8   1  104.41   19.84
 -11  -8  -1   97.77   18.65
 -11  -8  -1   90.65   18.28
 -11   8   1   51.72   16.82
  11  -8   1   96.88   19.45
  11  -8  -1  102.76   22.45
  12  -8  -1    6.90    2.56
 -12  -8   1    5.52    4.11
 -12  -8  -1   11.13    8.01
  12  -8   1    6.29    4.36
 -12  -8   1   12.39    8.17
  12  -8  -1   15.24    9.51
 -12  -8  -1   17.29    7.41
 -13  -8  -1    9.73    3.73
  13  -8  -1   15.95    9.88
  13  -8   1   16.38    9.48
  13  -8   1   25.47    8.25
 -13  -8   1   11.12    4.20
 -13  -8   1   19.36    7.94
 -13  -8  -1   20.17    7.62
  14  -8   1   39.09   12.02
 -14  -8  -1   31.17    9.95
  14  -8  -1   48.80   13.12
 -14  -8  -1   48.41   11.83
  14  -8   1   38.81   12.91
 -14  -8   1   55.62   12.95
 -14  -8   1   47.17   11.54
 -15  -8   1   99.62   16.48
 -15  -8   1   88.94   14.72
 -15  -8  -1   96.88   15.78
  15  -8  -1   86.96   16.18
  15  -8  -1   69.80   15.07
  15  -8   1   64.50   14.31
 -15  -8  -1   98.61   15.99
  15  -8   1   82.01   15.48
  16  -8   1  160.30   19.01
 -16  -8  -1  160.76   18.78
  16  -8  -1  161.38   19.95
 -16  -8   1  143.17   16.28
 -16  -8   1  152.44   18.73
  16  -8   1  148.64   20.48
  16  -8  -1  131.05   18.09
 -17  -8  -1  129.76   14.48
  17  -8  -1  131.47   15.14
  17  -8   1  118.97   14.53
  17  -8   1   86.33   13.91
 -17  -8   1  129.85   15.07
   0  -9  -1   54.60   16.00
   0  -9   1   61.74   17.17
  -1  -9  -1 1151.78   69.62
   1  -9   1 1170.91   43.29
  -1  -9   1 1071.72   67.15
   1  -9  -1 1084.15   71.10
  -1  -9  -1 1179.45   44.06
   1  -9   1 1184.07   73.11
  -2  -9   1   12.60    7.01
   2  -9   1    9.66    4.17
  -2  -9   1   12.13    4.40
  -2  -9  -1   13.83    5.61
   2  -9  -1   16.01    9.14
  -2  -9  -1    3.51    3.41
   2  -9   1    5.88    9.32
  -3  -9  -1  689.61   47.07
   3  -9   1  611.59   48.13
   3  -9   1  641.34   35.00
  -3  -9   1  624.61   39.13
  -3   9  -1  596.77   32.37
   3  -9  -1  592.42   47.90
  -3  -9  -1  563.26   36.24
  -3  -9   1  674.74   47.18
  -4   9   1   10.05    4.18
  -4  -9   1   24.40    9.16
  -4  -9  -1   12.59    5.59
  -4   9  -1   11.28    4.54
   4  -9  -1   15.67    6.94
  -4  -9  -1   17.93    6.27
   4  -9   1   15.42    8.06
  -4  -9   1   19.40    7.85
  -5   9   1   29.07    8.40
  -5   9  -1   27.46    7.99
  -5  -9   1   25.93    8.55
  -5  -9   1   27.41   10.50
  -5  -9  -1   19.29    8.67
   5  -9   1   34.14   10.28
  -5  -9  -1   21.91    6.87
   5  -9  -1   19.89    6.13
  -6  -9  -1   25.87    9.52
  -6   9  -1   36.28    9.94
  -6  -9   1   36.47   13.94
  -6   9   1   42.74   11.02
  -7  -9  -1   70.56   18.01
  -7   9  -1   98.16   19.34
  -7  -9   1   76.43   18.96
  -7   9   1   85.04   16.47
  -8   9  -1   55.93   15.31
  -8   9   1   63.46   17.44
  -8  -9  -1   75.09   18.41
  -8  -9   1  100.91   22.00
  -9   9   1  277.68   36.34
  -9   9  -1  275.03   39.38
  -9  -9  -1  335.63   36.96
  -9  -9   1  367.69   38.33
 -10   9   1   61.35   19.85
  10  -9  -1   74.83   18.24
 -10   9  -1   70.10   19.22
 -10  -9  -1   90.74   17.55
 -10  -9  -1   93.08   19.88
  10  -9   1   90.80   20.97
 -10  -9   1  100.34   20.12
 -10  -9   1   77.11   17.35
 -10  -9  -1   90.28   18.90
 -10  -9   1   84.99   17.86
  11  -9  -1  591.88   52.94
 -11  -9   1  593.91   48.32
 -11  -9  -1  623.73   48.70
  11  -9   1  660.91   55.14
 -11  -9  -1  620.90   47.50
 -11  -9   1  649.94   48.72
 -12  -9   1   91.07   17.63
  12  -9   1   71.08   16.81
  12  -9  -1   79.21   18.06
  12  -9   1   94.84   19.89
 -12  -9  -1   76.98   16.49
 -12  -9  -1   78.15   15.71
 -12  -9   1   92.82   17.95
 -13  -9  -1  800.06   50.85
 -13  -9  -1  820.47   51.82
 -13  -9   1  859.85   52.42
  13  -9   1  752.83   53.40
  13  -9  -1  777.70   55.66
 -13  -9   1  757.14   49.41
  13  -9   1  807.75   55.15
 -14  -9   1   38.38   10.94
 -14  -9  -1   39.68   10.53
 -14  -9  -1   43.09   12.20
  14  -9  -1   38.73   11.48
 -14  -9   1   53.10   13.10
  14  -9   1   37.87   10.29
  14  -9  -1   28.75   10.20
  14  -9   1   35.71   12.10
  15  -9   1  272.67   26.84
 -15  -9  -1  252.94   23.74
 -15  -9   1  243.09   23.71
  15  -9  -1  228.50   25.90
  15  -9  -1  209.80   24.84
 -15  -9   1  257.24   25.42
 -15  -9  -1  256.57   25.21
 -16  -9   1    4.78    1.99
 -16  -9  -1   12.94    5.19
  16  -9   1   12.69    5.13
  16  -9   1    9.88    4.27
 -16  -9  -1    5.94    3.67
 -16  -9   1    6.33    3.54
  16  -9  -1    9.73    6.75
  17  -9  -1   33.88    6.83
  17  -9   1   25.26    6.60
 -17  -9   1   31.71    6.86
  17  -9   1   19.92    6.04
 -17  -9  -1   39.71    7.72
  17  -9  -1   10.64    3.95
   0 -10   1    3.69    5.28
   0 -10  -1    2.00    3.66
   1 -10   1    4.00    4.44
  -1 -10   1    7.46    4.87
   1 -10  -1    9.46    5.98
  -1 -10  -1   13.34    8.05
  -2 -10  -1  164.38   26.70
  -2 -10  -1  153.38   18.28
   2 -10  -1  141.14   27.64
   2 -10   1  152.69   17.06
   2 -10   1  124.63   26.16
  -2 -10   1  158.53   26.78
   3 -10   1   10.74    7.50
  -3 -10   1    5.44    4.05
   3 -10   1    7.44    3.02
  -3 -10  -1   15.19    8.00
  -3 -10   1    2.39    2.59
  -3  10  -1    6.15    2.78
   3 -10  -1   13.01    8.19
  -3 -10  -1    5.28    4.52
   4 -10   1  285.65   25.67
  -4 -10  -1  320.99   32.30
  -4 -10   1  290.75   30.65
  -4  10  -1  250.23   24.35
   4 -10  -1  261.91   31.65
  -4 -10   1  294.11   32.12
   4 -10   1  288.15   34.17
  -4  10   1  292.15   25.18
  -4 -10  -1  265.28   28.77
   5 -10   1   53.32   12.55
  -5 -10   1   39.34   12.15
  -5 -10  -1   54.78   14.44
   5 -10  -1   45.74   12.56
  -5 -10  -1   62.90   14.27
   5 -10   1   42.48   12.90
  -5 -10   1   48.82   12.46
  -5  10   1   56.66   11.81
  -5  10  -1   54.95   12.37
  -6  10  -1  472.22   38.08
  -6  10   1  466.77   36.67
  -6 -10  -1  426.93   43.30
  -6 -10   1  462.69   46.13
  -7 -10   1   84.30   18.68
  -7 -10  -1   65.15   15.82
  -7  10   1   71.86   15.46
  -7  10  -1   77.39   17.19
  -8  10   1  361.12   39.82
  -8  10  -1  384.70   43.17
  -8 -10  -1  413.75   43.68
  -8 -10   1  497.02   48.16
  -9 -10   1    2.48    3.01
  -9 -10  -1   11.72   10.23
  -9  10   1   -0.49    7.21
  -9 -10  -1    6.05    8.10
  -9 -10   1   -1.28    2.88
   9 -10   1    5.82    6.32
  -9 -10   1    6.51    6.16
   9 -10  -1   -0.58    6.00
  -9 -10  -1   11.29    7.25
  -9  10  -1    1.00    5.06
  10 -10  -1  140.96   26.38
  10 -10   1  146.26   26.71
 -10 -10   1  140.94   24.40
 -10 -10  -1  113.84   20.73
 -10 -10   1  140.21   23.90
 -10  10  -1  112.32   26.86
 -10 -10  -1  149.81   24.91
 -10 -10  -1  143.64   22.82
 -10 -10   1  122.98   21.08
  11 -10   1   14.01    9.28
 -11 -10  -1    4.71    4.66
  11 -10   1   10.83    8.87
 -11 -10   1   12.34    7.01
 -11 -10   1   20.73    9.71
 -11 -10  -1    6.08    4.40
  11 -10  -1    4.25    5.62
 -12 -10   1   -1.51    4.30
 -12 -10  -1    2.87    5.95
  12 -10   1  -19.20   11.70
 -12 -10  -1    2.06    3.60
  12 -10  -1   -2.59    3.88
  12 -10   1   -7.59    7.09
 -12 -10   1    2.50    4.69
 -13 -10  -1   15.87    7.56
  13 -10  -1   14.83    6.82
  13 -10   1   19.41    8.20
  13 -10  -1   14.18    6.97
  13 -10   1    9.16    6.24
 -13 -10  -1   13.52    5.11
 -13 -10   1   15.08    5.32
 -13 -10   1   16.18    6.38
 -14 -10   1   33.05    9.47
  14 -10  -1   33.50    9.65
  14 -10   1   26.73   10.12
 -14 -10  -1   41.61   10.31
  14 -10   1   43.05   11.10
 -14 -10   1   31.02    9.24
  14 -10  -1   29.91    9.40
 -14 -10  -1   37.76   10.77
 -15 -10   1    6.17    4.82
  15 -10  -1    8.99    4.96
  15 -10  -1    8.77    5.00
 -15 -10  -1    4.81    3.33
  15 -10   1    3.52    1.89
  15 -10   1    9.76    6.57
 -15 -10   1    5.31    3.12
 -15 -10  -1   10.08    4.47
 -16 -10  -1  169.36   16.72
  16 -10  -1  112.69   16.18
 -16 -10  -1  170.80   15.83
  16 -10  -1  196.50   18.17
  16 -10   1  167.77   17.33
 -16 -10   1  199.25   17.07
  16 -10   1  142.88   18.10
 -16 -10   1  170.86   17.17
   0 -11  -1   97.19   24.07
   0 -11   1  112.44   25.98
   1 -11  -1  674.16   65.44
   1 -11   1  645.56   64.45
  -1 -11   1  744.36   65.48
  -1 -11  -1  751.43   64.20
  -2 -11   1   21.55   12.18
  -2 -11  -1    9.37    6.42
   2 -11  -1   10.06    4.89
   2 -11   1    7.23    5.61
   3 -11  -1  528.00   51.94
  -3 -11  -1  535.57   47.32
  -3 -11   1  583.92   51.17
   3 -11   1  491.09   51.17
   3 -11   1  562.36   35.58
  -3 -11  -1  544.95   39.22
   4 -11   1    2.67    8.03
  -4 -11   1    1.77    4.03
   4 -11   1    0.86    3.30
   4 -11  -1   -8.98    9.12
  -4 -11  -1   -0.06    5.10
  -4  11   1    3.14    4.02
  -4 -11  -1    0.01    5.61
  -4 -11   1   -3.87    7.25
  -5 -11   1    9.26    6.27
  -5  11  -1   17.42    7.16
  -5  11   1    9.66    4.92
   5 -11   1   10.48    6.11
   5 -11  -1    9.37    4.85
  -5 -11   1   21.74    8.70
  -5 -11  -1   15.12    6.45
  -5 -11  -1    6.11    3.36
   5 -11   1   10.81    7.47
  -6  11   1   -2.23    3.33
  -6 -11   1  -14.72   10.56
  -6 -11  -1   -6.92   11.04
   6 -11   1    6.63    5.73
  -6  11  -1    5.06    2.37
  -7 -11  -1  118.92   24.59
  -7  11   1  139.44   23.77
  -7  11  -1  134.40   25.62
   7 -11   1  154.89   24.91
  -7 -11   1  142.47   28.40
  -8 -11   1   -1.11    9.41
  -8 -11  -1   -0.75    5.34
  -8 -11  -1    7.39    6.76
   8 -11  -1    2.89    3.28
   8 -11  -1    9.85    7.09
   8 -11   1   -8.49    6.97
  -8 -11   1   15.38    8.92
  -8 -11   1   -3.81    6.03
  -8  11   1    1.33    2.93
   8 -11   1   -0.26    6.57
  -8  11  -1    9.57    8.48
  -8 -11  -1    6.86    3.94
   9 -11   1  505.29   52.76
  -9 -11  -1  418.61   45.03
   9 -11  -1  484.02   50.98
   9 -11   1  385.08   44.51
   9 -11  -1  441.06   45.32
  -9 -11   1  467.61   42.50
  -9 -11   1  443.19   46.29
  -9 -11  -1  422.32   40.38
  10 -11   1   36.99   12.41
  10 -11  -1   30.53   10.81
 -10 -11  -1   34.84   11.06
 -10 -11  -1   28.27    9.80
 -10 -11   1   35.40   11.87
  10 -11   1   23.20    9.12
 -10 -11   1   35.61   11.61
  10 -11  -1   25.97   12.04
 -11 -11   1  476.42   41.38
  11 -11   1  417.58   42.83
 -11 -11   1  454.79   39.13
 -11 -11  -1  451.41   40.38
  11 -11  -1  428.93   43.24
 -11 -11  -1  421.82   38.01
  12 -11   1   32.93   11.52
 -12 -11   1   29.87   10.11
 -12 -11  -1   35.18   10.17
 -12 -11   1   14.05    6.39
 -12 -11  -1   26.79    9.39
  12 -11  -1   33.69   10.91
  12 -11  -1   64.87   15.53
  13 -11  -1  534.69   42.12
  13 -11  -1  534.71   40.09
 -13 -11   1  567.87   38.90
 -13 -11  -1  592.88   39.74
  13 -11   1  524.24   41.15
 -13 -11  -1  553.31   38.65
  13 -11   1  551.50   41.78
 -13 -11   1  593.27   40.49
 -14 -11   1    2.31    3.37
  14 -11   1    0.98    2.42
 -14 -11  -1    6.90    5.32
  14 -11   1    6.95    2.77
  14 -11  -1    4.69    4.66
 -14 -11  -1   13.06    5.79
  14 -11   1    1.34    3.28
 -14 -11   1   -1.44    2.73
  14 -11  -1    9.77    4.56
  15 -11   1  164.29   17.24
 -15 -11   1  173.82   17.67
 -15 -11  -1  162.40   17.27
  15 -11  -1  145.59   18.21
  15 -11  -1  159.31   17.12
 -15 -11   1  145.45   16.31
 -15 -11  -1  156.45   17.90
  15 -11   1  126.52   18.72
 -16 -11  -1    7.38    4.35
 -16 -11   1   10.80    4.17
  16 -11   1   -1.52    3.51
  16 -11  -1   -1.46    2.14
   0 -12  -1   -4.75    8.40
   0 -12   1    5.23   10.39
   1 -12  -1   27.78   14.00
  -1 -12  -1   42.94   17.62
  -1 -12   1   31.10   15.21
   1 -12   1   27.80   10.10
   2 -12  -1   78.87   24.22
   2 -12   1   71.87   21.67
  -2 -12  -1   86.25   23.62
  -2 -12   1   82.62   21.70
  -3 -12  -1  203.00   30.78
   3 -12  -1  157.83   30.00
   3 -12   1  191.40   35.32
  -3  12   1  210.05   23.50
  -3 -12   1  208.32   31.78
   4 -12   1  244.93   35.58
  -4 -12   1  284.31   36.13
  -4 -12  -1  267.58   30.96
  -4 -12  -1  275.06   33.86
  -4  12   1  272.87   28.20
   4 -12  -1  245.95   35.59
  -5 -12  -1  147.08   23.30
  -5 -12   1  149.54   25.32
  -5  12   1  120.38   19.28
  -5 -12   1  134.58   24.11
  -5 -12  -1  141.49   25.07
   5 -12   1  132.58   19.99
  -6 -12   1  639.96   52.90
  -6 -12  -1  613.01   53.76
   6 -12   1  479.24   42.11
  -6 -12  -1  637.23   52.86
  -6 -12   1  446.06   48.35
   6 -12   1  657.16   71.12
  -6  12   1  584.31   46.14
   6 -12  -1  685.66   70.40
  -6 -12  -1  491.68   49.68
  -7 -12  -1  101.92   19.86
   7 -12  -1   71.89   18.54
  -7  12   1  115.37   22.24
   7 -12  -1  163.00   32.61
  -7 -12  -1  117.78   25.09
  -7 -12  -1  115.14   23.12
  -7 -12  -1   78.51   19.58
  -7 -12   1   99.25   23.01
  -7 -12   1  117.02   22.29
  -7 -12   1  131.54   22.70
   7 -12   1  107.29   21.77
   7 -12   1  107.91   26.52
   8 -12  -1  182.54   32.28
  -8 -12   1  188.99   27.90
  -8 -12   1  179.02   26.39
  -8 -12  -1  165.11   29.44
   8 -12  -1  174.45   31.62
   8 -12   1  185.67   33.67
  -8 -12  -1  179.75   25.93
  -8 -12  -1  188.69   27.99
   9 -12   1    5.68    6.67
   9 -12  -1    8.86    8.20
   9 -12  -1   14.02    3.17
  -9 -12  -1    9.33    3.35
  -9 -12   1   11.65    7.04
   9 -12   1   30.81   15.34
  -9 -12  -1   10.65    8.25
  -9 -12   1    9.49    6.35
 -10 -12   1   55.72   14.32
  10 -12  -1   51.22   14.69
 -10 -12  -1   71.78   16.22
  10 -12   1   61.44   16.97
  10 -12  -1   50.02   14.04
  10 -12   1   53.80   16.56
 -10 -12  -1   62.88   15.56
 -10 -12   1   53.57   14.31
 -11 -12   1   -4.38    3.90
  11 -12   1   -2.26    5.29
 -11 -12  -1   -0.85    4.25
 -11 -12   1    6.24    7.71
 -11 -12  -1   -2.60    4.85
  11 -12  -1   -2.31    5.24
 -12 -12   1    7.74    6.05
 -12 -12  -1   10.23    6.57
 -12 -12  -1   13.36    7.50
 -12 -12   1   10.07    6.56
  12 -12   1    6.96    6.01
  12 -12  -1    7.37    5.27
 -13 -12  -1    7.49    6.15
  13 -12   1    6.15    6.80
  13 -12  -1    7.86    5.77
 -13 -12  -1    9.47    4.09
 -13 -12   1    1.48    2.71
  13 -12   1    3.43    4.34
 -13 -12   1    4.30    3.03
 -14 -12  -1   45.07    9.48
  14 -12   1   36.44   10.84
 -14 -12   1   39.28    8.22
  14 -12  -1   39.29    9.78
 -14 -12   1   41.50    9.29
 -14 -12  -1   38.78    8.92
 -15 -12   1   43.62    7.51
 -15 -12  -1   33.51    6.84
 -15 -12   1   36.05    7.55
 -15 -12  -1   34.61    8.28
  15 -12   1   26.66    7.13
  15 -12  -1   19.23    7.38
   0 -13   1  300.35   50.20
   0 -13  -1  267.99   46.01
   1 -13   1  465.55   63.52
  -1 -13  -1  588.12   64.93
  -1 -13   1  545.35   64.07
   1 -13  -1  457.19   61.94
  -2 -13  -1  117.25   26.22
  -2 -13   1  133.27   29.68
   2 -13  -1  152.05   35.63
   2 -13   1   99.92   29.13
  -2  13   1  114.03   18.42
  -3 -13  -1  209.25   26.23
  -3 -13  -1  226.04   36.08
   3 -13  -1  150.50   32.16
  -3 -13   1  212.30   26.19
   3 -13  -1  181.16   35.62
   3 -13  -1  171.89   23.42
  -3  13   1  209.13   24.36
   3 -13   1  190.50   36.38
   3 -13   1  202.22   25.05
  -3 -13   1  197.37   36.78
  -3 -13   1  231.13   35.75
  -3 -13   1  187.37   33.64
  -3 -13  -1  199.33   32.28
   3 -13   1  186.04   36.20
   4 -13   1   54.42   15.14
   4 -13  -1   56.64   14.75
  -4 -13   1   77.82   20.26
   4 -13  -1   38.77   13.64
   4 -13  -1   46.42   15.76
  -4 -13  -1   52.01   16.97
  -4 -13  -1   62.63   14.83
   4 -13   1   48.09   17.78
  -4 -13   1   51.23   14.47
   4 -13   1   37.58   12.30
  -4  13   1   42.60   11.06
   4 -13   1   52.03   18.52
  -4 -13   1   57.22   17.76
   4 -13  -1   65.97   23.95
  -4 -13   1   47.90   14.74
  -4 -13   1   45.51   16.86
  -4 -13  -1   66.39   17.98
   5 -13  -1    7.75    5.77
  -5  13   1   11.55    3.34
   5 -13  -1   26.13   10.71
   5 -13   1   16.49   13.45
  -5 -13  -1   33.25   14.59
  -5 -13  -1   29.40   10.89
   5 -13   1   21.69   10.79
  -5 -13   1   35.00   12.59
  -5 -13   1   28.26   11.84
   6 -13   1  -12.52    9.31
   6 -13  -1    9.12    6.33
  -6 -13  -1   -2.52    4.88
  -6 -13   1    5.43    4.71
   6 -13   1    3.05    7.59
  -7 -13   1   78.29   18.72
  -7 -13   1   61.40   16.06
  -7 -13  -1   79.48   19.58
   7 -13   1   81.55   23.34
  -7 -13  -1   76.73   17.25
   7 -13  -1   47.80   17.56
  -8 -13  -1   21.59    7.73
  -8 -13  -1   27.21    8.59
   8 -13  -1   33.08   13.72
  -8 -13   1   33.60   12.02
   8 -13   1   31.75   14.03
  -8 -13   1   40.47   12.19
  -8 -13  -1   39.34   12.93
  -9 -13   1  279.86   31.34
   9 -13   1  283.77   36.82
   9 -13  -1  299.10   38.71
   9 -13  -1  267.60   36.28
  -9 -13  -1  273.81   31.23
  -9 -13  -1  270.27   35.55
  10 -13  -1  143.30   25.75
  10 -13  -1  155.70   24.78
 -10 -13   1  125.81   19.98
 -10 -13  -1  129.04   20.84
 -10 -13  -1  135.13   22.23
  10 -13   1  109.10   20.70
 -10 -13   1  122.41   21.67
  11 -13   1  341.40   33.61
 -11 -13  -1  348.11   30.98
 -11 -13   1  323.70   29.40
  11 -13  -1  283.00   31.60
 -11 -13   1  355.00   33.63
  11 -13   1  307.61   32.17
  11 -13  -1  349.90   35.47
 -11 -13  -1  373.09   34.42
  11 -13   1  317.93   37.52
  12 -13  -1   96.97   17.03
 -12 -13   1   93.15   15.01
  12 -13   1   94.44   16.69
 -12 -13   1   95.59   14.74
 -12 -13  -1   87.51   14.61
  12 -13   1   94.21   18.45
 -12 -13  -1   89.51   15.50
 -13 -13   1  391.28   27.47
  13 -13  -1  359.80   28.36
 -13 -13   1  398.02   28.13
  13 -13  -1  293.41   29.48
 -13 -13  -1  363.83   27.20
  13 -13   1  319.29   30.22
 -13 -13  -1  400.13   28.42
 -14 -13  -1   50.28    8.93
 -14 -13   1   42.50    7.62
  14 -13   1   28.96    8.15
 -14 -13   1   44.05    8.57
 -14 -13  -1   47.53    9.19
  14 -13  -1   26.84    7.32
   0 -14   1    2.24    4.68
   0 -14   1   -3.69    6.79
   0 -14   1    2.37    9.47
   0 -14   1    2.68    5.88
   0 -14  -1    2.08    4.99
   0 -14  -1   -0.77    8.59
   0 -14  -1    1.77    3.87
   0 -14  -1   -0.54    3.76
   1 -14  -1   34.71   13.88
   1 -14   1   48.44   16.39
   1 -14   1   34.75   17.03
  -1 -14  -1   46.80   17.51
  -1 -14  -1   44.92   17.72
  -1 -14  -1   42.31   12.36
  -1 -14   1   32.49   15.18
  -1 -14   1   47.84   21.00
   1 -14   1   39.71   14.93
  -1 -14  -1   61.43   20.87
   1 -14   1   55.41   14.17
   1 -14   1   34.24   13.01
  -1 -14   1   38.18   14.32
   1 -14  -1   43.66   12.09
   1 -14  -1   38.43   19.42
  -1 -14   1   43.17   16.60
   1 -14  -1   59.29   18.85
  -1 -14   1   47.90   13.69
   1 -14  -1   48.96   15.16
  -2 -14  -1    7.99    7.09
   2 -14  -1   -1.84   10.38
   2 -14   1   -1.41    4.25
   2 -14   1    5.85    5.13
  -2 -14  -1    0.15    3.44
  -2 -14   1    5.99    8.91
   2 -14   1   28.87   19.73
  -2 -14  -1   -2.70   10.16
  -2 -14   1    5.02    3.82
   2 -14   1    7.52    4.42
  -2 -14   1   21.02    8.21
  -2 -14   1   -7.83   11.24
   2 -14  -1    1.24    2.51
   2 -14  -1   14.50    9.19
   2 -14  -1    8.98    7.85
  -2 -14   1   -0.71    5.12
  -2 -14  -1    4.29    9.21
  -3 -14  -1  409.74   39.14
  -3 -14   1  382.51   51.74
  -3 -14  -1  472.85   53.10
  -3 -14   1  354.25   46.28
   3 -14  -1  404.06   35.38
   3 -14   1  430.47   54.87
   3 -14   1  416.16   43.85
   3 -14   1  372.79   36.01
  -3 -14   1  459.94   54.06
  -3 -14  -1  284.71   42.51
   3 -14  -1  355.89   50.73
   3 -14  -1  379.63   40.42
  -3 -14   1  436.36   40.74
  -4 -14  -1   69.43   19.33
   4 -14   1   56.42   20.16
  -4 -14  -1   65.25   16.29
  -4 -14   1   73.52   20.01
  -4 -14  -1   66.97   20.81
  -4 -14   1   81.06   18.63
   4 -14   1   77.72   18.05
  -4 -14   1   85.19   21.60
   4 -14  -1   58.45   15.27
   4 -14  -1   60.06   22.42
   5 -14  -1  414.14   59.22
  -5 -14  -1  411.33   44.08
   5 -14   1  353.27   39.49
  -5 -14   1  332.95   39.92
  -5 -14  -1  360.98   41.21
  -5 -14   1  433.14   46.19
   5 -14  -1  387.79   38.55
   5 -14   1  373.01   57.38
  -5 -14  -1  477.73   47.82
   6 -14   1   93.18   27.56
   6 -14  -1  134.08   32.65
  -6 -14  -1   47.61   17.36
  -6 -14  -1   98.52   21.42
  -6 -14   1   87.43   19.76
   6 -14   1   91.53   19.55
  -6 -14   1   66.88   18.82
  -7 -14  -1  543.83   50.09
  -7 -14  -1  570.22   47.68
  -7 -14   1  572.56   46.88
   7 -14  -1  632.91   67.18
   7 -14   1  634.22   67.99
  -8 -14   1    3.94    2.14
  -8 -14  -1   18.21   10.46
   8 -14  -1   15.02    8.15
   8 -14   1    9.73    7.13
  -8 -14   1   20.73    8.43
  -9 -14   1  146.94   22.05
  -9 -14   1  178.51   22.89
   9 -14  -1  159.03   26.11
  -9 -14  -1  183.06   24.43
  -9 -14  -1  164.32   26.54
   9 -14   1  161.56   26.92
 -10 -14   1    9.01    5.16
 -10 -14  -1    0.41    4.17
  10 -14   1   -5.35    6.15
 -10 -14  -1   10.10    7.24
  10 -14  -1   -2.09    5.52
  11 -14   1   -3.99    5.88
 -11 -14  -1   11.49    5.29
  11 -14  -1    9.36    5.58
 -11 -14  -1    7.07    4.54
 -11 -14   1   10.03    5.14
  11 -14  -1    6.60    3.58
  11 -14   1   10.25    5.94
  11 -14  -1    6.23    4.24
  12 -14  -1   11.76    6.94
 -12 -14  -1   14.30    5.66
 -12 -14   1   14.43    5.80
 -12 -14   1   23.48    7.43
  12 -14  -1    8.33    4.83
 -12 -14   1    5.08    4.12
 -12 -14  -1    8.67    5.52
 -12 -14  -1   15.25    4.40
  12 -14   1   20.46    6.99
  13 -14  -1    7.96    5.21
 -13 -14  -1   18.23    5.13
  13 -14   1   13.40    4.83
 -13 -14  -1   14.95    5.42
 -13 -14   1   21.04    5.44
 -13 -14   1   19.61    5.98
 -13 -14  -1   21.53    6.34
   0 -15   1  335.71   33.14
   0 -15   1  304.74   44.39
   0 -15  -1  362.36   34.55
   0 -15   1  310.79   43.29
   0 -15  -1  318.93   44.43
   0 -15  -1  337.14   44.94
   1 -15   1   13.05    9.35
  -1 -15  -1    1.87    4.95
  -1 -15   1   23.61   14.58
   1 -15  -1   11.27    7.26
   1 -15  -1   11.33    6.16
   1 -15   1   11.07    4.99
  -1 -15   1    8.19    6.22
   1 -15   1    9.27    4.92
  -1 -15  -1   18.31   11.77
   1 -15   1   21.66   10.44
  -1 -15  -1    2.95    4.65
  -1 -15   1   10.07    5.16
   1 -15  -1   14.15    7.38
  -2 -15   1  190.26   27.37
   2 -15   1  164.52   30.25
  -2 -15   1  171.55   34.18
  -2 -15  -1  201.32   27.35
   2 -15   1  181.77   30.91
   2 -15  -1  176.44   32.14
   2 -15  -1  160.96   22.30
  -2 -15   1  144.66   30.36
  -2 -15  -1  128.61   29.76
   2 -15  -1  197.41   30.59
   2 -15   1  186.52   23.74
  -2 -15  -1  163.91   32.89
  -3 -15   1   -0.38    3.40
   3 -15  -1    5.96    6.36
   3 -15   1   12.39   13.27
  -3 -15  -1   -3.54    4.22
  -3 -15  -1    0.60    3.16
   3 -15  -1    3.80    4.87
  -3 -15   1   10.17    8.00
  -3 -15   1    7.47    9.64
  -3 -15  -1    7.31    7.72
   3 -15  -1    5.96    4.64
   3 -15   1    7.85    8.37
  -4 -15   1   93.46   22.03
   4 -15  -1   97.93   28.91
  -4 -15  -1   87.15   22.08
  -4 -15   1   78.63   20.02
  -4 -15   1   80.75   19.55
  -4 -15  -1   76.20   19.59
   4 -15   1   94.59   27.18
   4 -15   1   66.12   16.23
  -4 -15  -1   77.16   19.65
   4 -15  -1   83.44   17.90
  -5 -15  -1    1.56    2.71
  -5 -15  -1   -3.77    4.15
   5 -15   1    1.19    4.31
   5 -15  -1    0.93    8.63
   5 -15  -1   -3.48    4.87
   5 -15   1    6.23    9.22
  -5 -15  -1   -1.06    6.18
  -5 -15   1   -7.97    9.96
  -5 -15   1   -5.42    6.14
  -5 -15   1    8.69    8.80
   6 -15   1    3.63    9.08
  -6 -15  -1    1.01    3.68
  -6 -15   1    2.23    3.92
  -6 -15  -1   -4.32    4.32
  -6 -15   1   -6.23    2.84
   6 -15  -1   20.34   16.04
   6 -15   1    4.46    7.44
  -6 -15  -1   -5.16   11.09
  -7 -15  -1   11.01    8.81
  -7 -15   1   -4.25    4.58
   7 -15   1   -1.69    5.51
  -7 -15   1    3.78    3.55
  -8 -15  -1   50.29   13.52
  -8 -15   1   32.44   10.18
   8 -15  -1   29.67   13.85
  -8 -15   1   13.31    6.67
   8 -15   1   40.33   14.30
  -8 -15  -1   21.98   11.22
  -9 -15   1   13.33    8.13
   9 -15   1    8.93    3.90
  -9 -15  -1    0.62    3.45
  -9 -15  -1    8.78    5.35
  -9 -15   1   20.48    7.59
   9 -15  -1   -5.62    7.08
  10 -15   1  133.13   20.83
 -10 -15  -1  159.77   23.08
 -10 -15   1  139.07   17.93
 -10 -15  -1  129.28   18.12
 -10 -15   1  142.62   21.55
  10 -15  -1  147.10   21.49
 -11 -15   1   20.37    6.50
  11 -15   1   18.34    7.15
 -11 -15   1   18.05    6.27
 -11 -15  -1   16.89    5.64
  11 -15  -1    9.27    4.32
 -11 -15  -1   28.35    8.49
 -12 -15  -1  178.26   16.98
 -12 -15  -1  132.19   14.07
 -12 -15   1  153.70   15.49
 -12 -15   1  123.18   13.95
   0 -16   1    3.46    6.34
   0 -16  -1   -0.13    5.22
   0 -16   1    1.44    3.82
   0 -16  -1   -1.69    7.98
   0 -16   1    0.64    6.67
  -1 -16   1   14.36   10.71
  -1 -16  -1   21.66    8.48
   1 -16  -1   13.77    8.55
   1 -16   1   20.02    6.89
  -1 -16   1   28.68   10.41
   1 -16  -1   20.44    7.65
   1 -16   1   17.94   13.11
   1 -16   1   20.26    8.69
  -1 -16  -1   12.14   10.86
   1 -16  -1   27.82   12.02
   1 -16   1   39.28   12.82
  -1 -16   1   17.87   12.17
  -2 -16   1   14.41    7.23
   2 -16  -1   15.34   10.20
  -2 -16   1   14.78   10.56
  -2 -16   1   11.68   11.70
   2 -16  -1   11.81    6.76
   2 -16   1   10.83    6.03
   2 -16  -1   19.15   12.33
   2 -16   1   -1.66    8.43
   2 -16   1   17.87    8.95
  -2 -16  -1    9.02    5.54
  -2 -16  -1    6.55    9.82
  -3 -16  -1  202.94   35.08
   3 -16  -1  201.22   29.50
   3 -16  -1  191.33   35.84
  -3 -16   1  265.73   39.25
   3 -16   1  204.58   31.72
  -3 -16   1  214.85   35.84
  -3 -16  -1  201.12   28.84
  -3 -16   1  224.90   31.81
   3 -16   1  205.11   37.26
  -4 -16  -1    2.37    6.59
   4 -16   1   -4.73   10.55
  -4 -16   1   -7.23    6.06
   4 -16  -1    3.24    3.78
  -4 -16   1    2.94    2.58
  -4 -16   1   -1.23    7.83
  -4 -16  -1    3.36    4.51
   4 -16   1    4.90    9.89
   4 -16  -1   -1.03    5.00
  -5 -16  -1  302.15   35.72
   5 -16  -1  248.60   47.89
   5 -16  -1  217.73   28.13
  -5 -16   1  251.25   32.98
  -5 -16   1  332.87   35.36
  -5 -16   1  218.13   33.80
   5 -16   1  254.85   48.34
  -5 -16  -1  189.38   32.09
   5 -16   1  205.93   29.92
   6 -16  -1    4.55   12.38
   6 -16   1   14.51   11.94
  -6 -16   1   16.26    8.46
  -6 -16  -1    9.77    8.10
  -6 -16   1    3.66    7.15
   6 -16   1   -2.52    9.06
  -6 -16  -1   13.35    6.32
  -7 -16  -1  194.78   32.37
   7 -16  -1  522.17   60.63
   7 -16   1  514.45   59.86
  -7 -16   1  200.52   33.20
  -8 -16   1    3.17    6.62
  -8 -16  -1   -2.25    4.21
   8 -16  -1    1.07    5.41
   8 -16   1   -2.62    5.55
   9 -16  -1  159.55   24.01
   9 -16   1  158.90   25.14
  -9 -16  -1  175.31   24.95
  -9 -16   1  168.42   24.17
 -10 -16  -1    3.15    1.96
  10 -16   1    2.35    3.92
  10 -16  -1   -3.92    3.66
 -10 -16  -1    4.73    2.06
 -10 -16   1   -0.36    2.65
 -10 -16   1    1.77    2.56
 -11 -16   1    9.35    3.82
 -11 -16  -1   12.35    4.81
   0 -17  -1  109.21   27.87
   0 -17   1  110.37   31.43
   0 -17  -1  118.86   19.39
   0 -17   1  109.98   18.30
   1 -17   1   50.43   20.34
  -1 -17  -1   19.63    9.35
  -1 -17   1    6.62    6.37
  -1 -17   1    9.99    7.01
  -1 -17  -1   28.80   16.05
   1 -17  -1   14.76    7.05
   1 -17  -1   24.72   13.60
   2 -17  -1   80.69   20.29
  -2 -17   1   95.90   24.93
   2 -17   1   79.13   19.09
  -2 -17   1   70.23   16.16
   2 -17  -1   83.78   20.46
  -2 -17  -1   74.38   16.06
  -2 -17  -1   51.33   15.72
   2 -17   1   69.42   21.71
  -3 -17   1    0.29    3.80
  -3 -17  -1   16.22   10.55
   3 -17  -1   -1.52    5.45
  -3 -17   1   -5.54    8.74
   3 -17   1   12.29   11.94
   3 -17   1    1.54    7.07
  -3 -17  -1   11.10    9.14
   3 -17  -1   -4.47    4.72
   4 -17   1   51.95   16.92
   4 -17   1   45.97   17.43
   4 -17  -1   35.33   13.55
   4 -17  -1   20.54   13.34
  -4 -17   1   73.34   18.99
  -4 -17   1   29.71   12.62
  -4 -17  -1   31.11   13.33
  -4 -17  -1   74.85   17.33
   5 -17   1   -2.54    8.85
  -5 -17  -1    0.45    4.66
   5 -17  -1    0.05    5.77
  -5 -17  -1    5.06    7.10
  -5 -17   1   -2.89    4.70
   5 -17  -1   -5.24    7.79
  -5 -17   1   -5.33    8.10
   5 -17   1   12.64   10.41
   6 -17   1    0.55   15.22
   6 -17   1    5.50    5.17
  -6 -17   1   -0.44    5.53
   6 -17  -1   -5.24   10.89
  -6 -17  -1   11.26    9.11
  -7 -17   1   10.30    6.07
   7 -17   1   11.18   10.69
   7 -17  -1   13.53    9.70
  -7 -17  -1   12.44   10.70
  -8 -17  -1   51.45   13.87
   8 -17  -1   64.53   17.35
   8 -17   1   47.79   13.62
  -8 -17   1   55.64   14.11
   9 -17  -1   65.54   13.83
   9 -17   1   44.62   12.43
  -9 -17   1   69.16   12.25
  -9 -17  -1   64.34   11.85
   0 -18   1  -19.96   17.48
   0 -18  -1    6.41   10.11
  -1 -18  -1   -2.30   11.21
   1 -18   1    0.87    8.62
  -1 -18  -1    1.15    2.67
  -1 -18   1   -0.09    2.50
   1 -18  -1   12.77    7.67
   2 -18  -1   45.94   15.41
   2 -18   1   34.96   10.75
   2 -18   1   37.82   15.29
  -2 -18   1   24.82    9.26
  -2 -18  -1   48.27   17.89
  -2 -18  -1   25.07   10.34
   2 -18  -1   38.71   12.56
  -2 -18   1   50.32   16.40
   3 -18  -1   94.65   22.20
  -3 -18   1  100.62   22.12
  -3 -18   1   48.05   13.61
  -3 -18  -1   71.60   16.26
  -3 -18  -1  112.69   23.54
   3 -18   1  137.14   25.79
   3 -18  -1   85.66   21.35
   3 -18   1   96.00   23.36
   4 -18  -1   58.66   16.85
  -4 -18  -1   24.89   10.01
  -4 -18   1   36.35   12.70
  -4 -18   1   63.88   13.93
   4 -18   1   39.50   13.84
  -4 -18  -1   61.12   14.00
   4 -18   1   86.30   23.03
   4 -18  -1   73.40   23.60
   5 -18   1  142.73   23.54
  -5 -18  -1   73.17   16.95
   5 -18  -1  174.36   37.89
   5 -18   1  175.17   35.88
   5 -18  -1  126.22   19.82
  -5 -18  -1  229.31   24.02
  -5 -18   1   50.19   13.93
   6 -18  -1   56.51   21.02
  -6 -18   1   27.94    9.29
  -6 -18  -1   54.68   13.57
   6 -18   1   62.37   19.97
  -7 -18  -1  299.37   27.68
   7 -18  -1  411.38   49.43
  -7 -18   1  292.26   26.37
   7 -18   1  317.53   44.04
   0 -19   1  -11.82   17.15
   0 -19  -1   20.26   13.34
   1 -19  -1  103.98   27.09
  -1 -19  -1  140.89   32.55
   1 -19   1  127.97   38.47
  -1 -19   1  173.69   35.92
  -2 -19   1   34.91   12.86
  -2 -19  -1   33.22   14.46
   2 -19   1   11.67   12.82
   2 -19  -1   21.13   13.90
   3 -19  -1   96.46   22.29
  -3 -19  -1  121.32   20.15
  -3 -19   1  136.63   22.14
   3 -19   1  104.16   25.01
  -4 -19   1    7.62    5.46
  -4 -19  -1    9.99    7.38
   0   0  -2 3227.42   66.18
  -1   0   2   11.76    3.37
  -1   0  -2   15.75    4.59
   1   0  -2   13.32    3.68
   1   0   2    7.51    2.71
   1   0   2   14.93    3.04
   2   0  -2 1720.21   53.15
   2   0   2 1658.86   44.51
  -2   0   2 1552.99   54.75
   3   0   2    0.87    1.81
  -3   0  -2    2.30    2.10
   3   0  -2    5.43    3.63
  -3   0   2   -0.94    2.98
   4   0  -2  248.05   34.01
   5   0   2   13.10    4.82
  -5   0   2    4.17    4.12
  -5   0   2    1.53    4.25
   5   0  -2    3.47    1.75
   5   0  -2    4.98    3.61
  -5   0  -2    6.31    5.03
   5   0   2    3.52   10.43
  -6   0   2  179.90   21.62
   6   0  -2  204.90   18.79
   6   0   2  300.95   28.66
  -6   0  -2  202.99   16.48
  -6   0  -2  286.75   25.91
  -6   0   2  230.34   20.49
  -6   0   2  203.85   20.94
  -7   0   2    6.01    6.36
  -7   0  -2    1.79    2.44
  -7   0   2   -0.65    4.74
   7   0   2    0.39    3.27
  -7   0   2    5.63    4.33
   8   0   2  130.29   17.10
  -8   0   2  129.47   17.63
  -8   0   2  143.29   17.43
  -8   0   2  139.60   18.95
  -8   0  -2  123.15   16.85
  -9   0  -2    1.04    2.63
  -9   0   2    4.33    5.20
  -9   0   2   -1.05    1.93
  -9   0   2    3.40    5.13
   9   0   2   -4.28    4.40
 -10   0  -2  165.63   20.93
 -10   0   2  184.48   21.16
 -10   0   2  200.23   22.43
  10   0   2  179.01   20.35
 -10   0   2  171.70   22.77
 -11   0  -2    1.81    2.10
 -11   0   2    1.19    2.96
 -11   0   2   -1.09    2.47
 -12   0  -2   64.78   13.88
 -12   0   2   97.76   17.07
 -13   0  -2   -4.41    5.61
 -13   0   2    0.80    1.97
 -14   0  -2  159.21   22.55
  14   0  -2  103.04   24.16
 -14   0   2  148.02   22.23
  14   0   2  168.94   24.45
 -14   0   2  174.81   23.80
  15   0  -2    5.62    6.09
 -15   0   2   -3.13    4.97
  15   0   2    6.11    6.68
  15   0  -2   -3.92    4.69
 -16   0   2   14.65    7.63
  16   0   2   11.20    7.12
  16   0  -2   -0.18    5.30
  17   0  -2    5.32    5.70
  17   0   2    3.05    4.66
  18   0   2   32.23    8.33
  18   0  -2   41.50    9.85
  19   0   2   -5.00    3.60
  19   0  -2    1.86    2.59
   0  -1  -2    4.08    3.17
   0   1  -2    4.30    2.15
  -1  -1   2  124.18   13.56
   1   1  -2  130.37    9.04
   1  -1  -2  140.09   15.44
   1  -1   2  158.52   22.75
   1  -1   2  137.36   12.83
   1  -1  -2  148.99   13.30
  -1  -1  -2  144.81   15.17
   1   1   2  133.44   10.39
   1   1  -2  139.94   16.70
   2  -1   2  153.88   32.42
   2  -1  -2  159.98   17.01
   2   1  -2  144.21   18.35
   2   1   2  140.82   17.16
  -2  -1  -2  147.12   17.03
   2  -1  -2  140.99   17.69
  -2  -1   2  138.06   25.22
  -2   1  -2  145.75    9.55
   3   1  -2 2826.90  112.64
   3  -1  -2 2810.46   90.18
   3  -1   2 2880.47  175.86
   3  -1   2 2680.99   44.01
  -3  -1  -2 2875.17   87.00
   4   1  -2 1115.08   83.68
  -4  -1   2 1679.11  181.77
   4  -1   2 1306.89  125.28
   4  -1  -2 1007.34   65.42
  -4  -1  -2 1836.59  164.38
   4  -1   2 1060.73   32.60
  -4  -1   2 1014.71   41.73
   5   1  -2 3571.33  166.80
   5  -1  -2 3190.54  140.34
   5  -1  -2 3198.45   75.87
  -5   1   2 3151.61  146.46
  -5  -1   2 4141.54  109.21
   5  -1   2 3394.54   72.60
   5  -1   2 3070.01   92.20
  -5   1  -2 4020.26  105.17
  -5  -1   2 3194.58   79.84
  -5   1   2 3130.07   73.71
  -5  -1  -2 6853.96  323.33
  -5  -1   2 6558.20  342.16
  -5  -1   2 2906.07   70.36
   5  -1   2 3759.25  217.18
  -5   1   2 3668.95   78.57
  -6   1   2   45.46   13.01
  -6   1  -2  105.37   16.54
  -6  -1   2  115.91   16.66
  -6  -1  -2   67.44    9.35
  -6  -1  -2   83.94   11.33
  -6  -1   2   79.06   13.31
  -6   1   2   81.80   12.85
   6  -1   2   79.34   15.20
  -6  -1   2   69.64   12.05
   6   1  -2   59.44    9.70
  -7   1   2 4779.99  106.85
  -7  -1   2 5950.42  117.89
  -7  -1   2 5082.12  108.85
  -7  -1   2 5308.35  106.00
  -7   1   2 5588.41  104.07
  -7   1  -2 5312.05  116.07
   7   1   2 4809.43  106.18
   7  -1   2 5589.11  122.89
  -7  -1  -2 5540.73   98.67
   8   1   2   34.25    8.99
  -8  -1  -2   28.96    7.53
  -8   1   2   20.02   10.28
  -8  -1   2   25.29    8.11
  -8   1  -2   33.17    9.15
  -8   1   2   23.90    7.37
  -8   1   2   28.64    7.88
   8  -1   2   27.78    7.78
  -8  -1   2   32.30    8.79
  -8  -1   2   35.83    9.79
  -9  -1   2 1521.37   62.22
  -9   1   2 1448.80   62.95
  -9   1   2 1503.17   56.94
  -9  -1  -2 1249.06   54.84
  -9   1   2 1427.40   68.43
   9   1   2 1372.72   54.08
  -9   1  -2 1412.65   60.65
  -9  -1   2 1403.77   56.36
   9  -1   2 1498.00   62.70
  -9  -1   2 1522.31   60.68
 -10   1   2    8.16    5.71
 -10  -1   2    1.82    3.06
 -10  -1   2    5.98    3.11
 -10  -1   2   12.95    6.88
 -10   1  -2   16.01    5.55
 -10  -1  -2   12.01    5.64
 -10   1   2   10.22    4.52
  10  -1   2   18.87    6.62
 -11  -1   2   21.72    8.36
 -11   1  -2   17.50    9.21
 -11  -1  -2   22.14    7.82
 -11   1   2   17.77    7.01
 -11  -1   2   20.39    8.02
 -11   1   2   20.88    8.39
 -11   1  -2   20.37    7.44
 -12   1  -2   18.67    7.06
 -12   1   2    7.49    2.22
 -12  -1   2   14.01    7.25
 -12  -1  -2   11.73    5.37
 -12   1   2    4.24    4.05
 -13   1  -2  228.80   26.85
 -13  -1  -2  217.23   25.98
 -13  -1   2  232.06   26.45
 -13   1   2  226.08   28.40
 -13   1   2  248.90   27.06
 -14   1   2   95.53   17.72
 -14   1   2  107.76   18.44
  14  -1   2   93.81   19.07
 -14  -1  -2  101.04   18.31
  14  -1  -2  103.88   19.27
  14   1   2   93.95   19.10
 -14  -1   2  106.65   19.07
  14   1  -2   60.41   17.79
 -14  -1   2   99.00   18.47
 -14   1  -2  100.72   18.16
  14  -1   2  123.40   20.69
  15   1   2  577.72   45.09
  15  -1   2  594.59   43.76
 -15   1   2  565.21   42.04
  15  -1   2  505.29   41.88
  15  -1  -2  537.59   44.58
  15  -1  -2  551.08   44.27
  15   1  -2  562.06   45.67
 -15  -1   2  564.29   43.15
  15   1  -2  570.78   45.21
 -16   1   2   48.61   12.67
  16  -1   2   63.24   14.93
  16   1   2   29.63    9.19
  16   1  -2   32.78    9.93
  16  -1   2   33.34   10.23
  16  -1  -2   35.54   10.38
 -16  -1   2   35.90   10.35
  16  -1  -2   38.32   10.65
  17   1  -2  737.28   45.32
  17   1   2  749.96   44.86
  17  -1   2  710.99   43.29
  17  -1  -2  731.39   45.40
  18   1   2   -1.13    4.16
  18  -1  -2    5.16    3.57
  18   1  -2    6.40    4.11
  18  -1   2    9.73    5.09
  19   1  -2  496.04   26.93
  19   1   2  478.68   26.44
  19  -1   2  480.98   26.02
  19  -1  -2  485.74   26.51
   0  -2  -2  149.16   17.30
   0   2  -2  164.86   16.55
   0   2  -2  141.69   10.29
  -1   2  -2 1047.54   40.90
   1   2  -2 1200.62   47.51
  -1  -2   2 1185.52   46.73
   1  -2  -2 1108.52   46.11
  -1   2   2 1265.24   49.59
   1   2   2 1309.92   42.78
  -2  -2  -2  112.76   13.92
   2   2   2  137.02   17.14
   2  -2   2  120.89   16.40
  -2  -2   2  117.58   17.91
  -2  -2  -2  123.96   18.25
   2  -2  -2  142.55   17.56
  -2   2  -2  102.38   19.39
   2  -2  -2  109.55   15.37
  -3  -2  -2 1454.94   68.19
  -3  -2   2 1302.83   81.89
   3  -2  -2 1621.07   68.29
  -3  -2  -2 1651.13   75.74
   3  -2   2 1425.95   76.85
   3  -2  -2 1542.11   64.00
  -4  -2  -2   97.94   24.78
  -4  -2  -2  105.21   11.11
  -4   2   2  126.74   11.33
  -4  -2   2  118.63   16.23
  -4  -2   2   57.20   22.46
  -4   2   2  144.05   25.60
   4  -2   2  119.05   14.35
   4  -2  -2  109.99   14.79
  -4  -2   2  115.30   12.92
  -4  -2  -2  108.46   21.77
   4   2  -2  129.29   35.08
  -4   2  -2  104.60   14.66
   4  -2  -2  116.84   20.32
   4  -2   2  118.76   28.05
   4  -2  -2  111.30   20.48
  -5   2   2   56.41    9.42
   5  -2  -2   50.92   16.03
  -5  -2   2   91.29   13.67
   5  -2   2   48.30   21.78
   5  -2  -2   47.19   16.02
  -5  -2  -2   49.87    8.70
   5   2  -2   60.34   23.56
  -5   2  -2   44.77    9.74
  -5  -2   2   69.01   11.95
  -5  -2  -2   22.30   15.27
  -5  -2   2   47.79    9.65
  -5  -2  -2   51.74    8.82
   5  -2   2   45.46    9.32
  -6  -2  -2    2.74    2.98
  -6  -2   2    3.93    4.08
  -6  -2   2    5.91    4.03
  -6  -2  -2    0.79    1.45
   6   2  -2    3.82    2.30
   6  -2   2   -0.80    4.49
  -6  -2  -2    0.16    1.47
  -6   2   2   -0.19    2.98
  -6   2  -2    8.64    5.86
  -6  -2   2    8.92    4.96
  -7  -2   2   13.13    5.45
  -7   2   2   21.10    8.99
  -7  -2  -2   20.15    6.48
  -7  -2   2   27.29    8.38
  -7  -2  -2   21.92    6.62
  -7   2  -2    8.58    3.87
   7  -2   2   22.64    8.12
  -7  -2  -2   23.45    6.50
  -7  -2   2   11.34    5.59
  -7   2   2   15.42    4.80
  -8  -2   2  243.82   24.58
  -8   2   2  194.76   28.43
  -8  -2  -2  229.49   22.42
  -8  -2  -2  259.42   23.89
  -8   2   2  239.55   22.15
  -8   2  -2  230.77   26.14
   8  -2   2  239.50   26.62
  -8   2   2  207.55   23.35
  -8  -2   2  217.54   23.04
   9   2   2  473.78   31.74
  -9   2   2  501.34   46.49
  -9  -2   2  581.23   38.76
  -9  -2  -2  563.00   37.39
  -9  -2  -2  534.74   35.13
   9  -2   2  614.28   43.13
  -9   2   2  548.26   35.05
  -9   2  -2  592.40   42.05
  -9  -2   2  517.36   36.78
 -10   2   2  129.67   25.03
 -10  -2   2   94.94   16.20
 -10   2  -2  112.24   17.95
 -10  -2   2  116.75   17.82
  10  -2   2  134.51   19.41
 -10  -2  -2  112.58   16.96
 -10   2   2  114.56   16.48
 -11  -2   2  557.95   40.45
 -11   2   2  569.00   38.68
 -11   2   2  615.27   49.69
 -11  -2  -2  527.62   37.61
 -11   2  -2  520.51   39.94
 -11  -2   2  574.33   40.79
 -12   2   2   18.09    9.09
 -12  -2   2   19.61    8.12
 -12  -2  -2   23.52    8.16
 -12   2   2   21.44    8.21
 -12   2  -2   18.23    8.58
 -12  -2   2   35.00   10.44
 -12   2  -2   16.04    7.17
 -13   2   2  553.91   44.21
 -13  -2   2  551.45   42.48
 -13  -2  -2  491.33   39.03
 -13   2  -2  466.64   38.99
 -13   2   2  596.27   41.94
 -14   2   2   58.17   13.24
  14   2   2   57.87   14.64
 -14   2  -2   57.44   13.67
  14  -2  -2   62.96   15.49
 -14  -2  -2   53.65   13.26
 -14  -2   2   68.05   15.06
 -14  -2   2   53.97   13.95
  14  -2   2   53.56   13.13
  14  -2   2   59.67   13.75
  15  -2   2  175.16   24.67
  15   2  -2  180.03   25.26
 -15  -2   2  154.94   22.37
 -15   2   2  198.46   24.60
  15  -2  -2  175.85   25.24
  15  -2   2  190.16   25.40
  15   2   2  152.80   23.36
  15  -2  -2  144.88   24.14
  16   2  -2    7.63    3.33
  16  -2  -2    5.81    2.39
  16  -2  -2    3.41    2.90
  16  -2   2    9.49    3.98
 -16  -2   2    9.57    4.79
  16  -2  -2    1.59    4.19
  16   2   2   -1.68    3.38
  16  -2   2    2.84    2.44
  17  -2  -2    5.17    3.71
  17   2  -2   -4.20    5.09
  17  -2   2   -1.43    3.17
  17  -2   2   -6.37    5.82
  17  -2  -2    3.57    3.93
  17   2   2   -1.36    3.35
  18   2   2    2.76    3.46
  18   2  -2   14.96    5.93
  18  -2   2    0.82    2.06
  18  -2  -2   13.87    5.49
  18  -2   2    2.88    3.16
  19   2   2   49.15    8.21
  19   2  -2   55.96    9.20
  19  -2  -2   62.20    9.26
   0   3  -2    4.89    3.52
   0   3   2    0.80    3.66
   0   3  -2    2.01    1.79
   0  -3  -2   -0.46    1.53
  -1   3   2  221.38   22.56
  -1   3  -2  201.55   25.36
   1  -3   2  223.28   18.15
  -1   3  -2  226.68   19.50
   1  -3  -2  192.94   22.40
   1   3   2  218.24   20.87
   2   3   2   27.27    8.17
  -2  -3   2   17.67    7.62
   2  -3   2   16.01    6.06
  -2   3   2   18.96    6.99
  -2   3  -2   18.39    7.09
   2   3   2   20.02    4.28
  -2  -3  -2   16.38    7.67
   2  -3  -2   11.88    5.88
   2  -3  -2   14.35    6.18
  -2   3  -2   19.26    4.84
  -3  -3  -2  989.00   66.32
   3  -3   2  986.47   32.34
  -3  -3  -2  927.72   38.81
  -3   3  -2  873.36   62.39
  -3  -3  -2  950.34   54.45
   3   3   2  982.89   61.75
   3  -3   2  934.64   56.25
   3  -3  -2  972.08   55.83
  -3  -3  -2  991.56   31.98
  -3  -3   2  880.55   63.03
   3  -3  -2  980.07   51.82
  -4  -3   2   37.41   16.15
  -4  -3  -2   52.03   16.56
  -4   3  -2   49.17    8.80
   4  -3   2   47.01    8.31
  -4  -3   2   56.60   11.42
  -4  -3  -2   45.51    8.40
  -4   3   2   42.77   13.82
  -4  -3   2   51.11    9.02
  -4   3  -2   30.49   14.45
   4  -3  -2   47.85   12.41
  -4   3   2   53.00    7.41
  -4  -3  -2   32.01    7.86
  -4  -3  -2   40.85    7.61
  -4  -3  -2   34.39   15.03
   4  -3  -2   43.78    6.87
   4  -3   2   54.68   16.75
   4  -3  -2   32.65   11.57
  -5  -3   2 1066.03   49.63
  -5  -3  -2 1022.97   48.92
   5  -3   2  890.93   83.42
  -5   3   2  772.73   36.57
   5  -3   2  882.09   42.55
  -5   3  -2  851.54   44.33
  -5  -3  -2  871.62   38.07
   5  -3  -2  859.18   60.90
  -5  -3  -2 1017.39   41.17
   5  -3  -2  982.73   38.91
  -5  -3  -2  754.29   77.07
   5   3  -2  886.16   93.39
   6  -3   2  185.56   22.01
  -6  -3   2  227.00   23.01
  -6  -3   2  119.03   20.13
  -6   3  -2  179.79   23.05
  -6  -3  -2  243.64   23.87
  -6   3   2  228.66   21.57
  -6  -3  -2  177.72   18.90
   6  -3  -2  182.83   19.61
  -6  -3  -2  213.83   20.24
  -7  -3  -2 1354.44   55.62
   7  -3   2 1304.19   64.97
  -7  -3   2 1076.47   57.53
  -7   3   2 1329.26   61.67
  -7  -3  -2 1643.68   62.59
   7  -3  -2  900.92   49.95
  -7  -3   2 1470.80   59.21
  -7   3  -2 1156.49   63.47
  -8  -3   2   11.67    4.36
  -8  -3   2   12.72    6.74
  -8   3   2   18.72   10.81
  -8  -3  -2   18.05    5.69
   8  -3   2   24.22    9.82
  -8  -3  -2   22.50    7.50
  -8   3  -2   26.27   10.08
  -8  -3  -2   23.14    8.08
   8  -3  -2   13.13    6.74
  -9  -3   2  349.58   31.89
   9  -3   2  344.73   34.17
  -9   3   2  346.87   28.10
  -9  -3  -2  366.61   31.69
  -9  -3  -2  345.82   29.42
  -9  -3   2  331.21   29.21
  -9   3  -2  312.39   33.75
   9  -3  -2  264.97   30.17
  -9   3   2  277.16   37.24
 -10  -3  -2    2.02    3.57
 -10   3  -2   -5.49    3.81
 -10  -3   2    5.20    2.81
 -10  -3  -2    1.77    1.87
 -10  -3   2    6.18    3.45
  10  -3   2    4.98    2.93
 -10   3   2   -2.32    3.33
 -10   3   2    4.71    9.50
 -11   3   2    2.23    7.10
 -11  -3  -2    5.14    4.23
 -11  -3   2    0.31    4.30
 -11   3  -2    0.91    3.29
 -11   3   2    4.27    4.94
 -11  -3   2   -2.68    5.54
 -12  -3   2    3.84    4.29
 -12   3  -2   -0.30    3.02
 -12   3  -2    2.28    4.65
 -12   3   2    3.08    5.30
 -12  -3  -2    6.58    3.58
 -12  -3   2    3.01    4.28
 -13  -3  -2   25.68    8.66
  13  -3   2   52.09   14.72
 -13  -3  -2   23.07   12.08
 -13   3  -2   37.23   10.70
 -13  -3   2   36.20   10.80
  13  -3  -2   34.79   11.39
  13   3   2   36.55   11.88
  13  -3   2   46.99   13.29
  13  -3   2   48.60   12.89
 -13   3   2   36.81   11.51
 -13  -3   2   54.18   13.90
  14  -3   2   96.65   19.61
  14   3   2  120.69   20.83
 -14  -3   2  106.53   19.60
  14   3  -2  113.79   21.36
  14  -3  -2   75.77   20.87
  14  -3   2  123.28   20.86
  15   3  -2  187.09   25.22
  15  -3  -2  174.19   24.98
  15  -3   2  161.03   23.69
  15  -3  -2  154.79   24.94
  15   3   2  209.15   26.20
 -15  -3   2  185.02   24.73
  15  -3   2  154.37   21.79
  16   3   2   47.36   12.27
  16  -3  -2   66.29   13.71
  16  -3   2   83.65   14.91
  16   3  -2   72.09   14.47
  16  -3  -2   47.18   13.78
  16  -3   2   65.52   13.38
  16  -3  -2   60.65   11.79
 -16  -3   2   59.81   14.41
  17   3   2  279.92   27.16
  17  -3  -2  280.73   25.51
 -17  -3   2  294.06   25.73
  17  -3   2  275.40   26.02
  17  -3  -2  287.88   26.30
  17  -3   2  269.45   24.73
  17   3  -2  309.41   28.43
  18   3   2   29.65    7.99
  18  -3  -2   19.55    6.41
  18  -3  -2   19.10    5.32
  18   3  -2   27.53    8.13
  18  -3   2   29.90    7.18
  18  -3   2   22.93    6.02
  19   3  -2  282.01   19.19
  19   3   2  269.03   19.34
   0   4  -2   46.44    8.83
   0  -4  -2   45.02    7.91
   0   4  -2   47.09   15.45
   0   4   2   48.16   12.85
   0   4  -2   49.34   11.59
   1   4  -2 1630.39  116.04
  -1  -4  -2 1690.50   83.63
   1   4  -2 1697.28   69.46
  -1   4   2 1890.06   73.68
   1   4   2 1757.34   67.73
  -1  -4   2 1577.43   52.36
  -1   4  -2 1736.28   74.13
   1   4   2 1729.95   80.48
  -1   4  -2 1851.80   65.97
  -2  -4  -2   15.38    3.94
   2  -4   2   18.91    6.73
  -2  -4  -2   19.34    9.51
  -2  -4   2   21.56    5.69
  -2  -4  -2   19.33    7.31
   2  -4  -2   17.07    6.04
   2   4   2   26.73    9.22
   2   4  -2   17.34    7.51
  -2  -4   2   27.50    7.44
   2   4   2   15.45    4.77
  -2  -4  -2   12.02    5.76
  -2   4   2   17.09    6.68
  -2   4  -2   17.33    7.14
   2  -4  -2   17.41    3.77
  -2   4   2    9.39    3.54
   2   4  -2   13.91    9.41
   2  -4   2   19.69    5.57
  -3  -4   2  773.24   59.68
   3  -4   2  772.06   49.56
  -3   4  -2  737.76   27.16
  -3   4  -2  819.90   23.77
   3   4  -2  828.12   63.86
   3  -4  -2  731.28   49.80
   3  -4   2  851.90   31.28
   3  -4   2  722.50   50.34
   3  -4  -2  821.71   27.86
   3   4  -2  841.15   94.30
  -3   4  -2  809.78   58.76
   3   4   2  938.60   63.03
  -3  -4   2  803.64   42.82
  -3  -4  -2  861.16   68.51
  -3  -4   2  959.13   39.37
  -3   4   2  784.28   57.35
   3  -4   2  793.12   34.15
   3  -4  -2  783.16   53.80
  -3   4   2  823.38   49.07
  -3  -4  -2  814.08   31.40
  -3  -4  -2  691.03   39.54
  -3  -4  -2  912.11   41.76
  -4  -4  -2    6.19    4.52
  -4   4  -2    9.39    8.09
  -4  -4  -2    6.18    2.89
  -4  -4  -2    4.64    3.68
  -4  -4   2    3.96    2.90
   4  -4   2    9.01    3.81
  -4   4  -2   10.37    4.37
   4  -4  -2    7.38    6.07
  -4  -4  -2    8.12    3.84
  -4  -4  -2    8.42    4.80
   4  -4  -2    7.42    2.84
   4  -4   2   10.71    4.11
  -4   4   2    8.65    3.21
  -4  -4   2    4.81    4.06
   4   4   2   20.67   11.84
   4  -4   2   10.76    7.15
   5  -4  -2  182.91   16.20
  -5  -4  -2  120.02   16.49
  -5  -4  -2  149.16   16.95
  -5   4  -2  160.30   18.46
  -5   4   2  191.05   16.30
  -5  -4   2  203.48   22.82
  -5  -4  -2  191.86   21.06
   5  -4   2  178.73   19.29
  -5  -4  -2  177.78   18.73
   6  -4   2   62.12   12.96
  -6  -4  -2   80.93   13.15
  -6  -4   2   75.36   13.22
  -6   4  -2   69.40   14.22
  -6  -4  -2   62.13   12.35
  -6   4   2   61.36   11.71
  -6  -4  -2   65.66   13.23
  -6  -4   2   69.34   13.74
  -6  -4  -2   78.92   12.78
   6  -4  -2   64.97   11.10
   7  -4   2  244.04   27.98
   7  -4  -2  212.78   23.90
  -7  -4   2  199.04   24.21
  -7   4  -2  232.40   28.61
  -7  -4  -2  289.02   24.17
  -7  -4   2  253.78   25.14
  -7  -4  -2  292.87   27.93
  -7  -4  -2  252.05   25.34
  -7   4   2  260.66   25.83
  -8  -4  -2   35.38    9.71
   8  -4  -2   31.35   10.86
  -8  -4  -2   25.50    7.91
  -8   4   2   30.93   11.48
  -8  -4  -2   28.36    7.90
  -8  -4   2   31.44   10.63
   8  -4   2   34.05   11.14
  -8  -4   2   28.95    8.66
  -8   4  -2   25.23   10.47
  -9   4  -2 1267.07   72.51
  -9  -4  -2 1699.30   69.47
  -9   4   2 1238.41   81.77
  -9  -4  -2 1716.48   69.91
   9  -4   2 1507.21   75.83
  -9  -4   2 1465.33   62.86
  -9  -4   2 1496.14   71.09
 -10  -4   2  201.23   23.67
 -10  -4  -2  185.79   22.92
 -10   4  -2  172.46   26.50
 -10  -4   2  155.83   23.01
 -10   4   2  169.62   29.87
  10  -4   2  166.93   24.66
 -10  -4  -2  188.32   23.74
 -11  -4   2 1140.66   58.81
 -11  -4  -2 1172.57   59.65
 -11  -4  -2 1293.85   63.19
 -11   4  -2 1102.35   65.82
 -11   4   2 1082.13   76.47
 -12  -4  -2   11.73    5.80
 -12   4  -2   -0.28    2.52
 -12   4   2  -10.71   11.98
 -12  -4   2    0.54    4.47
 -13   4  -2  910.46   55.50
 -13   4  -2 1054.14   61.39
  13   4   2  985.60   60.87
  13  -4  -2 1115.40   67.40
  13  -4  -2  983.99   64.74
 -13  -4   2 1165.46   64.45
 -13  -4   2 1126.15   62.19
 -13  -4  -2 1091.92   59.16
 -13  -4  -2  966.84   58.75
 -13   4   2 1067.39   66.81
  13  -4   2 1120.85   64.44
  13  -4   2  978.93   62.95
 -14  -4   2   40.48   11.89
  14  -4   2   25.18   10.22
  14   4  -2   31.63   11.69
  14  -4   2   30.06   10.80
  14   4   2   40.64   12.29
  14  -4  -2   11.81    9.39
 -14  -4  -2   46.43   12.82
  14  -4  -2   25.28   10.79
  15  -4  -2  588.89   43.21
  15  -4   2  519.13   42.00
 -15  -4  -2  573.10   41.21
  15   4   2  590.79   44.74
  15  -4  -2  533.21   41.72
  15   4  -2  540.34   42.68
 -15  -4   2  547.10   42.43
  15  -4  -2  529.95   44.09
  16   4   2   30.00    8.77
 -16  -4   2   26.95    9.14
  16  -4   2   31.16    9.85
  16  -4  -2   33.41   10.22
  16  -4  -2   42.28   10.59
  16   4  -2   27.66    9.67
 -17  -4   2   27.36    7.68
  17  -4   2   16.59    6.64
  17  -4  -2   22.69    7.92
  17  -4  -2   24.30    8.34
  17   4  -2   30.02    8.54
  17   4   2   24.73    8.63
  18   4   2   -3.05    3.97
  18  -4   2    3.39    3.45
 -18  -4   2   -3.61    3.32
  18   4  -2   -3.33    2.55
  18  -4  -2    4.97    4.67
   0  -5  -2   10.35    6.21
   0  -5  -2   18.72    7.93
   0   5  -2    5.72    6.73
   0  -5  -2   10.24    3.92
   0  -5  -2    1.72    1.92
   0  -5  -2   16.73   11.26
   0  -5  -2    5.00    2.41
   0   5  -2    5.44    2.34
   0  -5   2   12.85    6.02
   0   5  -2    4.20    4.14
   0   5   2   -1.81    5.68
   0   5   2   11.28    6.24
   0  -5   2    6.45    2.49
  -1  -5  -2   18.19    6.82
  -1  -5  -2   11.77    4.00
  -1  -5   2   15.31    3.54
  -1   5   2   19.92    9.19
   1   5  -2   15.55    6.80
   1  -5   2   16.40    4.05
   1  -5  -2    5.91    2.78
   1   5  -2   26.13   12.60
  -1   5   2   14.61    7.09
  -1  -5  -2   13.01    4.38
   1   5  -2   15.17    5.44
  -1  -5  -2   18.90    7.00
   1  -5   2   19.74    6.58
   1   5   2   12.33    4.66
   1   5   2   17.67    7.79
   1  -5  -2   17.36    4.58
  -1   5  -2   15.77    6.58
  -1  -5   2   18.76    6.00
  -1   5  -2   13.78    7.05
   1  -5   2   21.14    8.38
  -1  -5  -2   14.00    8.07
   1   5  -2   14.36    6.85
   2  -5  -2   17.55    7.74
  -2  -5  -2   12.71    4.16
   2   5   2   18.11    8.94
  -2  -5   2   20.20    6.31
  -2  -5  -2   15.74    5.51
   2  -5   2   19.00    7.39
   2   5   2   11.05    5.03
   2   5  -2   -0.82   10.40
   2   5  -2   21.48    9.85
   2  -5  -2   17.92    5.09
  -2  -5  -2   16.02    6.17
  -2  -5   2   12.44    3.06
  -2  -5   2   13.95    4.69
  -2   5  -2   16.16    7.46
   2  -5   2   -0.16    2.20
  -2   5  -2   13.19    3.46
  -2   5   2   13.07    5.89
   3  -5  -2   28.46    7.37
  -3  -5   2   20.65    4.20
  -3  -5   2   19.50    7.18
  -3  -5  -2   13.67    4.91
  -3  -5   2   20.25    5.98
   3  -5   2   17.31    7.98
  -3   5   2   18.26    7.52
  -3  -5  -2   17.30    5.00
  -3   5  -2   18.91    4.29
   3  -5   2   15.08    5.03
   3  -5  -2   17.96    4.74
   3   5   2   18.81    6.64
  -3   5  -2   23.06   11.09
   3  -5  -2   15.79    3.88
  -4   5   2  242.06   17.04
   4  -5  -2  229.57   19.38
  -4  -5   2  268.21   21.88
  -4  -5  -2  198.88   18.29
  -4  -5  -2  224.71   20.08
  -4  -5   2  195.76   22.64
  -4  -5  -2  213.55   19.37
   4  -5   2  223.99   19.74
   4  -5  -2  210.74   16.19
  -4  -5  -2  214.46   22.34
   4  -5  -2  249.66   20.29
  -4   5  -2  209.92   17.17
  -4  -5  -2  203.94   22.12
  -5  -5  -2   30.55    7.70
   5  -5   2   43.84    8.36
  -5  -5  -2   54.50    8.89
  -5  -5   2   44.19   11.14
   5  -5  -2   50.40    8.78
  -5   5  -2   42.79    8.93
  -5  -5  -2   50.65   11.07
  -5  -5  -2   38.81    9.41
  -5   5   2   51.93    8.38
   6  -5  -2  740.79   38.08
  -6   5   2  673.49   37.57
  -6   5  -2  724.11   45.54
  -6  -5  -2  690.17   41.51
  -6  -5   2  867.83   48.66
  -6  -5  -2  897.05   46.49
  -7  -5  -2   49.48   11.20
  -7  -5   2   59.07   12.18
  -7   5   2   46.37   10.60
   7  -5  -2   36.32    9.92
  -7  -5  -2   37.80   10.75
  -7   5  -2   50.74   14.58
  -7  -5  -2   50.19   10.40
  -8  -5  -2  207.72   26.07
  -8   5   2  161.17   23.88
  -8  -5  -2  180.17   23.06
   8  -5  -2  130.07   19.68
  -8  -5  -2  170.79   19.88
  -8   5  -2  151.09   27.16
  -8  -5   2  184.81   22.49
  -9  -5  -2    4.99    3.25
  -9   5   2   -8.09    9.66
  -9   5  -2    3.85    7.20
  -9  -5  -2    7.89    5.92
  -9  -5  -2    9.07    3.71
  -9  -5   2   -0.16    2.10
 -10   5  -2   10.41    4.95
 -10   5   2   10.04    8.61
 -10  -5   2   11.42    5.31
 -10  -5  -2   13.08    7.80
 -10  -5  -2   16.50    7.92
 -11   5  -2    2.59    4.52
 -11  -5  -2    2.36    6.08
 -11  -5   2    0.13    4.41
 -11   5   2    3.68    7.64
 -11  -5  -2    8.70    5.84
 -12   5   2   -0.21    3.65
 -12  -5  -2    7.32    6.62
 -12  -5   2    0.23    3.55
 -12  -5  -2   -2.79    5.77
 -12   5  -2    1.52    6.00
 -13   5   2    8.44    8.38
  13   5   2   10.98    6.72
 -13  -5  -2   10.89    5.66
  13   5  -2   12.86    6.56
  13  -5  -2   12.63    8.38
 -13   5  -2    8.26    4.29
 -13  -5   2    6.14    2.91
 -13  -5  -2    4.16    5.18
  13  -5   2    4.30    5.67
  13  -5  -2    2.55    2.65
 -13  -5   2   10.35    6.50
 -13   5  -2    6.71    2.65
  13  -5   2   13.22    7.14
  14  -5   2   56.14   14.55
 -14  -5  -2   81.80   16.44
  14  -5  -2   75.85   16.92
  14   5   2   71.46   15.61
  14  -5   2   65.77   15.85
 -14  -5   2   78.60   16.70
  14   5  -2   96.40   17.88
  14  -5  -2   75.66   17.47
  15   5  -2    4.05    3.85
  15   5   2    0.29    3.50
  15  -5   2    3.09    4.43
 -15  -5  -2    4.11    2.06
  15  -5  -2   -6.00    4.92
  15  -5  -2   -6.80    7.35
 -15  -5   2    5.24    6.51
  16   5  -2   81.09   15.81
  16   5   2   69.48   14.06
  16  -5  -2   86.95   16.24
  16  -5  -2   63.37   13.13
 -16  -5   2   96.75   16.40
  16  -5   2   72.18   14.06
 -16  -5  -2   66.34   12.12
  17   5  -2    2.80    2.88
  17  -5   2   -2.30    2.53
 -17  -5   2    1.31    1.93
  17   5   2    4.15    2.61
  17  -5  -2    4.68    4.09
 -18  -5   2   64.14    9.77
  18  -5   2   51.24    9.57
  18   5  -2   73.68   10.84
  18  -5  -2   72.96   10.59
  18   5   2   63.10   10.11
   0  -6  -2  181.17   16.09
   0   6  -2  204.84   34.87
   0  -6   2  181.45   13.65
   0  -6  -2  186.26   23.39
   0  -6   2  176.10   12.46
   0   6  -2  188.78   24.10
   0  -6   2  188.73   22.08
   1  -6  -2 5779.49  131.83
   1  -6   2 6599.84   70.85
   1  -6   2 5826.97  123.71
   1  -6  -2 6825.39  144.73
  -1  -6  -2 6074.97  137.90
   1  -6   2 5853.55   83.60
  -1  -6   2 5888.29   82.12
  -1  -6  -2 6215.23   84.69
  -1  -6   2 6163.95   74.03
   1   6  -2 5884.99  131.49
   1  -6  -2 5626.14  184.73
   1  -6  -2 6324.74   86.02
  -1  -6   2 5505.09  118.74
  -1  -6  -2 6072.40  128.14
  -1   6  -2 6519.39  152.64
  -1  -6  -2 5812.76  102.76
  -2  -6   2   70.51   12.36
  -2  -6   2   74.97    8.10
  -2  -6  -2   79.81   13.74
  -2  -6  -2   90.97   15.94
   2  -6  -2   72.11   15.70
  -2  -6  -2   69.93   12.47
  -2  -6   2   69.68   10.51
   2  -6  -2   56.07   17.50
  -2   6  -2   70.79   17.25
   2  -6   2   77.01   13.69
  -2   6   2   68.14   16.56
  -2  -6  -2   73.84   10.05
   2  -6  -2   78.84   15.07
  -3  -6  -2 1873.00   55.45
   3  -6   2 1886.59   66.34
  -3  -6  -2 1822.47   61.86
  -3   6  -2 1876.98   47.29
   3  -6  -2 1946.23   68.02
  -3   6   2 1921.65   86.17
  -3  -6   2 1714.31   61.09
   4  -6  -2  575.75   33.98
   4  -6   2  536.78   33.99
  -4   6  -2  520.49   28.01
  -4  -6  -2  542.21   32.55
  -4  -6  -2  551.72   32.19
   4  -6  -2  501.55   26.86
  -4  -6   2  443.58   34.73
  -4  -6   2  618.22   35.82
  -4  -6  -2  425.99   35.31
   5  -6   2   21.06    6.88
  -5   6   2   22.65    5.91
  -5  -6  -2   21.85    5.76
  -5  -6   2   18.21    6.79
   5  -6  -2   23.50    6.42
  -5   6  -2   26.89    7.23
  -5  -6  -2   21.39    7.36
  -5  -6  -2   15.06    5.80
  -5  -6   2   28.55    7.61
  -6  -6  -2    5.83    6.63
  -6   6  -2    2.80    2.49
  -6  -6   2   -0.37    4.01
  -6   6   2    0.46    3.33
   6  -6  -2    3.06    2.48
  -6  -6  -2    5.81    3.03
  -6  -6  -2   10.15    6.06
  -7   6  -2  129.80   22.32
  -7  -6  -2  118.70   19.49
  -7  -6   2  149.10   21.63
  -7   6   2  121.51   17.40
  -7  -6  -2  130.06   18.60
  -7  -6  -2   88.13   18.62
   7  -6  -2  109.49   16.54
  -8  -6  -2    3.66    6.92
   8  -6  -2    3.09    4.26
  -8  -6  -2   -2.99    4.27
  -8  -6  -2    6.98    3.75
  -8   6  -2   -9.23    5.68
  -8  -6   2    5.56    5.33
  -8   6   2    3.84    5.87
  -9  -6   2 1266.70   62.86
  -9  -6  -2 1325.74   66.93
  -9  -6  -2 1326.34   58.44
  -9  -6  -2 1490.85   76.26
  -9   6  -2 1067.91   74.63
  -9   6   2 1041.93   66.39
 -10   6   2   71.41   19.02
 -10  -6   2   76.77   15.62
 -10  -6  -2   66.28   15.63
 -10   6  -2   64.53   19.07
 -10  -6  -2   85.36   18.02
 -11  -6   2 1122.46   61.42
 -11  -6  -2 1200.47   64.66
 -11   6  -2 1042.72   69.21
  12   6   2   -5.72    7.28
 -12  -6   2    6.31    4.84
 -12  -6   2   -5.50    4.67
 -12   6   2    0.02    6.68
 -12  -6  -2    1.92    4.67
 -12  -6  -2   -2.28    3.83
 -12  -6  -2   -0.38    5.42
 -12   6  -2    5.42    6.30
  12  -6  -2   16.92   10.15
  12  -6  -2    4.86    5.95
 -12  -6   2   -0.65    2.60
  12  -6   2   -4.93    8.48
 -13  -6   2 1196.77   64.56
 -13  -6   2 1234.77   65.13
  13  -6  -2  993.13   65.50
  13  -6   2 1046.72   63.74
  13   6   2 1026.51   60.72
  13  -6   2 1057.11   64.09
  13  -6  -2 1042.73   66.92
 -13  -6  -2 1206.67   61.93
 -13  -6  -2 1139.08   62.89
  14  -6   2   -1.15    5.15
  14  -6  -2   -2.62    6.08
  14   6   2    4.11    4.59
  14  -6   2    5.30    6.70
  14   6  -2   -2.94    3.67
  14  -6  -2   11.23    8.11
 -14  -6  -2    0.97    2.58
 -14  -6   2    0.52    4.51
 -14  -6   2    2.71    4.74
  15   6  -2  460.41   37.09
  15  -6  -2  335.03   35.45
  15   6   2  420.13   34.77
 -15  -6   2  451.91   37.96
  15  -6  -2  429.80   36.82
 -15  -6   2  449.34   38.58
 -15  -6  -2  429.23   34.93
  15  -6   2  440.07   37.60
 -16  -6   2   16.32    7.13
  16   6   2    8.83    4.39
  16  -6  -2   10.54    6.43
  16  -6   2   16.30    6.58
 -16  -6  -2    9.87    3.62
  16   6  -2   20.11    7.68
  16  -6  -2   18.75    7.27
  16  -6   2   20.17    7.54
  17  -6   2    3.23    2.47
 -17  -6  -2   14.91    5.61
 -17  -6   2   12.79    5.69
  17   6  -2    8.50    3.16
  17  -6  -2   12.53    5.85
  17   6   2    0.66    4.23
 -18  -6   2    2.44    1.89
  18  -6  -2    4.37    2.40
  18   6   2    0.70    3.02
  18  -6   2    6.79    4.30
   0  -7  -2   -0.12    2.41
   0  -7   2    2.31    2.10
   0  -7   2    0.63    1.86
   0  -7  -2    7.88    7.53
   0  -7   2    0.97    2.85
  -1  -7  -2   11.55    3.93
  -1  -7   2   14.77    4.08
  -1  -7   2   11.60    4.31
   1  -7  -2    9.62    6.54
  -1  -7  -2    8.59    5.68
   1  -7   2   14.40    8.12
  -1  -7  -2    6.84    3.45
   1  -7   2    6.88    2.39
  -1  -7   2   12.03    5.67
  -2  -7   2    9.34    6.84
   2  -7   2    4.65    2.96
   2  -7  -2   15.38    7.58
  -2  -7   2    1.91    1.39
   2  -7   2   11.47    5.47
  -2  -7  -2    6.75    1.91
  -2  -7   2    6.81    2.51
  -2  -7  -2    2.09    2.21
  -2  -7  -2   10.26    4.00
  -3  -7  -2  485.24   37.71
  -3  -7   2  611.43   39.88
  -3  -7   2  596.41   37.25
   3  -7   2  595.73   40.99
  -3  -7  -2  633.17   38.75
  -3  -7  -2  637.42   34.37
   3  -7  -2  601.64   41.10
  -3   7  -2  616.50   28.51
   4  -7  -2  143.93   18.87
  -4   7  -2  131.75   14.71
   4  -7   2  146.20   19.41
  -4  -7  -2  123.22   20.22
  -4  -7  -2  123.62   16.88
  -4  -7   2  161.75   20.46
  -4  -7   2  103.28   17.63
  -4  -7  -2  129.58   17.04
  -5  -7  -2  407.02   37.02
  -5  -7  -2  477.92   31.47
   5  -7  -2  474.35   31.56
  -5  -7  -2  415.11   33.10
   5  -7   2  477.53   33.99
  -5  -7   2  380.89   35.99
  -5   7  -2  440.69   30.60
  -5  -7   2  507.34   34.50
  -5   7   2  441.51   28.08
  -6   7   2   88.08   13.45
  -6  -7  -2   95.33   17.75
  -6  -7  -2  107.40   18.76
  -6   7  -2   81.14   14.08
  -6  -7   2  101.44   18.95
  -7  -7   2  563.30   45.18
  -7   7   2  480.61   36.08
  -7   7  -2  469.21   41.62
  -7  -7  -2  536.17   40.13
  -7  -7  -2  488.10   41.17
  -8   7  -2   79.28   19.54
  -8  -7   2   80.70   16.24
  -8  -7  -2   73.62   16.21
  -8  -7  -2   81.32   15.69
  -8   7   2   62.51   16.18
  -9   7   2  127.59   22.67
  -9  -7   2  153.23   23.29
  -9   7  -2  110.50   24.43
  -9  -7  -2  157.88   21.25
  -9  -7  -2  144.35   22.97
 -10   7   2   58.63   18.57
 -10   7  -2   65.66   18.86
 -10  -7  -2   66.24   15.77
 -10  -7   2   56.16   13.01
 -11   7   2   -5.51   10.21
 -11   7  -2    1.46    7.47
 -11  -7  -2    4.31    4.04
 -11  -7   2    9.20    5.83
 -12   7  -2   20.32   10.76
 -12  -7   2   23.67    7.94
 -12  -7  -2   13.25    7.08
 -12   7   2   30.46   14.74
 -12  -7   2   19.09    8.82
 -12  -7  -2   14.93    4.07
  12  -7  -2    5.53    6.82
 -12  -7  -2   25.17    9.34
 -12  -7   2   20.68    8.69
  12  -7   2   14.74    8.06
  12  -7  -2   27.90   12.61
  12  -7   2   20.16    9.66
 -13  -7   2    8.54    2.15
 -13  -7  -2   17.80    8.43
  13  -7   2   14.72    8.20
  13  -7   2   11.58    6.13
  13  -7  -2   16.23    9.67
 -13  -7  -2   15.08    6.94
 -13  -7   2   20.84    8.35
  13  -7  -2   13.51    6.85
  14  -7  -2   54.23   14.20
 -14  -7   2   70.03   15.45
  14  -7   2   56.97   15.10
  14  -7   2   58.34   15.25
  14   7   2   81.60   15.39
 -14  -7  -2   63.12   13.33
  14  -7  -2   65.88   16.68
 -14  -7   2   70.60   15.02
 -14  -7  -2   78.82   15.56
 -15  -7   2  144.89   20.28
  15   7   2  139.54   19.64
  15  -7   2  145.38   21.62
 -15  -7  -2  146.11   20.37
 -15  -7   2  163.99   20.54
  15  -7  -2  145.31   21.37
  16  -7  -2   33.88    9.50
  16  -7   2   28.77    9.29
 -16  -7  -2   31.44    8.08
  16  -7  -2   23.16    8.19
 -16  -7   2   23.67    8.35
  16  -7   2   41.06   10.62
  16   7   2   17.74    6.24
 -17  -7  -2  197.58   18.51
  17  -7   2  202.20   19.74
  17  -7   2  185.09   19.37
 -17  -7   2  206.65   20.14
  17  -7  -2  222.60   21.20
  17   7   2  187.77   17.84
  18  -7   2   13.54    4.69
  18  -7  -2   16.13    4.36
   0  -8  -2    8.50    2.91
   0  -8   2   18.53    5.09
   0  -8   2   20.13   10.10
   1  -8   2 1731.71   82.44
   1  -8   2 1880.88   52.39
  -1  -8   2 1621.32   77.12
  -1  -8   2 1789.23   46.68
  -1  -8  -2 1665.55   78.42
   1  -8  -2 1606.00   81.60
  -1  -8  -2 1689.57   62.33
  -1  -8  -2 1748.88   51.94
  -2  -8  -2   46.21    8.49
   2  -8   2   41.53   11.81
   2  -8  -2   39.40   11.89
  -2  -8   2   44.01    9.31
  -2  -8  -2   64.97   14.33
   2  -8   2   51.10    9.14
  -2  -8   2   30.13   10.55
  -2  -8  -2   32.58    9.68
  -3  -8   2  299.79   26.88
  -3  -8  -2  263.12   30.07
   3  -8   2  283.91   30.99
  -3  -8  -2  304.94   29.12
   3  -8   2  315.48   23.84
  -3  -8  -2  282.51   24.40
   3  -8  -2  309.97   31.97
  -3   8  -2  311.69   21.45
  -3  -8   2  340.06   32.27
  -4  -8  -2  168.38   20.69
   4  -8  -2  180.09   22.95
   4  -8   2  176.75   23.12
  -4  -8  -2  144.13   22.86
  -4  -8  -2  175.94   21.47
  -4  -8   2  209.13   24.00
  -4  -8   2  178.09   23.36
  -4   8  -2  151.33   17.15
  -5  -8   2   35.31    9.77
  -5  -8  -2   16.07    7.86
  -5   8   2   23.43    7.11
   5  -8  -2   24.14    8.38
  -5  -8  -2   21.30    8.44
  -5   8  -2   42.32    9.72
   5  -8   2   23.90    7.80
  -5  -8  -2   25.66    8.44
  -5  -8   2   30.67   11.99
  -6  -8  -2   52.85   13.92
  -6   8  -2   64.12   13.39
  -6   8   2   64.50   12.57
  -6  -8   2   54.44   14.65
  -6  -8  -2   63.56   14.85
  -7  -8  -2   29.99   10.91
  -7   8   2   41.58   10.15
  -7   8  -2   48.32   14.46
  -7  -8  -2   42.43   12.67
  -7  -8   2   43.63   13.71
  -8  -8  -2   34.96   10.69
  -8   8   2   36.50   10.84
  -8  -8  -2   44.59   14.55
  -8  -8   2   60.09   15.49
  -8   8  -2   41.37   14.96
  -9  -8  -2  394.33   35.12
  -9   8   2  310.13   36.12
  -9   8  -2  292.78   40.44
  -9  -8   2  432.79   40.61
  -9  -8  -2  437.40   40.73
 -10  -8  -2   26.52    8.90
 -10   8  -2   22.12   13.14
 -10   8   2   33.23   15.03
 -10  -8   2   28.73   10.00
 -10  -8  -2   34.58   11.16
 -11  -8   2  318.31   34.08
  11  -8   2  364.39   40.05
 -11  -8  -2  350.71   35.88
 -11   8   2  247.79   38.94
 -11   8  -2  280.49   37.69
 -11  -8   2  341.88   35.97
 -11  -8  -2  349.23   36.40
  11  -8  -2  328.87   39.41
 -11  -8  -2  369.98   36.28
  11  -8   2  339.95   38.96
 -12  -8   2   84.36   17.50
 -12  -8  -2   69.70   16.10
  12  -8   2  102.74   22.34
  12  -8  -2   75.03   18.70
  12  -8  -2   95.56   21.19
 -12  -8  -2   79.79   16.39
  12  -8   2   66.72   16.47
  13  -8   2  335.22   35.50
 -13  -8  -2  363.66   34.18
 -13  -8  -2  313.02   32.38
  13  -8  -2  310.34   36.47
  13  -8   2  347.46   35.83
 -13  -8   2  381.35   34.51
  13  -8  -2  397.98   41.23
 -13  -8   2  386.32   36.41
 -13  -8   2  342.86   34.69
  14  -8   2    5.76    3.81
  14  -8   2   -6.23    6.38
 -14  -8  -2   10.10    6.71
 -14  -8  -2   -1.86    5.12
  14  -8  -2    1.79    5.12
 -14  -8   2    6.44    3.65
  15  -8  -2  108.76   17.90
  15  -8   2  109.19   17.29
  15  -8  -2  115.96   18.11
 -15  -8   2  117.72   18.44
 -15  -8   2  130.90   18.07
 -15  -8  -2  114.57   17.31
 -15  -8  -2  152.53   18.95
 -16  -8  -2   45.01    9.66
 -16  -8   2   39.00    8.69
  16  -8  -2   30.81    9.30
  16  -8   2   22.48    8.99
  16  -8  -2   39.65    9.73
  16  -8   2   38.95   10.00
 -16  -8   2   31.38    8.95
  17  -8  -2    0.18    2.78
  17  -8   2    3.01    3.40
  17  -8   2    5.12    3.58
 -17  -8  -2    6.74    3.54
 -17  -8   2   -1.77    2.37
   0  -9  -2   -3.46    4.82
   0  -9   2   -1.29    4.68
   0  -9   2    1.78    3.21
   1  -9   2   81.27   19.24
  -1  -9   2   81.32   19.81
   1  -9   2   83.33   11.37
  -1  -9  -2   78.42   18.33
   1  -9  -2   69.46   18.34
  -2  -9  -2    5.28    3.51
   2  -9  -2    3.79    3.46
   2  -9   2    3.68    5.53
   2  -9   2    5.67    3.85
  -2  -9   2   -2.99    4.35
  -2  -9  -2   -0.53    5.75
  -3  -9  -2 1204.06   63.19
   3  -9   2 1231.54   49.28
   3  -9   2 1160.76   68.21
  -3  -9  -2 1102.80   50.39
  -3  -9   2 1340.86   68.49
  -3  -9   2 1202.45   55.34
   3  -9  -2 1117.62   66.18
   4  -9  -2  215.49   27.19
   4  -9   2  236.42   29.37
  -4  -9  -2  169.87   26.16
  -4   9  -2  212.14   20.84
  -4  -9   2  225.64   27.28
  -4  -9  -2  235.49   25.30
  -4  -9  -2  225.50   25.78
  -4  -9   2  259.34   29.10
   4  -9   2  233.65   22.27
  -5  -9   2 1020.57   55.53
  -5  -9  -2  811.12   51.90
  -5  -9  -2  917.91   50.64
   5  -9   2  882.70   50.12
   5  -9   2  849.54   52.92
  -5  -9   2  760.77   55.48
  -5  -9  -2  706.93   55.24
  -5   9  -2  873.20   46.46
  -5   9   2  896.30   44.97
   5  -9  -2  864.92   50.41
  -6   9  -2   59.70   13.92
  -6  -9   2   52.57   16.75
  -6  -9  -2   44.93   13.24
  -6   9   2   52.83   10.82
  -6  -9  -2   53.23   14.61
  -7  -9  -2  993.15   61.23
  -7   9   2  954.31   53.60
  -7   9  -2  881.10   62.05
  -7  -9  -2  865.65   59.87
  -8   9  -2   61.86   17.58
  -8  -9  -2   64.89   16.88
  -8  -9   2   56.01   14.42
  -8   9   2   33.43   11.91
  -8  -9  -2   58.57   14.49
  -9  -9  -2  324.67   36.88
  -9   9  -2  274.01   39.62
  -9   9   2  261.16   34.78
  -9  -9   2  345.54   36.73
 -10   9  -2   18.17   10.58
  10  -9   2   36.00   15.03
 -10  -9  -2   23.15   10.25
 -10  -9   2   28.91   11.47
 -10  -9  -2   31.13    9.78
  10  -9  -2   51.22   15.59
 -10  -9   2   22.90    8.84
 -10   9   2   20.12   10.51
 -10  -9  -2   40.18   13.08
  10  -9   2   36.51   13.06
  11  -9   2   24.42   12.28
 -11  -9   2   23.05    9.09
 -11  -9   2   33.53   11.88
 -11  -9  -2   37.98   13.34
  11  -9  -2   29.29   13.31
  11  -9   2   32.31   11.69
 -11  -9  -2   18.96    5.11
 -12  -9   2    7.27    8.02
  12  -9  -2   21.85    9.72
 -12  -9  -2   -3.57    4.85
 -12  -9   2    7.99    8.18
 -12  -9  -2    9.91    5.92
  12  -9   2    3.25    3.60
  12  -9   2    2.63    7.12
 -13  -9   2   70.75   14.40
 -13  -9   2   70.54   15.54
  13  -9  -2   70.23   16.51
 -13  -9  -2   59.70   13.41
 -13  -9  -2   56.10   12.96
  13  -9   2   71.17   16.28
  13  -9   2   58.04   14.32
 -14  -9   2    6.05    3.06
 -14  -9   2    7.26    5.86
 -14  -9  -2   15.10    7.59
  14  -9   2   -6.14    5.55
 -14  -9  -2   11.26    5.56
  14  -9  -2    5.19    6.90
  14  -9   2   -5.54    6.55
  15  -9  -2  317.69   29.85
  15  -9   2  267.69   30.66
 -15  -9   2  315.27   27.77
  15  -9  -2  340.02   30.11
  15  -9   2  351.48   29.65
 -15  -9  -2  323.75   27.01
 -15  -9   2  324.48   27.38
 -15  -9  -2  304.63   26.91
 -16  -9  -2    7.38    4.45
 -16  -9   2   16.48    7.05
  16  -9   2    5.74    4.44
  16  -9   2   14.28    4.93
 -16  -9  -2   13.92    4.90
  16  -9  -2   15.23    6.54
  16  -9  -2   10.07    3.63
 -16  -9   2   12.97    4.29
  17  -9  -2  481.27   26.58
 -17  -9  -2  503.57   25.65
 -17  -9   2  476.64   25.73
   0 -10   2   13.51    7.90
   0 -10  -2   30.33   15.88
  -1 -10   2  102.89   23.31
  -1 -10  -2  100.63   21.95
   1 -10   2   96.49   21.98
   1 -10   2  107.80   13.45
   1 -10  -2   87.66   21.29
  -2 -10  -2  121.28   15.83
   2 -10   2  122.90   26.38
  -2 -10  -2  103.55   22.16
   2 -10  -2  102.95   23.74
   2 -10   2  132.85   16.51
  -2 -10   2  120.73   24.22
  -3 -10   2   19.51    8.66
   3 -10   2   21.85    9.62
  -3 -10  -2   30.28    8.92
  -3 -10  -2   31.23   11.75
   3 -10  -2   27.11   11.47
   3 -10   2   18.79    7.33
   4 -10  -2  148.20   23.80
  -4 -10  -2  161.13   21.95
  -4 -10   2  157.48   23.64
  -4 -10  -2  138.70   21.76
   4 -10   2  147.60   25.08
  -4 -10   2  179.05   25.31
   4 -10   2  133.67   17.87
  -4  10   2  153.06   18.47
   5 -10   2    2.88    4.37
  -5 -10  -2   10.45    7.40
  -5 -10   2    5.32    4.00
   5 -10   2    7.97    7.07
  -5 -10   2    7.01    4.71
  -5 -10  -2    3.68    1.82
   5 -10  -2    5.44    5.77
  -5  10   2   -0.11    4.11
   6 -10   2   71.27   15.10
  -6 -10  -2   76.79   17.75
  -6 -10   2   52.38   16.91
  -6  10   2   67.56   13.36
  -7 -10  -2   -3.19    5.74
   7 -10   2   -1.68    5.07
  -7 -10   2   -5.12    6.98
  -7  10   2    7.35    6.14
  -8  10  -2  125.46   25.78
  -8  10   2  141.15   24.14
  -8 -10  -2  154.45   26.61
  -8 -10   2  177.59   29.66
   8 -10   2  131.88   23.97
   9 -10   2   21.95   12.71
  -9 -10  -2   25.89    9.27
  -9 -10   2   35.33   14.05
   9 -10  -2   28.16   11.69
  -9  10   2   33.23   12.94
  -9 -10   2   37.20   12.33
  -9 -10  -2   45.02   15.88
   9 -10   2   31.76   13.28
  -9  10  -2   40.13   16.95
  -9 -10   2   30.99    9.71
   9 -10   2   35.66   13.82
   9 -10  -2   25.62    9.34
  -9 -10  -2   24.98   10.03
 -10 -10  -2  185.17   28.15
 -10 -10   2  229.68   29.43
  10 -10  -2  260.23   35.13
 -10 -10  -2  200.62   27.40
  10 -10   2  201.74   31.75
 -10 -10   2  233.92   31.07
 -11 -10  -2   32.16   11.46
 -11 -10   2   36.48   11.42
 -11 -10   2   27.16   10.30
  11 -10   2   31.21   12.20
 -11 -10  -2   43.55   13.28
  11 -10   2   27.07    8.59
  11 -10  -2   43.33   14.26
 -12 -10   2  185.90   25.12
 -12 -10   2  182.37   24.93
 -12 -10  -2  173.45   23.43
  12 -10   2  187.95   26.40
 -12 -10  -2  190.06   25.70
  12 -10   2  163.10   27.03
  12 -10  -2  178.91   27.42
 -13 -10   2   50.00   12.40
 -13 -10   2   62.60   13.90
  13 -10  -2   51.67   16.02
 -13 -10  -2   50.98   12.41
  13 -10   2   30.00    8.83
 -13 -10  -2   39.25   10.91
  13 -10   2   32.25    9.99
 -14 -10  -2   84.34   14.10
 -14 -10   2   92.99   15.35
  14 -10  -2  107.29   17.00
  14 -10   2  108.34   16.73
 -14 -10  -2   97.86   14.87
 -14 -10   2   88.94   15.17
  14 -10  -2   81.13   16.38
  14 -10   2   67.93   15.15
  15 -10   2   16.42    7.35
  15 -10  -2    7.72    4.69
 -15 -10   2   15.28    6.32
  15 -10  -2    4.06    3.21
 -15 -10  -2   15.52    6.24
 -15 -10  -2    8.24    3.17
 -15 -10   2   10.56    4.76
  15 -10   2   13.58    5.00
  16 -10   2    4.71    3.49
  16 -10   2    2.76    2.97
 -16 -10  -2    1.37    1.99
  16 -10  -2    2.53    2.00
 -16 -10   2   -0.03    3.42
 -16 -10  -2   -2.63    1.92
 -16 -10   2    6.40    3.23
   0 -11   2   -1.31    5.53
   0 -11  -2   -2.05    3.78
   1 -11  -2   25.11   11.44
  -1 -11   2   46.87   16.74
   1 -11   2   49.32   19.28
  -1 -11  -2   44.11   13.55
  -2 -11   2   23.53   12.99
   2 -11   2   19.02   13.68
  -2 -11  -2   19.99    8.65
   2 -11  -2   21.23    9.30
   3 -11   2  832.40   68.17
  -3 -11   2  913.86   65.66
   3 -11   2  893.80   45.79
  -3 -11  -2  895.98   61.91
   3 -11  -2  848.16   66.96
   4 -11   2    8.97    8.14
   4 -11  -2    5.35    7.14
   4 -11   2    9.84    4.77
  -4 -11  -2   11.11    6.36
  -4 -11  -2   11.17    7.71
  -4 -11   2   10.45    3.36
  -4  11   2    3.14    3.74
  -5 -11  -2  984.95   63.20
   5 -11   2  990.56   64.99
  -5 -11   2 1207.28   68.45
   5 -11   2  966.01   53.35
  -5 -11  -2 1079.56   60.74
  -5  11   2 1035.75   54.41
  -5 -11   2  939.72   65.38
  -6 -11  -2   20.37   11.80
  -6 -11   2   17.10    9.18
   6 -11   2   21.38    6.93
  -6  11   2   26.17    9.54
  -7 -11   2 1187.32   80.14
  -7 -11  -2 1070.66   72.43
  -7  11   2 1141.00   66.00
   7 -11   2 1030.92   64.60
  -8 -11   2    3.80    3.52
  -8 -11   2   10.77    8.06
   8 -11   2    4.17    6.29
  -8 -11  -2   17.61   11.28
   8 -11  -2    5.46    6.40
  -8 -11  -2    3.13    6.21
  -8  11   2    2.57    2.32
  -8 -11   2   -6.48    6.97
   8 -11   2    0.71    5.53
  -8 -11  -2    3.26    2.73
   8 -11  -2    5.30    7.30
  -9 -11   2  349.83   36.15
   9 -11   2  316.56   39.62
   9 -11  -2  298.50   37.24
  -9 -11  -2  317.53   39.00
   9 -11  -2  326.61   41.59
  -9 -11   2  338.13   40.50
   9 -11   2  351.74   44.12
  -9 -11  -2  289.90   33.84
 -10 -11  -2    8.61    4.71
  10 -11  -2    9.32    3.29
 -10 -11   2   11.51    6.45
 -10 -11   2   14.43   10.43
  10 -11  -2   21.34   12.89
 -10 -11  -2   16.74    8.30
  10 -11   2    8.15    4.91
 -11 -11  -2    1.09    4.53
  11 -11   2    5.78    2.94
 -11 -11   2    9.59    5.42
 -11 -11   2    9.45    6.25
  11 -11  -2    7.32    5.21
 -11 -11  -2    7.89    3.33
 -12 -11   2   -0.47    4.16
  12 -11   2    7.16    7.52
 -12 -11  -2    6.38    5.68
  12 -11  -2    3.05    5.01
 -12 -11   2    1.81    4.48
 -12 -11  -2   -2.69    2.51
 -13 -11   2   77.06   13.86
  13 -11   2   70.13   15.34
 -13 -11  -2   86.87   15.43
  13 -11   2   78.64   16.41
  13 -11   2   93.21   16.69
 -13 -11  -2   76.66   14.42
  13 -11  -2   96.30   17.33
 -13 -11   2   78.06   14.43
  13 -11  -2   85.27   16.92
 -14 -11   2    7.21    4.41
  14 -11  -2    6.15    5.62
 -14 -11   2    8.91    5.74
  14 -11  -2   15.38    7.46
  14 -11   2    5.98    3.00
 -14 -11  -2    8.83    5.80
 -14 -11  -2    7.67    4.63
  14 -11   2    6.08    5.19
 -15 -11   2  291.94   22.70
  15 -11  -2  277.30   24.76
 -15 -11  -2  264.71   21.89
 -15 -11  -2  287.71   22.80
 -15 -11   2  301.86   23.19
  15 -11  -2  287.85   23.28
  15 -11   2  262.68   24.51
  16 -11  -2   -3.43    3.16
   0 -12  -2   51.01   18.18
   0 -12   2  103.60   29.08
   1 -12   2  199.65   39.72
  -1 -12   2  283.22   44.47
  -1 -12  -2  223.03   37.55
   1 -12  -2  231.70   41.19
  -2 -12   2  142.53   28.59
  -2 -12  -2  152.60   28.95
   2 -12   2  147.11   32.51
   2 -12  -2  130.07   30.65
  -3  12   2  188.91   22.57
   3 -12   2  151.76   31.25
  -3 -12   2  188.51   32.00
   3 -12  -2  167.29   31.12
  -3 -12  -2  203.06   30.23
   4 -12  -2   34.50   12.02
  -4 -12  -2   37.88   14.29
  -4  12   2   27.26    8.95
   4 -12   2   39.64   16.22
  -4 -12   2   34.70   14.62
   4 -12   2   37.99    9.49
  -5 -12  -2    3.03    2.91
   5 -12   2    0.08    2.62
  -5 -12   2    1.28    4.71
  -5 -12  -2   -1.64    3.41
  -5  12   2   -1.10    3.39
  -6 -12  -2   53.99   14.65
  -6 -12   2   33.59   12.60
   6 -12   2   49.34   14.13
  -6 -12   2   60.05   16.07
   6 -12   2   60.66   21.76
  -6 -12  -2   59.87   15.78
  -6 -12   2   60.81   19.44
  -6  12   2   48.93   12.69
  -6 -12  -2   60.99   15.42
   6 -12   2   54.10   13.41
   6 -12  -2   65.50   19.37
  -7 -12  -2   91.25   20.13
  -7 -12   2   89.27   19.23
  -7 -12   2   76.81   19.40
   7 -12   2   71.12   16.85
  -7  12   2   92.50   19.77
  -7 -12  -2   74.19   19.90
  -7 -12  -2   83.27   18.35
   7 -12   2   97.36   26.43
  -7 -12  -2   53.25   15.03
  -7 -12   2   95.55   21.03
   7 -12  -2   79.29   21.30
   8 -12  -2   34.78   14.72
  -8 -12   2   32.99   11.28
  -8 -12  -2   25.74    9.70
  -8 -12   2   24.59    9.53
   8 -12   2   48.06   17.09
  -8 -12  -2   38.31   14.96
  -8 -12  -2   41.16   11.91
   8 -12  -2   29.28   12.60
  -9 -12  -2  229.19   32.82
   9 -12  -2  282.32   39.67
   9 -12  -2  237.35   32.93
  -9 -12  -2  231.86   29.29
  -9 -12   2  280.36   32.81
   9 -12   2  284.80   37.86
 -10 -12   2  108.45   20.12
  10 -12  -2  115.19   23.87
  10 -12   2  112.99   21.94
 -10 -12   2  114.16   20.71
  10 -12   2  106.64   22.16
  10 -12  -2  101.04   20.28
 -10 -12  -2  104.98   21.35
 -10 -12  -2  119.90   20.77
  11 -12  -2  135.02   23.44
 -11 -12   2  112.57   18.44
 -11 -12  -2  129.34   21.93
 -11 -12   2  116.16   19.34
  11 -12  -2  116.86   21.25
  11 -12   2  124.52   21.81
 -11 -12  -2  104.84   17.86
 -12 -12   2  105.05   16.66
 -12 -12  -2  107.39   17.20
 -12 -12  -2  102.31   17.47
 -12 -12   2   93.83   15.86
  12 -12  -2  112.26   19.66
  12 -12   2   81.74   16.83
  12 -12   2  123.33   21.98
 -13 -12   2   69.89   12.45
 -13 -12   2   68.66   12.50
 -13 -12  -2   74.43   13.28
  13 -12  -2   76.54   14.89
  13 -12   2   55.47   14.29
 -13 -12  -2   76.34   13.24
 -14 -12  -2   72.01   11.49
 -14 -12   2   77.16   11.85
  14 -12   2   63.30   13.14
  14 -12  -2   75.47   11.90
 -14 -12  -2   60.09   12.04
  14 -12  -2   78.68   13.09
 -14 -12   2   85.28   12.90
 -15 -12   2   28.65    6.09
  15 -12  -2    3.34    4.73
  15 -12   2   27.21    7.78
 -15 -12  -2   19.14    5.97
 -15 -12   2   30.55    6.96
 -15 -12  -2   28.87    6.81
   0 -13  -2    3.85    6.40
   0 -13   2   -0.76    8.40
  -1 -13   2   26.74   16.56
   1 -13   2    9.90   12.05
   1 -13  -2   13.16   11.80
  -1 -13  -2   13.83    8.42
  -2 -13   2    6.30    6.58
  -2 -13  -2    3.34    6.12
   2 -13  -2    3.13    8.25
   2 -13   2   11.52   11.91
  -3 -13  -2  358.15   34.28
  -3 -13  -2  380.15   43.89
  -3 -13   2  394.39   47.63
   3 -13   2  349.80   38.89
   3 -13  -2  332.44   47.35
  -3 -13   2  448.03   38.57
  -3 -13   2  292.41   40.96
   3 -13   2  351.23   34.49
   3 -13   2  364.61   52.22
   3 -13  -2  393.58   34.16
  -3 -13  -2  389.46   47.47
   3 -13  -2  374.90   38.67
  -3 -13   2  310.80   44.65
   3 -13  -2  374.17   51.46
   3 -13   2  358.66   49.41
  -3  13   2  410.75   34.55
  -3 -13   2  416.74   51.77
  -4 -13  -2   36.27   12.27
   4 -13   2   42.20   18.68
   4 -13   2   19.79   11.10
  -4 -13   2   46.89   14.77
   4 -13   2   41.96   13.91
  -4 -13   2   50.42   16.61
  -4 -13  -2   54.74   14.43
   4 -13   2   37.72   16.28
  -4 -13   2   32.42   12.26
   4 -13  -2   48.28   15.67
  -4 -13  -2   40.20   13.12
   4 -13  -2   51.42   12.96
   4 -13  -2   49.08   11.64
  -4 -13   2   63.00   19.41
  -4  13   2   41.29   11.27
   4 -13  -2   54.64   19.51
  -4 -13   2   51.91   17.42
  -5 -13   2  350.22   45.93
   5 -13   2  409.06   41.71
  -5 -13  -2  412.03   44.25
  -5 -13  -2  451.25   42.08
  -5  13   2  359.86   34.69
   5 -13   2  433.77   62.17
  -5 -13   2  441.16   46.43
   5 -13  -2  379.71   56.44
   6 -13   2  103.21   21.90
  -6 -13  -2   91.39   19.61
   6 -13   2  125.78   30.94
   6 -13  -2  120.46   30.84
  -6 -13   2  125.88   23.35
  -7 -13  -2  377.32   43.44
   7 -13   2  568.68   62.87
  -7 -13   2  509.07   45.55
   7 -13  -2  594.89   63.44
  -7 -13  -2  566.86   47.60
  -7 -13  -2  517.20   49.09
  -7 -13   2  566.44   50.66
  -8 -13  -2   25.87   12.20
  -8 -13  -2   25.63    9.53
  -8 -13   2   25.01    8.24
   8 -13   2   34.33   13.89
  -8 -13   2   16.46    9.58
   8 -13  -2   30.46   12.80
   9 -13  -2  255.47   36.08
  -9 -13   2  215.49   27.34
  -9 -13   2  257.84   29.88
   9 -13   2  235.25   33.93
  -9 -13  -2  195.50   29.50
   9 -13  -2  241.56   33.43
   9 -13   2  158.35   28.53
  -9 -13  -2  263.48   31.19
 -10 -13  -2   -3.05    3.75
  10 -13   2    8.08    7.48
  10 -13   2   -2.44    2.59
  10 -13  -2    0.11    6.40
  10 -13  -2    5.54    5.49
 -10 -13   2    4.57    4.75
 -10 -13  -2    8.23    3.37
 -11 -13   2    3.87    5.20
 -11 -13  -2    7.53    4.82
  11 -13   2   13.21    7.60
  11 -13  -2   14.61    7.67
 -11 -13  -2    9.03    6.54
  11 -13   2    0.57    4.24
 -11 -13   2    9.99    6.07
  11 -13  -2    4.15    5.00
 -12 -13  -2   11.45    5.95
 -12 -13  -2   18.84    7.63
 -12 -13   2   16.73    7.58
  12 -13  -2   16.43    6.71
 -12 -13   2   25.74    8.73
  12 -13   2    7.71    2.71
 -13 -13   2   92.20   12.85
  13 -13  -2   80.32   13.59
 -13 -13  -2   78.65   12.57
 -13 -13  -2   75.47   13.61
 -13 -13   2   77.35   12.25
  13 -13   2   69.24   13.60
 -14 -13   2   25.56    6.54
  14 -13  -2   12.99    5.22
 -14 -13   2   18.21    4.58
 -14 -13  -2   22.45    6.02
  14 -13   2   15.68    6.91
  14 -13  -2    2.72    1.45
 -14 -13   2    1.51    3.27
 -14 -13  -2   24.88    5.90
   0 -14   2   21.44   14.74
   0 -14   2   32.68   10.85
   0 -14   2   45.22   16.37
   0 -14  -2   24.59   12.53
   0 -14  -2   41.02   11.36
   0 -14   2   28.05   15.30
   0 -14   2   65.01   23.37
   0 -14  -2   29.43   10.81
   0 -14  -2   28.71   16.16
  -1 -14  -2  613.82   61.41
  -1 -14  -2  741.63   48.98
   1 -14   2  649.92   60.41
   1 -14  -2  686.30   58.20
  -1 -14   2  661.33   65.78
   1 -14   2  633.17   59.69
   1 -14  -2  676.16   45.43
  -1 -14   2  719.37   76.81
  -1 -14  -2  810.51   79.01
   1 -14  -2  665.78   77.83
  -1 -14   2  767.96   50.95
   1 -14  -2  650.47   57.62
  -1 -14   2  661.63   76.01
   1 -14   2  654.84   80.13
  -1 -14   2  654.50   69.78
   1 -14   2  750.76   48.80
   1 -14   2  647.67   57.82
  -2 -14  -2   30.53   15.04
  -2 -14   2   34.50   17.08
  -2 -14   2   27.21   17.40
   2 -14   2   26.85    8.74
   2 -14   2   22.46   12.05
  -2 -14   2   16.64    7.57
  -2 -14   2   35.89   11.43
   2 -14  -2   21.65   10.42
  -2 -14  -2   36.05   11.72
   2 -14  -2   27.40   10.86
   2 -14   2   32.98   14.49
   2 -14  -2   34.44   10.39
   3 -14   2  391.91   42.99
  -3 -14   2  422.29   40.04
  -3 -14   2  311.83   46.00
  -3 -14  -2  421.16   49.24
   3 -14  -2  387.70   40.46
   3 -14   2  430.34   37.13
  -3 -14   2  390.82   48.38
   3 -14  -2  398.81   35.02
   3 -14   2  409.72   53.53
  -3 -14  -2  419.47   39.13
   3 -14  -2  354.09   50.82
  -3 -14   2  429.47   54.05
   4 -14  -2   -0.70   13.86
  -4 -14   2    2.80    4.22
   4 -14   2    4.99    6.46
  -4 -14   2   -2.60    5.75
   4 -14  -2    2.13    3.76
  -4 -14  -2   -2.90    5.70
  -4 -14   2    9.90    2.81
  -4 -14  -2    0.45    5.45
  -4 -14   2   -3.70    6.96
   4 -14   2   -5.83   10.39
  -5 -14  -2   39.89   13.49
  -5 -14   2   55.44   16.70
  -5 -14  -2   62.11   17.89
   5 -14  -2   59.89   14.33
   5 -14   2   48.99   17.93
  -5 -14   2   59.05   16.54
   5 -14   2   59.59   17.72
   5 -14  -2   25.21   14.47
  -6 -14   2   -1.27    3.77
   6 -14   2   12.47   12.98
  -6 -14   2   -0.12    3.64
  -6 -14  -2   -2.97    7.36
   6 -14   2   10.44    7.46
   6 -14  -2  -11.54   13.45
  -6 -14  -2   -6.35    7.30
  -7 -14   2   19.09    9.06
  -7 -14  -2   21.52   11.26
   7 -14   2   32.15   14.97
   7 -14   2   41.17   17.21
  -7 -14  -2    7.92    8.25
   7 -14  -2   45.81   18.32
  -7 -14   2   21.08    8.84
  -8 -14   2   37.88   11.64
   8 -14  -2   11.61    8.34
   8 -14   2   25.55   12.69
  -8 -14   2   26.89    8.46
  -8 -14  -2   33.95   13.77
  -8 -14   2    5.50    8.43
  -8 -14  -2   10.80    7.31
  -9 -14   2  225.20   26.11
  -9 -14  -2  256.05   32.96
  -9 -14  -2  212.55   26.44
  -9 -14   2  235.16   27.66
   9 -14  -2  222.71   31.38
   9 -14   2  236.96   33.40
 -10 -14  -2   -3.27    4.50
  10 -14   2   -1.17    3.32
  10 -14   2  -14.70    9.71
 -10 -14  -2   10.92    7.66
  10 -14  -2   11.08    6.28
 -10 -14   2    1.09    4.60
  10 -14  -2   -3.41    5.08
  11 -14   2  269.00   27.99
  11 -14   2  228.72   29.91
 -11 -14  -2  299.25   26.79
 -11 -14   2  280.10   25.86
  11 -14  -2  267.01   28.80
 -11 -14   2  197.22   25.76
 -11 -14  -2  320.06   29.71
  11 -14  -2  271.89   27.57
 -12 -14  -2   22.86    8.61
 -12 -14  -2   22.96    6.71
 -12 -14  -2   19.93    6.29
  12 -14   2   22.13    8.26
  12 -14  -2   24.35    7.16
 -12 -14   2   15.83    5.26
  12 -14  -2   15.84    7.30
 -12 -14   2   25.68    7.54
 -13 -14  -2  231.42   19.17
 -13 -14   2  235.23   18.60
  13 -14   2  205.10   20.31
  13 -14  -2  185.24   17.85
 -13 -14  -2  236.01   18.95
 -13 -14   2  231.37   18.28
   0 -15   2    2.30    4.77
   0 -15  -2    9.55   10.01
   0 -15   2   -4.70    7.40
   0 -15   2   -8.70   12.83
   0 -15   2  -11.28   12.75
   0 -15  -2    7.41    4.90
   1 -15   2   -3.03    9.04
  -1 -15  -2    3.33    5.17
  -1 -15   2   -6.02    7.37
   1 -15   2    7.18    9.05
   1 -15  -2    0.69    1.96
   1 -15  -2   -6.73    7.81
  -1 -15   2   -4.73   10.08
   1 -15  -2   13.86    9.45
  -1 -15   2    5.34    8.50
   1 -15   2   -2.79    3.07
  -1 -15  -2   -8.43    9.98
   1 -15   2    1.38    5.87
  -1 -15   2    1.18    7.65
  -2 -15   2   19.42   10.29
   2 -15   2   27.89    9.67
  -2 -15   2   34.77   17.01
  -2 -15  -2   26.93   10.04
   2 -15  -2   26.81   10.75
   2 -15   2   40.04   15.42
   2 -15  -2   20.49    8.91
  -2 -15  -2   34.04   16.30
  -2 -15   2   20.48   12.44
  -2 -15   2   24.11   10.02
   2 -15   2   43.16   14.99
   2 -15  -2   22.52   12.85
   3 -15   2   12.47    9.31
   3 -15   2   24.75   10.70
   3 -15  -2   27.33   10.74
  -3 -15  -2   13.10    7.69
  -3 -15   2   21.24   11.07
  -3 -15  -2   10.44    5.61
  -3 -15   2    8.45    4.19
   3 -15  -2   28.34   16.94
  -3 -15   2   18.18   11.12
   4 -15   2   77.77   24.40
  -4 -15   2   78.70   20.77
   4 -15  -2   54.26   14.57
   4 -15   2   60.72   14.84
  -4 -15  -2   85.67   22.05
  -4 -15   2   77.07   19.50
  -4 -15  -2   59.46   15.84
  -4 -15   2   98.61   21.68
   4 -15  -2   74.92   24.24
   5 -15  -2   66.14   23.53
   5 -15   2   47.05   15.06
  -5 -15  -2   56.31   17.69
  -5 -15  -2   74.99   18.38
  -5 -15   2   66.28   17.40
   5 -15  -2   67.04   16.33
  -5 -15   2   59.30   18.94
   5 -15   2   60.67   23.59
  -6 -15   2   11.15    9.36
  -6 -15  -2   30.89   10.96
  -6 -15   2   27.30   11.11
   6 -15   2    0.18    5.41
   6 -15   2   36.84   17.39
   6 -15  -2    4.31    6.80
  -6 -15  -2   16.40   11.42
   7 -15   2   66.74   21.20
  -7 -15  -2   35.85   15.02
   7 -15   2   62.99   18.99
  -7 -15   2   34.77   14.57
   7 -15  -2   78.68   24.51
  -7 -15   2   55.05   13.10
  -8 -15   2   35.01   10.92
  -8 -15  -2   54.04   13.82
  -8 -15  -2   21.53   10.82
   8 -15   2   54.17   18.10
  -8 -15   2   13.62    8.12
   8 -15  -2   33.98   14.99
  -9 -15   2   66.41   13.46
   9 -15   2   64.91   16.86
  -9 -15   2   63.94   16.48
   9 -15  -2   41.90   13.21
  -9 -15  -2   63.01   13.80
  -9 -15  -2   53.10   15.00
  -9 -15   2   54.19   11.59
 -10 -15   2   48.00   12.92
  10 -15  -2   34.50   10.40
 -10 -15  -2   32.93    9.32
  10 -15   2   37.23   11.45
 -10 -15   2   30.29    8.29
 -10 -15  -2   47.49   12.58
 -11 -15  -2   11.88    5.52
 -11 -15   2    9.94    4.88
  11 -15   2    7.09    3.14
 -11 -15   2   12.43    3.91
 -11 -15  -2    6.46    4.64
  11 -15  -2    3.04    2.65
 -12 -15  -2    0.91    1.87
 -12 -15   2    1.10    1.69
 -12 -15   2    3.30    2.48
   0 -16   2   18.28    6.73
   0 -16   2   17.42    5.56
   0 -16   2   28.63   11.42
   0 -16  -2   18.18   10.75
   0 -16  -2   23.94    7.04
   1 -16  -2  390.11   47.19
   1 -16   2  354.38   49.37
   1 -16  -2  345.22   33.02
  -1 -16  -2  321.74   46.91
  -1 -16   2  424.00   38.34
   1 -16   2  391.31   34.89
  -1 -16  -2  399.81   36.76
  -1 -16   2  388.65   52.50
   1 -16   2  369.35   41.25
   1 -16   2  392.56   44.14
  -1 -16   2  291.40   46.53
  -2 -16   2    9.12    6.37
   2 -16  -2    3.32    4.80
   2 -16   2   20.54   12.96
  -2 -16   2   12.45    8.87
   2 -16   2   10.61    8.74
  -2 -16   2   13.73    6.42
   2 -16  -2   12.87    6.81
  -2 -16  -2   10.87   10.33
  -2 -16  -2    9.11    6.45
   2 -16  -2    8.52    5.10
   3 -16   2  224.43   35.32
  -3 -16  -2  212.84   30.86
  -3 -16  -2  206.88   34.78
   3 -16  -2  199.56   28.58
   3 -16  -2  200.69   39.17
  -3 -16   2  219.75   31.40
  -3 -16   2  267.13   39.21
   3 -16   2  207.95   35.98
  -3 -16   2  234.84   38.20
  -4 -16   2    4.85    7.68
   4 -16  -2   13.29    9.43
  -4 -16   2    0.82    3.80
   4 -16  -2    0.21    5.01
  -4 -16  -2    4.52    6.96
  -4 -16   2   -3.57    3.61
   4 -16   2    5.87    6.06
   4 -16   2   11.43   11.02
  -4 -16  -2    7.57    8.43
   5 -16  -2   13.21    7.22
   5 -16  -2   14.03   10.16
  -5 -16   2    1.97    6.16
  -5 -16   2   15.36    7.62
  -5 -16  -2   17.34    7.18
   5 -16   2   -0.12   10.31
  -5 -16  -2    8.72    7.92
   5 -16   2   36.26   16.50
  -6 -16   2    4.53    2.30
  -6 -16  -2    6.29    4.89
   6 -16   2   -8.13    7.68
  -6 -16   2   -7.35    9.04
   6 -16   2   -5.85   13.68
  -6 -16  -2    3.61    4.06
   6 -16  -2   11.02   14.36
  -7 -16   2   12.60    4.59
   7 -16   2   25.59    9.80
  -7 -16   2    4.88    3.95
   7 -16   2   22.29   10.74
  -7 -16  -2   17.72   10.69
   7 -16  -2   25.93   15.51
   8 -16  -2   -3.66    3.22
  -8 -16   2   -5.74    7.52
  -8 -16  -2  -11.87    8.49
   8 -16   2   -3.94    4.88
  -9 -16   2  417.58   36.51
   9 -16  -2  372.16   36.87
  -9 -16  -2  405.13   37.13
   9 -16   2  363.13   37.61
 -10 -16  -2    4.69    3.69
 -10 -16   2    8.32    4.19
  10 -16  -2    5.59    4.44
 -10 -16  -2    3.83    3.33
  10 -16   2   -1.72    3.57
   0 -17   2  -16.47   13.10
   0 -17   2    0.67    3.05
   0 -17  -2   -3.57    5.33
   0 -17  -2   -3.93    7.93
   1 -17   2   -0.38   11.90
  -1 -17  -2    4.93    3.69
  -1 -17  -2   -2.30    9.41
  -1 -17   2    7.09    8.13
   1 -17  -2    3.44    5.86
  -1 -17   2    1.40    3.93
  -1 -17   2    9.23    6.41
   1 -17   2   -1.55    5.20
   2 -17   2   65.77   17.89
   2 -17  -2   44.14   14.03
  -2 -17  -2   47.85   13.31
  -2 -17  -2   33.89   15.57
  -2 -17   2   55.34   20.71
  -2 -17   2   40.91   16.55
   2 -17  -2   56.24   16.59
   2 -17   2   63.25   24.27
  -2 -17   2   42.28   12.66
  -3 -17   2   45.60   14.42
  -3 -17   2   26.41   10.28
   3 -17   2   65.72   20.86
  -3 -17   2   65.84   21.45
   3 -17  -2   42.60   18.25
   3 -17  -2   51.17   13.43
  -3 -17  -2   42.09   17.32
   3 -17   2   23.39   14.40
  -3 -17  -2   29.87   10.31
   4 -17  -2   86.76   16.29
   4 -17  -2   97.74   29.93
  -4 -17  -2  126.45   23.63
   4 -17   2  111.69   26.98
  -4 -17   2   82.75   19.84
  -4 -17  -2   79.29   18.67
  -4 -17   2  148.87   25.20
   4 -17   2   59.48   14.37
  -4 -17   2  124.65   23.71
   5 -17   2  -13.31    9.55
  -5 -17  -2   15.03    8.33
   5 -17   2   25.82   12.64
  -5 -17   2    8.86    6.94
   5 -17  -2   24.67    9.61
   5 -17  -2   -1.43   14.30
  -5 -17  -2   29.03    8.64
  -5 -17   2   24.52   10.40
   6 -17   2   45.82   15.49
  -6 -17  -2   28.60   10.87
  -6 -17  -2   56.29   12.35
   6 -17  -2   84.75   28.06
  -6 -17   2   10.68    5.41
   6 -17   2   44.71   17.05
   7 -17  -2   53.19   16.97
  -7 -17   2   41.57   11.94
  -7 -17  -2   42.92   13.32
   7 -17   2   59.61   18.91
  -8 -17  -2   67.64   14.87
   8 -17   2   47.44   14.79
   8 -17  -2   67.38   17.76
  -8 -17   2   53.63   12.04
  -9 -17   2   19.04    6.85
  -9 -17  -2   16.18    5.69
   9 -17  -2   16.90    7.49
   9 -17   2   18.59    8.41
   0 -18   2   12.81    9.87
   0 -18  -2    3.78    9.54
   1 -18   2  260.77   47.95
  -1 -18   2  252.58   44.62
  -1 -18  -2  233.56   28.05
  -1 -18  -2  200.19   36.26
   1 -18  -2  263.06   39.59
  -1 -18   2  226.63   27.41
  -2 -18   2   -1.27    2.80
  -2 -18   2   15.38   16.16
   2 -18  -2   22.19   13.72
   2 -18   2  -12.20   11.02
  -2 -18  -2    6.40    6.08
  -2 -18  -2   13.60   10.82
   2 -18   2   19.64    9.95
   3 -18   2  188.66   30.89
   3 -18  -2  173.89   26.19
  -3 -18   2  242.67   32.70
  -3 -18   2  125.14   21.82
  -3 -18  -2  124.10   21.72
   3 -18   2  190.88   33.74
  -3 -18  -2  267.17   35.16
   3 -18  -2  159.02   30.14
   4 -18   2    3.72    6.75
  -4 -18   2   15.31    8.70
   4 -18   2  -21.06   12.05
   4 -18  -2   -8.32   11.72
  -4 -18  -2   -2.31    5.62
  -4 -18   2   -2.18    3.00
  -4 -18  -2   -1.58    5.58
   4 -18  -2   18.68    9.24
  -5 -18   2    4.44    4.74
  -5 -18  -2    2.26    3.10
   5 -18   2   15.01    6.47
   5 -18  -2   25.05   15.96
   5 -18   2   15.88    8.91
  -6 -18   2   11.72    7.81
   6 -18  -2   15.83   11.57
  -6 -18  -2    4.42    4.92
   6 -18   2    8.85    8.18
  -7 -18   2   12.86    5.91
  -7 -18  -2    3.26    1.49
   7 -18   2   14.69    6.25
   7 -18  -2   20.86   13.37
   0 -19  -2  -24.41   10.41
   0 -19   2  -25.48   21.67
  -1 -19   2   43.78   24.09
   1 -19   2   10.88   17.27
   1 -19  -2    4.20   10.48
  -1 -19  -2    8.46    9.10
  -2 -19  -2    9.24    7.54
  -2 -19   2   19.32   14.80
   2 -19   2   13.56   17.72
   2 -19  -2   33.12   14.30
   3 -19   2  135.37   32.38
  -3 -19  -2  229.86   28.32
   0   0   3   22.67    3.14
   0   0  -3   18.24    5.94
  -1   0  -3   26.32    7.32
   1   0   3   20.03    6.23
  -1   0  -3   17.25    4.09
  -1   0   3   18.09    4.35
   2   0   3 1300.49   39.55
  -2   0   3 1214.88   50.50
  -2   0  -3 1438.36   48.44
   2   0   3 1299.63   47.99
   2   0  -3 1366.07   45.95
  -3   0   3   -0.26    1.88
   3   0  -3    6.53    4.45
   3   0   3    0.94    3.23
   4   0  -3 4372.40  131.81
   4   0   3 4558.10  103.73
  -4   0  -3 4802.38  107.56
   4   0  -3 4543.33   75.56
   5   0   3   12.68   17.88
   5   0  -3    4.88    3.54
  -5   0   3    0.92    2.40
   5   0  -3   -1.42    4.15
  -5   0  -3    3.57    1.62
   5   0   3    6.68    8.60
  -5   0   3    3.93    3.35
   5   0   3    6.23    6.01
   6   0   3 4633.03  119.77
   6   0  -3 3387.86   76.37
  -6   0  -3 3979.14   94.80
  -6   0   3 2653.65   83.16
  -6   0   3 3139.92   76.31
   7   0  -3    1.24    2.85
  -7   0   3    5.77    5.18
  -7   0   3    3.22    5.07
  -7   0  -3    2.40    2.22
   7   0   3    4.06    4.65
  -7   0   3    6.40    5.04
  -8   0   3 1556.07   66.14
  -8   0   3 1697.54   61.84
  -8   0   3 1455.30   65.30
  -8   0  -3 1473.98   58.82
   8   0   3 1672.32   64.70
  -9   0   3    2.08    4.18
   9   0   3    2.19    3.96
  -9   0   3    1.98    2.77
  -9   0   3    2.28    5.48
 -10   0   3  399.52   35.99
 -10   0   3  474.34   35.35
  10   0   3  443.15   32.67
 -10   0   3  490.93   35.57
  11   0   3    3.76    4.15
 -11   0   3   -4.87    5.18
 -11   0  -3    1.38    3.76
 -11   0   3   -5.63    4.65
 -11   0   3   -1.65    2.39
 -12   0  -3  102.73   17.62
 -12   0   3   69.45   15.28
 -12   0   3  116.37   18.22
 -13   0   3   -0.90    3.10
 -13   0  -3   -2.46    4.83
  14   0  -3  564.84   47.31
 -14   0  -3  531.01   41.41
 -14   0   3  452.94   35.43
  14   0   3  574.02   46.27
 -14   0   3  603.34   46.05
  14   0   3  606.11   45.00
  15   0  -3    8.08    4.23
  15   0   3    1.09    5.01
 -15   0   3   -0.77    2.28
  16   0  -3  642.70   45.09
  16   0  -3  643.85   45.21
 -16   0   3  631.32   42.57
  16   0   3  611.45   43.43
  17   0  -3   -1.90    5.45
  17   0   3   -0.70    3.39
  18   0   3  452.86   30.61
  18   0  -3  477.56   31.74
  19   0   3   -1.59    2.55
  19   0  -3    0.76    1.25
   0  -1  -3 1069.99   48.13
   0   1  -3 1061.68   32.67
  -1   1  -3  117.17   14.11
   1  -1  -3  104.61   15.92
  -1  -1   3  102.32   12.73
  -1   1   3  112.02   12.61
   1   1  -3  116.12    7.02
  -1   1  -3  101.42   11.80
   1  -1   3  109.53   12.90
   1   1   3  108.86    9.34
  -1  -1  -3  108.54   15.10
  -1  -1   3  105.71   11.44
  -2  -1   3  313.57   35.40
   2  -1  -3  350.15   31.82
  -2   1  -3  402.63   22.38
   2  -1  -3  352.57   26.36
  -2   1   3  447.42   32.26
   2   1   3  361.65   15.79
   2   1   3  373.42   29.60
   2   1  -3  327.80   22.23
  -2  -1  -3  346.79   20.33
   2  -1   3  344.42   24.10
  -3  -1  -3  291.07   34.43
   3   1  -3  306.02   28.94
   3  -1  -3  307.73   34.59
   3   1   3  330.68   30.26
  -3  -1  -3  360.92   30.83
   3  -1  -3  352.99   30.11
  -3  -1   3  214.49   46.60
  -4   1  -3   99.59   16.32
   4  -1   3   57.38   12.93
   4   1  -3   65.15   17.03
  -4  -1  -3   65.13   14.52
  -4  -1  -3   73.96   25.47
  -4  -1   3   88.20   40.40
  -4   1   3   82.35    9.13
  -4   1   3   75.56   18.47
   4  -1  -3   68.00   10.27
   4  -1   3   93.76   38.59
   4  -1   3   70.43    9.91
  -5   1  -3   27.13    9.25
   5  -1  -3   17.99    5.47
  -5  -1  -3   13.97    4.30
  -5   1   3   16.01    5.70
   5   1  -3   16.54    5.34
  -5   1   3   15.13    5.09
  -5  -1   3   21.28    7.83
  -5   1   3   17.51   11.54
  -5  -1  -3   12.41    4.26
   5  -1   3   19.43   12.70
   5   1  -3    8.90    8.53
   5  -1   3   22.24    9.82
  -5  -1   3   11.14    5.13
  -5  -1  -3   49.36   24.02
   5  -1  -3   14.26    9.95
  -6  -1  -3  125.00   38.16
   6  -1   3   72.82   15.25
  -6   1  -3   94.80   15.24
   6   1  -3   67.57   10.95
  -6   1   3   49.37   10.04
  -6  -1   3   76.60   13.30
  -6   1   3   74.71   13.72
   6  -1  -3   58.87   11.01
  -6  -1  -3   66.64    9.79
  -6  -1  -3   62.48    9.75
  -6  -1   3   68.46   11.37
  -6  -1   3  101.83   16.00
  -7   1  -3  374.60   30.31
   7  -1  -3  278.01   24.33
  -7  -1   3  315.62   28.53
  -7  -1   3  265.11   25.39
  -7  -1   3  391.75   30.15
  -7   1   3  305.76   24.89
   7   1  -3  262.45   23.27
   7  -1   3  386.80   34.09
  -7   1   3  255.59   28.58
  -7  -1  -3  325.24   23.46
   7   1   3  313.72   28.40
   8   1   3   65.31   12.87
   8  -1   3   82.73   15.24
  -8   1   3   52.36   12.95
  -8   1   3   75.94   14.70
  -8   1   3   60.27   10.99
  -8  -1   3   69.73   13.15
  -8  -1   3   67.26   13.62
  -8  -1   3   57.97   12.69
  -8   1  -3   71.63   13.25
  -9  -1   3  347.73   32.08
  -9   1   3  324.63   31.73
  -9   1   3  348.05   27.72
  -9  -1   3  309.21   26.17
  -9   1   3  205.51   31.26
   9   1   3  309.13   26.93
   9  -1   3  319.15   29.84
  -9   1  -3  325.74   28.19
  -9  -1   3  343.82   29.72
  10   1   3   51.46   10.25
 -10   1   3   56.50   13.43
 -10   1   3   59.58   14.85
  10  -1   3   64.96   12.91
 -10   1  -3   64.42   12.90
 -10  -1  -3   48.91   11.78
 -10   1   3   71.04   13.27
 -10  -1   3   54.77   13.76
 -10  -1   3   52.38   13.14
 -10  -1   3   55.88   11.27
 -11  -1   3   90.99   16.78
 -11   1   3   93.43   15.61
 -11  -1   3   85.91   17.06
 -11  -1  -3   79.23   14.89
  11  -1   3   94.46   15.87
 -11   1   3   94.28   17.30
 -12   1   3  190.50   23.65
 -12   1   3  148.83   21.56
 -12  -1   3  156.30   22.08
 -12  -1   3  152.17   21.56
 -12  -1  -3  123.95   19.55
 -12   1  -3  115.39   21.56
  13  -1   3  308.23   34.28
 -13  -1  -3  288.54   30.86
 -13  -1   3  329.46   33.12
 -13   1  -3  300.14   31.02
  13   1   3  269.00   31.82
 -13   1   3  324.29   33.47
 -14  -1  -3   30.76   10.13
  14  -1  -3   59.50   15.21
 -14   1   3   41.12   12.65
  14   1  -3   15.85   10.59
  14  -1   3   46.77   13.48
  14   1   3   46.51   13.47
 -14  -1   3   28.16    9.63
  14  -1   3   54.24   14.23
  15   1  -3   73.39   16.14
  15  -1  -3   41.80   15.53
  15   1   3   67.46   14.29
 -15   1   3   56.00   13.24
  15  -1   3   76.80   15.71
  15  -1   3   88.15   17.19
 -15  -1   3   72.17   15.22
 -16   1   3    6.44    4.62
  16   1   3   -1.50    5.69
  16  -1   3    2.92    3.68
  16  -1  -3   -8.79    6.15
 -16  -1   3   -1.59    5.14
  16  -1   3    7.11    2.09
  16   1  -3   -1.45    3.70
  16   1  -3    2.52    3.82
  16  -1  -3    3.11    4.85
  17   1   3   -1.51    4.28
  17  -1   3    7.83    6.45
 -17   1   3    0.21    2.01
  17   1  -3    9.88    5.43
  17  -1  -3    5.77    5.03
  17  -1   3    0.60    3.75
 -17  -1   3   -0.11    3.14
  18   1  -3   10.63    4.58
  18   1   3   11.71    5.54
  18  -1   3    9.79    4.80
  18  -1  -3   14.36    5.52
  19   1  -3    3.94    2.06
  19  -1  -3    4.87    3.16
  19   1   3    9.71    3.91
  19  -1   3    6.53    2.70
   0   2  -3    1.66    2.21
   0  -2  -3    4.26    3.78
   0   2  -3    3.11    4.09
   1   2  -3   23.61    7.31
   1  -2   3   21.14    5.21
  -1  -2   3   20.12    6.51
   1  -2  -3   17.70    6.88
  -1   2   3   23.46    6.42
  -1   2  -3   17.68    5.60
  -1  -2  -3   16.39    6.82
   1   2   3   28.81    6.07
   1  -2   3   15.19    5.37
  -2   2  -3  134.23   13.05
   2  -2   3  123.78   17.98
   2   2  -3  117.51   15.02
   2  -2  -3  125.17   18.98
   2   2  -3  108.99   21.21
   2   2   3  121.09   15.73
   2  -2   3  120.08   16.49
  -2  -2   3  116.51   18.33
   2  -2  -3  121.45   16.90
   3   2  -3   28.10   10.38
  -3  -2  -3   33.41   10.93
   3  -2  -3   31.25    9.52
   3  -2   3   29.22   13.50
   3  -2  -3   33.30   10.77
  -3  -2  -3   35.95    9.75
  -3  -2   3   26.58   11.10
  -4  -2  -3 1177.38   40.34
   4  -2  -3 1110.82   71.39
  -4  -2  -3 1108.19   72.98
  -4  -2   3 1065.68   48.29
  -4  -2  -3 1139.29   34.83
   4   2  -3 1160.50   81.68
   4   2   3 1233.77   73.58
   4  -2  -3 1234.38   47.98
  -4   2   3 1329.15   77.50
   4  -2   3  922.93   89.11
   4  -2  -3 1111.88   64.77
   4  -2   3 1017.89   46.64
  -4  -2   3  716.42   80.98
  -4   2   3 1323.21   36.67
  -4  -2  -3 1165.52   69.91
  -4   2  -3 1275.74   60.66
  -5  -2  -3   38.62   17.82
  -5  -2   3   58.04   10.62
  -5   2  -3   81.36   15.97
   5  -2  -3   50.98   18.41
  -5  -2   3   56.43   10.90
  -5   2   3   59.84    9.52
   5  -2  -3   60.13   11.01
   5   2   3   32.94   11.13
   5  -2   3   49.82   24.44
   5   2  -3   60.20   20.60
  -5  -2  -3   60.41    9.14
  -5  -2  -3   60.55   10.03
  -5  -2  -3   55.68   16.98
   5  -2   3   55.08   12.49
   5   2  -3   54.15    8.16
  -5  -2   3   88.79   14.87
  -6  -2   3 2503.39   78.13
   6   2  -3 2665.60   63.67
   6  -2  -3 2071.79  131.55
   6  -2   3 2136.17   82.64
  -6  -2   3 2486.59   73.62
  -6  -2  -3 2395.07   63.22
  -6   2   3 2642.87   67.74
   6   2   3 2804.32  133.89
  -6   2   3 2949.92   78.30
  -6  -2  -3 2593.42   65.46
  -6  -2   3 3669.45   93.18
  -6  -2  -3 2611.50  164.49
   6  -2  -3 2470.50   72.65
  -6   2  -3 2987.22   91.22
  -7  -2  -3  303.58   22.99
  -7   2  -3  308.80   29.41
  -7  -2  -3  308.21   24.32
  -7  -2   3  229.53   24.27
  -7  -2   3  358.84   27.89
  -7   2   3  334.46   24.88
  -7   2   3  282.01   29.28
   7  -2   3  268.62   30.09
  -7  -2   3  289.98   26.61
  -8  -2   3  896.80   50.35
  -8   2  -3  996.26   52.53
  -8   2   3  882.43   57.41
  -8   2   3 1056.95   45.95
  -8  -2   3  929.86   50.19
  -8  -2   3  899.93   44.26
  -8  -2  -3  996.50   47.30
   8  -2   3 1042.93   58.56
  -8  -2  -3  906.87   46.07
  -9   2   3   36.93    9.08
   9   2   3   31.83    8.86
  -9   2   3   26.44   10.60
  -9   2  -3   35.67    9.89
  -9  -2  -3   32.32    9.59
  -9  -2   3   48.33   11.04
   9  -2   3   33.73   10.12
  -9  -2   3   33.94    9.88
  -9   2   3   19.75   10.01
 -10  -2  -3  127.05   18.23
 -10   2  -3  123.09   18.13
  10   2   3  127.17   17.31
 -10  -2   3  150.21   21.55
  10  -2  -3  156.62   23.66
  10  -2   3  157.16   21.73
 -10   2   3  132.21   17.51
 -10  -2   3  131.45   21.07
 -10   2   3  129.24   23.48
  11  -2   3   24.49    7.59
 -11  -2   3   19.42    7.45
 -11  -2  -3   13.24    6.91
 -11  -2   3   15.57    7.67
 -11   2  -3   27.22    9.68
 -11   2   3   33.64   10.93
 -12  -2   3   99.61   18.39
 -12   2  -3   56.66   15.97
 -12  -2  -3  107.06   17.88
 -12  -2   3  103.67   17.54
 -12   2   3  122.45   20.74
 -13   2  -3    6.87    3.87
  13   2   3    4.24    3.41
 -13  -2  -3    9.09    5.40
  13  -2  -3   16.68    8.65
  13  -2   3    6.03    4.50
  13  -2   3    8.89    7.87
 -13   2   3    7.06    5.34
 -13  -2   3   14.06    6.44
  14  -2   3  319.69   33.95
 -14  -2   3  296.64   32.93
  14   2   3  322.38   34.52
 -14   2   3  289.93   30.98
  14  -2  -3  310.02   34.17
  14  -2   3  292.69   33.29
 -15   2   3   19.92    6.19
  15  -2  -3   11.37   10.41
  15   2   3   20.46    7.34
 -15  -2   3    7.72    3.24
  15   2  -3   17.63    8.16
  15  -2   3   10.55    4.42
  15  -2   3   26.71    9.03
  16   2   3  438.46   37.28
  16  -2  -3  465.21   36.09
  16  -2   3  440.38   35.69
  16  -2  -3  483.02   38.69
  16  -2   3  452.43   36.78
  16  -2  -3  405.15   36.95
 -16   2   3  504.34   36.61
 -16  -2   3  494.09   37.81
  16   2  -3  485.69   38.93
  17   2   3   18.63    7.70
  17  -2   3   28.86    8.13
  17   2  -3   31.90    9.43
 -17  -2   3   27.72    8.42
  17  -2  -3   26.47    8.74
  17  -2   3   23.29    8.58
  18  -2   3  464.27   30.55
  18   2  -3  532.17   32.79
  18   2   3  525.01   33.01
  18  -2  -3  532.54   32.60
  19  -2  -3   17.69    4.83
  19   2  -3    8.23    4.03
  19   2   3   23.58    6.62
   0   3  -3 1527.66   58.30
   0   3  -3 1465.00   61.78
   0  -3  -3 1392.98   66.91
   0   3  -3 1508.79   36.02
  -1   3  -3   38.32    9.82
  -1   3  -3   33.45    9.00
   1  -3   3   43.69   10.53
   1  -3  -3   34.17   10.54
  -1   3   3   43.00   11.44
   1   3  -3   40.83    5.18
   1  -3   3   45.11    7.68
   1   3   3   37.98    8.57
  -2   3   3  468.38   38.04
  -2   3  -3  373.52   41.66
  -2   3   3  449.53   35.58
   2  -3  -3  431.96   36.99
   2  -3  -3  420.31   34.84
   2  -3   3  442.40   35.27
  -2  -3   3  423.45   36.88
   2   3   3  513.79   35.67
  -2  -3  -3  480.95   20.40
  -3   3   3  513.90   43.80
   3   3   3  434.42   44.23
   3   3  -3  478.97   58.23
  -3  -3  -3  410.10   26.16
  -3  -3  -3  442.85   21.29
   3  -3   3  402.98   36.02
   3  -3  -3  507.52   33.92
   3   3   3  416.31   40.75
  -3  -3   3  399.74   42.88
  -3   3  -3  376.12   12.66
  -3  -3  -3  428.95   43.59
   3  -3   3  428.43   37.76
   3  -3  -3  437.28   20.83
   3  -3  -3  408.25   38.09
   3  -3  -3  402.96   37.04
   3  -3   3  437.32   23.68
  -3  -3   3  510.99   36.80
   3   3  -3  446.06   49.70
  -4   3  -3  152.01   19.07
   4  -3  -3  178.48   27.90
   4   3  -3  195.40   38.50
  -4  -3  -3  200.59   21.75
   4  -3  -3  204.11   21.70
  -4  -3   3  153.41   32.81
   4  -3   3  186.43   32.55
  -4   3   3  216.68   14.75
  -4  -3  -3  172.73   14.76
  -4  -3   3  197.16   22.33
   4  -3  -3  194.84   15.68
  -4  -3  -3  178.02   17.44
   4   3   3  196.06   32.59
  -4  -3  -3  200.35   29.66
   4  -3  -3  183.93   26.75
  -4  -3  -3  207.22   32.38
   5  -3  -3    2.40    2.68
   5   3  -3    3.80    2.72
  -5  -3   3    2.90    2.56
  -5  -3  -3   -0.56    2.91
   5  -3   3   -4.21   10.41
   5  -3  -3   -0.27    1.48
   5   3  -3    1.67    9.31
  -5  -3  -3   -0.43    1.49
  -5  -3  -3   -1.21    3.62
  -5   3   3    1.91    1.73
  -5  -3  -3    3.71    3.70
  -5   3  -3    6.21    4.55
   5  -3   3   -2.33    1.68
   5  -3  -3   10.12   10.47
   6  -3  -3  311.40   27.44
  -6  -3  -3  441.85   32.95
  -6  -3  -3  334.85   24.97
  -6   3  -3  354.49   33.22
  -6  -3   3  385.69   30.27
  -6  -3  -3  335.10   25.25
  -6   3   3  384.43   27.07
  -6  -3   3  341.05   29.05
   6  -3   3  311.11   31.56
   7  -3   3    3.99    2.60
  -7  -3   3    6.31    4.39
  -7  -3  -3   12.81    6.74
  -7  -3  -3    3.28    2.26
  -7   3   3    8.71    5.40
  -7   3  -3   11.96    6.72
   7  -3  -3   -0.94    5.59
  -7  -3   3    6.99    6.99
  -7  -3  -3    6.81    3.29
  -8  -3   3  637.49   40.90
  -8  -3  -3  731.68   41.63
  -8   3  -3  647.49   46.92
  -8   3   3  654.81   49.82
  -8  -3  -3  663.06   40.34
   8  -3   3  595.36   48.00
  -8  -3   3  580.86   42.83
  -9   3  -3   13.78    4.49
   9  -3   3    8.87    4.82
   9  -3  -3   13.43    7.54
  -9  -3   3    8.05    5.63
  -9  -3  -3   13.95    6.03
  -9  -3  -3   15.73    6.38
  -9  -3   3   10.78    6.13
  -9   3   3    9.86    6.22
 -10  -3  -3  926.67   49.37
  10  -3   3 1006.85   59.50
 -10  -3   3  954.20   53.07
 -10   3   3  835.01   64.68
 -10  -3   3  887.03   56.52
  10   3   3  832.42   46.50
 -10   3  -3  959.92   55.21
  10  -3  -3 1010.68   62.94
 -11  -3  -3   31.26    8.94
 -11  -3   3   32.94    9.07
 -11   3  -3   27.72    8.42
 -11   3   3   22.93    7.40
  11  -3   3   38.29   11.19
 -12  -3  -3  757.24   47.57
 -12   3  -3  655.28   46.42
 -12  -3   3  774.91   49.85
 -12   3   3  732.70   56.42
  13   3   3   89.51   18.43
  13  -3   3   88.02   18.62
 -13  -3  -3   92.43   16.87
 -13   3   3   96.98   19.76
 -13   3  -3   69.37   14.94
  13  -3  -3   86.14   18.10
 -13  -3   3   91.24   18.11
 -13  -3   3   85.32   17.04
  14  -3   3  501.53   43.14
  14   3   3  520.78   43.89
  14  -3   3  441.26   40.04
  14  -3  -3  423.08   46.21
 -14  -3   3  478.62   41.28
  15  -3   3    3.99    4.43
  15  -3   3  -11.15    6.55
 -15  -3   3    7.19    4.82
  15  -3  -3   -6.94    3.86
  15   3  -3   -3.35    5.96
  15   3   3   -4.71    6.54
  16   3   3   47.64   12.49
  16  -3  -3   43.68   12.16
  16  -3   3   55.10   12.83
  16   3  -3   54.10   12.66
 -16  -3   3   52.88   12.13
  16  -3  -3   47.82   11.75
  16  -3  -3   63.59   13.79
  16  -3   3   51.34   10.39
  17   3   3   -0.85    4.52
  17  -3  -3    3.67    2.14
  17   3  -3    5.43    2.42
  17  -3   3    1.90    2.41
  17  -3  -3    2.92    3.99
  17  -3   3    5.75    3.66
  18  -3  -3    8.52    3.84
  18  -3   3    2.97    2.02
  18  -3  -3    9.46    3.22
  18   3  -3    2.95    2.48
 -18  -3   3    0.81    1.19
  18   3   3    8.37    4.77
  19   3   3    2.18    1.78
   0   4  -3   12.46    5.48
   0  -4  -3    9.36    3.69
   0  -4  -3    8.71    3.94
   0   4  -3    5.96    4.38
   0  -4   3    7.23    2.40
   0   4   3    6.04    4.59
   0   4  -3   14.81    4.89
  -1   4   3  124.17   19.27
   1   4  -3  119.31   19.54
   1  -4   3   87.43   10.76
   1  -4   3  113.42   15.25
   1  -4  -3  132.35   10.75
   1   4  -3  117.98   19.62
   1  -4  -3  123.98   11.61
  -1   4  -3  113.59   24.32
  -1  -4   3  120.59   16.45
   1  -4   3  109.26   18.29
   1   4   3  114.44   21.43
  -1  -4  -3  133.81   10.88
  -1  -4   3  135.48   10.03
  -1   4   3  128.86   21.16
  -1   4  -3  132.97   16.71
   1   4  -3  116.63   11.87
  -1  -4  -3  122.08   11.17
  -1  -4  -3  124.58   16.02
   1   4   3  123.41   17.81
   2  -4   3    4.10    2.95
  -2   4  -3    8.41    6.29
   2   4  -3   11.89    6.17
   2  -4   3    9.07    3.10
   2  -4  -3   11.08    6.21
  -2  -4  -3    9.71    2.90
   2   4   3    5.67    4.05
  -2  -4   3   15.50    7.11
   2  -4   3    7.71    5.26
   2  -4   3   10.80    4.67
   2  -4  -3   10.52    6.80
   2  -4   3    9.78    2.85
   2  -4  -3   10.75    3.05
  -2  -4  -3   16.27    9.32
  -2  -4  -3   11.80    5.94
  -2  -4   3    8.93    5.58
  -2   4  -3   12.26    6.33
   2   4   3   13.94    8.28
  -2   4   3   15.71    8.44
  -2   4   3    9.97    6.32
  -2  -4   3   26.66    4.63
  -2  -4  -3   14.47    4.37
   2  -4  -3   13.01    4.35
   3   4   3  120.61   22.61
  -3   4   3  133.86   22.05
  -3  -4  -3  106.56   11.50
   3  -4   3  100.45   12.74
   3  -4  -3  118.73   12.37
   3   4  -3  106.60   23.89
  -3  -4   3   99.64   21.50
  -3  -4   3  128.87   16.44
  -3  -4   3  137.28   20.02
   3  -4   3   94.83   16.83
  -3   4  -3   67.75   19.09
   3   4   3  100.82   10.65
   3  -4  -3   83.73   15.28
  -3  -4  -3   93.37   23.00
   3  -4  -3   95.14   19.36
   4  -4  -3  280.69   20.81
  -4   4  -3  273.15   23.00
  -4  -4  -3  271.68   22.62
  -4   4  -3  211.81   43.82
  -4  -4   3  318.28   30.27
  -4  -4  -3  279.05   20.26
  -4  -4  -3  191.28   19.98
   4  -4   3  244.01   19.50
   4  -4  -3  238.90   33.13
  -4  -4   3  358.46   26.79
  -4   4   3  248.83   17.43
   4  -4  -3  272.46   18.74
   5  -4  -3   33.77    7.12
   5  -4   3   30.76    9.13
   5  -4   3   26.42    5.87
  -5   4  -3   41.47   10.78
  -5  -4   3   34.73    8.58
  -5  -4  -3   23.10    6.94
  -5  -4  -3   25.24    7.23
  -5   4   3   25.52    6.46
  -5  -4  -3   26.32    7.22
  -6  -4   3  921.32   49.70
   6  -4   3  757.33   48.38
  -6   4   3  591.32   38.20
  -6   4  -3  726.94   49.16
  -6  -4  -3  766.29   40.56
  -6  -4  -3  966.18   52.11
  -6  -4  -3  877.01   42.43
   6  -4  -3  807.60   42.40
   7  -4   3  218.29   28.53
  -7   4  -3  193.50   26.45
  -7  -4  -3  273.03   27.55
  -7  -4  -3  257.84   23.67
  -7   4   3  222.52   23.07
   7  -4  -3  193.42   23.95
  -7  -4   3  235.28   25.21
  -7  -4  -3  211.72   22.20
  -8   4   3  384.37   36.28
  -8  -4  -3  459.44   35.19
  -8  -4  -3  407.06   29.60
  -8  -4   3  397.09   32.81
  -8  -4  -3  421.04   33.61
  -8   4  -3  358.37   36.34
   8  -4   3  332.41   37.29
  -9   4  -3   56.66   14.24
  -9  -4  -3   76.58   14.39
  -9   4   3   54.40   16.09
  -9  -4   3   67.78   14.21
  -9  -4  -3   69.21   12.48
   9  -4  -3   53.59   13.87
  -9  -4  -3   80.69   14.85
   9  -4   3   48.44   13.15
 -10   4  -3   51.39   12.96
  10  -4   3   58.45   14.68
 -10   4   3   32.43   15.62
 -10  -4  -3   67.12   14.58
 -10  -4  -3   63.67   13.13
 -10  -4   3   54.47   12.59
  10   4   3   29.89    9.73
 -11  -4  -3   -1.22    3.41
 -11  -4   3   -3.60    3.38
  11  -4   3    2.96    3.21
 -11   4  -3   -9.69    8.32
 -11   4   3    1.71    7.08
 -12   4   3   73.02   18.28
 -12  -4   3   75.98   16.29
 -12  -4  -3   71.53   13.99
 -12   4  -3   53.59   12.79
 -13  -4  -3    1.94    4.87
  13  -4   3    3.31    3.69
 -13  -4  -3   10.34    5.38
  13  -4  -3    9.50    5.78
  13  -4  -3   17.59    5.88
 -13   4   3   21.74   10.93
 -13   4  -3    7.75    2.26
  13  -4   3    9.22    4.68
  13   4   3    9.09    6.75
 -13  -4   3   15.53    6.86
 -13  -4   3    9.43    6.45
 -14  -4   3   99.02   18.61
  14   4   3   84.42   17.12
  14  -4   3   65.07   15.31
  14   4  -3   89.85   19.61
  14  -4  -3   68.29   18.75
  14  -4  -3   77.49   17.42
  15   4   3   59.65   13.89
 -15  -4   3   87.31   16.57
  15  -4   3   85.72   17.26
  15   4  -3   71.99   15.56
  15  -4  -3   70.18   15.75
  16   4   3  100.98   17.10
  16  -4   3  102.10   16.86
  16   4  -3  102.07   17.53
  16  -4  -3   90.19   15.65
  16  -4  -3   92.27   16.21
  16  -4  -3   83.12   16.55
 -16  -4   3   98.18   17.91
  17   4   3   31.63    9.31
  17  -4  -3   31.15    9.62
  17   4  -3   27.81    9.01
 -17  -4   3   20.65    7.73
  17  -4   3   27.68    8.31
  17  -4  -3   39.40    9.48
  18  -4  -3  120.99   14.18
  18   4   3  112.27   14.45
  18  -4   3   66.04   11.70
  18   4  -3  121.04   14.59
  18  -4  -3  113.42   13.06
 -18  -4   3  122.96   13.79
   0  -5   3 2784.43   48.70
   0  -5  -3 2652.83   86.56
   0  -5  -3 2562.18   58.30
   0  -5   3 2387.56   76.72
   0  -5   3 2824.20   51.09
   0  -5  -3 2545.79   60.06
   0  -5  -3 2830.36   69.98
   0   5  -3 2584.16  141.95
   0   5  -3 2764.33  101.65
   1  -5   3   61.46    6.50
   1   5  -3   40.29   14.91
   1  -5  -3   70.85   13.35
   1   5  -3   64.16   25.56
  -1  -5  -3   59.57   11.99
  -1  -5   3   59.94    7.24
   1   5   3   42.02   12.70
   1  -5  -3   62.46    9.17
   1  -5  -3   59.73    7.84
   1  -5   3   69.25    8.74
   1  -5   3   54.47   11.87
  -1  -5   3   50.55    7.92
  -1   5  -3   55.21   12.12
  -1  -5   3   66.57   12.24
  -1   5  -3   71.67   17.83
  -1  -5  -3   65.35    8.36
  -1  -5  -3   66.43   11.45
  -1   5   3   71.39   17.26
   1   5  -3   60.51   10.51
  -2   5   3 2016.60   89.86
  -2  -5   3 1869.35   66.92
   2  -5  -3 1812.01   51.38
   2   5   3 2134.26   89.22
   2  -5   3 1843.85   70.10
  -2  -5  -3 1563.33   63.56
  -2   5  -3 1841.82   82.62
   2  -5   3 1725.99   62.26
   2  -5   3 1851.92   36.60
  -2   5  -3 1922.60   73.54
  -2  -5   3 1965.53   42.92
  -2  -5   3 1489.67   55.80
   2  -5   3 1773.50   46.03
  -2  -5  -3 1892.36   47.46
  -2  -5  -3 2055.64   71.96
  -3   5   3  430.93   41.58
  -3   5  -3  392.98   46.08
   3   5   3  497.20   48.50
  -3   5  -3  424.08   22.66
  -3  -5   3  434.60   21.56
  -3  -5  -3  436.38   24.65
  -3  -5   3  501.58   33.83
   3  -5   3  393.59   28.68
  -3  -5   3  372.47   32.55
   3  -5  -3  446.64   22.72
   3  -5  -3  462.48   32.18
   3  -5   3  367.03   34.72
   3  -5  -3  426.11   26.13
  -4  -5  -3 1019.95   44.06
  -4  -5  -3 1026.07   41.90
  -4  -5  -3  969.01   40.68
  -4  -5   3 1151.90   58.79
   4  -5   3 1017.52   44.18
   4  -5   3  937.68   63.37
  -4   5  -3  987.91   41.77
  -4  -5  -3  996.78   54.56
  -4  -5  -3 1032.38   49.20
   4  -5  -3 1053.20   45.57
   4  -5  -3  998.48   37.09
   4  -5  -3 1003.11   43.41
  -5  -5  -3   19.26    7.22
  -5  -5  -3   21.28    7.44
  -5   5  -3   19.46    7.35
   5  -5   3   21.59    7.83
  -5  -5  -3   19.68    5.76
   5  -5   3   26.41    7.83
  -5  -5  -3   19.38    6.79
  -5  -5   3   21.24    7.16
   5  -5  -3   15.23    5.17
  -5  -5  -3   12.93    5.99
  -5   5   3   16.87    4.51
   6  -5  -3  117.56   16.26
   6  -5   3  142.84   20.91
  -6  -5  -3  120.36   17.03
  -6  -5  -3  156.29   20.11
  -6   5  -3  155.35   22.99
  -6  -5   3  158.86   21.58
  -6  -5  -3   88.31   17.83
  -6  -5  -3  142.71   17.73
  -6   5   3  135.82   16.11
   7  -5   3   17.51    8.08
  -7  -5  -3   15.61    6.00
  -7  -5   3   14.20    5.30
  -7  -5  -3   18.16    6.29
  -7   5  -3   12.71    7.79
   7  -5  -3   21.27    8.53
  -7   5   3   20.57    7.42
  -7  -5  -3   13.88    7.92
   8  -5   3  823.54   61.01
   8  -5  -3  636.64   48.20
  -8  -5  -3  991.82   48.79
  -8   5  -3  770.35   59.13
  -8   5   3  783.78   51.18
  -8  -5  -3 1074.91   60.14
  -8  -5  -3  963.03   53.67
  -8  -5   3  963.47   52.65
  -9  -5  -3  127.88   17.61
  -9  -5  -3  160.84   22.82
  -9   5  -3  139.14   23.86
  -9  -5  -3  143.57   20.79
  -9  -5   3  138.84   20.04
   9  -5  -3   87.51   18.88
  -9   5   3  124.44   23.42
 -10  -5  -3 2078.21   81.15
 -10  -5   3 1780.17   73.51
 -10   5  -3 1807.54   86.37
 -10  -5  -3 1905.85   79.52
 -11   5   3   12.76   10.02
 -11  -5   3   16.39    7.36
 -11  -5  -3    9.05    4.06
 -11   5  -3   20.09    8.89
 -11  -5  -3   24.28    8.85
 -12   5  -3 1328.83   70.18
  12  -5  -3 1462.16   75.52
 -12  -5   3 1291.44   67.13
 -12  -5  -3 1466.91   69.09
  13   5   3    4.86    4.15
  13  -5  -3   -0.95    5.58
 -13  -5  -3    6.75    3.42
  13  -5   3   -0.77    2.73
  13  -5  -3    8.13    5.84
  13  -5   3    2.48    2.75
 -13  -5  -3   -1.66    3.09
 -13  -5   3    0.11    2.01
  13   5  -3    5.52    2.21
  14  -5  -3  802.42   57.70
 -14  -5  -3  894.85   53.48
  14   5   3  791.38   52.38
  14   5  -3  908.90   56.59
  14  -5  -3  802.97   54.83
 -14  -5   3  858.34   54.70
  14  -5   3  810.47   54.82
  15   5   3    5.03    5.23
  15  -5  -3    3.49    5.13
  15   5  -3    0.14    2.76
 -15  -5  -3    9.87    5.47
  15  -5   3   11.86    8.41
 -15  -5   3    7.68    6.44
  15  -5   3    8.38    6.80
  15  -5  -3    9.08    2.79
  16   5   3   76.13   14.15
  16  -5  -3   64.22   14.65
 -16  -5   3   67.61   15.25
  16   5  -3   70.94   14.32
  16  -5   3   86.53   15.98
  16  -5  -3   72.13   13.08
  16  -5  -3   73.22   14.59
  17  -5  -3   -0.49    4.24
 -17  -5   3    3.66    3.70
  17   5  -3   -6.46    6.15
  17   5   3    1.48    3.92
  17  -5   3   -4.40    6.47
  18  -5   3   19.08    5.80
  18   5  -3   27.00    6.30
  18  -5  -3   22.27    5.46
 -18  -5   3   10.83    4.14
  18   5   3   21.48    5.59
   0  -6  -3    8.89    3.98
   0  -6   3    8.45    3.48
   0   6  -3   25.08   13.50
   0  -6   3    4.66    2.85
   0  -6  -3   20.34    9.49
   0  -6   3   14.67    8.03
   0  -6  -3   22.80    9.42
   1  -6   3   46.27   11.74
  -1  -6  -3   51.19    8.27
  -1  -6   3   46.34   11.87
   1  -6   3   56.06    7.08
  -1  -6  -3   56.50   13.49
   1  -6  -3   47.80    9.07
  -1  -6   3   51.59    7.24
  -1  -6   3   46.16    7.44
   1  -6   3   43.73    7.55
  -1  -6  -3   50.57   12.39
   1  -6  -3   58.22    9.02
  -1   6  -3   50.64   15.49
  -1  -6  -3   52.96   10.36
   1  -6  -3   59.13   13.36
   1  -6  -3   79.85   15.27
   2  -6   3   16.78    3.54
  -2  -6   3   13.28    4.86
  -2   6  -3   17.60    3.65
  -2  -6   3   15.80    6.67
  -2  -6  -3   19.25    8.30
   2  -6  -3   20.95    9.05
   2  -6   3   16.54    6.90
  -2  -6  -3   20.10    7.77
   2  -6  -3   26.23    9.82
  -2  -6  -3   16.22    6.90
  -2  -6   3   18.54    4.11
   2  -6   3   19.89    5.20
  -2  -6  -3   18.22    5.83
   2  -6  -3   20.09    5.97
  -3  -6   3  178.74   14.08
  -3  -6  -3  153.86   18.64
   3  -6  -3  180.01   21.68
  -3  -6   3  124.71   18.13
  -3  -6  -3  164.36   16.16
   3  -6   3  152.66   19.16
  -3  -6   3  219.39   23.40
  -3  -6  -3  161.67   21.47
   3  -6   3  109.13   16.11
  -3   6  -3  134.30   14.07
   3  -6  -3  166.45   18.34
  -3  -6  -3  136.17   20.71
  -4  -6  -3  104.63   17.25
   4  -6   3   82.16   14.04
   4  -6  -3  104.07   12.80
  -4  -6  -3  103.72   13.97
  -4  -6  -3   98.11   17.54
   4  -6  -3   98.90   15.12
   4  -6  -3   97.13   15.30
  -4  -6   3  111.96   16.94
  -4  -6  -3   81.10   13.06
  -4  -6   3   92.48   16.62
  -4   6  -3   84.72   12.17
  -5  -6   3  184.31   24.69
  -5  -6  -3  166.30   21.35
  -5  -6  -3  122.46   18.43
   5  -6  -3  135.96   15.95
   5  -6   3  147.41   17.96
  -5   6  -3  154.36   19.26
  -5  -6  -3  139.16   18.43
  -5   6   3  148.24   15.32
  -5  -6  -3  133.03   15.67
  -5  -6  -3  154.00   22.22
  -5  -6   3  172.80   19.78
   6  -6  -3  212.18   22.02
  -6  -6  -3  245.92   26.78
  -6  -6   3  240.05   27.75
  -6   6  -3  208.44   27.14
  -6   6   3  228.53   20.52
  -6  -6  -3  206.37   23.23
  -7   6  -3  414.29   41.60
   7  -6  -3  416.14   34.41
  -7  -6  -3  467.96   37.88
  -7  -6   3  485.06   39.10
  -7   6   3  442.36   31.58
  -7  -6  -3  524.23   37.66
  -7  -6  -3  361.51   38.23
   8  -6  -3    2.83    5.22
  -8   6  -3   -0.90    4.40
  -8  -6  -3    9.39    4.97
  -8   6   3    6.46    3.90
  -8  -6   3    6.94    5.55
  -8  -6  -3    7.00    5.48
  -8  -6  -3    2.27    4.01
  -9  -6  -3  137.40   22.45
   9  -6  -3   63.35   15.76
  -9   6   3   85.85   18.70
  -9  -6   3  101.53   17.65
  -9   6  -3   87.21   19.73
  -9  -6  -3   96.50   15.84
  -9  -6  -3  111.19   20.00
 -10  -6  -3   26.75   10.45
 -10   6  -3   26.43   12.17
 -10  -6  -3   41.58   12.08
 -10  -6  -3   30.74    9.31
 -10   6   3    3.66    6.17
 -10  -6   3   23.58    8.47
 -11  -6   3    5.70    5.74
 -11  -6  -3    8.23    3.15
 -11  -6  -3    8.70    5.26
 -11   6  -3    2.58    2.61
 -11   6   3    7.73    3.42
 -12  -6   3   16.81    6.94
 -12   6   3   13.28    9.89
  12  -6   3   18.33    9.63
 -12  -6   3   11.03    7.04
  12  -6  -3   15.48    8.08
  12  -6   3   18.94    8.70
 -12  -6  -3   24.02   10.03
 -12  -6  -3   10.85    3.84
 -12  -6   3   15.38    4.83
  12  -6  -3   12.22    7.52
 -12  -6  -3   19.22    7.41
 -12  -6  -3   12.77    6.86
  12   6   3   16.22    7.64
 -12   6  -3    9.20    5.50
  13   6   3   -0.34    2.61
 -13  -6   3    2.52    3.10
  13  -6  -3   -7.38    7.56
 -13  -6  -3    0.84    4.76
 -13  -6   3   -3.01    6.49
 -13  -6  -3    2.89    2.03
  13  -6   3    3.67    5.80
  13  -6  -3   -6.67    6.26
  13  -6   3    7.55    7.77
  14   6   3   20.51    6.21
 -14  -6   3   19.91    8.36
 -14  -6  -3   36.42   10.64
  14  -6  -3   19.86    9.68
  14  -6   3   37.26   12.30
  14  -6  -3   16.63    7.93
  14   6  -3   29.82   10.42
 -14  -6   3   29.44   10.17
  15   6  -3   15.91    7.98
  15  -6  -3   15.45    9.17
 -15  -6  -3   33.14    9.31
  15  -6   3   12.29    5.94
  15   6   3   26.13    8.75
 -15  -6   3   39.68   11.19
  15  -6   3   22.51    8.31
  15  -6  -3   14.35    6.91
  16   6  -3   36.74    9.12
  16  -6   3   29.08   10.09
  16  -6   3   48.90   12.08
 -16  -6  -3   43.29   10.08
  16  -6  -3   42.74   10.30
 -16  -6   3   34.44   10.12
  16  -6  -3   41.12   10.28
  16   6   3   48.68   11.09
 -17  -6   3   48.27    9.98
  17   6  -3   47.97    9.49
  17  -6  -3   43.34    9.69
  17  -6   3   31.87    8.14
  17   6   3   41.97    8.89
  18   6   3   16.31    4.82
  18  -6   3   17.54    5.67
  18  -6  -3   17.34    5.09
 -18  -6   3   15.03    4.62
   0  -7  -3 5053.86   95.85
   0  -7   3 5408.31   78.19
   0  -7   3 4640.19  126.80
   0  -7  -3 4641.49  133.52
   0  -7   3 5453.85   82.27
   0  -7  -3 5027.07  139.32
   1  -7  -3   28.83   10.67
  -1  -7   3   35.99    6.20
  -1  -7  -3   33.74   10.21
   1  -7   3   34.22    6.08
  -1  -7  -3   29.48    8.38
   1  -7   3   25.50    9.97
   1  -7  -3   29.65    6.81
   1  -7   3   32.25    6.85
  -1  -7  -3   30.66   10.94
  -1  -7   3   34.84   11.13
  -1  -7   3   35.46    6.75
  -2  -7   3 2362.01   67.46
  -2  -7  -3 2983.08  104.71
  -2  -7  -3 2613.91   64.65
  -2  -7  -3 2624.70   88.28
   2  -7   3 2758.82   63.90
   2  -7  -3 2567.26   96.42
   2  -7   3 2554.80   91.52
  -2  -7   3 2585.10   89.64
  -2  -7  -3 2217.25   79.75
  -2  -7   3 2573.66   54.67
  -3  -7  -3   24.09    7.72
  -3  -7  -3   29.59   10.65
   3  -7   3   21.90    7.85
   3  -7  -3   17.93    7.15
  -3  -7   3   24.27    8.53
  -3  -7  -3   21.11    6.92
   3  -7   3   18.68    6.36
  -3  -7  -3   20.16    9.01
  -3  -7   3   15.98    7.61
   4  -7  -3 1043.80   51.83
  -4   7  -3  967.01   42.54
   4  -7   3 1001.89   43.24
   4  -7   3  934.66   51.11
  -4  -7  -3  982.59   47.67
  -4  -7  -3  948.52   45.81
  -4  -7   3 1041.25   53.97
  -4  -7  -3  725.51   51.68
  -4  -7   3  823.49   51.78
  -5  -7  -3  107.31   19.55
  -5  -7   3  110.01   19.93
  -5  -7  -3   96.01   16.11
  -5  -7   3  124.60   17.85
   5  -7   3  106.32   16.51
   5  -7  -3  105.67   15.19
  -5  -7  -3  107.83   15.06
  -5   7  -3  106.64   16.06
  -5   7   3   87.17   12.46
  -6   7   3    9.66    4.62
  -6  -7  -3   15.33    6.91
  -6  -7   3   10.39    5.25
   6  -7  -3   16.72    6.31
  -6  -7  -3   10.67    6.87
  -6   7  -3   18.56    8.46
  -7  -7  -3   19.40    8.88
  -7   7   3   10.19    6.10
  -7  -7   3    9.38    5.63
   7  -7  -3    6.10    4.10
  -7   7  -3    5.86    2.74
  -7  -7  -3    9.81    5.44
   8  -7  -3   93.58   18.39
  -8   7   3  119.46   19.07
  -8   7  -3  138.92   25.98
  -8  -7  -3  147.24   22.45
  -8  -7   3  148.28   23.02
  -8  -7  -3  152.48   21.75
  -9  -7  -3   76.32   16.24
  -9  -7  -3   71.35   14.49
  -9  -7   3   76.38   17.37
  -9   7  -3   86.21   21.18
  -9   7   3   70.26   17.22
 -10  -7  -3 1021.26   61.38
 -10  -7   3  971.12   58.42
 -10   7  -3  925.23   67.95
 -10  -7  -3 1013.81   54.18
 -11  -7   3   -2.70    2.92
 -11   7  -3   -3.23    3.52
 -11   7   3    0.74    7.27
  11  -7  -3    2.09    4.53
 -11  -7  -3   12.50    7.35
  11  -7   3   -0.38    3.61
 -12  -7   3  988.78   63.55
 -12  -7   3 1068.90   60.52
 -12   7  -3  962.61   61.43
 -12  -7  -3 1115.66   62.21
  12  -7   3  775.38   61.32
 -12  -7   3 1017.41   60.55
  12  -7   3  810.39   62.83
  12  -7  -3  912.50   63.46
  12  -7   3  966.36   62.81
  12  -7  -3  935.93   66.44
 -12  -7  -3 1060.95   60.47
 -12  -7  -3  948.60   58.86
  13   7   3   17.32    9.31
  13  -7  -3    9.59    6.85
 -13  -7   3    4.98    2.79
  13  -7   3    1.57    3.67
 -13  -7   3   11.19    5.89
 -13  -7  -3    8.95    5.73
 -13  -7  -3    8.08    4.14
  13  -7   3   -0.94    5.80
  13  -7  -3    9.98    3.94
  14   7   3  513.79   39.47
  14  -7  -3  605.06   46.58
  14  -7  -3  520.09   44.90
 -14  -7   3  647.26   45.24
 -14  -7   3  595.86   43.34
 -14  -7  -3  586.57   42.36
  14  -7   3  586.20   44.42
 -14  -7  -3  579.37   42.07
 -15  -7   3   44.30   10.32
 -15  -7  -3   63.81   13.45
  15  -7  -3   56.87   13.26
 -15  -7   3   67.74   14.26
  15  -7   3   65.47   13.77
  15  -7   3   47.32   13.18
  15   7   3   36.03    9.80
 -16  -7   3   50.97   11.68
 -16  -7  -3   49.33   10.24
  16  -7   3   41.67   10.55
  16  -7  -3   41.64    9.70
  16  -7   3   42.20   12.02
  16  -7  -3   52.91   12.28
  16   7   3   42.03    9.59
 -17  -7   3    9.47    4.81
  17   7   3   10.68    4.32
 -17  -7  -3    8.23    2.77
  17  -7   3   12.81    5.41
  17  -7   3   13.03    5.17
  17  -7  -3   19.79    6.68
   0  -8   3    0.11    1.86
   0  -8   3   -1.43    7.24
   0  -8  -3    2.61    3.44
   0  -8   3   -0.79    2.19
   1  -8  -3    1.62    4.39
   1  -8   3    0.85    5.93
  -1  -8   3    0.07    2.19
   1  -8   3    3.93    2.21
  -1  -8   3    1.69    1.71
  -1  -8  -3    3.60    5.23
  -1  -8   3    5.97    8.17
  -1  -8  -3    6.95    4.66
  -2  -8   3  212.34   27.37
   2  -8   3  175.48   17.81
  -2  -8  -3  184.19   23.78
   2  -8  -3  176.50   27.01
   2  -8   3  173.50   26.19
  -2  -8  -3  187.26   25.08
  -2  -8  -3  190.82   18.48
  -3  -8  -3  145.54   17.37
  -3  -8  -3  128.28   22.06
  -3  -8   3  173.07   21.46
   3  -8  -3  176.14   24.35
   3  -8   3  160.14   23.96
  -3  -8  -3  169.18   22.36
  -3  -8   3  167.98   23.82
   3  -8   3  185.61   18.94
  -4  -8   3  657.51   45.76
  -4  -8  -3  596.71   38.40
  -4  -8  -3  559.39   39.10
   4  -8   3  630.09   36.34
   4  -8   3  618.95   45.31
  -4  -8   3  502.19   42.28
  -4  -8  -3  465.84   43.07
   4  -8  -3  623.48   43.57
   5  -8  -3  106.79   16.46
   5  -8   3   92.42   16.60
  -5  -8   3  109.65   17.84
  -5   8   3   99.90   13.82
  -5  -8  -3   79.73   18.58
  -5  -8  -3   93.13   16.77
  -5  -8   3   78.73   18.85
   5  -8   3   69.49   15.20
  -5  -8  -3   85.21   15.10
  -6  -8  -3  946.74   59.38
  -6  -8   3  924.58   62.94
  -6   8  -3  834.48   54.95
  -6  -8  -3  778.58   51.23
  -6   8   3  921.92   44.86
  -7  -8  -3   92.82   18.70
  -7  -8  -3   88.56   17.81
  -7   8  -3   73.88   18.22
  -7  -8   3   99.31   20.71
  -7   8   3   75.28   14.47
  -8  -8   3  445.58   42.27
  -8  -8  -3  412.67   36.87
  -8   8  -3  370.27   43.80
  -8  -8  -3  378.82   38.30
  -8   8   3  351.10   32.75
  -9   8   3   11.79    7.55
  -9   8  -3    2.89    5.26
  -9  -8   3   19.76    7.97
  -9  -8  -3   23.40   10.05
  -9  -8  -3   15.42    7.35
 -10  -8  -3   98.14   19.40
 -10   8   3   57.74   15.83
 -10  -8   3   98.95   19.03
 -10  -8  -3   93.64   16.83
 -10   8  -3   95.41   22.02
 -11  -8   3   35.59   14.57
 -11   8  -3   58.90   16.20
 -11  -8   3   48.74   14.09
 -11  -8  -3   49.11   13.54
  11  -8   3   32.74   15.46
 -11  -8  -3   56.54   15.34
 -11  -8  -3   65.22   15.63
  11  -8   3   72.57   18.34
  11  -8  -3   55.32   16.41
 -11   8   3   55.28   17.84
  11  -8   3   36.48   14.23
 -12  -8   3   56.70   13.25
 -12  -8  -3   66.14   15.43
 -12  -8  -3   67.43   14.98
  12  -8   3   63.62   16.42
  12  -8  -3   61.08   16.30
  12  -8   3   64.46   15.57
  12  -8  -3   67.53   18.56
 -13  -8  -3   29.53   10.88
 -13  -8   3   57.59   13.62
 -13  -8   3   34.32   10.27
  13  -8   3   30.65   11.59
 -13  -8  -3   48.47   12.52
  13  -8   3   38.14   12.71
  13  -8  -3   38.82   11.97
  13  -8  -3   54.04   15.33
 -14  -8  -3  373.57   32.36
 -14  -8  -3  347.97   32.05
 -14  -8   3  380.18   33.97
  14  -8   3  347.76   33.19
  14  -8  -3  334.74   35.33
 -14  -8   3  334.48   32.65
 -14  -8   3  410.56   34.28
  14  -8  -3  292.21   32.40
 -15  -8  -3   21.78    7.70
 -15  -8   3   22.76    7.59
  15  -8   3   13.80    6.95
 -15  -8  -3   19.82    6.54
 -15  -8   3   18.85    5.79
  15  -8   3   14.33    6.09
  15  -8  -3   31.94    9.54
 -16  -8   3  376.82   26.12
 -16  -8   3  454.10   31.97
  16  -8   3  392.51   29.54
 -16  -8  -3  418.61   28.95
  16  -8  -3  364.81   28.85
  16  -8  -3  404.41   32.40
  16  -8   3  375.69   29.84
  17  -8  -3   23.28    6.15
 -17  -8   3   16.25    5.00
  17  -8   3   15.23    4.90
 -17  -8  -3   20.64    5.30
  17  -8   3   15.22    4.91
   0  -9  -3  469.39   48.53
   0  -9   3  494.00   49.67
   0  -9   3  574.72   30.41
  -1  -9   3  201.79   17.63
   1  -9   3  189.66   30.93
  -1  -9   3  156.06   27.12
  -1  -9  -3  184.39   28.49
   1  -9   3  185.66   18.00
   1  -9  -3  153.19   28.22
   2  -9  -3   78.64   19.40
  -2  -9   3   89.01   12.64
   2  -9   3   83.21   19.72
  -2  -9  -3   75.67   16.39
  -2  -9   3   91.97   18.98
  -2  -9  -3   97.34   19.88
   2  -9   3   75.25   12.28
   3  -9   3   25.65    8.42
   3  -9  -3   47.83   15.06
  -3  -9  -3   21.71    9.01
  -3  -9  -3   38.26   10.40
  -3  -9   3   53.41   14.38
   3  -9   3   35.47   12.23
  -3  -9  -3   33.74    8.53
  -4  -9  -3   34.28   11.99
   4  -9   3   48.48   13.81
  -4  -9  -3   40.98   10.45
  -4  -9   3   46.26   11.96
   4  -9  -3   30.57    9.74
   4  -9   3   44.94   10.29
  -4  -9   3   57.76   14.40
  -4  -9  -3   40.89   10.51
  -5  -9   3   64.14   14.73
   5  -9  -3   76.14   14.77
   5  -9   3   67.47   13.48
  -5  -9  -3   61.88   17.26
  -5  -9   3   54.12   15.68
   5  -9   3   56.54   13.83
  -5  -9  -3   58.07   12.78
  -5  -9  -3   63.95   14.74
  -5   9   3   63.26   12.17
  -6  -9  -3   -0.84    5.24
  -6  -9   3    7.03    5.84
  -6   9   3   17.31    7.76
  -6  -9  -3    7.88    5.33
   6  -9   3   11.90    6.80
  -7  -9  -3   -2.28    4.56
  -7   9   3    0.34    3.38
  -7  -9   3    4.33    4.33
  -7  -9  -3    0.61    5.13
   7  -9   3   -0.30    4.08
  -8  -9  -3   81.37   17.11
  -8   9   3   80.92   17.01
  -8  -9  -3   80.28   18.71
  -8  -9   3   96.21   20.25
   8  -9   3   59.89   15.46
  -9   9   3  183.20   28.36
  -9  -9   3  242.23   31.59
   9  -9   3  175.70   30.80
  -9  -9  -3  193.62   25.51
  -9  -9  -3  224.56   30.16
 -10  -9  -3  226.70   29.16
 -10  -9   3  156.56   27.18
 -10  -9   3  178.25   26.24
 -10   9   3  135.97   26.77
  10  -9   3  168.42   27.97
 -10  -9  -3  187.33   26.75
 -10  -9  -3  163.18   25.21
 -10  -9  -3  166.86   22.72
  10  -9   3  141.24   26.74
  10  -9  -3  146.47   26.55
  11  -9  -3    9.71    8.33
 -11  -9   3   15.30    7.35
  11  -9   3    9.61    7.50
  11  -9   3    6.52    3.37
 -11  -9  -3   14.10    7.16
 -11  -9  -3    1.85    2.49
 -12  -9   3  207.05   27.83
 -12  -9   3  165.71   23.86
 -12  -9  -3  199.27   25.89
 -12  -9  -3  178.35   25.70
  12  -9   3  195.00   27.72
  12  -9  -3  178.71   29.11
  12  -9   3  167.29   27.25
 -13  -9  -3   16.29    9.59
 -13  -9  -3   10.76    5.74
 -13  -9   3    5.36    4.92
 -13  -9   3   -1.55    4.43
  13  -9   3    1.26    4.16
  13  -9   3    3.73    4.87
  13  -9  -3   16.82   10.41
 -14  -9   3  206.32   24.50
 -14  -9  -3  191.98   22.99
  14  -9  -3  187.68   25.83
  14  -9   3  170.12   24.11
 -14  -9   3  185.01   23.13
  14  -9   3  178.52   22.51
 -14  -9  -3  213.08   23.56
 -15  -9  -3   38.40    9.46
  15  -9   3   40.16    9.76
 -15  -9   3   41.47   10.29
 -15  -9   3   40.72    9.68
  15  -9  -3   39.32   10.04
  15  -9   3   24.82    8.44
 -15  -9  -3   28.49    8.17
  15  -9  -3   42.75   11.42
 -16  -9  -3   56.79   10.47
  16  -9   3   31.35    7.06
 -16  -9   3   52.92   10.58
  16  -9  -3   46.79    9.56
 -16  -9   3   52.80    9.23
  16  -9   3   38.41    9.06
 -16  -9  -3   56.49    9.16
  16  -9  -3   43.60    9.39
 -17  -9   3   -0.50    1.77
  17  -9  -3   -1.37    2.91
   0 -10  -3    2.24    7.93
   0 -10   3    5.53    7.36
   1 -10   3    5.87    4.46
   1 -10   3   -4.00    5.80
  -1 -10   3    1.81    7.47
   1 -10  -3   -5.67   11.03
  -1 -10  -3    2.82    4.84
  -2 -10   3  137.23   16.27
   2 -10  -3  114.49   25.08
   2 -10   3  138.02   27.70
   2 -10   3  152.41   17.75
  -2 -10   3  141.42   26.17
  -2 -10  -3  146.43   26.64
  -3 -10  -3   44.64   10.66
  -3 -10  -3   37.58   10.95
   3 -10  -3   47.18   16.43
  -3 -10   3   46.28   15.04
   3 -10   3   34.46    8.38
  -3 -10   3   36.95    8.72
   3 -10   3   37.75   14.09
  -4 -10  -3 1037.38   56.81
  -4 -10   3 1193.96   69.09
  -4 -10  -3 1036.71   60.70
   4 -10  -3 1082.65   66.62
   4 -10   3 1098.26   51.93
   4 -10   3 1006.03   67.20
  -5 -10  -3    2.44    3.82
  -5 -10   3    0.17    2.63
   5 -10   3    0.07    4.32
  -5 -10  -3   -7.28    8.37
  -5 -10   3   -6.52    4.61
   5 -10   3    1.71    4.02
   5 -10  -3    5.20    3.86
  -5 -10  -3    1.56    4.93
  -5  10   3    2.08    3.87
  -6 -10  -3 1419.58   76.04
  -6  10   3 1646.49   68.48
  -6 -10   3 1458.04   87.61
   6 -10   3 1615.30   73.28
  -6 -10  -3 1623.26   87.79
  -7 -10  -3   -2.62    3.42
  -7 -10   3   -7.77    8.38
  -7  10   3    0.06    2.97
   7 -10   3    1.74    2.78
  -7 -10  -3   -1.46    5.42
  -8  10   3  839.07   59.54
   8 -10   3  848.25   64.13
  -8 -10  -3  995.05   66.40
   9 -10   3   77.96   20.16
  -9 -10  -3   65.46   17.17
  -9 -10   3   73.61   18.05
   9 -10   3   42.87   11.16
  -9 -10  -3   55.04   15.86
  -9  10   3   60.71   16.58
  -9 -10   3   82.13   19.31
  -9 -10   3   81.18   18.77
   9 -10   3   64.89   18.45
   9 -10  -3   72.63   18.23
  -9 -10  -3   61.70   17.11
 -10 -10  -3  319.11   36.99
 -10 -10  -3  302.58   33.25
 -10 -10   3  312.22   36.24
 -10 -10   3  327.91   35.32
  10 -10   3  296.24   37.59
  10 -10  -3  266.53   36.51
  10 -10  -3  333.50   36.05
  11 -10  -3   17.29   11.44
 -11 -10   3    1.49    5.65
 -11 -10   3   -0.16    2.58
 -11 -10  -3    1.89    5.55
  11 -10   3   10.02    8.31
 -11 -10  -3   -0.26    5.89
 -12 -10   3    8.54    6.95
 -12 -10   3    7.74    4.55
 -12 -10  -3   12.17    7.13
 -12 -10  -3    4.45    3.56
  12 -10   3    8.33    8.09
  12 -10   3    9.10    3.38
  12 -10  -3    8.10    2.92
  13 -10  -3    3.07    7.58
  13 -10   3    2.97    5.00
 -13 -10  -3    2.68    5.82
 -13 -10  -3    1.72    3.70
  13 -10   3    3.15    3.96
  13 -10   3   -0.23    3.51
 -13 -10   3   -3.66    6.61
 -13 -10   3    0.56    3.70
  14 -10   3  219.73   23.99
 -14 -10  -3  238.99   24.28
 -14 -10   3  226.34   24.50
 -14 -10   3  217.44   23.32
  14 -10   3  184.24   25.60
  14 -10  -3  197.06   25.70
 -14 -10  -3  203.81   22.51
 -15 -10   3    2.05    2.29
 -15 -10  -3   -0.81    1.99
  15 -10  -3    3.67    3.53
 -15 -10  -3    6.44    4.15
  15 -10  -3    4.87    3.29
  15 -10   3    4.20    3.40
  15 -10   3   -5.72    4.33
 -15 -10   3   -5.93    5.25
 -16 -10   3  455.02   24.81
  16 -10   3  463.36   28.54
 -16 -10  -3  478.07   27.47
  16 -10   3  360.09   24.83
  16 -10  -3  448.73   27.23
 -16 -10  -3  454.15   24.79
 -16 -10   3  464.84   26.72
   0 -11   3   60.13   19.55
   0 -11  -3   80.10   23.42
  -1 -11  -3  165.28   31.64
  -1 -11   3  162.62   32.02
   1 -11   3  151.25   31.78
   1 -11  -3  151.97   31.53
   2 -11   3   28.66    7.92
   2 -11   3   26.49   13.84
  -2 -11   3   14.95    8.36
   2 -11  -3   12.96    4.32
  -2 -11  -3   26.93   13.60
  -3 -11  -3   17.07    8.83
   3 -11   3   29.20    8.56
  -3 -11   3   28.98   10.50
   3 -11   3   21.28   11.52
   3 -11  -3   23.63   12.05
  -4  11   3   47.19   11.70
   4 -11  -3   44.17   13.96
  -4 -11   3   42.63   13.29
  -4 -11  -3   46.83   12.83
   4 -11   3   52.25   16.14
   4 -11   3   56.12   12.24
  -4 -11   3   37.43   10.82
  -5 -11  -3    1.49    4.85
  -5 -11  -3    1.50    3.33
   5 -11   3   -1.71    6.75
  -5 -11   3  -10.26    6.66
  -5  11   3    4.55    4.79
   5 -11   3    2.83    4.89
  -6 -11  -3   -4.20    5.68
  -6 -11   3   20.07    8.76
   6 -11   3   19.62    8.95
  -6  11   3    5.51    5.93
  -7  11   3   28.88   11.72
  -7 -11   3   30.61   13.48
  -7 -11  -3   13.06    5.30
   7 -11   3   24.51   10.03
   8 -11   3   41.81   15.95
  -8 -11   3   41.67   12.51
  -8 -11   3   44.46   16.11
  -8 -11   3   21.45   10.38
  -8 -11  -3   41.14   14.07
  -8  11   3   29.29   11.82
   8 -11   3   37.11   14.88
  -8 -11   3   36.75   12.49
  -8 -11  -3   44.76   14.99
  -8 -11  -3   34.93   12.13
   8 -11  -3   42.79   16.12
   9 -11  -3   66.57   18.99
  -9 -11  -3   75.21   17.35
  -9 -11  -3   41.32   12.38
   9 -11  -3   74.03   17.62
  -9 -11   3   71.51   17.29
   9 -11   3   81.94   20.61
 -10 -11   3   53.24   13.81
  10 -11   3   56.27   15.87
 -10 -11  -3   61.52   15.82
 -10 -11  -3   49.41   13.22
 -10 -11   3   40.62   12.42
  10 -11  -3   51.86   16.95
  10 -11  -3   66.10   16.30
 -11 -11  -3   44.96   12.89
 -11 -11   3   50.13   13.02
 -11 -11   3   56.80   14.66
  11 -11   3   52.94   15.03
  11 -11  -3   48.33   15.06
 -11 -11  -3   50.93   12.66
 -12 -11  -3   36.20    9.51
  12 -11   3   25.11   11.02
 -12 -11  -3   28.17    9.50
 -12 -11   3   36.61   10.40
 -12 -11   3   38.79   10.39
  12 -11   3   45.00   14.67
  12 -11  -3   39.49   12.04
 -13 -11  -3   20.28    6.95
  13 -11   3    8.87    3.17
 -13 -11  -3    9.02    5.08
 -13 -11   3   24.03    9.13
  13 -11  -3   12.35    7.75
 -13 -11   3   15.30    6.96
  14 -11   3    1.53    2.71
 -14 -11   3    2.71    3.41
 -14 -11  -3    2.36    3.36
  14 -11  -3   -1.76    3.63
 -14 -11  -3    1.04    1.90
  14 -11  -3   -0.29    2.61
  14 -11   3    5.72    5.47
 -14 -11   3    1.11    2.10
 -15 -11  -3   16.91    5.50
  15 -11  -3   17.99    5.15
  15 -11   3   11.50    5.51
 -15 -11   3   34.58    7.63
 -15 -11   3   25.27    6.31
  15 -11   3   19.77    7.33
  15 -11  -3   20.91    6.51
 -15 -11  -3   22.29    6.63
   0 -12   3  -12.37   10.35
   0 -12  -3   -0.56    4.35
   1 -12   3    6.53    9.33
  -1 -12  -3   31.38   20.05
  -1 -12   3    3.73    7.84
   1 -12  -3   23.85   12.45
  -2 -12   3  284.70   42.80
   2 -12   3  258.16   44.53
  -2 -12  -3  303.92   40.86
   2 -12  -3  240.30   42.10
   3 -12  -3   57.39   18.36
  -3 -12   3   49.50   15.84
   3 -12   3   52.34   18.87
  -3 -12  -3   53.86   16.60
   3 -12   3   61.46   12.64
   4 -12   3  986.88   52.77
   4 -12  -3 1007.65   71.99
  -4 -12   3 1062.54   72.35
  -4  12   3 1070.04   56.26
   4 -12   3  871.58   71.81
  -4 -12  -3 1045.06   64.87
  -5 -12   3   94.36   18.82
  -5 -12  -3   99.05   19.27
  -5 -12   3  128.48   24.39
   5 -12   3   83.33   15.71
  -5  12   3   97.27   17.05
   6 -12  -3 1239.25   68.55
  -6 -12   3 1097.97   80.39
  -6 -12  -3 1143.51   72.96
  -6 -12  -3 1459.75   80.70
  -6 -12  -3 1077.25   69.93
  -6 -12   3  873.11   62.30
  -6 -12   3 1341.70   76.96
  -6  12   3 1210.10   66.04
   6 -12   3 1188.99   64.89
   6 -12   3 1226.90   73.84
   6 -12   3 1450.00  108.34
   7 -12  -3   76.30   17.26
  -7 -12  -3   52.09   16.57
  -7 -12   3   67.65   17.94
  -7 -12   3   49.47   16.17
  -7 -12   3  100.14   21.19
   7 -12   3   51.31   15.84
  -7 -12  -3   70.82   18.70
   7 -12   3   70.99   16.03
  -7 -12   3   65.30   17.17
   7 -12  -3   94.16   22.47
   7 -12   3   70.49   22.09
  -7 -12  -3   65.11   17.43
  -8 -12  -3  430.17   47.11
  -8 -12  -3  541.13   48.04
  -8 -12   3  604.26   50.64
   8 -12  -3  573.13   57.10
   8 -12   3  602.43   60.16
   8 -12  -3  593.72   56.80
  -8 -12   3  587.83   47.62
   9 -12  -3   20.57    9.43
  -9 -12  -3    3.49    4.34
   9 -12   3    8.89    8.82
  -9 -12   3   18.18    8.85
   9 -12  -3    5.87    8.46
  -9 -12  -3   18.72    9.18
   9 -12   3   14.68    6.31
  10 -12   3  195.76   31.05
  10 -12  -3  204.44   31.30
 -10 -12  -3  218.15   30.30
  10 -12  -3  201.31   28.35
 -10 -12   3  190.74   25.51
 -10 -12  -3  215.20   27.56
  10 -12   3  194.63   29.20
 -11 -12   3   -4.39    4.60
 -11 -12   3    0.42    2.11
 -11 -12  -3   -0.86    6.63
  11 -12  -3   -1.22    1.88
  11 -12   3    2.29    4.84
  11 -12   3   -6.35    5.11
  11 -12  -3    0.42    4.59
 -11 -12  -3   -5.22    3.38
 -12 -12   3    1.60    2.38
 -12 -12  -3    2.52    2.68
  12 -12  -3    3.77    2.53
 -12 -12  -3    9.79    6.64
 -12 -12   3    6.44    4.97
  12 -12   3    6.18    3.16
 -13 -12   3    4.40    4.23
 -13 -12  -3   -5.12    4.79
  13 -12   3    1.87    4.23
 -13 -12  -3   -8.97    5.32
 -13 -12   3   -0.93    2.70
  13 -12  -3   -1.51    4.34
  13 -12  -3   -1.56    3.02
  14 -12   3  157.35   18.92
 -14 -12  -3  177.17   18.32
  14 -12  -3  155.14   18.29
 -14 -12  -3  158.50   17.22
  14 -12  -3  153.95   16.57
 -14 -12   3  152.68   15.90
 -14 -12   3  175.27   17.78
  15 -12  -3    3.23    1.25
 -15 -12   3    6.20    3.21
 -15 -12  -3    7.24    2.70
  15 -12   3    1.36    1.76
   0 -13  -3  290.54   48.49
   0 -13   3  253.85   49.02
  -1 -13  -3   83.88   24.77
   1 -13   3   75.52   26.09
  -1 -13   3   68.55   24.97
   1 -13  -3   63.16   25.22
   2 -13   3  448.39   37.09
   2 -13  -3  409.52   34.50
  -2 -13   3  433.50   54.85
   2 -13   3  388.40   57.57
  -2 -13  -3  431.53   36.60
   2 -13  -3  334.45   51.07
  -2 -13  -3  449.65   52.35
  -2 -13   3  370.28   46.81
  -2 -13   3  348.73   47.87
  -2 -13   3  446.36   37.93
   2 -13   3  397.58   44.61
   2 -13   3  373.97   46.52
  -2 -13  -3  304.74   42.18
  -2 -13   3  458.60   58.73
  -3 -13  -3   25.90    8.84
  -3  13   3   21.65    8.00
  -3 -13   3   27.35   19.00
   3 -13   3   37.96   17.83
  -3 -13   3   25.58   15.95
   3 -13   3   21.11   15.96
   3 -13   3   23.71    8.77
   3 -13  -3   30.13   11.46
  -3 -13   3   31.90   13.33
  -3 -13   3   32.47   10.83
  -3 -13  -3   26.68    9.41
   3 -13  -3   20.85    7.81
   3 -13  -3   29.22   16.07
  -3 -13  -3   25.61   12.89
   3 -13   3   22.70    7.90
  -3 -13   3   11.00    3.56
  -4 -13   3  317.76   34.21
   4 -13   3  328.42   39.74
  -4  13   3  289.23   29.99
   4 -13  -3  327.27   34.54
   4 -13   3  280.45   43.00
  -4 -13   3  320.69   41.65
   4 -13  -3  283.01   40.04
  -4 -13  -3  339.50   37.45
  -4 -13  -3  307.85   33.75
  -4 -13   3  285.75   40.69
   4 -13   3  313.24   49.34
  -4 -13  -3  336.13   42.35
  -4 -13   3  352.44   45.08
  -5 -13   3    2.17    4.57
  -5 -13   3   -6.76    8.93
   5 -13  -3    4.93    7.30
   5 -13   3   -2.93    5.32
   5 -13   3  -11.45    8.54
  -5 -13   3   -2.87    3.87
  -5 -13  -3   -1.43    5.57
   5 -13   3  -11.38   10.44
  -5 -13  -3    1.92    7.26
  -6 -13   3    3.21    5.95
  -6 -13  -3   -2.05    3.47
  -6 -13   3    4.95    4.27
   6 -13   3   -1.66    4.87
   6 -13   3   13.80   11.19
  -6 -13  -3    5.59    8.78
  -7 -13   3   15.03    6.69
  -7 -13   3   18.58    8.25
  -7 -13  -3   18.01   11.42
   7 -13   3   20.16   10.84
   7 -13  -3   15.50   10.01
   7 -13   3   -4.88    8.59
  -7 -13  -3   20.48   10.69
   8 -13  -3  145.68   28.09
  -8 -13  -3  113.58   24.28
   8 -13  -3  144.34   28.00
  -8 -13   3  141.63   23.58
  -8 -13  -3  140.56   24.56
   8 -13   3  155.40   30.05
  -8 -13   3  135.04   21.84
  -9 -13   3    9.63    6.33
  -9 -13  -3    8.21    9.00
   9 -13   3    9.19    4.60
   9 -13  -3   -5.43    7.46
   9 -13  -3    6.75    5.62
  -9 -13  -3    0.45    8.59
  -9 -13   3   10.64    5.89
   9 -13   3   12.28    8.18
 -10 -13  -3  367.45   37.42
 -10 -13  -3  383.96   34.89
  10 -13  -3  353.60   36.17
 -10 -13   3  352.39   33.19
  10 -13  -3  372.57   40.80
  10 -13   3  351.63   40.89
  10 -13   3  360.87   38.56
  11 -13  -3   36.79   12.80
 -11 -13  -3   36.36   10.08
  11 -13  -3   26.62    9.00
 -11 -13  -3   39.04   11.32
  11 -13   3   25.99   11.16
 -11 -13   3   34.99   10.51
 -12 -13   3  229.06   22.88
 -12 -13   3  229.10   22.53
 -12 -13  -3  220.33   23.60
  12 -13   3  269.05   29.52
  12 -13  -3  236.08   26.26
 -12 -13  -3  227.49   24.23
 -13 -13   3    4.83    2.39
 -13 -13  -3    5.96    5.41
  13 -13   3    9.97    5.10
 -13 -13  -3    6.57    2.44
 -13 -13   3   10.61    5.23
  13 -13  -3    5.82    3.04
 -14 -13  -3   92.52   11.75
  14 -13   3   88.41   12.98
 -14 -13   3   86.86   10.84
 -14 -13  -3   28.71    7.71
  14 -13  -3   69.85   11.32
   0 -14   3  -12.97   11.34
   0 -14  -3   -8.03    6.10
   0 -14   3   12.36   13.00
   0 -14   3    1.14    5.16
   0 -14   3   -7.73    7.13
   1 -14   3   -2.25    5.15
   1 -14   3   -3.39    4.91
  -1 -14   3    8.42    7.41
   1 -14  -3   11.98    5.65
  -1 -14   3   -0.24    3.16
  -1 -14  -3   -1.89    2.87
  -1 -14   3    7.26    9.55
   1 -14   3    1.69    8.91
   1 -14   3    3.42    3.91
   1 -14  -3   -6.43    7.65
   1 -14  -3   -2.18    5.68
  -1 -14   3    1.49    7.68
   2 -14   3  109.37   26.22
   2 -14  -3  134.01   19.74
  -2 -14   3  145.45   32.42
   2 -14   3  114.18   19.18
  -2 -14   3   94.09   26.36
  -2 -14   3  134.01   22.49
   2 -14   3  134.17   26.82
   2 -14  -3  106.41   21.83
   2 -14  -3  106.45   24.77
  -2 -14   3   98.47   24.94
  -2 -14  -3  113.58   19.79
  -3 -14   3   27.40   14.11
  -3 -14   3   56.84   20.70
  -3 -14   3   19.18    9.92
   3 -14  -3   34.85   10.39
  -3 -14  -3   38.60   12.11
   3 -14   3    8.38    7.65
  -3 -14   3   38.45   10.83
   3 -14   3   27.17   14.67
   3 -14   3   32.08   13.83
   3 -14  -3   20.11    8.48
   3 -14  -3   26.87   12.06
  -4 -14   3  198.38   28.63
   4 -14  -3  186.98   39.82
   4 -14   3  219.28   41.79
  -4 -14   3  158.15   30.51
  -4 -14  -3  218.20   29.60
   4 -14   3  141.15   27.83
   4 -14  -3  178.88   25.84
  -4 -14   3  223.08   33.85
  -4 -14   3  214.09   35.33
  -5 -14   3    2.81    2.55
   5 -14   3   14.53    8.28
  -5 -14   3   11.10    8.40
  -5 -14  -3    6.58    4.29
   5 -14   3   17.03   14.35
  -5 -14   3    6.87    3.43
   6 -14   3  102.20   25.47
  -6 -14   3   94.64   20.97
  -6 -14  -3   98.84   23.64
   6 -14   3  144.16   35.31
   6 -14  -3  172.90   38.79
  -6 -14   3  141.03   24.18
   7 -14   3   -5.37    9.91
  -7 -14   3   12.12    6.87
   7 -14   3    6.68    8.11
  -7 -14   3   16.31    7.95
  -7 -14  -3   10.65    8.87
  -7 -14  -3   16.67    6.38
  -7 -14  -3   11.82    7.23
   7 -14  -3    8.56    4.28
   8 -14  -3   58.63   18.87
  -8 -14  -3   33.93   11.20
  -8 -14  -3   17.44   12.47
  -8 -14   3   17.86   11.77
  -8 -14   3   68.47   15.59
  -8 -14  -3   57.83   14.62
   8 -14   3   77.07   22.71
  -8 -14   3   50.71   13.40
  -9 -14   3   18.19    6.56
  -9 -14   3   26.75    9.50
  -9 -14  -3   17.37    6.73
   9 -14  -3   18.39    7.40
  -9 -14   3    2.60    3.08
   9 -14  -3   29.94   12.48
  -9 -14  -3    5.26    6.54
   9 -14   3   19.40    9.01
  10 -14  -3   53.00   14.53
 -10 -14  -3   40.41   11.81
 -10 -14  -3   51.27   12.80
 -10 -14   3   33.75   10.62
  10 -14   3   27.00    9.22
  10 -14   3   30.73   10.40
 -10 -14   3   48.10   11.37
  10 -14  -3   47.49   13.57
 -11 -14  -3   -6.04    3.91
  11 -14   3    4.65    5.88
 -11 -14   3    2.43    2.83
 -11 -14   3   10.51    5.95
  11 -14   3   -8.89    1.96
  11 -14  -3   -0.35    4.55
 -11 -14  -3    5.27    3.17
 -11 -14  -3    3.30    5.69
  11 -14  -3    4.96    4.21
 -12 -14   3    3.68    1.88
 -12 -14  -3   -3.14    2.39
 -12 -14   3   -0.79    3.37
 -12 -14  -3    2.81    2.67
  12 -14   3    6.31    4.34
  12 -14  -3    1.26    1.89
 -13 -14   3   -1.84    2.48
 -13 -14  -3    4.61    1.96
 -13 -14  -3    4.81    2.80
   0 -15   3 1049.21  111.82
   0 -15   3  922.19   54.56
   0 -15   3  877.42   78.12
   0 -15  -3  873.90   73.39
   0 -15  -3  908.04   53.67
   0 -15   3  849.56   77.80
   1 -15   3    3.17    4.77
  -1 -15   3    7.63   10.05
  -1 -15   3   20.50   15.52
   1 -15   3   21.06    8.89
   1 -15   3    7.97    6.96
   1 -15  -3   11.57    6.01
  -1 -15   3   16.38    8.65
  -1 -15  -3    3.66    6.65
   1 -15  -3   15.05    9.20
  -1 -15   3   19.65    8.43
  -1 -15  -3   15.61    7.78
   1 -15   3   22.98    9.19
   1 -15  -3   17.27    9.47
  -2 -15   3  507.18   62.86
   2 -15  -3  462.39   37.74
   2 -15   3  506.61   40.55
  -2 -15  -3  449.06   57.40
   2 -15   3  522.07   55.71
   2 -15  -3  568.37   58.33
   2 -15  -3  500.79   48.17
  -2 -15   3  503.38   59.08
  -2 -15   3  604.57   48.01
   2 -15   3  508.10   55.18
  -2 -15  -3  569.89   45.99
  -2 -15   3  615.82   70.37
  -3 -15   3   10.18    7.44
  -3 -15   3   14.92   11.24
   3 -15   3   -2.09    5.95
  -3 -15  -3    4.29    5.24
  -3 -15   3   -2.67    5.31
   3 -15  -3    2.10    7.34
   3 -15  -3    8.31    5.63
   3 -15   3   -4.70   10.79
  -3 -15   3    0.52    9.21
  -4 -15   3  195.01   34.05
   4 -15   3  165.05   30.40
  -4 -15   3  234.63   36.56
  -4 -15  -3  210.24   30.45
  -4 -15   3  225.33   31.06
   4 -15  -3  214.01   27.73
   4 -15   3  162.92   36.36
   4 -15  -3  192.84   42.56
  -4 -15   3  288.82   37.55
   5 -15  -3   -1.73   10.98
  -5 -15   3   -1.01    6.65
   5 -15   3   13.75   11.76
  -5 -15   3   -3.20    6.89
  -5 -15  -3    8.04    6.91
   5 -15   3   -2.95    7.75
   6 -15   3   19.46   12.93
   6 -15  -3   11.00   10.90
  -6 -15   3   11.07    5.86
   6 -15   3   12.38    9.52
  -6 -15   3   12.69    8.25
  -6 -15  -3    7.51    8.40
  -6 -15  -3   17.77    8.98
   7 -15  -3   -5.67   11.47
  -7 -15   3    5.61    4.77
  -7 -15   3   -2.84    6.95
  -7 -15  -3    2.76    2.63
   7 -15   3  -16.22   10.93
  -7 -15  -3   -7.94    7.49
   7 -15   3   10.11   13.47
  -8 -15   3   86.08   16.02
  -8 -15  -3   99.42   19.72
  -8 -15   3   59.65   16.05
   8 -15  -3  102.85   23.97
  -8 -15  -3   75.42   20.69
   8 -15   3   76.26   20.10
  -9 -15   3   -1.39    4.25
  -9 -15  -3    5.77    6.50
  -9 -15  -3   12.65    8.05
  -9 -15   3   12.11    6.03
   9 -15   3   -0.47    6.70
  -9 -15   3    6.35    5.41
   9 -15  -3    6.62    5.35
 -10 -15  -3  485.31   38.61
 -10 -15  -3  441.75   32.29
 -10 -15   3  490.34   36.58
  10 -15   3  384.44   35.64
 -10 -15   3  392.79   29.45
  10 -15  -3  356.95   32.90
  11 -15   3   17.86    6.19
 -11 -15   3   20.03    5.95
  11 -15  -3   17.68    5.88
  11 -15  -3   25.07    7.63
 -11 -15   3   23.66    7.03
 -11 -15  -3   15.62    5.64
 -11 -15  -3   23.88    7.12
 -12 -15  -3  477.39   25.73
   0 -16   3   -1.78    5.71
   0 -16  -3   -7.51    9.89
   0 -16   3   -0.28    3.83
   0 -16  -3    0.94    1.84
   0 -16   3    0.71   10.76
   1 -16   3    2.82    3.51
   1 -16   3  -20.03   15.13
  -1 -16  -3    5.72    5.65
   1 -16  -3   10.16    5.74
   1 -16   3   -3.35    3.52
   1 -16   3   -7.87    5.17
   1 -16  -3    5.69    4.67
  -1 -16   3    1.35    6.63
  -1 -16   3   -2.41    7.36
  -1 -16  -3   13.70   13.56
  -1 -16   3   -2.40    5.30
  -2 -16   3   -6.14   11.31
  -2 -16  -3    3.87   12.02
   2 -16   3    1.18    7.77
   2 -16  -3   -2.48    6.83
   2 -16  -3   10.64    9.00
  -2 -16   3   -2.97    6.31
  -2 -16  -3   -3.22    4.98
  -2 -16   3   -5.09   16.02
   2 -16   3  -11.25    8.43
  -3 -16   3   37.12   14.43
   3 -16  -3   18.16   11.15
   3 -16  -3   11.70    5.45
  -3 -16   3   46.65   16.99
   3 -16   3   33.62   16.42
  -3 -16   3   17.26   10.44
  -3 -16  -3   19.65    9.88
  -3 -16  -3   22.46   12.26
   3 -16   3   32.78   10.32
  -4 -16   3    5.55    5.32
  -4 -16  -3   17.33    9.56
  -4 -16   3   -1.88    6.05
   4 -16  -3   -3.84    3.34
  -4 -16   3   20.61   11.23
   4 -16   3   10.61    7.78
   4 -16   3   18.36    8.73
   4 -16  -3  -14.36   15.86
  -4 -16  -3    2.80    5.33
  -5 -16   3   21.34   10.47
  -5 -16   3   12.29   10.44
  -5 -16  -3   16.09    6.92
  -5 -16  -3   20.17   11.98
   5 -16   3   37.52   20.57
   5 -16   3   12.06    9.96
   5 -16  -3   19.37   13.48
  -6 -16  -3   -6.19    8.77
  -6 -16   3   -4.45    5.89
  -6 -16  -3    7.77    6.57
  -6 -16   3   -5.31    6.85
   6 -16  -3    2.33    5.83
   6 -16   3    1.12    5.78
   6 -16   3   -1.97   10.39
  -7 -16   3   15.28    7.08
  -7 -16   3   -3.08    5.11
  -7 -16  -3    7.81    7.78
   7 -16   3   28.83   11.43
   7 -16  -3   20.28   11.74
   7 -16   3   31.93   15.73
   8 -16  -3    7.46    5.44
  -8 -16   3    4.69    3.45
   8 -16   3   22.91   11.82
  -8 -16   3   -0.63    5.42
  -8 -16  -3    9.34    7.94
   9 -16   3   56.10   15.79
   9 -16  -3   56.15   14.20
  -9 -16  -3   66.56   12.45
  -9 -16   3   59.88   13.07
  -9 -16  -3   41.16   10.96
  10 -16   3   -1.77    2.37
 -10 -16  -3   -0.12    3.13
  10 -16  -3    2.78    3.21
 -10 -16   3    1.64    3.43
 -10 -16  -3   -3.25    3.22
   0 -17  -3  430.89   51.67
   0 -17   3  484.55   62.85
   0 -17  -3  455.41   38.13
   0 -17   3  517.38   39.25
   0 -17   3  407.08   49.68
   1 -17   3   33.43   12.11
  -1 -17   3    7.11    8.32
  -1 -17   3  -18.89   19.21
  -1 -17   3   14.17    6.73
   1 -17   3   31.51   23.98
  -1 -17  -3    6.98    5.95
  -1 -17  -3    6.95    4.53
   1 -17  -3    1.56    6.44
  -2 -17   3  344.49   46.02
  -2 -17   3  283.71   31.27
  -2 -17  -3  221.46   37.90
   2 -17   3  295.95   37.53
   2 -17   3  349.53   51.93
   2 -17  -3  320.64   38.75
  -2 -17  -3  268.04   30.47
   2 -17  -3  278.14   37.51
  -2 -17   3  308.57   46.67
   3 -17  -3   14.34   12.12
  -3 -17   3    5.69    6.43
   3 -17  -3   15.97    5.82
  -3 -17  -3   19.14   10.52
   3 -17   3   13.07    9.07
  -3 -17   3   16.26   10.30
  -3 -17   3   10.37    6.31
  -3 -17  -3    4.63    2.74
   3 -17   3    6.81   13.24
  -4 -17   3  114.87   22.96
  -4 -17   3   79.83   17.95
   4 -17  -3  103.39   29.74
   4 -17  -3   91.34   17.67
  -4 -17  -3   68.40   17.06
  -4 -17   3  110.84   20.97
   4 -17   3   47.45   15.78
  -4 -17  -3  122.64   23.95
   4 -17   3  131.85   30.84
  -5 -17   3    2.99    3.78
   5 -17  -3   -2.33   10.02
  -5 -17  -3    5.07    4.80
   5 -17   3   -5.61    7.44
  -5 -17   3    6.03    3.69
  -5 -17  -3    5.76    6.69
   5 -17   3   -8.21    6.83
  -6 -17   3   26.34    8.21
   6 -17   3   21.01   12.02
   6 -17   3   12.94   15.30
  -6 -17  -3   32.56    8.73
  -6 -17  -3   24.95   11.21
   6 -17  -3   43.68   20.24
  -6 -17   3    8.47    4.80
  -7 -17   3    5.17    6.76
  -7 -17  -3    0.43    5.50
   7 -17  -3   -1.39    3.86
   7 -17   3   -0.96    5.39
  -8 -17  -3  131.89   19.25
   8 -17   3  121.46   23.53
  -8 -17   3  112.57   16.49
   8 -17  -3  140.38   24.49
   0 -18  -3    3.76    9.10
   0 -18   3  -12.60   23.23
   1 -18  -3    3.93    9.42
  -1 -18  -3   -8.19    9.96
  -1 -18   3   -1.51   17.77
   1 -18   3   10.55   15.44
  -2 -18   3   55.47   13.58
   2 -18   3   76.08   17.45
  -2 -18   3   88.46   21.40
   2 -18  -3   77.38   17.57
  -2 -18  -3   61.15   14.75
   2 -18   3   77.54   29.65
  -2 -18  -3   85.66   22.52
  -3 -18   3    5.96    2.30
   3 -18  -3   16.13    8.52
   3 -18   3   17.87   10.71
  -3 -18  -3   15.95    7.02
   3 -18  -3   13.09    7.67
  -3 -18   3   16.31   11.66
   3 -18   3   44.90   22.58
  -3 -18  -3   10.60    6.39
  -4 -18  -3  193.71   26.45
   4 -18   3  132.48   27.64
   4 -18  -3  166.92   34.77
  -4 -18  -3   80.94   16.91
   4 -18  -3  137.85   20.43
  -4 -18   3   62.24   14.64
   4 -18   3  125.69   25.91
   5 -18   3    8.68    9.35
  -5 -18   3   -0.92    4.19
   5 -18   3   15.08   11.19
  -5 -18  -3    2.37    4.23
  -5 -18  -3    9.80    6.88
   5 -18  -3    9.79    4.62
   6 -18   3  191.52   36.74
   6 -18  -3  166.69   36.44
  -6 -18   3   80.54   14.79
  -6 -18  -3  120.49   18.12
   0 -19  -3  122.66   29.32
   0 -19   3  109.86   37.30
   1 -19  -3   19.32   10.95
  -1 -19   3   29.01   16.19
  -1 -19  -3   40.00   18.86
   1 -19   3   55.65   30.08
  -2 -19  -3  119.90   24.98
   2 -19  -3   93.31   22.70
   2 -19   3  157.84   42.94
  -3 -19  -3    9.19    6.67
   3 -19   3    9.09   11.42
   0   0   4 3399.98   40.24
   0   0  -4 3274.53   94.93
  -1   0  -4    1.42    2.28
  -1   0   4    3.89    3.12
  -1   0  -4    1.69    2.76
  -1   0   4    1.18    3.25
   1   0  -4    3.07    1.70
   2   0  -4 2931.42   66.89
  -2   0   4 3134.57   79.17
   2   0   4 3047.28   65.04
  -2   0  -4 3031.25   82.35
  -2   0  -4 2901.33   86.61
   3   0   4   -0.23    2.69
   3   0   4    0.34    1.92
   3   0  -4    2.34    2.33
   3   0  -4    1.77    2.70
  -3   0   4   -1.59    3.12
   4   0   4 2194.60   79.65
   4   0  -4 2220.41   55.18
  -4   0  -4 2277.79   77.17
   4   0  -4 2104.63   83.81
  -5   0  -4    0.68    1.77
  -5   0   4   -0.63    2.39
   5   0  -4    0.51    2.13
  -5   0  -4   -0.92    1.38
  -5   0   4   -4.45    4.06
   5   0  -4    1.09    4.40
  -6   0   4  236.05   27.31
   6   0  -4  330.83   25.72
  -6   0   4  321.63   24.94
  -6   0  -4  358.74   22.60
   6   0   4  441.15   39.14
   7   0  -4    3.64    4.15
  -7   0   4    0.09    2.95
  -7   0   4    2.34    2.40
  -8   0   4  259.37   25.26
   8   0  -4  244.45   24.12
   8   0   4  328.47   30.07
  -8   0   4  263.24   28.25
  -8   0   4  258.66   29.23
   9   0   4    7.48    4.33
  -9   0   4   -2.01    5.59
  -9   0   4   -3.68    5.38
  -9   0   4   -0.53    2.13
 -10   0   4  785.31   45.77
 -10   0   4  751.56   51.78
 -10   0   4  807.00   47.47
  10   0   4  729.01   44.15
 -11   0  -4    0.44    4.81
 -11   0   4    0.15    1.98
  11   0   4   -2.19    3.49
 -11   0   4   -0.29    5.38
 -11   0   4    0.66    3.46
 -12   0   4  988.96   53.83
 -12   0  -4 1119.09   61.13
  13   0   4   -3.20    5.53
  13   0   4    3.61    3.40
  13   0  -4    0.08    6.20
 -13   0   4    3.70    2.85
 -13   0  -4    8.36    6.39
  14   0  -4  298.98   34.48
  14   0   4  291.45   31.67
  14   0   4  285.50   32.69
 -14   0   4  282.85   31.67
  15   0   4   -1.80    5.04
  15   0   4   -1.97    3.27
  15   0  -4   -6.08    4.86
 -15   0   4    8.11    6.82
  16   0   4   95.43   16.77
  16   0  -4   74.91   16.25
 -16   0   4   93.87   16.71
  16   0  -4  104.63   18.27
  17   0   4    7.47    6.45
  17   0  -4   -2.92    4.11
 -17   0   4   -0.72    4.25
  18   0  -4   -2.60    4.02
  18   0   4    3.72    3.30
  19   0  -4    0.31    1.75
  19   0   4    2.72    1.72
   0  -1  -4   -2.25    3.58
   0   1  -4    2.93    3.55
   0   1  -4   -2.60    2.95
  -1  -1   4   22.69    6.49
  -1  -1  -4   28.23    8.89
  -1  -1   4   15.82    3.61
  -1   1   4   19.78    5.90
  -1   1  -4   16.78    3.78
  -1   1  -4   21.57    7.01
   1  -1  -4   35.33   10.62
  -1   1  -4   22.63    6.65
  -2   1   4  316.18   28.54
   2  -1  -4  249.40   22.20
   2   1  -4  297.92   17.89
   2  -1   4  271.35   22.98
  -2   1  -4  293.70   24.00
  -2  -1  -4  282.46   27.45
  -2  -1   4  226.98   28.68
  -2  -1   4  214.66   24.86
   2  -1  -4  265.94   30.95
   3  -1  -4  865.69   62.72
   3  -1   4  696.71   45.38
   3  -1  -4  838.14   33.66
   3   1  -4  939.29   30.46
   3  -1  -4  901.69   48.68
   3   1   4  883.79   32.88
  -3   1  -4  901.94   38.79
   3  -1   4  919.98   45.88
  -3  -1  -4  834.09   43.00
  -3  -1   4  710.81   75.15
  -4  -1  -4   20.60    5.45
  -4   1  -4   27.53    7.08
   4   1  -4   20.48    5.41
   4   1  -4   14.26    7.27
  -4  -1   4   11.01   13.84
  -4   1   4   16.66    5.14
   4  -1   4   46.72   25.74
  -4   1  -4   24.98    6.09
  -4  -1  -4   28.00    9.45
   4  -1  -4   20.66    8.59
  -4   1   4   18.93    7.65
   4  -1  -4   18.14    6.11
  -4  -1  -4   23.64   11.30
   4  -1  -4   17.68   10.30
   5   1  -4 2126.11   56.72
  -5  -1   4 2148.41   60.69
   5  -1  -4 2089.73   61.30
  -5  -1  -4 2351.14  143.56
  -5   1  -4 2276.44   71.78
  -5  -1  -4 2102.66   92.89
  -5  -1  -4 2218.81   56.75
  -5  -1   4 1851.21   79.93
  -5   1   4 2107.63  115.83
  -5   1   4 1968.49   55.92
   5  -1  -4 2044.00   98.62
  -5   1   4 2292.91   55.60
   5   1  -4 1882.81  102.18
  -5  -1  -4 1999.43   46.85
  -6  -1  -4   36.66    8.27
  -6  -1   4   54.43   11.51
  -6  -1   4   35.42    8.95
  -6   1   4   34.97    8.17
   6  -1  -4   34.96    8.12
   6   1  -4   41.26    8.74
  -6  -1  -4   33.81    7.01
  -6   1   4   32.78    8.55
  -6   1  -4   38.34    9.13
   6  -1   4   41.48   12.25
  -7   1   4 1059.23   64.44
  -7   1   4 1463.60   54.17
  -7  -1   4 1935.64   67.35
  -7  -1  -4 1524.17   52.72
  -7   1  -4 1750.76   64.27
  -7  -1   4 1454.67   66.00
   7  -1  -4 1392.17   55.46
  -7  -1   4 1346.69   59.04
   7   1  -4 1621.42   56.59
   7  -1   4 1794.69   77.22
   7   1   4 1706.92   70.41
  -8   1   4   12.50   11.00
  -8  -1   4   16.23    7.94
   8   1  -4   11.50    5.96
   8   1   4   19.07    7.25
  -8   1  -4   19.55    6.36
  -8   1   4   21.25    8.22
  -8  -1   4   14.90    6.60
   8  -1   4   19.12    8.21
  -8  -1   4    8.79    4.78
  -9  -1   4  497.81   40.65
  -9   1   4  510.27   42.83
   9   1   4  525.34   36.65
   9  -1   4  568.31   40.65
  -9  -1   4  570.11   35.41
  -9  -1   4  518.11   38.88
  -9   1   4  506.87   42.30
  -9   1   4  547.50   36.48
 -10  -1   4   29.19    9.24
 -10   1   4   24.65    8.72
 -10  -1   4   20.41    8.60
  10  -1   4   40.32   10.45
 -10   1   4   29.34    9.84
 -10   1   4   35.56    9.57
 -10  -1   4   33.19    8.03
  10   1   4   32.66    8.61
 -10  -1  -4   26.79    9.31
 -11  -1   4  105.66   18.60
 -11   1   4   93.23   18.21
 -11   1   4   99.95   18.63
 -11  -1   4   84.36   16.86
  11   1   4   92.12   14.83
 -11  -1  -4   97.83   17.36
  11  -1   4   97.75   16.42
 -12  -1   4   34.18   10.19
 -12  -1  -4   27.87    9.10
 -12   1  -4   27.31    9.27
 -12  -1   4   31.87    9.93
 -12   1   4   19.48    7.51
  13  -1  -4  266.67   31.94
 -13  -1  -4  252.04   28.54
  13   1  -4  265.07   30.98
 -13  -1   4  245.97   30.17
 -13   1  -4  214.68   26.71
  13  -1   4  262.22   30.21
 -13   1   4  258.01   29.06
  13  -1   4  227.41   29.62
  13   1   4  257.45   30.93
 -13   1   4  235.26   28.88
 -14   1   4    5.96    5.81
  14  -1   4    8.71    2.87
  14   1  -4    5.58    6.39
  14  -1  -4    4.63    2.99
 -14  -1   4   -0.07    3.90
  14   1   4    3.31    3.05
  14  -1   4   13.40    8.00
  15  -1   4  147.12   22.78
  15  -1   4  154.88   23.23
  15  -1  -4  160.26   23.81
 -15   1   4  158.45   22.35
 -15  -1   4  154.74   22.82
  15   1   4  169.56   24.39
  15   1  -4  183.20   25.71
  16   1   4   44.04   11.38
  16  -1   4   33.40   10.46
  16   1  -4   20.91    8.40
  16  -1   4   11.17    5.44
  16  -1  -4   16.10    6.72
  16   1  -4   18.69    7.20
 -16   1   4   23.98    9.33
 -16  -1   4   15.82    6.34
  17   1  -4  280.03   26.35
  17   1   4  256.32   25.13
  17  -1   4  227.12   24.22
 -17   1   4  245.01   24.65
 -17  -1   4  222.80   24.00
  17  -1   4  263.70   25.23
  17  -1  -4  268.11   25.85
  18   1  -4   19.02    6.63
  18  -1  -4   30.29    7.93
  18  -1   4   21.03    5.45
  18   1   4   27.41    6.76
  19   1   4  189.77   16.14
  19  -1  -4  216.94   16.60
  19   1  -4  201.12   15.82
   0   2  -4  829.66   38.51
   0  -2  -4  827.42   50.56
   0   2  -4  859.09   46.07
  -1  -2  -4  689.54   46.82
  -1   2  -4  653.42   38.29
   1   2  -4  670.64   43.52
   1  -2  -4  610.98   44.88
   1   2   4  767.72   29.69
   1  -2   4  652.94   27.49
   2  -2  -4 1168.76   40.13
  -2  -2   4 1100.58   58.40
   2  -2  -4 1216.97   66.34
   2   2  -4 1233.46   32.17
   2  -2   4 1232.28   56.11
   2  -2   4 1115.13   61.89
  -2  -2  -4 1275.10   38.54
   3   2   4  184.69   26.71
  -3  -2  -4  180.41   15.73
   3  -2  -4  188.31   28.55
   3  -2   4  218.40   14.11
  -3   2  -4  206.28   16.04
   3   2   4  178.34   10.35
  -3   2   4  228.16   28.66
   3   2  -4  207.66   14.23
   3  -2  -4  181.28   23.90
   3  -2   4  188.62   23.13
  -3  -2  -4  202.27   13.33
   3  -2  -4  179.00   17.68
  -3  -2  -4  206.34   20.35
   3  -2   4  184.48   18.16
   3  -2   4  189.28   36.74
  -3  -2   4  181.38   30.09
   3   2  -4  190.37   20.42
   4   2  -4   97.92   19.18
   4  -2  -4   91.56   21.88
  -4   2   4  108.83   10.36
  -4   2  -4  149.45   19.20
  -4  -2  -4  108.49   10.57
  -4  -2  -4   98.58   19.99
   4  -2  -4   84.74   17.71
   4  -2   4   95.12   18.54
  -4  -2   4   77.96   24.32
   4  -2  -4  110.49   14.37
   4  -2   4   62.68   24.18
   4  -2   4  103.27   11.35
   4   2  -4  104.64   10.82
   4   2   4  100.55   21.63
  -4   2   4  119.59   23.15
  -4  -2  -4  102.23   12.57
  -4  -2  -4  104.91   19.53
  -5   2  -4  177.59   21.43
   5   2  -4  115.23   25.49
   5   2   4  114.15   23.96
   5  -2   4   77.82   28.67
  -5  -2  -4   97.23   24.84
  -5  -2  -4  120.53   12.59
  -5  -2   4  120.97   16.87
   5   2  -4  126.70   13.71
   5  -2  -4  126.09   16.16
  -5  -2  -4  122.22   24.44
  -5  -2  -4  108.64   13.87
   5  -2  -4  101.90   26.79
  -5   2   4  149.97   14.49
  -6  -2  -4  652.38   34.44
  -6  -2  -4  592.11   30.66
   6  -2  -4  637.66   37.80
   6   2  -4  688.76   34.09
  -6  -2   4  590.26   39.77
   6  -2   4  484.81   42.70
  -6   2   4  674.46   37.77
  -6   2  -4  789.07   45.43
  -7  -2   4  107.66   17.45
   7  -2   4  112.90   20.28
  -7  -2  -4   98.93   13.94
  -7   2   4  132.21   19.42
  -7  -2  -4  105.94   14.02
  -7  -2   4  103.72   17.10
  -7   2  -4  133.24   18.51
   7  -2  -4   90.11   15.13
   7   2  -4  104.41   14.17
  -8  -2   4  525.65   39.77
  -8   2   4  495.00   43.45
  -8   2  -4  611.17   39.35
  -8  -2   4  494.83   38.46
   8  -2   4  602.32   46.88
  -9   2   4  283.85   32.58
   9  -2   4  355.20   34.74
  -9   2  -4  278.23   26.47
  -9  -2  -4  271.92   26.02
  -9   2   4  250.32   35.24
  -9  -2   4  307.08   32.20
  -9  -2   4  258.10   28.63
   9   2   4  222.93   24.01
 -10   2  -4  885.77   49.59
 -10   2   4  823.44   65.61
 -10  -2  -4  853.29   48.86
 -10  -2   4  983.15   57.88
 -10  -2   4  938.62   55.90
  10  -2   4 1045.71   58.22
  10  -2  -4 1082.95   64.81
 -10   2   4  846.34   55.82
  10   2   4  859.17   47.77
 -11   2   4  705.50   55.64
 -11  -2  -4  668.56   43.25
  11   2   4  675.74   41.92
  11  -2   4  793.24   49.77
 -11  -2   4  701.46   48.57
  11  -2  -4  809.94   54.11
 -12  -2  -4 1124.91   58.60
  12  -2   4 1138.43   58.51
 -12  -2   4 1214.75   64.57
 -12   2   4 1211.65   67.37
 -13  -2  -4  303.15   30.92
  13  -2   4  318.55   34.34
  13  -2   4  277.96   33.01
 -13   2   4  331.29   33.16
 -13  -2   4  326.19   33.50
 -13   2  -4  242.03   30.43
  13   2   4  307.89   34.78
  13  -2  -4  281.88   32.74
 -13  -2   4  280.33   32.48
 -13   2   4  304.92   32.46
  14   2   4  400.81   38.53
 -14  -2   4  433.34   39.16
  14  -2  -4  405.38   38.97
  14  -2   4  441.13   40.66
 -14   2   4  385.31   36.09
  14  -2   4  446.98   39.21
  15   2   4   12.78    6.04
  15  -2   4   10.52    3.95
 -15  -2   4    0.75    4.57
  15  -2   4    7.45    5.23
  15  -2  -4   14.25    7.59
 -15   2   4   15.13    7.76
  16   2   4   27.98    8.53
  16  -2   4   41.16   11.35
  16  -2  -4   34.09   10.97
  16   2  -4   42.04   10.85
  16  -2   4   35.90   10.62
 -16   2   4   47.52   11.75
 -16  -2   4   31.80    9.68
  17  -2   4    5.22    3.70
  17   2   4    1.70    4.03
  17  -2   4    2.13    4.31
 -17  -2   4    4.33    4.73
  17  -2  -4    6.46    5.53
  17   2  -4   -4.30    2.50
  18  -2   4    7.56    4.33
  18  -2  -4    2.52    2.27
  18   2  -4    0.02    2.41
  18  -2   4   -1.11    2.55
  19   2   4   11.14    4.44
   0  -3  -4   -2.88    4.71
   0  -3   4    1.90    1.88
   0   3  -4    0.23    3.48
   0   3   4    0.50    2.06
   0   3  -4    0.29    1.78
   1   3   4  202.34   19.75
  -1  -3   4  171.57   22.81
  -1   3   4  169.33   21.72
   1  -3   4  164.83   19.50
  -1  -3   4  202.59   12.53
   1  -3   4  190.10   12.78
  -1  -3  -4  199.27   13.55
   1   3   4  162.46   24.69
   1  -3  -4  193.32   12.62
  -1   3  -4  173.04   22.31
  -1   3   4  192.09   26.19
  -1  -3   4  189.04   12.53
   1  -3   4  195.63   11.98
   1  -3   4  194.93   13.97
   1  -3  -4  163.65   24.62
  -1  -3  -4  189.96   16.75
   2  -3  -4  186.56   13.11
  -2  -3   4  176.10   23.41
   2   3  -4  181.85   27.57
   2   3   4  176.50   27.44
  -2  -3   4  183.86   13.39
   2  -3   4  149.07   17.09
   2   3  -4  158.74   12.62
   2   3   4  177.81   21.01
   2  -3  -4  195.11   20.16
   2  -3   4  164.47   19.55
  -2  -3  -4  159.61   16.06
   2   3  -4  186.55   12.86
   2  -3   4  175.12   13.89
  -2  -3  -4  197.80   13.76
  -2  -3  -4  197.94   14.05
  -2   3   4  155.25   21.96
   2  -3   4  184.40   23.52
   2  -3  -4  162.50   25.04
   2  -3   4  191.33   13.57
  -2  -3   4  212.46   26.40
  -2  -3   4  181.26   24.75
  -2   3   4  200.39   27.44
  -3   3  -4   32.51    5.91
  -3  -3   4   23.68    8.26
  -3  -3  -4   27.87    5.25
  -3  -3   4   51.60   12.43
  -3  -3  -4   16.81    7.54
   3  -3  -4   30.59   12.13
  -3  -3  -4   29.17    5.49
  -3  -3   4   20.69   10.98
   3   3  -4   38.50   10.12
   3  -3   4   23.98   10.13
   3  -3  -4   29.30    7.97
  -3  -3  -4   31.30    7.10
   3   3  -4   37.60    5.67
   3  -3  -4   27.89   10.09
   3  -3   4   16.52    5.99
   3  -3   4   33.68    5.66
   3  -3   4   36.48    7.44
  -3   3   4   17.01   11.44
   3   3   4   35.11   12.86
  -4  -3  -4  869.92   32.89
  -4  -3  -4  870.42   57.00
   4  -3  -4  943.54   46.75
   4   3  -4  942.59   32.45
  -4  -3   4  836.29   48.47
   4  -3   4  842.43   70.50
   4  -3  -4  804.28   66.43
  -4   3   4  899.83   31.08
  -4  -3  -4  809.61   37.49
  -4  -3  -4  905.30   68.59
   4   3  -4  822.97   61.06
  -4   3  -4  792.47   54.54
   5  -3   4  682.53   79.96
   5  -3   4  679.27   44.35
   5  -3  -4  746.79   42.55
  -5  -3   4  770.76   45.47
   5  -3  -4  740.50   72.12
   5   3  -4  835.97   33.53
  -5  -3  -4  688.36   36.38
  -5   3   4  754.92   33.92
  -5  -3  -4  723.23   33.05
  -5   3  -4  894.76   53.21
   5  -3  -4  758.37   38.95
  -6   3  -4 1682.79   72.57
  -6  -3  -4 1346.17   51.95
  -6  -3  -4 1294.05   48.73
  -6  -3   4 1392.56   61.53
   6  -3  -4 1392.55   59.11
   6  -3   4 1057.55   62.49
   6  -3  -4 1249.45   57.85
   6   3  -4 1462.63   48.06
  -6   3   4 1545.46   53.83
  -6  -3  -4 1717.96   68.43
   7  -3   4  222.50   30.45
  -7  -3  -4  303.73   28.01
  -7  -3   4  279.06   27.69
  -7   3   4  236.91   25.68
  -7   3  -4  303.04   30.38
   7  -3  -4  161.63   22.99
  -7  -3  -4  272.65   24.14
  -7  -3  -4  234.77   22.56
  -8  -3  -4  680.13   38.86
  -8  -3  -4  724.10   42.32
   8  -3   4  665.70   52.52
  -8  -3  -4  670.02   40.42
  -8  -3   4  620.18   42.97
  -8   3  -4  749.45   46.68
  -8   3   4  659.72   50.15
  -9   3   4   31.30   13.37
   9  -3  -4   15.04    8.92
  -9  -3  -4   20.39    7.82
   9  -3   4   26.46   10.86
  -9  -3   4   17.13    6.15
  -9  -3  -4   23.45    8.62
  -9   3  -4   18.37    7.91
  10  -3  -4  232.16   31.78
 -10  -3  -4  236.08   24.94
 -10  -3   4  186.01   24.73
  10   3   4  178.02   22.17
 -10   3   4  197.07   31.57
  10  -3   4  230.90   29.36
 -10   3  -4  186.94   23.25
 -11   3   4   -2.99    8.03
  11  -3   4    1.19    1.74
 -11  -3  -4   -0.67    2.60
  11  -3  -4    1.31    5.51
 -11   3  -4    1.25    2.89
 -11  -3   4    3.53    5.14
  11   3   4   -0.90    4.52
 -12   3   4   82.59   18.46
 -12  -3  -4   69.82   14.96
 -12  -3   4   79.72   16.78
  12  -3   4   64.55   15.53
 -13  -3  -4   56.87   13.41
 -13  -3   4   61.30   15.64
  13  -3   4   49.77   13.65
 -13  -3   4   53.88   14.18
  13   3   4   57.34   15.60
  13  -3  -4   79.13   17.73
 -13   3  -4   41.15   11.50
 -13   3   4   58.78   14.97
  14  -3   4  115.12   21.00
  14  -3   4   97.13   17.79
  14   3   4   86.60   17.67
  14  -3  -4  100.61   20.22
 -14  -3   4   72.00   15.76
  15   3   4   66.05   14.45
  15  -3   4   48.68   12.60
  15   3  -4   54.25   15.50
  15  -3  -4   43.76   14.27
  15  -3   4   61.84   14.62
 -15  -3   4   68.53   15.38
  16  -3  -4  174.30   23.24
  16   3   4  165.29   21.95
  16  -3   4  122.91   21.20
  16  -3   4  171.08   21.03
 -16  -3   4  150.43   20.47
  16  -3  -4  152.37   22.33
  16   3  -4  191.87   23.96
  17   3   4  146.74   19.36
  17  -3  -4  138.64   17.65
  17   3  -4  153.93   18.96
 -17  -3   4  147.81   18.40
  17  -3  -4  169.97   20.04
  17  -3   4   98.86   15.99
  17  -3   4  151.49   17.66
  18   3  -4  232.11   20.36
 -18  -3   4  234.84   18.90
  18  -3  -4  277.71   21.97
  18   3   4  254.61   21.91
  18  -3   4  217.08   19.57
   0   4  -4  189.42   18.24
   0   4   4  235.38   31.71
   0   4  -4  260.14   28.26
   0   4   4  221.68   28.06
   0  -4  -4  254.27   16.51
   0  -4   4  192.40   22.92
   0  -4   4  261.28   15.68
   0  -4   4  261.47   14.96
   0   4  -4  267.14   31.08
   0  -4  -4  247.15   23.03
   1  -4   4  962.07   27.88
  -1   4  -4  841.06   59.77
   1  -4   4  919.35   30.34
   1   4  -4  908.28   56.93
   1   4   4  984.25   50.54
  -1  -4  -4  934.26   32.76
   1  -4   4  737.19   43.11
  -1  -4   4  922.53   29.38
   1  -4  -4  827.21   60.21
  -1   4   4  933.02   62.73
   1   4  -4  879.97   57.41
   1  -4  -4  970.24   53.66
  -1   4   4  837.52   54.12
   1  -4  -4  969.41   30.29
  -1  -4  -4  852.23   41.90
  -1  -4   4  763.68   46.89
  -1  -4   4  947.28   29.52
   1  -4  -4  909.23   33.10
   2   4   4   81.91   15.90
   2   4  -4   89.34   19.14
  -2  -4   4   90.12   16.25
  -2  -4  -4   71.93    9.05
   2   4  -4   72.72    8.08
   2  -4  -4   74.82   16.41
  -2   4   4   82.19   18.81
   2  -4   4   68.49    7.30
   2  -4   4   67.33   12.08
  -2  -4   4   97.84   19.06
  -2  -4  -4   83.19    9.88
  -2  -4   4   72.19    8.88
   2  -4   4   62.57    8.76
   2  -4  -4   80.89   10.30
   2  -4   4   66.86   11.57
   2  -4  -4   71.66   17.33
   2  -4   4   55.37    8.33
  -3  -4   4  609.05   46.28
   3  -4   4  528.07   27.41
   3  -4   4  413.33   29.20
   3   4   4  529.77   48.28
   3  -4  -4  433.42   46.47
   3   4  -4  517.73   22.38
   3  -4   4  413.84   35.56
  -3  -4   4  651.73   42.65
  -3  -4  -4  506.44   24.81
   3  -4  -4  561.76   40.57
   3  -4   4  507.26   24.99
  -4  -4   4  151.71   20.03
   4  -4  -4  109.64   18.25
  -4  -4  -4   58.95   11.11
  -4   4  -4   89.84   17.07
   4   4  -4  104.47   10.61
   4  -4   4  136.67   13.65
  -4  -4  -4  106.63   12.39
   4  -4  -4   94.03   22.81
  -4  -4  -4  104.57   14.70
   4  -4   4   96.76   20.73
  -4  -4   4  131.15   20.51
   5  -4   4   25.36    8.48
  -5  -4   4   27.56    9.23
  -5   4   4   23.97    6.48
  -5  -4  -4   28.78    8.59
  -5  -4  -4   22.72    5.95
   5  -4  -4   32.74    7.92
  -5   4  -4   30.74   11.65
   5  -4  -4   42.20   11.14
  -5  -4  -4   33.13    9.91
  -6   4  -4    6.28    4.78
   6  -4   4    7.03    5.18
  -6  -4  -4   17.38    7.55
  -6  -4   4    1.51    2.59
  -6  -4  -4   14.26    5.36
  -6   4   4    5.47    3.05
   6  -4  -4    8.51    4.23
  -6  -4  -4    8.40    4.21
  -7  -4  -4  172.47   19.89
  -7  -4  -4  221.61   25.57
   7  -4   4  129.68   23.27
  -7  -4  -4  146.28   18.80
  -7  -4   4  161.18   21.04
  -7   4  -4  196.00   26.10
   7  -4  -4  110.56   19.31
  -7   4   4  178.99   20.52
   8  -4   4   12.90    8.11
  -8   4  -4   13.00    7.55
  -8  -4  -4    4.72    3.72
  -8  -4   4    5.43    5.63
  -8   4   4   10.36    8.27
  -8  -4  -4    4.67    4.73
  -8  -4  -4    4.92    3.14
   8  -4  -4    0.03    3.34
  -9  -4  -4  527.02   38.77
  -9  -4   4  424.49   36.45
   9  -4   4  491.82   46.95
  -9   4   4  393.56   41.75
  -9   4  -4  457.20   39.24
  -9  -4  -4  462.49   33.21
  -9  -4  -4  471.95   37.73
 -10  -4   4   14.31    7.53
  10  -4  -4   10.55    5.74
 -10  -4  -4   17.76    5.89
  10  -4   4   11.00    7.17
 -10   4   4   17.91   12.12
 -10  -4  -4   11.67    5.58
 -10   4  -4   12.21    7.75
  10   4   4   12.46    7.75
  11   4   4  696.63   46.51
 -11   4  -4  736.73   49.06
 -11   4   4  621.02   57.91
  11  -4   4  749.62   54.55
 -11  -4  -4  745.86   47.03
 -11  -4   4  809.45   51.59
 -12   4  -4  132.70   21.45
 -12  -4   4  228.45   27.77
 -12   4   4  156.26   29.03
 -12  -4  -4  198.07   24.70
 -13  -4  -4  536.23   41.63
  13  -4   4  506.13   44.80
 -13   4   4  490.86   44.27
  13  -4  -4  559.94   46.44
 -13  -4   4  549.63   43.51
  13   4   4  475.17   42.15
 -13  -4   4  525.90   44.63
  13  -4  -4  468.37   43.68
  14   4   4   87.70   17.36
  14  -4   4   95.96   18.53
  14  -4  -4   97.07   19.81
 -14  -4   4  114.76   20.15
 -15  -4   4  134.53   21.28
  15   4  -4  164.69   23.17
  15  -4   4  176.90   23.19
  15  -4  -4  142.38   22.45
  15   4   4  154.81   22.10
  16   4   4   12.44    5.10
  16  -4  -4   -3.37    7.82
  16  -4   4    7.31    2.64
 -16  -4   4    9.65    5.29
  16   4  -4   16.97    8.01
  16  -4  -4    8.97    5.83
  17   4  -4   19.91    7.05
  17  -4   4   19.65    6.12
  17  -4  -4   14.31    4.99
  17  -4  -4   28.28    8.48
 -17  -4   4   16.77    7.05
  17   4   4   14.40    6.56
  18  -4  -4   36.34    7.53
  18   4  -4   25.75    6.57
 -18  -4   4   17.30    4.50
  18  -4   4   20.80    5.48
  18  -4  -4   36.14    6.98
  18   4   4   22.40    5.79
   0  -5   4    2.80    1.86
   0  -5  -4   -5.25    5.23
   0  -5   4    0.46    0.99
   0  -5  -4    2.44    3.20
   0   5  -4   -2.92    4.52
   0  -5   4   -2.82    3.96
  -1  -5  -4   73.24   14.23
   1  -5   4   79.08    9.31
  -1  -5   4   36.86   10.06
   1   5   4   64.79   14.32
   1  -5   4   74.59    8.31
   1  -5  -4   72.34    9.28
  -1  -5   4   63.75    8.35
   1  -5   4   57.83   12.51
   1  -5  -4   58.50   14.50
  -1   5  -4   67.09   20.66
  -1  -5   4   74.55    8.81
  -1  -5   4   51.60   12.91
   1  -5  -4   67.65   10.05
   1  -5  -4   81.90   17.13
  -1  -5  -4   55.97   12.47
  -2  -5  -4  276.99   20.03
   2  -5   4  278.01   15.38
  -2  -5   4  224.14   27.36
   2  -5   4  274.76   26.06
  -2  -5  -4  274.86   26.17
   2   5   4  300.48   33.81
  -2  -5   4  293.45   18.01
   2  -5  -4  295.60   30.02
   2  -5   4  298.35   19.31
  -2  -5   4  298.41   29.32
   2  -5  -4  224.00   28.93
  -2  -5  -4  278.60   18.83
   2  -5  -4  282.85   21.35
   3  -5  -4  133.30   15.32
  -3  -5  -4  128.58   13.63
  -3  -5   4  157.30   21.23
  -3  -5   4  123.05   22.28
   3   5  -4  137.68   11.73
   3  -5   4  125.33   17.35
  -3  -5   4  124.93   12.58
   3  -5   4  122.50   13.22
   3   5   4  148.17   26.68
   3  -5  -4  114.15   20.16
  -4   5  -4 1263.96   57.59
   4  -5   4 1356.11   47.03
   4  -5   4 1159.19   50.78
   4  -5  -4 1345.91   45.54
  -4  -5  -4 1260.20   55.31
  -4  -5  -4 1265.46   46.03
   4  -5  -4 1317.62   53.47
   4  -5   4 1334.26   51.70
  -5  -5  -4   18.23    7.89
   5  -5  -4   25.32    7.56
  -5  -5  -4   27.91    7.91
  -5   5  -4   19.67    8.64
   5  -5  -4   26.72    8.87
   5  -5   4   20.65    7.05
  -5  -5   4   36.57   10.57
  -5   5   4   27.59    6.16
  -5  -5  -4   18.11    6.76
  -6  -5  -4 1655.03   74.79
  -6  -5  -4 1954.17   69.22
   6  -5   4 1698.79   77.04
   6  -5  -4 1776.02   66.13
  -6   5  -4 1681.68   80.88
  -6  -5  -4 1654.61   62.36
  -6   5   4 1874.66   56.92
  -7   5  -4    8.43    6.96
  -7  -5  -4    8.62    4.52
  -7  -5  -4    7.79    7.33
  -7  -5   4    0.76    5.24
  -7  -5  -4    4.03    2.59
  -7   5   4    8.30    5.38
   7  -5  -4    3.55    3.96
   7  -5   4    5.23    8.22
  -7  -5  -4   11.53    5.82
  -8  -5  -4 1036.35   58.35
  -8  -5  -4  840.41   46.19
  -8  -5  -4  822.27   49.77
  -8  -5   4  846.83   49.95
   8  -5   4  706.88   59.74
  -8   5  -4  855.24   59.07
  -8   5   4  718.01   46.67
   8  -5  -4  555.19   46.93
  -9   5  -4   -2.09    2.35
  -9  -5  -4    6.09    4.84
  -9  -5   4   -2.14    4.53
  -9  -5  -4   -4.58    5.19
   9  -5  -4   10.57    9.24
   9  -5   4    0.54    5.59
  -9  -5  -4    0.21    1.43
  -9   5   4   -0.11    6.24
  10  -5  -4  166.49   27.70
 -10   5  -4  172.23   25.41
 -10  -5  -4  207.83   26.06
 -10  -5   4  176.72   23.97
 -10  -5  -4  162.58   20.57
 -10   5   4  167.02   28.69
 -10  -5  -4  204.95   25.08
 -11  -5   4    2.36    3.38
 -11  -5  -4    4.36    2.27
 -11   5  -4   -8.75    8.03
 -11   5   4  -11.29   10.19
 -12  -5  -4  138.00   20.35
 -12   5   4  124.69   23.95
 -12   5  -4  136.20   21.68
 -12  -5   4  137.54   22.10
  12  -5  -4  126.89   22.38
 -12  -5   4   44.37   17.44
  12  -5  -4  150.10   25.32
  12   5   4  133.64   22.56
  12  -5   4  124.32   23.80
  12  -5   4  127.55   22.67
 -12  -5   4  185.31   25.76
 -12  -5  -4  141.80   21.95
 -12  -5   4   16.58   17.92
  13   5   4   13.09    8.64
  13  -5   4   14.57    8.31
 -13  -5  -4    0.07    3.23
 -13  -5   4   -2.75    6.12
  13  -5  -4    2.76    4.49
  13  -5  -4    9.92    6.91
 -13  -5   4   18.37   10.28
  14   5  -4  324.44   34.27
 -14  -5   4  303.08   32.47
 -14  -5  -4  278.51   29.09
  14  -5   4  293.59   32.44
  14  -5   4  294.21   33.14
  14   5   4  271.80   30.14
  14  -5  -4  326.28   34.98
  14  -5  -4  281.59   31.69
  15   5   4   18.75    8.60
  15  -5  -4   15.16    7.11
  15  -5   4    6.63    4.75
  15  -5   4   16.04    7.09
  15   5  -4   23.05    9.58
  15  -5  -4   -1.45    3.78
 -15  -5   4   17.99    7.38
  16   5  -4  383.07   33.00
  16   5   4  367.69   31.40
 -16  -5   4  360.41   31.89
  16  -5   4  298.50   28.09
  16  -5  -4  371.12   33.59
  17  -5   4    0.79    1.80
 -17  -5   4   13.91    5.99
  17  -5  -4    7.39    4.60
  17   5  -4   14.84    5.74
  17   5   4    6.31    4.46
 -18  -5   4  358.62   22.43
  18   5  -4  366.13   22.33
  18  -5   4  299.59   21.83
  18  -5  -4  361.91   22.17
  18   5   4  342.37   23.73
   0  -6   4   46.63   12.96
   0  -6   4   44.81    7.73
   0  -6  -4   40.45    8.36
   0  -6  -4   44.06    8.28
   0  -6  -4   38.78   11.87
   0  -6   4   48.30    7.10
  -1  -6  -4 2879.11  100.73
  -1  -6  -4 2502.87   77.97
   1  -6  -4 2491.74   66.38
  -1  -6   4 2824.54   57.46
   1  -6   4 2406.04   89.21
   1  -6   4 2766.24   53.33
  -1  -6   4 2789.40   57.84
   1  -6   4 2923.85   60.95
   1  -6  -4 2772.62  102.25
  -1  -6   4 2431.42   90.44
   1  -6  -4 2796.72   62.50
   2  -6  -4    7.71    4.50
   2  -6   4    3.95    2.22
  -2  -6   4    5.62    3.65
  -2  -6   4    9.17    3.89
   2  -6   4    3.45    1.55
  -2  -6  -4   11.82    5.87
   2  -6   4    4.27    1.91
  -2  -6   4   10.67    7.46
  -2  -6  -4    5.76    3.54
  -2  -6  -4    3.91    4.15
   3  -6  -4  450.65   31.52
   3  -6  -4  393.75   24.14
  -3  -6  -4  438.04   26.73
   3  -6  -4  459.93   37.07
  -3  -6  -4  325.31   34.25
  -3  -6   4  441.42   23.55
  -3  -6   4  347.91   32.79
  -3  -6   4  486.03   37.78
   3  -6   4  425.63   26.68
  -3  -6  -4  443.47   36.06
   3  -6   4  416.34   33.91
  -4  -6  -4   35.27   10.09
  -4  -6   4   27.05    7.94
  -4  -6  -4   26.47    9.90
  -4  -6  -4   33.86    7.84
  -4  -6   4   49.54   14.08
   4  -6   4   32.95    8.11
   4  -6  -4   38.17   10.54
  -4  -6  -4   30.81    8.21
   4  -6   4   38.03   10.01
   4  -6  -4   26.10    7.54
   4  -6  -4   26.12    6.30
  -5  -6  -4   17.51    7.26
  -5   6  -4    5.36    4.49
  -5  -6  -4   12.25    5.60
   5  -6  -4    7.64    3.91
   5  -6   4    3.91    3.12
  -5  -6  -4   10.31    6.03
  -5  -6  -4    7.78    4.41
   5  -6   4    7.79    5.62
  -5  -6   4   17.02    6.61
  -5   6   4    9.56    4.59
  -6  -6   4   22.49    9.47
  -6   6  -4   12.50    7.41
  -6  -6  -4    8.87    4.78
  -6  -6  -4   17.57    6.76
  -6   6   4   19.52    6.25
   6  -6  -4   16.18    6.79
  -6  -6  -4   17.80    7.16
  -7  -6  -4   46.77   13.06
  -7  -6  -4   45.37   11.67
  -7   6   4   44.76   10.50
  -7  -6   4   49.05   13.07
  -7   6  -4   48.21   14.01
  -7  -6  -4   63.38   13.24
   7  -6  -4   36.57   10.61
  -8  -6  -4  136.55   24.04
  -8  -6   4  114.04   19.51
  -8   6   4   93.54   16.23
  -8  -6  -4  117.21   17.67
  -8   6  -4  100.25   21.55
  -8  -6  -4   99.04   17.75
   8  -6  -4   76.97   17.19
  -9   6  -4  183.76   28.22
  -9  -6   4  171.47   23.70
  -9  -6  -4  177.76   21.72
  -9   6   4  143.12   23.50
  -9  -6  -4  230.85   30.10
  -9  -6  -4  196.66   25.48
 -10  -6  -4  304.83   28.97
 -10   6  -4  335.15   37.30
  10  -6  -4  222.34   32.69
 -10  -6  -4  358.97   35.29
 -10  -6   4  334.40   33.19
 -10   6   4  285.86   35.65
 -10  -6  -4  381.56   37.30
 -11  -6   4  594.57   45.13
 -11   6  -4  510.17   44.90
  11  -6   4  519.51   47.54
 -11  -6  -4  624.68   47.42
 -11  -6  -4  700.42   50.56
 -12  -6  -4    4.38    4.46
  12   6   4   11.37    6.88
  12  -6  -4    7.24    4.21
 -12  -6   4    6.33    3.38
 -12  -6  -4    7.24    6.15
  12  -6   4    3.67    4.47
 -12  -6  -4   11.92    8.05
 -12   6   4   14.09    8.75
 -12  -6   4    1.89    3.90
  12  -6  -4    8.72    4.80
  12  -6   4    5.32    3.91
 -12  -6   4    7.67    3.80
  12  -6   4   -4.26    4.95
 -12   6  -4    7.48    5.39
 -13  -6   4  606.06   47.03
 -13  -6  -4  588.10   44.45
  13  -6   4  496.18   45.50
  13   6   4  513.88   43.17
  13  -6  -4  611.12   49.85
 -13  -6   4  588.34   46.08
  13  -6  -4  529.33   47.38
  14   6   4    9.19    6.01
 -14  -6  -4    1.11    3.21
  14  -6   4    7.79    3.74
  14  -6  -4    3.63    3.54
  14  -6   4   -0.21    4.89
 -14  -6   4   13.15    7.81
 -14  -6   4    4.48    2.67
  14  -6  -4   -2.92    4.86
 -15  -6   4  130.26   18.13
  15  -6   4  108.33   17.92
  15   6   4  110.14   17.31
 -15  -6  -4  109.57   17.59
  15  -6  -4  102.13   18.74
  15  -6   4  111.76   18.64
  15  -6  -4  112.80   18.17
 -15  -6   4  124.67   19.34
 -16  -6  -4   -0.35    2.38
 -16  -6   4    4.57    4.87
  16  -6   4   13.71    6.92
 -16  -6   4    0.62    2.37
  16  -6   4    4.45    4.68
  16  -6  -4   10.71    5.40
  16   6   4   13.21    6.46
 -17  -6   4   -1.92    4.38
  17  -6  -4    0.39    3.51
  17   6   4    1.25    2.57
  17  -6   4   -3.55    2.41
  18  -6  -4    3.38    2.48
 -18  -6   4    1.77    1.25
  18  -6   4    2.33    2.77
   0  -7  -4    2.66    4.59
   0  -7  -4    1.51    2.48
   0  -7   4    1.68    3.04
   0  -7   4    0.61    2.64
   0  -7  -4    0.67    7.06
   0  -7   4    3.39    3.10
   1  -7   4    4.15    3.63
  -1  -7  -4    4.58    5.06
  -1  -7   4    3.12    2.24
  -1  -7  -4    6.53    6.93
  -1  -7  -4    9.04    7.21
   1  -7   4   -0.35    3.11
  -1  -7   4   -6.87    7.68
   1  -7  -4    3.80    4.19
   1  -7  -4    7.40    7.71
   1  -7  -4   11.68    4.45
   1  -7   4    3.57    2.48
  -1  -7   4    2.96    1.60
  -2  -7  -4  347.50   36.14
   2  -7   4  326.46   18.77
   2  -7   4  304.52   33.04
  -2  -7  -4  266.89   29.65
   2  -7  -4  306.46   27.55
  -2  -7   4  309.74   21.85
  -2  -7   4  331.01   33.92
   2  -7  -4  285.65   33.76
  -2  -7   4  336.40   20.98
   2  -7   4  305.18   22.92
  -2  -7  -4  329.87   23.66
  -2  -7  -4  335.89   32.73
  -3  -7  -4  264.91   22.44
   3  -7   4  300.86   31.59
  -3  -7  -4  221.80   28.84
  -3  -7   4  328.54   32.67
  -3  -7   4  288.90   19.82
   3  -7   4  290.95   22.67
  -3  -7  -4  296.76   31.76
   3  -7  -4  299.20   31.88
  -3  -7   4  232.84   26.27
  -3  -7  -4  258.21   26.78
   3  -7  -4  304.51   28.76
  -4  -7  -4  800.10   50.57
  -4  -7  -4  628.84   51.04
  -4  -7   4  649.51   49.51
  -4  -7  -4  754.03   42.63
   4  -7  -4  828.60   48.91
  -4  -7  -4  721.53   39.98
   4  -7   4  741.62   39.17
  -4  -7   4  907.73   53.04
   4  -7   4  684.60   46.31
   4  -7  -4  756.85   48.23
  -5  -7   4  368.54   32.73
   5  -7  -4  272.21   24.63
  -5  -7   4  310.50   34.33
  -5  -7  -4  320.77   35.15
  -5  -7  -4  242.63   25.36
  -5  -7  -4  280.56   25.19
   5  -7   4  256.90   27.55
  -5  -7  -4  289.46   29.16
   5  -7   4  282.27   24.83
  -5   7   4  267.85   21.41
  -6  -7  -4 2032.40   84.62
  -6  -7  -4 1569.70   68.18
  -6  -7   4 1977.83   87.42
   6  -7  -4 1635.15   66.91
   6  -7   4 1689.95   68.70
  -6   7   4 1671.70   58.11
   7  -7  -4  130.02   20.74
  -7   7   4   99.06   15.61
  -7  -7  -4  120.10   20.30
  -7  -7   4  148.75   23.19
   7  -7   4  131.73   21.02
  -7  -7  -4  142.53   21.32
  -8   7   4  628.37   42.91
  -8   7  -4  699.51   59.18
  -8  -7  -4  750.93   47.85
   8  -7  -4  554.15   48.81
  -8  -7   4  807.90   52.98
  -8  -7  -4  667.27   48.47
   8  -7   4  652.37   48.69
  -9   7   4   32.99   10.78
  -9   7  -4   78.76   19.00
  -9  -7   4   61.08   14.52
  -9  -7  -4   70.98   14.99
   9  -7  -4   45.44   13.86
   9  -7   4   58.41   15.62
  -9  -7  -4   69.71   15.83
 -10  -7  -4  167.14   25.34
 -10  -7   4  189.08   25.50
 -10   7   4  105.04   22.17
  10  -7   4  182.65   28.95
 -10  -7  -4  206.94   24.43
 -10   7  -4  184.12   28.03
 -11  -7  -4   24.74    8.14
 -11  -7   4    9.84    7.20
 -11  -7  -4   22.30    9.02
 -11  -7  -4   16.44    6.19
  11  -7   4   15.89    7.88
 -11  -7   4   15.16    7.66
  11  -7  -4   20.10    9.05
  11  -7   4   13.05    8.06
 -11   7   4   -2.65    7.59
  11  -7  -4   26.10    9.99
  11  -7   4   -0.27    4.28
 -11  -7   4   21.31    9.48
 -11   7  -4    8.57    3.09
  12   7   4    9.69    3.24
 -12  -7  -4    6.23    4.37
  12  -7  -4   -1.12    6.03
  12  -7   4   15.19    7.31
 -12  -7   4    4.14    2.53
 -12  -7  -4   11.18    5.01
  12  -7  -4   14.57    6.61
  12  -7   4    5.45    7.70
 -12  -7   4   24.15    9.28
  13   7   4   59.37   13.54
 -13  -7   4   57.54   15.01
 -13  -7  -4   59.93   13.77
  13  -7   4   74.45   17.17
  13  -7  -4   48.32   15.05
 -13  -7  -4   59.53   14.80
 -13  -7   4   56.55   13.42
  13  -7  -4   77.05   18.01
  14  -7   4  168.76   23.81
  14  -7  -4  205.71   26.21
  14  -7   4  180.22   25.21
 -14  -7  -4  165.10   22.57
 -14  -7   4  171.49   23.28
  14  -7  -4  172.94   24.93
 -14  -7  -4  221.76   24.72
  14   7   4  178.27   23.19
 -14  -7   4  197.85   24.78
  15  -7  -4   80.07   15.14
 -15  -7  -4   77.60   14.48
 -15  -7   4   79.00   14.24
  15  -7   4   82.67   15.65
  15  -7  -4   70.61   14.58
  15  -7   4   62.80   14.71
 -15  -7   4   84.89   15.73
  15   7   4   78.68   13.98
 -16  -7  -4  382.24   27.90
  16   7   4  329.19   26.86
 -16  -7   4  380.69   30.42
  16  -7   4  325.09   27.66
  16  -7   4  318.40   28.47
  16  -7  -4  379.84   31.98
  16  -7  -4  345.42   27.56
  17  -7   4   53.60    9.42
  17  -7   4   56.83   10.45
 -17  -7   4   72.29   11.52
  17  -7  -4   70.98   11.20
  17   7   4   50.97    9.68
   0  -8  -4  558.96   34.81
   0  -8   4  499.04   47.44
   0  -8  -4  512.01   50.48
   0  -8   4  566.88   29.83
   0  -8   4  575.65   28.20
   1  -8   4  767.71   31.94
  -1  -8   4  755.81   33.50
   1  -8  -4  742.96   36.10
  -1  -8  -4  673.05   58.70
  -1  -8   4  700.54   32.36
   1  -8   4  723.67   34.52
   1  -8   4  663.80   55.75
  -1  -8   4  632.43   52.12
  -1  -8  -4  731.87   56.35
  -1  -8  -4  706.34   43.96
   1  -8  -4  697.05   59.00
  -2  -8  -4  242.19   29.56
  -2  -8  -4  293.04   36.61
   2  -8  -4  254.21   33.65
   2  -8   4  260.11   21.59
   2  -8   4  257.39   33.74
  -2  -8   4  229.52   30.17
  -2  -8   4  263.17   21.41
  -2  -8   4  274.25   19.87
  -2  -8  -4  230.17   28.48
   3  -8   4   73.35   12.02
  -3  -8   4   82.51   17.47
  -3  -8  -4   52.82   14.57
   3  -8   4   64.22   16.10
   3  -8  -4   92.68   18.65
  -3  -8  -4   77.81   13.20
  -3  -8   4   69.14   14.20
  -3  -8  -4   72.35   15.08
  -4  -8  -4   44.84   13.84
   4  -8  -4   98.35   17.98
   4  -8   4   87.40   19.34
  -4  -8  -4   77.95   13.58
  -4  -8   4   65.73   16.22
   4  -8   4   82.63   13.79
  -4  -8   4  104.63   19.39
  -4  -8  -4   78.10   14.34
  -5   8   4    1.44    2.23
  -5  -8  -4    1.20    2.50
  -5  -8   4    6.25    5.55
   5  -8   4    4.48    5.17
  -5  -8  -4    2.16    6.40
  -5  -8  -4    4.68    2.64
  -5  -8   4    5.98    3.76
   5  -8   4    4.82    3.05
   5  -8  -4    7.90    4.03
  -6  -8   4    5.31    4.74
  -6  -8  -4   -1.16    4.98
   6  -8   4    4.60    4.48
  -6  -8  -4   -9.87    7.26
  -6   8   4   -1.79    4.92
  -7  -8  -4   22.69   10.53
  -7  -8   4    8.96    8.41
  -7   8   4   12.40    5.74
  -7  -8  -4   20.82   10.12
   7  -8   4    7.01    6.83
  -8  -8   4  195.56   28.04
  -8  -8  -4  175.67   24.20
  -8   8   4  143.08   20.84
  -8  -8  -4  150.55   24.00
   8  -8   4   93.45   22.57
  -9  -8   4   51.73   13.61
  -9  -8  -4   58.11   14.91
  -9   8   4   41.21   13.33
  -9  -8  -4   50.12   12.87
   9  -8   4   44.24   14.80
 -10  -8  -4  547.86   41.24
  10  -8   4  432.69   48.91
 -10  -8   4  576.66   47.16
 -10  -8  -4  579.97   46.81
 -10   8   4  493.47   48.09
 -10  -8   4  462.77   45.32
  11  -8   4   75.68   21.81
 -11  -8  -4  118.43   21.26
 -11  -8  -4  113.96   19.55
 -11   8   4   88.32   22.27
 -11  -8   4  106.77   19.51
 -11  -8   4  123.69   23.22
 -11  -8  -4   99.96   20.46
  11  -8   4  109.96   20.89
  11  -8   4   85.94   18.91
  11  -8  -4  106.73   22.38
 -12  -8  -4  309.12   32.55
  12  -8  -4  334.63   36.13
 -12  -8  -4  285.22   31.88
  12  -8   4  291.70   35.06
 -12  -8   4  261.03   33.65
  12  -8   4  274.74   35.25
  12  -8  -4  323.52   39.38
  13  -8   4  186.79   26.15
 -13  -8  -4  188.34   24.19
 -13  -8   4  204.84   26.63
  13  -8   4  218.53   28.89
  13  -8  -4  170.36   25.42
  13  -8  -4  162.41   26.65
 -13  -8  -4  166.51   23.10
  14  -8  -4  114.59   21.00
 -14  -8  -4  121.28   18.36
 -14  -8   4  112.15   19.41
 -14  -8  -4  127.68   17.84
 -14  -8   4  118.62   19.60
  14  -8   4  140.64   20.44
  14  -8  -4  128.09   19.94
 -14  -8   4  144.19   19.76
  14  -8   4  120.35   20.40
 -15  -8   4   38.93   10.37
  15  -8  -4   53.87   12.87
  15  -8   4   43.44   11.09
 -15  -8  -4   48.67   10.33
 -15  -8   4   53.38   11.39
  15  -8   4   43.90   11.11
 -15  -8  -4   46.15   10.79
  16  -8  -4   39.91    9.60
 -16  -8   4   34.67    7.11
  16  -8   4   47.84   10.04
 -16  -8  -4   40.48    8.63
 -16  -8   4   45.17    9.37
  16  -8  -4   36.85    9.82
  16  -8   4   45.75   10.48
  17  -8   4    2.32    1.38
  17  -8  -4    1.56    2.68
 -17  -8   4    5.45    2.58
  17  -8   4   -1.33    2.16
   0  -9   4    1.10    1.64
   0  -9  -4   -0.57    5.86
   0  -9   4   -5.33    7.28
   0  -9   4   -0.34    2.05
  -1  -9   4   44.17    8.67
  -1  -9  -4   37.22   10.64
   1  -9   4   37.78   13.68
  -1  -9   4   34.31   14.44
   1  -9  -4   34.06   13.00
  -1  -9  -4   46.11   13.04
  -1  -9   4   52.03    9.07
   1  -9   4   45.34    9.33
   2  -9   4   43.64   12.53
  -2  -9   4   62.59   17.67
  -2  -9  -4   54.92   14.62
   2  -9   4   53.33   10.46
  -2  -9   4   52.73    9.91
  -2  -9  -4   33.41   10.93
   2  -9  -4   48.85   15.48
  -3  -9  -4  456.83   39.94
  -3  -9   4  396.06   29.36
   3  -9   4  425.10   44.29
  -3  -9   4  503.43   45.70
   3  -9  -4  475.53   46.00
  -3  -9  -4  369.18   40.85
   3  -9   4  447.20   30.89
  -4  -9  -4   67.12   14.53
   4  -9  -4   66.53   15.13
  -4  -9  -4   67.86   14.87
  -4  -9   4   64.43   15.73
   4  -9   4   63.78   16.86
  -4  -9   4   86.86   18.84
  -4  -9  -4   49.99   16.02
   4  -9   4   93.23   14.29
  -5  -9  -4  426.31   36.82
   5  -9  -4  487.50   39.15
   5  -9   4  436.02   35.22
  -5  -9   4  393.13   43.18
  -5  -9  -4  403.04   35.26
   5  -9   4  430.98   40.70
  -5  -9  -4  394.66   43.77
  -5  -9   4  544.10   43.98
  -5   9   4  445.59   33.36
  -6  -9  -4  184.04   25.55
  -6  -9   4  248.27   35.77
  -6  -9  -4  236.16   32.03
   6  -9   4  224.02   25.67
  -6   9   4  203.06   23.21
  -7  -9   4  241.54   33.87
   7  -9   4  218.41   27.93
  -7   9   4  176.19   23.43
  -7  -9  -4  159.63   24.95
  -7  -9  -4  232.83   30.65
  -8  -9  -4  117.57   20.51
  -8  -9   4  138.16   24.74
  -8  -9  -4  126.56   22.12
   8  -9   4  101.24   21.09
  -8   9   4  123.22   19.87
  -9  -9  -4   65.61   14.42
  -9  -9  -4   74.22   16.69
  -9  -9   4   81.59   18.36
  -9   9   4   52.98   14.82
   9  -9   4   46.58   17.44
 -10  -9  -4    8.66    6.87
 -10   9   4   -9.77    9.32
 -10  -9   4    5.79    5.58
 -10  -9  -4    7.72    5.96
  10  -9  -4    5.13    5.07
 -10  -9  -4    6.05    6.86
 -10  -9   4   10.17    7.12
 -10  -9  -4   14.76    7.29
  10  -9   4    6.91    7.68
  10  -9   4   -2.10    8.50
 -11  -9  -4   39.26   11.85
  11  -9   4   32.35   12.90
 -11  -9  -4   34.45   11.88
  11  -9   4   25.53   11.18
 -11  -9   4   34.02    9.99
  11  -9  -4   38.36   14.16
 -12  -9  -4    7.65    7.20
 -12  -9  -4    5.76    4.47
  12  -9  -4    7.84    9.46
  12  -9   4   -9.61    6.22
  12  -9   4   14.43    8.85
 -12  -9   4    6.31    6.81
 -13  -9  -4  192.35   23.91
 -13  -9   4  128.91   20.54
  13  -9   4  164.07   23.26
 -13  -9   4  151.33   20.93
 -13  -9  -4  139.60   20.48
  13  -9   4  162.93   25.40
  13  -9  -4  134.90   23.71
 -14  -9  -4   48.48   11.86
 -14  -9   4   57.82   12.96
  14  -9   4   46.17   11.28
 -14  -9   4   47.19   10.65
  14  -9   4   36.51    9.83
  14  -9  -4   41.49   11.85
 -14  -9  -4   53.77   12.21
 -15  -9  -4  232.73   22.14
  15  -9   4  208.00   22.88
 -15  -9   4  208.27   22.05
 -15  -9  -4  200.70   21.19
 -15  -9   4  229.51   22.74
  15  -9   4  181.08   21.06
  15  -9  -4  208.70   23.96
 -16  -9  -4   97.09   12.78
  16  -9   4   87.17   12.63
 -16  -9   4   90.03   12.85
  16  -9  -4   78.99   12.57
 -16  -9   4   78.69   10.90
  16  -9   4   71.68   12.78
  16  -9  -4   81.10   12.56
   0 -10   4 1084.41   46.29
   0 -10   4  831.83   72.87
   0 -10  -4  921.01   75.72
   1 -10  -4   11.06    5.92
   1 -10   4   19.49    6.26
   1 -10   4   17.79   12.03
  -1 -10   4   22.42   10.79
  -1 -10  -4   32.66   11.47
  -2 -10   4  305.21   24.96
   2 -10  -4  262.59   39.11
  -2 -10  -4  258.25   33.08
   2 -10   4  307.23   25.55
   2 -10   4  287.40   41.66
  -2 -10   4  322.13   40.89
  -2 -10  -4  327.40   37.90
   3 -10   4    4.09    2.30
  -3 -10   4   11.02    5.81
  -3 -10  -4   -2.87    7.62
   3 -10   4    1.78    7.27
  -3 -10   4    8.98    6.66
   3 -10  -4   -0.52    3.57
  -3 -10  -4    0.06    4.20
   4 -10  -4  221.68   30.04
  -4 -10  -4  141.59   27.98
   4 -10   4  194.75   22.68
  -4 -10   4  171.13   22.56
   4 -10   4  166.68   28.76
  -4 -10   4  242.11   32.05
  -4 -10  -4  201.27   26.00
   5 -10   4   15.79    2.97
  -5 -10  -4    7.47    3.95
  -5 -10   4    9.84    3.83
  -5 -10  -4   14.33    5.79
   5 -10   4   17.04    8.78
  -5 -10   4   11.40    5.73
  -5 -10  -4   20.59   11.54
  -5  10   4   10.65    4.60
  -6 -10  -4    7.50    6.08
  -6 -10  -4    3.24    2.77
  -6 -10   4    7.31    3.08
   6 -10   4    2.64    5.62
  -6  10   4    3.74    4.79
  -7 -10   4   25.05   13.31
  -7 -10  -4   17.53    9.40
  -7  10   4   26.17    9.72
   7 -10   4   27.63   11.80
  -7 -10  -4   18.53    8.72
   8 -10   4   86.39   20.35
  -8 -10  -4   87.16   18.38
  -8 -10  -4  116.39   22.23
  -8 -10   4  115.58   23.45
  -8  10   4   92.97   19.03
  -9 -10  -4   76.01   16.48
  -9 -10  -4   68.84   17.37
  -9 -10   4   80.77   18.16
  -9 -10   4  106.37   21.79
  -9  10   4   43.52   14.79
   9 -10   4   55.08   15.44
   9 -10   4   66.73   18.21
  -9 -10  -4   62.78   16.42
   9 -10   4   81.17   20.57
   9 -10  -4   72.94   19.40
  -9 -10  -4   68.85   17.21
 -10 -10  -4  402.87   38.80
 -10 -10   4  412.24   42.36
 -10 -10  -4  372.28   38.95
 -10 -10   4  383.71   40.41
  10 -10   4  422.03   45.04
  10 -10  -4  379.74   44.06
 -11 -10   4    0.12    5.53
 -11 -10  -4    6.43    5.73
 -11 -10   4    6.92    6.18
  11 -10   4   -3.56    8.75
  11 -10   4    7.33    7.54
  11 -10  -4   -2.36    5.07
 -11 -10  -4    2.89    4.97
 -12 -10  -4  521.87   41.65
 -12 -10   4  523.03   40.89
  12 -10   4  595.67   46.69
  12 -10  -4  567.27   50.58
 -12 -10  -4  576.50   42.79
 -12 -10   4  560.38   43.38
  12 -10   4  542.42   48.56
 -13 -10   4    4.77    5.71
 -13 -10  -4    5.82    4.69
  13 -10   4    7.51    8.63
  13 -10   4    8.24    4.18
 -13 -10   4    9.01    7.36
 -13 -10  -4    7.23    5.08
  13 -10  -4    2.76    4.69
 -14 -10   4  256.06   25.80
  14 -10   4  194.28   24.27
 -14 -10  -4  238.08   23.85
 -14 -10   4  230.19   23.42
 -14 -10  -4  238.81   24.25
  14 -10   4  196.38   26.39
  14 -10  -4  235.19   27.44
 -15 -10  -4   23.26    6.53
  15 -10   4   20.96    6.94
 -15 -10  -4   17.47    5.69
  15 -10   4   17.50    5.71
  15 -10  -4   18.18    6.27
 -15 -10   4   21.58    6.62
 -15 -10   4   24.94    7.65
  15 -10  -4   18.76    5.97
 -16 -10   4   66.92    9.26
 -16 -10  -4   66.14    9.72
 -16 -10   4   79.43   10.43
  16 -10  -4   60.33   10.24
  16 -10  -4   51.76    9.42
  16 -10   4   64.97   10.02
  16 -10   4   64.30    9.87
   0 -11   4    4.54    7.49
   0 -11  -4   -4.28   12.94
   1 -11   4   13.73    6.27
   1 -11   4   12.90    5.63
  -1 -11   4   15.03   10.25
  -1 -11  -4   17.26    8.79
   1 -11  -4    4.90    6.74
   2 -11   4   -1.85    2.37
   2 -11   4   -1.90    3.75
  -2 -11   4    6.18   10.08
   2 -11  -4   -2.44    6.82
  -2 -11  -4    6.71    7.57
   3 -11   4  386.60   49.36
  -3 -11   4  434.21   48.06
   3 -11  -4  402.90   48.42
  -3 -11  -4  415.49   42.64
  -3 -11   4  369.02   30.99
   3 -11   4  433.39   32.89
  -4  11   4   12.51    6.76
  -4 -11   4   11.05    3.74
  -4 -11   4   15.38    8.98
   4 -11   4    3.44    6.60
   4 -11  -4   23.98    9.87
  -4 -11  -4    3.99    2.52
   4 -11   4   20.33    7.00
  -5 -11   4  947.14   58.75
   5 -11   4  927.57   66.83
  -5 -11  -4 1080.51   61.74
   5 -11   4  958.71   54.39
  -5  11   4 1113.86   56.68
  -6 -11   4   13.97    8.55
   6 -11   4   10.08    6.75
  -6  11   4    0.33    3.83
  -7 -11   4  827.94   68.48
   7 -11   4  633.08   56.38
  -7 -11  -4  828.11   60.83
   7 -11  -4  806.60   56.74
  -7 -11   4  852.92   70.90
  -7 -11  -4  635.30   54.78
  -7  11   4  779.09   52.76
  -7 -11   4  748.32   63.71
   7 -11   4  790.94   62.51
   7 -11   4  673.54   51.98
  -7 -11  -4  750.09   58.90
   7 -11  -4  746.05   62.64
   7 -11   4  931.54   80.64
  -7 -11   4  793.64   57.01
  -8 -11   4    9.95    4.72
  -8 -11  -4    6.91    5.75
   8 -11   4   15.72    4.96
  -8 -11  -4    3.67    9.45
  -8  11   4   10.37    6.27
   8 -11   4   24.37   13.23
  -8 -11   4   14.82    9.71
  -8 -11   4    4.01    3.62
  -8 -11   4   11.78    8.41
  -8 -11  -4    4.84    6.34
   8 -11  -4   -0.39    6.98
  -9 -11  -4   94.95   20.75
  -9 -11   4  104.79   19.61
  -9 -11  -4  138.31   22.76
   9 -11   4  125.72   24.73
   9 -11  -4  116.22   24.79
   9 -11   4  143.73   27.49
 -10 -11  -4    2.63    6.36
 -10 -11   4    6.95    6.10
 -10 -11  -4    9.07    7.20
 -10 -11   4    0.26    5.93
  10 -11   4    0.82    5.88
  10 -11  -4    0.39    2.92
  10 -11   4    1.74    4.05
  10 -11  -4    0.60    4.36
 -11 -11  -4   34.24   10.55
 -11 -11   4   36.33   10.95
 -11 -11   4   34.89    9.97
  11 -11   4   36.37   12.49
  11 -11   4   33.94   13.14
 -11 -11  -4   49.09   12.56
  11 -11  -4   33.66   15.51
  12 -11  -4    7.65    4.94
 -12 -11  -4   10.95    6.02
 -12 -11  -4    4.81    3.60
  12 -11   4   14.80    7.35
 -12 -11   4    8.56    5.46
 -12 -11   4    8.80    6.07
 -13 -11   4   64.67   13.05
 -13 -11  -4   45.61   10.54
 -13 -11   4   37.29    9.35
 -13 -11  -4   43.29   11.04
  13 -11   4   44.98   13.22
  13 -11  -4   55.41   13.85
 -14 -11   4   16.23    6.00
  14 -11  -4    8.65    4.94
  14 -11  -4   18.20    6.47
 -14 -11   4   23.50    7.47
 -14 -11  -4   12.51    5.11
 -14 -11  -4    6.43    2.24
  14 -11   4   13.65    6.88
 -15 -11   4  141.27   15.11
 -15 -11   4  130.12   13.96
  15 -11   4  139.14   16.19
  15 -11  -4  128.28   15.29
 -15 -11  -4  135.65   15.18
  15 -11  -4  135.46   16.25
 -15 -11  -4  145.03   15.18
   0 -12   4 1347.89  107.35
   0 -12  -4 1439.86  107.53
   1 -12  -4   15.61   13.18
   1 -12   4   22.32   13.66
  -1 -12   4   22.27   12.47
  -1 -12  -4   16.91   11.91
  -2 -12  -4  762.51   65.81
   2 -12   4  653.41   72.69
  -2 -12   4  790.95   72.79
   2 -12  -4  624.58   69.12
   2 -12   4  751.68   44.16
   3 -12   4   23.87   12.88
   3 -12  -4   52.69   19.07
  -3 -12   4   79.70   22.94
  -3 -12  -4   49.65   14.81
   3 -12   4   47.93   10.84
   4 -12   4  301.77   43.22
  -4 -12  -4  287.29   34.45
   4 -12   4  269.74   27.88
  -4 -12   4  302.24   39.52
   4 -12  -4  269.54   37.53
  -4  12   4  314.92   30.35
   5 -12   4   12.11    5.77
  -5 -12   4   31.69   12.14
  -5  12   4   21.47    8.96
  -5 -12   4   18.98   11.67
   5 -12   4   20.90    7.41
   5 -12  -4   30.76   11.80
   5 -12   4    8.25    7.02
  -5 -12  -4   13.83    8.44
  -5 -12  -4   21.82   10.90
  -5 -12   4   15.37    9.34
   6 -12   4   17.92   10.45
  -6 -12   4   14.38    7.62
   6 -12   4   31.51   12.02
   6 -12  -4   19.74   10.17
  -6 -12  -4   14.21    8.16
  -6 -12  -4   23.73   11.76
  -6 -12   4   15.96    7.23
  -6 -12   4   23.98   12.92
   6 -12   4   20.24    8.21
  -6  12   4    4.96    3.36
   6 -12  -4   24.86   10.05
  -7 -12   4   96.22   19.57
  -7 -12   4   76.72   21.92
   7 -12  -4   80.56   18.11
  -7 -12  -4   80.23   19.89
  -7 -12   4   81.98   20.22
  -7 -12  -4   61.99   17.24
   7 -12   4   78.45   22.81
   7 -12  -4   51.07   16.48
   7 -12   4   54.55   18.18
   8 -12   4  111.97   26.34
  -8 -12   4   97.87   19.00
  -8 -12   4   90.76   23.06
  -8 -12  -4   61.24   16.35
  -8 -12  -4   97.65   19.52
  -8 -12   4   80.36   18.84
   8 -12   4   73.71   19.96
   8 -12  -4   87.59   21.79
  -9 -12  -4   44.14   13.57
  -9 -12   4   39.04   10.92
  -9 -12  -4   44.66   12.88
   9 -12   4   46.77   15.02
   9 -12   4   38.09   13.71
   9 -12  -4   37.16   13.90
  -9 -12   4   47.57   12.98
   9 -12  -4   64.02   18.55
 -10 -12  -4  280.85   31.09
  10 -12  -4  294.96   33.47
 -10 -12  -4  269.12   33.62
 -10 -12   4  284.13   30.50
  10 -12   4  239.14   34.75
  10 -12  -4  282.29   36.39
  10 -12   4  282.82   34.53
 -11 -12   4  101.30   17.42
 -11 -12  -4   94.45   16.76
  11 -12   4   80.67   18.28
 -11 -12  -4   97.54   18.01
  11 -12  -4  102.52   19.29
  11 -12  -4  111.43   22.18
 -12 -12  -4  280.40   29.61
 -12 -12  -4  307.06   29.49
 -12 -12   4  322.23   29.20
 -12 -12   4  323.83   28.60
  12 -12  -4  319.48   33.82
  12 -12   4  284.24   32.43
 -13 -12  -4   58.05   11.97
 -13 -12   4   56.81   10.63
 -13 -12   4   68.32   12.73
 -13 -12  -4   45.15   10.59
  13 -12  -4   50.14   10.38
  13 -12   4   61.18   13.37
  13 -12  -4   51.12   12.59
  14 -12  -4  203.85   18.82
 -14 -12  -4  245.19   21.03
 -14 -12  -4  215.08   19.80
  14 -12  -4  229.31   22.07
 -14 -12   4  221.47   18.43
 -14 -12   4  245.37   20.77
  14 -12   4  228.28   22.02
   0 -13   4   21.32   17.93
   0 -13   4    2.53    5.74
   0 -13   4    4.04    4.94
   0 -13   4  -11.25   14.64
   0 -13  -4   17.25   13.82
   0 -13   4    3.75    1.84
   0 -13  -4   -1.87    3.58
   0 -13   4   -0.03   13.13
   1 -13   4    7.15    4.55
  -1 -13   4    8.13   10.39
  -1 -13   4    7.89    5.91
   1 -13   4   10.70    8.08
  -1 -13   4    9.04   10.32
   1 -13   4   15.59   20.59
   1 -13  -4   -2.26    2.21
  -1 -13  -4   -0.04    2.81
   1 -13   4   13.23   10.21
  -1 -13   4    0.62   11.25
   1 -13  -4    0.04   12.35
  -1 -13  -4   -7.63    4.37
   1 -13   4   10.80    5.59
   1 -13   4   -5.53    6.18
  -1 -13   4    4.23    9.99
  -2 -13   4   81.89   26.85
  -2 -13   4   61.00   19.35
   2 -13   4   66.97   18.41
   2 -13  -4   44.86   11.73
  -2 -13   4   36.00   15.19
   2 -13   4   64.83   20.30
   2 -13   4   64.90   14.07
   2 -13  -4   52.84   12.04
  -2 -13   4   79.37   16.29
  -2 -13  -4   70.40   14.74
  -2 -13   4   70.74   23.58
   2 -13  -4   64.03   27.28
  -2 -13  -4   66.31   21.36
   2 -13   4   64.47   24.45
   3 -13  -4   52.23   13.85
  -3  13   4   44.59    9.76
  -3 -13   4   69.60   23.16
   3 -13  -4   57.93   13.02
   3 -13   4   67.52   20.16
  -3 -13   4   44.63   15.92
   3 -13   4   15.85   12.03
  -3 -13   4   44.56   12.00
   3 -13   4   55.93   22.04
  -3 -13   4   80.11   23.02
   3 -13  -4   38.27   15.42
  -3 -13  -4   62.41   18.71
  -3 -13  -4   57.84   14.10
  -3 -13   4   43.24   17.03
   3 -13  -4   49.16   12.97
   3 -13   4   57.35   21.25
  -4 -13   4  112.97   23.98
  -4 -13   4   92.18   22.96
  -4 -13  -4  103.57   19.20
   4 -13  -4  114.85   19.97
  -4 -13   4  110.32   25.57
   4 -13   4   96.19   24.50
  -4 -13   4  106.29   19.95
   4 -13   4  107.43   18.13
   4 -13  -4  109.93   25.73
  -4 -13  -4  116.43   21.72
   4 -13   4   98.39   21.58
   4 -13   4  101.67   28.25
  -4  13   4   93.33   17.14
  -5 -13   4  182.49   32.89
   5 -13  -4  190.09   26.43
   5 -13   4  182.51   31.64
   5 -13   4  195.57   40.76
  -5 -13   4  193.16   27.78
  -5 -13  -4  158.83   26.33
  -5 -13   4  217.17   32.83
  -6 -13   4  128.94   28.48
  -6 -13  -4  154.70   26.69
  -6 -13  -4  154.35   26.51
  -6 -13   4  102.92   28.35
   6 -13   4  197.99   40.69
   6 -13  -4  163.76   25.99
   6 -13   4  141.88   28.25
  -6 -13   4  170.21   27.53
  -7 -13   4  176.92   31.12
  -7 -13  -4  172.28   27.46
  -7 -13  -4  132.37   25.49
  -7 -13   4  179.31   26.25
   7 -13  -4  224.24   36.83
   7 -13   4  146.41   31.71
   7 -13  -4  187.04   36.35
   7 -13   4  187.09   38.12
  -8 -13   4   79.08   17.70
   8 -13  -4   91.22   22.91
  -8 -13   4   60.45   13.69
   8 -13   4   65.84   21.71
  -8 -13  -4   57.13   16.62
  -8 -13  -4   56.84   14.61
   8 -13  -4   83.79   20.76
  -9 -13   4   32.59   10.39
  -9 -13   4   36.59   11.14
   9 -13  -4   28.58   11.40
   9 -13  -4   27.11   11.66
  -9 -13  -4   39.80   13.81
   9 -13   4   40.25   14.30
  -9 -13  -4   39.59   13.25
   9 -13   4   33.94   11.83
  10 -13  -4   36.96   11.26
 -10 -13  -4   19.35    7.23
 -10 -13   4   38.15   10.78
 -10 -13  -4   30.71   11.82
  10 -13   4   22.59   10.18
  10 -13   4   46.76   14.71
  10 -13  -4   42.40   14.52
 -11 -13   4    5.45    4.28
 -11 -13  -4   15.38    7.32
 -11 -13  -4    9.05    7.38
  11 -13  -4    7.70    4.87
  11 -13   4    3.66    4.15
  11 -13  -4    2.99    7.00
 -12 -13  -4   13.58    6.27
  12 -13  -4   13.66    7.52
 -12 -13  -4   18.18    7.41
 -12 -13   4   24.96    8.21
  12 -13   4    9.72    4.79
 -13 -13  -4   35.05    7.61
 -13 -13   4   30.99    7.06
 -13 -13   4   16.12    6.67
  13 -13   4   29.51    8.11
  13 -13  -4   33.72    8.78
 -14 -13   4  106.80   11.90
 -14 -13  -4  102.43   12.25
   0 -14   4  434.66   67.72
   0 -14  -4  391.80   34.82
   0 -14   4  411.36   36.14
   0 -14   4  468.18   58.06
   0 -14   4  334.94   39.36
   0 -14   4  364.52   52.80
  -1 -14   4  280.45   44.54
  -1 -14   4  300.30   50.46
   1 -14   4  363.77   69.48
   1 -14   4  277.06   29.55
   1 -14   4  273.79   42.81
   1 -14  -4  258.52   35.71
   1 -14  -4  265.50   27.77
  -1 -14   4  290.10   31.26
  -1 -14  -4  309.80   31.94
   1 -14   4  253.39   37.18
   1 -14   4  284.84   41.30
  -1 -14   4  282.30   49.16
   2 -14   4  102.05   25.84
  -2 -14   4  140.35   33.94
   2 -14   4  108.03   19.25
  -2 -14   4  106.00   25.75
   2 -14  -4  100.86   24.50
  -2 -14   4  117.06   28.09
   2 -14  -4  108.89   21.55
  -2 -14  -4  133.36   21.60
   2 -14  -4  107.53   17.58
   2 -14   4  130.64   28.52
  -2 -14   4  157.25   23.40
  -3 -14   4  194.38   35.85
   3 -14  -4  194.84   24.37
   3 -14   4  200.34   34.27
  -3 -14   4  285.90   33.11
  -3 -14  -4  244.03   30.24
   3 -14  -4  224.97   29.82
   3 -14   4  196.15   36.19
  -3 -14   4  275.17   40.68
   3 -14  -4  235.34   42.54
  -3 -14   4  258.68   43.15
  -4 -14   4   17.70   11.03
  -4 -14   4   20.57   12.89
   4 -14   4   23.65   15.21
  -4 -14   4   20.15    9.69
  -4 -14  -4   13.44    8.61
   4 -14  -4    0.87    7.56
   4 -14  -4   12.34    5.80
   4 -14   4   -2.69    7.44
  -5 -14   4   38.34   13.33
  -5 -14   4   29.08   11.42
  -5 -14   4   27.38   11.10
   5 -14   4   35.52   18.15
   5 -14   4    1.79    7.18
  -5 -14  -4   18.08    9.90
   5 -14  -4   30.37   10.40
   5 -14  -4   22.61    5.90
   6 -14   4    5.97   10.26
  -6 -14   4    8.04    5.62
  -6 -14   4   14.09    7.82
   6 -14   4   28.94   17.26
  -6 -14   4   10.33    7.89
   6 -14  -4   23.26   15.32
  -6 -14  -4    7.93    6.06
   6 -14  -4   15.54    8.21
  -7 -14   4   18.62    8.73
  -7 -14  -4   41.04   13.32
   7 -14  -4   25.79   15.81
   7 -14   4   15.36   13.61
  -7 -14   4   16.51   10.17
  -7 -14  -4   13.43    8.21
   7 -14   4   27.19   15.07
   8 -14   4  115.61   27.59
  -8 -14   4  139.19   21.75
  -8 -14   4   64.43   17.33
  -8 -14  -4   84.00   19.86
  -8 -14  -4  112.60   21.49
   8 -14  -4  142.51   26.84
   8 -14  -4  163.82   29.84
  -8 -14   4  120.32   19.65
  -9 -14   4   48.94   11.91
  -9 -14   4   55.27   15.38
  -9 -14  -4   37.88   13.86
   9 -14  -4   50.41   13.69
   9 -14  -4   49.93   15.26
  -9 -14   4   57.35   13.46
  -9 -14  -4   56.01   13.99
   9 -14   4   45.37   15.29
  10 -14   4  112.93   20.73
 -10 -14   4  124.60   19.64
 -10 -14   4  102.77   15.73
  10 -14   4   82.32   16.24
 -10 -14  -4  124.18   22.02
  10 -14  -4  115.05   20.72
  10 -14  -4   99.53   18.22
 -10 -14  -4  115.43   17.96
 -11 -14   4  154.43   18.87
  11 -14   4  110.70   19.13
 -11 -14  -4  136.78   19.27
 -11 -14   4  123.02   15.71
  11 -14  -4  140.65   20.76
 -11 -14  -4  124.92   17.56
  11 -14  -4  122.99   17.46
 -12 -14   4  118.60   13.71
  12 -14   4   85.46   14.27
 -12 -14  -4  118.20   14.63
 -12 -14   4   86.01   12.52
  12 -14  -4   85.29   13.55
 -12 -14  -4  103.29   13.79
 -13 -14  -4  108.59   12.24
   0 -15   4   -3.85    6.92
   0 -15   4    3.47    4.62
   0 -15   4   -5.99    9.89
   0 -15  -4    4.38    6.42
   0 -15  -4    1.30    3.26
   0 -15   4   -6.66   14.85
   1 -15   4    0.24    9.61
  -1 -15   4    7.33    9.16
  -1 -15   4   -3.55   10.58
  -1 -15   4   11.70   11.43
   1 -15  -4    1.62    6.33
   1 -15   4    4.11    3.66
   1 -15  -4    4.20    3.58
  -1 -15   4    3.94    4.65
  -1 -15  -4   11.60    7.31
   1 -15   4   -1.00    6.53
   1 -15   4   -7.71    9.53
  -2 -15   4  140.70   34.41
  -2 -15  -4  143.93   22.59
   2 -15   4  129.51   30.44
  -2 -15   4  139.79   31.80
   2 -15   4  147.27   21.08
  -2 -15   4  148.03   23.25
  -2 -15   4  121.94   29.38
   2 -15  -4  108.65   25.56
   2 -15  -4  148.11   25.55
   2 -15  -4  127.68   18.62
   2 -15   4  125.26   27.24
  -3 -15   4   -2.58    8.89
  -3 -15   4   13.64   13.68
   3 -15   4    5.41   10.77
   3 -15  -4    6.57    6.69
  -3 -15   4    0.11    4.58
  -3 -15  -4    0.81    4.66
  -3 -15   4    6.20    5.06
   3 -15   4    7.89   11.10
   3 -15  -4    7.75    8.49
  -4 -15  -4  365.07   40.31
   4 -15   4  297.01   42.51
   4 -15  -4  358.99   35.34
  -4 -15   4  377.10   40.10
  -4 -15   4  306.80   42.17
   4 -15   4  320.68   51.22
   4 -15  -4  299.31   52.63
  -4 -15   4  400.13   47.16
   5 -15   4   21.44   13.42
  -5 -15   4   27.70   10.47
   5 -15   4   45.61   18.97
   5 -15  -4   13.99    5.44
  -5 -15   4   15.68    8.52
  -5 -15  -4   16.49    9.11
   6 -15   4  435.14   48.66
  -6 -15   4  490.67   48.94
  -6 -15  -4  456.98   48.55
   6 -15   4  620.96   73.23
   6 -15  -4  606.80   76.39
  -6 -15   4  607.52   48.84
  -7 -15   4   18.39    8.19
  -7 -15  -4   44.29   11.42
  -7 -15  -4   17.80    9.32
  -7 -15   4   11.93    7.32
   7 -15   4   15.30    6.82
   7 -15   4   15.50    6.62
   7 -15  -4   48.97   20.53
  -8 -15  -4  281.37   31.29
  -8 -15   4  194.76   27.95
  -8 -15  -4  232.04   32.81
   8 -15   4  226.91   35.89
   8 -15  -4  285.69   40.20
  -8 -15   4  207.91   24.12
  -9 -15   4    4.90    3.48
  -9 -15  -4    9.32    6.84
  -9 -15   4    4.76    4.05
  -9 -15  -4    9.47    6.02
   9 -15  -4   -1.74    5.81
   9 -15   4    0.97    4.57
  10 -15  -4   57.58   12.95
 -10 -15   4   50.78   10.30
  10 -15   4   48.99   12.14
 -10 -15  -4   65.46   12.22
 -10 -15  -4   58.66   12.29
 -10 -15   4   59.21   12.38
  10 -15  -4   60.06   13.80
 -11 -15   4   10.47    4.66
 -11 -15  -4    0.46    2.19
 -11 -15   4    3.94    3.72
 -11 -15  -4   11.49    4.37
  11 -15  -4    2.87    2.78
  11 -15  -4   11.46    5.37
   0 -16   4   -1.78    4.29
   0 -16   4   26.49   14.73
   0 -16  -4    4.22    3.44
   0 -16  -4    2.39    5.51
   0 -16   4    7.60    6.46
   0 -16   4    9.39   12.38
  -1 -16   4  182.28   36.21
  -1 -16  -4  251.57   28.64
   1 -16  -4  230.87   25.42
   1 -16   4  278.54   48.92
  -1 -16   4  241.80   45.16
  -1 -16  -4  163.58   34.88
   1 -16   4  235.26   26.50
   1 -16  -4  247.70   35.76
  -1 -16   4  305.58   52.80
  -1 -16   4  255.34   29.43
   1 -16   4  222.60   30.70
  -2 -16   4   -7.20   10.85
  -2 -16   4   -4.28    4.65
   2 -16  -4   -1.70    5.06
   2 -16   4  -24.55   19.23
  -2 -16  -4    3.98    6.33
  -2 -16   4   -3.06    5.40
  -2 -16   4   -2.33    7.57
   2 -16  -4  -10.57   10.65
   2 -16   4  -11.66    9.81
  -2 -16  -4    2.72    5.07
  -3 -16   4  194.43   34.25
   3 -16  -4  151.49   24.21
  -3 -16   4  220.16   34.09
  -3 -16   4  159.13   24.93
   3 -16  -4  137.41   31.50
  -3 -16  -4  125.17   28.22
   3 -16   4  141.83   30.66
   3 -16   4  144.54   30.33
  -3 -16  -4  156.45   25.16
  -4 -16   4   14.55   11.31
   4 -16  -4    7.76    4.97
  -4 -16   4    1.55    4.82
   4 -16   4    2.33    9.63
   4 -16   4   23.87   17.35
  -4 -16  -4   13.23    8.41
  -4 -16  -4   16.98    9.25
   4 -16  -4    2.89    9.55
  -5 -16   4   38.70   12.32
   5 -16   4   17.06   15.83
  -5 -16  -4   37.15   12.55
   5 -16  -4   15.93   16.53
  -5 -16   4   23.17   10.18
  -5 -16  -4   12.96    5.94
   5 -16   4   46.24   21.30
  -6 -16   4    3.28    4.59
   6 -16   4  -16.46   12.79
   6 -16  -4   -4.28   14.83
  -6 -16  -4   12.13    7.88
   6 -16   4   -1.17    7.51
  -6 -16   4   -1.30    5.17
  -6 -16  -4    0.14    3.95
   7 -16   4   35.34   14.25
  -7 -16   4   36.85   10.74
  -7 -16  -4   44.45   10.23
  -7 -16   4   33.69   11.57
   7 -16  -4   42.76   18.44
  -7 -16  -4   30.25   11.75
  -8 -16   4    0.14    2.19
  -8 -16   4    6.38    6.00
  -8 -16  -4   -3.97    4.74
   8 -16  -4   -6.88    6.66
   8 -16   4    0.67    7.45
  -9 -16  -4  149.64   18.32
  -9 -16   4  129.22   17.42
  -9 -16  -4  148.10   19.99
   9 -16   4  133.17   22.58
   9 -16  -4  133.26   20.64
  10 -16  -4   -0.83    2.97
 -10 -16  -4    1.32    1.83
   0 -17   4    5.51    3.64
   0 -17  -4    0.39    5.68
   0 -17  -4   -3.50    2.61
  -1 -17   4   -2.54    7.58
  -1 -17   4   -3.98    6.21
  -1 -17   4  -13.85   14.24
  -1 -17  -4    9.92    5.83
  -1 -17  -4    6.46    7.03
   1 -17   4  -24.56   19.60
   1 -17   4   -5.25    2.98
   1 -17  -4   10.61    8.51
  -2 -17   4   96.59   27.15
   2 -17  -4   80.34   19.01
   2 -17   4   84.46   20.41
  -2 -17   4  158.18   32.95
  -2 -17  -4   53.04   19.37
  -2 -17   4   74.10   15.75
  -2 -17  -4   82.73   16.59
   2 -17  -4   92.53   19.74
   2 -17   4   82.67   31.15
   3 -17  -4   54.19   18.84
  -3 -17   4   29.04   14.60
  -3 -17   4   15.33    6.79
   3 -17   4   19.28   12.41
  -3 -17   4   30.20   14.55
  -3 -17  -4   30.09   12.93
   3 -17   4   24.18   16.98
  -3 -17  -4   16.47    6.90
   3 -17  -4   17.76    8.26
   4 -17   4  177.43   34.41
   4 -17  -4  184.89   40.41
  -4 -17   4  132.30   22.67
  -4 -17  -4  239.84   33.03
   4 -17   4  161.54   31.98
   4 -17  -4  185.34   23.47
  -4 -17  -4  148.18   24.38
  -4 -17   4  254.18   34.35
  -5 -17   4    6.56    5.43
  -5 -17   4    4.91    2.07
   5 -17   4   -3.38    9.22
  -5 -17  -4    6.24    4.52
  -5 -17  -4   11.29    5.83
   5 -17  -4    2.14   10.50
   5 -17   4    1.21    9.73
  -6 -17   4  174.91   24.12
  -6 -17  -4  264.07   31.98
   6 -17  -4  423.46   62.45
  -6 -17  -4  435.70   32.89
   6 -17   4  331.87   52.19
  -6 -17   4  326.29   29.63
  -7 -17   4   18.61    6.71
  -7 -17  -4   17.15    7.23
  -7 -17  -4   25.99    6.81
   7 -17  -4    8.83    4.32
  -7 -17   4   17.40    7.11
  -8 -17  -4  171.32   19.36
  -8 -17   4  181.01   18.43
   8 -17   4  164.05   26.62
   8 -17  -4  181.64   27.76
   0 -18   4   72.44   28.26
   0 -18  -4   84.04   22.67
   1 -18  -4  148.17   27.67
   1 -18   4  129.68   35.28
  -1 -18  -4   62.45   20.23
  -1 -18   4  181.95   40.81
   2 -18   4   32.18   18.59
   2 -18   4   40.31   13.97
   2 -18  -4   71.75   18.16
  -2 -18  -4   50.56   15.58
  -2 -18   4   92.12   26.44
  -2 -18  -4   23.93    8.87
   3 -18  -4  115.29   19.38
  -3 -18  -4   60.68   14.65
  -3 -18  -4  181.72   30.10
   3 -18   4  128.70   30.25
   3 -18   4  114.93   24.11
  -3 -18   4  170.01   28.43
  -3 -18   4   60.26   15.38
   3 -18  -4   96.74   24.38
  -4 -18  -4   61.34   15.35
   4 -18   4   41.59   14.34
  -4 -18  -4   24.01    9.39
  -4 -18   4   11.24    5.85
   4 -18  -4   29.46   13.67
   4 -18   4   43.67   19.78
   5 -18  -4   44.42   22.89
   5 -18   4   18.92   13.89
  -5 -18  -4   25.65    8.68
  -5 -18   4   10.88    6.21
  -5 -18  -4   24.56    7.78
   6 -18   4   28.66   16.57
   6 -18  -4    3.07   13.25
   0 -19  -4    0.79    7.25
   0 -19   4  -16.89   14.36
   1 -19   4   -2.39   25.46
   1 -19  -4   -7.79    9.73
  -1 -19  -4   -0.19    5.09
  -2 -19  -4   51.93   18.50
   2 -19   4   43.18   33.33
   0   0  -5   14.04    3.44
   0   0   5    5.92    3.18
   0   0  -5   13.97    7.56
  -1   0  -5    9.69    7.29
  -1   0   5   12.06    4.48
   1   0  -5    9.74    7.29
  -1   0   5    7.81    3.92
  -1   0  -5    4.08    2.25
  -2   0   5   21.09    9.90
   2   0  -5   22.30    4.76
  -2   0  -5   17.47    7.38
  -2   0   5   25.57    7.86
   2   0  -5   19.49    9.19
  -3   0  -5    3.91    1.70
   3   0   5    2.12    3.51
   3   0  -5    1.99    2.95
   3   0  -5   -0.81    2.20
  -3   0  -5    5.58    3.88
   4   0  -5   10.48    4.09
  -4   0   5   15.32    9.93
   4   0  -5   22.04    9.09
   4   0   5    6.79    4.26
  -4   0   5    9.46    3.29
  -5   0   5   18.11    6.21
  -5   0   5    1.28    7.62
   5   0  -5    9.61    4.46
   5   0  -5   -4.25    6.64
  -5   0  -5    4.52    3.50
   6   0  -5  166.65   18.31
  -6   0  -5  177.32   17.23
  -7   0   5    1.59    4.85
   7   0   5    3.54    5.85
  -7   0   5    3.49    4.17
   7   0  -5    4.33    3.77
  -8   0   5   26.07   10.14
  -8   0   5   15.36    8.60
  -8   0   5   12.26    5.74
   8   0   5   46.80   11.76
   8   0  -5   29.38    8.73
  -9   0   5   -1.49    5.31
  -9   0   5    0.75    4.25
   9   0   5   -1.54    1.56
 -10   0   5  102.40   20.03
 -10   0   5   93.31   17.55
  10   0   5   82.00   15.00
  11   0   5    3.23    4.77
 -11   0   5    3.17    2.88
  12   0   5   59.83   12.92
 -12   0  -5   51.44   13.84
 -12   0   5   56.27   14.91
  13   0   5    5.04    6.16
  13   0   5    2.65    2.90
 -13   0  -5   -1.00    4.21
 -13   0   5   -3.50    3.56
  13   0  -5    2.47    2.99
  14   0   5   16.19    8.68
  14   0  -5    5.49    2.23
 -14   0   5   -4.33    8.25
  14   0   5    9.53    6.57
  15   0   5   -5.47    5.79
  15   0   5   -0.55    3.56
  15   0  -5    2.50    3.88
  16   0   5    9.09    5.44
 -16   0   5   11.82    6.86
  16   0  -5    9.70    2.90
  17   0  -5   -5.74    4.65
  17   0  -5   -0.11    2.50
 -17   0   5    2.40    3.96
  17   0   5   -3.75    3.28
  18   0  -5    5.05    4.27
  18   0   5    2.17    2.80
   0  -1   5  439.94   18.35
   0   1   5  360.71   18.39
   0  -1  -5  417.19   39.09
   0  -1   5  422.99   17.13
   0   1  -5  451.78   32.96
   0   1  -5  392.68   37.44
   1   1   5 4038.85  121.21
   1  -1  -5 4043.25  125.52
  -1  -1   5 3804.94   60.92
   1  -1  -5 3911.13   62.68
   1   1  -5 3818.28   60.42
  -1   1  -5 4142.31   91.68
  -1  -1  -5 4175.05   61.06
  -1   1  -5 3603.26   62.74
  -1  -1  -5 4342.90  122.87
  -1   1   5 4235.29   89.22
  -1   1  -5 4508.49  119.64
  -1  -1   5 4487.73   87.96
   2  -1  -5  162.22   26.85
   2   1   5  164.69   24.81
   2   1  -5  181.72   13.55
  -2   1  -5  185.97   22.30
   2  -1  -5  163.56   13.86
  -2  -1   5  155.15   22.44
   2  -1   5  156.21   18.21
  -2  -1   5  143.66   18.93
  -2  -1   5  178.75   12.38
  -2  -1  -5  162.75   23.89
   3  -1  -5 1532.22   91.76
   3   1   5 1569.32   79.27
  -3  -1   5 1306.57   91.75
  -3  -1  -5 1859.94   46.90
   3  -1  -5 1571.68   47.32
   3   1  -5 1830.03   57.52
   3  -1  -5 1647.59   67.08
   3  -1   5 1643.74   65.18
  -3  -1   5 1812.57   40.18
   3  -1   5 1689.52   39.29
   3   1  -5 1727.71   45.33
  -3   1  -5 1702.84   62.72
   3  -1   5 1324.32   65.84
  -4  -1  -5  167.07   15.75
  -4   1   5  130.74   25.59
   4  -1  -5  150.54   16.11
   4   1   5  145.68   25.66
  -4  -1   5   86.94   30.06
  -4   1   5  164.52   12.87
   4  -1   5  125.61   12.14
   4   1  -5  152.25   21.09
   4  -1  -5  148.74   22.84
   4  -1   5  128.98   19.35
  -4  -1  -5  152.47   11.85
   4   1  -5  157.70   14.85
   5  -1  -5    8.14    4.31
   5   1  -5    8.15    3.87
   5  -1   5   11.01    5.82
   5  -1   5   17.51    5.05
  -5  -1  -5   16.11    4.34
  -5   1   5   17.58    5.59
  -5  -1  -5   16.85    5.63
  -6   1   5   37.01    8.92
   6  -1  -5   29.21    8.74
   6   1  -5   41.55    9.33
   6  -1   5   34.17    7.45
   6  -1   5   38.29   11.37
  -6  -1  -5   34.69    8.56
   7  -1   5  463.77   41.16
  -7  -1  -5  394.40   28.02
   7   1  -5  418.85   30.55
  -7  -1   5  382.84   34.81
  -7   1   5  311.43   32.56
   7   1   5  399.95   35.52
   7  -1  -5  384.07   30.26
  -8  -1   5   -0.74    4.91
   8  -1  -5    4.33    2.68
   8   1  -5    8.20    5.61
  -8   1   5    8.09    7.22
   8   1   5   10.21    4.86
   8  -1   5    4.41    5.14
   9  -1   5  749.66   48.79
  -9  -1   5  684.96   50.84
  -9   1   5  662.45   51.74
   9   1  -5  491.60   38.60
  -9   1   5  511.87   48.42
   9   1   5  682.63   43.32
 -10   1   5   38.26   12.36
  10   1   5   23.31    7.55
 -10  -1   5   27.62    9.72
 -10   1   5   29.63   11.11
  10  -1   5   30.94   12.04
 -11  -1   5 1686.93   80.86
 -11   1   5 1753.55   82.81
 -11   1   5 1911.09   79.44
 -11  -1  -5 1682.78   72.77
  11  -1   5 1739.02   72.74
  11   1   5 1636.83   67.63
 -12   1  -5    8.59    7.55
  12   1   5   19.24    7.54
  12  -1   5   20.10    8.77
  12  -1  -5   16.49    7.17
 -12  -1  -5   17.15    8.21
 -12  -1   5   24.65   10.10
  13   1   5 2113.30   91.46
 -13   1  -5 1948.75   82.22
 -13  -1  -5 2163.57   84.43
  13  -1  -5 1978.75   87.83
  13  -1   5 2069.14   91.02
  13  -1   5 2131.67   88.68
  13   1  -5 2159.08   89.79
 -13  -1   5 2084.58   86.06
 -13  -1   5 1945.15   85.84
  14   1   5   33.67    9.85
  14  -1   5   41.20   12.10
  14   1  -5   40.29   12.63
  14  -1  -5   42.53   12.65
  14  -1   5   39.54   12.07
 -14  -1   5   34.15   12.08
 -14   1   5   56.53   14.49
  15   1   5  267.36   30.44
  15  -1   5  212.06   29.38
  15   1  -5  185.11   29.70
  15  -1  -5  233.43   29.34
  15  -1   5  249.60   28.61
 -15   1   5  247.83   28.13
 -15  -1   5  222.22   27.24
  16   1   5    9.13    3.49
  16  -1   5    5.57    4.67
  16   1  -5   10.62    5.94
  16  -1  -5   -2.44    3.16
 -16   1   5    5.22    4.46
 -16  -1   5    2.60    3.40
  16  -1   5    0.15    3.96
  17  -1  -5    3.15    4.29
 -17   1   5   -0.83    3.62
  17   1  -5   11.95    5.80
  17  -1  -5    5.61    3.83
  17  -1   5   14.14    7.08
 -17  -1   5   17.29    6.68
  17  -1   5   11.11    5.94
  17   1   5    3.82    3.81
  18   1  -5    3.57    2.95
  18  -1  -5    5.99    3.19
  18  -1   5    2.86    2.91
  18   1   5    3.40    2.28
   0   2  -5    5.52    4.04
   0  -2   5    1.65    1.02
   0   2  -5    2.25    2.90
   0  -2   5    5.31    2.83
   0  -2  -5    5.19    4.62
   0   2   5    1.46    2.92
   1  -2   5   45.79    7.77
  -1   2  -5   61.74   14.05
   1  -2  -5   64.41    7.34
   1  -2  -5   62.53   16.16
   1   2   5   55.77    7.28
  -1   2  -5   51.23    9.45
  -1  -2   5   60.41    6.91
   1  -2   5   60.11    7.13
  -1  -2   5   58.57    7.33
   1  -2  -5   55.31    8.07
   1   2  -5   52.02    7.11
  -1  -2  -5   51.89   14.02
  -1   2  -5   54.95   11.81
   1   2   5   56.04   14.54
   1  -2   5   47.30    6.57
  -2  -2   5    1.67    1.01
   2   2  -5    0.72    1.67
  -2  -2  -5    0.77    1.10
   2   2   5   -1.70    3.93
   2  -2  -5    1.02    2.30
   2  -2   5    3.34    2.60
  -2   2   5    0.79    3.65
   2  -2   5    8.83    5.12
  -2  -2  -5   -0.31    1.59
  -2   2  -5   -2.11    3.05
   2  -2   5   -0.45    1.68
   2  -2  -5   -3.58    6.16
  -2  -2   5    2.06    1.45
   2  -2  -5   -0.75    1.72
  -3  -2   5  171.76   28.56
  -3  -2   5  175.39   13.56
  -3  -2  -5  197.27   17.51
  -3  -2  -5  231.67   14.91
  -3   2   5  228.23   29.52
   3   2   5  190.47   29.82
   3  -2  -5  180.74   17.60
   3   2  -5  189.77   14.90
   3   2  -5  218.38   17.60
   3  -2  -5  169.22   23.28
   3  -2   5  204.59   25.33
   3  -2  -5  147.08   27.66
   3  -2   5  156.22   35.37
  -3   2  -5  206.65   20.49
   3  -2   5  199.30   14.43
   3  -2   5  164.73   18.25
   4   2  -5  216.01   17.02
  -4  -2  -5  159.32   17.79
  -4  -2   5  161.25   34.74
   4   2   5  246.09   35.83
  -4  -2  -5  184.93   14.08
  -4   2  -5  200.37   19.20
  -4  -2  -5  239.39   15.23
  -4  -2  -5  196.33   29.62
   4  -2  -5  207.39   28.41
   4  -2   5  190.86   26.26
   4  -2   5  181.80   47.26
   4  -2   5  193.21   15.57
   4  -2  -5  184.00   18.94
  -4   2   5  218.77   15.30
  -5  -2  -5  929.82   34.90
  -5   2   5 1033.62   40.34
  -5   2  -5 1056.66   48.80
   5   2  -5 1022.07   40.83
  -5  -2  -5  988.69   42.48
   5  -2   5 1000.67   38.24
   5  -2  -5  990.93   46.19
  -6  -2   5   43.40   11.27
  -6  -2  -5   50.57   10.06
   6   2  -5   49.14    9.44
  -6  -2  -5   52.71    8.91
   6  -2  -5   43.33   10.26
  -6   2   5   63.41   10.98
   6  -2   5   41.07    8.54
  -6   2  -5   67.79   12.59
   6  -2   5   32.62   11.94
   7   2  -5  749.03   40.23
  -7  -2  -5  706.05   39.91
   7  -2   5  771.48   56.48
  -7   2  -5  817.74   44.88
  -7  -2   5  654.47   46.37
   7  -2  -5  723.19   43.99
  -7   2   5  713.17   45.83
   7  -2   5  687.18   37.92
   8   2   5   55.87   13.78
   8  -2   5   96.90   18.93
  -8   2   5   68.79   17.83
  -8  -2   5   86.70   17.86
   8  -2  -5   59.76   12.73
  -8   2  -5   81.50   14.57
  -9  -2   5  120.36   20.58
   9   2   5  122.66   18.89
  -9  -2  -5  116.89   18.95
   9  -2   5  162.57   24.44
  -9   2   5  105.79   21.76
 -10  -2  -5   13.60    5.04
  10  -2   5    1.56    3.02
 -10   2   5    2.03    4.79
 -10  -2   5    0.27    5.39
 -10   2   5   -0.04    7.67
  10   2   5    3.06    4.06
  10  -2  -5    8.42    6.16
 -11   2   5   39.44   13.91
 -11  -2   5   33.75   10.99
  11  -2   5   27.01    8.62
 -11  -2  -5   26.52   10.38
  11   2   5   27.48    9.07
  11  -2  -5   46.70   13.68
  12  -2   5   28.55    9.55
 -12   2   5   38.83   12.65
  12   2   5   33.88    9.41
 -12  -2   5   44.89   13.46
  12  -2  -5   50.58   14.40
 -12  -2  -5   44.46   11.66
  13   2   5  183.00   26.88
 -13  -2  -5  217.90   26.55
 -13   2  -5  169.54   24.49
  13  -2   5  198.67   28.52
  13  -2   5  210.33   27.67
 -13  -2   5  212.36   28.47
 -13   2   5  193.50   26.53
  13  -2  -5  206.91   28.65
 -13  -2   5  207.11   26.62
  14   2   5    0.34    5.55
  14  -2   5   -7.60    6.04
  14  -2  -5   -7.91    8.99
 -14  -2   5    6.36    5.96
 -14   2   5    8.95    7.39
  15   2   5  375.68   35.27
  15  -2   5  313.00   32.23
  15  -2  -5  357.98   35.62
  15  -2   5  314.49   33.44
 -15   2   5  343.15   33.00
 -15  -2   5  309.72   31.90
  16  -2   5   10.68    5.52
  16   2   5    9.58    6.36
  16   2  -5    2.69    2.40
  16  -2   5    5.72    4.37
  16  -2  -5   -6.10    6.05
 -16   2   5   12.88    5.08
 -16  -2   5   11.72    6.30
  17  -2   5  261.98   24.17
  17   2  -5  293.47   26.61
  17  -2   5  233.44   24.83
  17  -2  -5  298.56   26.65
 -17  -2   5  251.31   23.49
  17  -2  -5  283.35   26.41
 -17   2   5  300.32   25.75
  17   2   5  278.15   26.02
  18   2  -5   17.54    6.43
  18  -2   5    5.75    2.18
 -18  -2   5    8.93    3.80
  18  -2   5    0.82    1.88
  18   2   5   13.45    5.47
  18  -2  -5   12.44    5.49
   0  -3  -5  168.95   16.48
   0  -3   5  183.40   13.37
   0  -3  -5  195.26   12.73
   0  -3   5  184.01   12.79
   0  -3  -5  159.82   16.25
   0   3   5  165.51   26.92
   0   3   5  163.84   22.04
   0   3  -5  182.91   24.88
   0  -3  -5  158.10   26.10
  -1  -3  -5  849.36   30.32
  -1  -3  -5  768.70   35.70
  -1  -3  -5  810.14   60.08
   1  -3  -5  781.13   38.44
   1  -3   5  843.42   28.40
   1   3   5  920.04   40.32
   1  -3  -5  849.95   28.37
   1  -3   5  822.59   26.96
  -1   3   5  708.69   46.10
   1  -3   5  783.81   23.29
   1   3  -5  813.45   55.01
  -1   3  -5  823.40   52.22
  -1  -3   5  797.53   28.57
   1  -3   5  819.94   28.64
   1   3   5  840.35   61.92
   1  -3  -5  687.55   55.12
  -1  -3   5  819.99   27.54
   2  -3   5    0.87    1.32
  -2  -3  -5    2.46    1.67
   2  -3  -5    3.76    1.50
   2   3  -5    4.32    8.35
  -2  -3   5    8.17    3.24
  -2   3  -5    2.13    1.98
   2  -3  -5    5.44    3.80
   2   3  -5    2.68    1.73
  -2   3   5    3.20    4.57
   2  -3  -5    6.56    5.78
  -2  -3   5    1.39    1.81
   2  -3   5    3.42    1.51
   2  -3   5   -0.11    1.22
   2   3   5    7.53    4.18
   3  -3  -5  371.96   28.88
  -3  -3   5  354.02   40.85
  -3  -3   5  368.03   32.58
  -3  -3  -5  379.47   20.89
   3  -3   5  395.06   37.41
   3  -3   5  369.70   20.88
   3   3  -5  409.58   21.82
  -3  -3  -5  404.83   21.58
   3  -3   5  370.43   25.23
  -4   3  -5   17.40    6.34
  -4   3   5   13.11    4.18
   4   3  -5   14.88    4.64
  -4  -3   5    3.87    3.11
  -4  -3  -5    8.61    3.69
  -4  -3  -5    9.18    3.37
   4  -3  -5   11.91    5.57
   4  -3   5   15.06    5.48
   4  -3   5   11.70    6.81
  -4  -3  -5   11.16    5.23
  -5  -3  -5   66.66   11.69
  -5   3  -5  108.30   17.36
   5  -3   5   58.77   14.22
   5  -3  -5   83.06   13.58
  -5  -3  -5   66.06    9.66
   5   3  -5   75.86   10.66
   5  -3  -5   70.46   13.33
   5  -3   5   66.38   10.06
  -5  -3   5   74.24   14.83
  -5   3   5   75.47   10.34
  -6  -3  -5   20.88    6.16
  -6  -3  -5   28.32   10.37
   6   3  -5   28.67    7.25
  -6   3   5    6.40    6.86
   6  -3   5   22.89    9.46
  -6  -3  -5   26.87    7.39
   6  -3  -5   13.99    5.86
   6  -3   5   13.56    6.45
   6  -3  -5   17.27    5.30
  -6  -3   5   22.30    9.14
  -6   3  -5   39.49   11.19
  -7  -3  -5  316.50   25.74
  -7  -3   5  323.42   31.48
  -7   3  -5  405.69   33.84
   7  -3  -5  302.77   28.86
  -7  -3  -5  292.35   26.83
  -7   3   5  330.23   29.31
   7  -3   5  341.24   28.03
   7  -3   5  266.21   34.81
  -7  -3  -5  402.36   32.39
   7  -3  -5  225.59   28.78
  -8  -3  -5   15.95    7.40
   8  -3  -5   14.13    8.54
  -8  -3  -5   14.39    5.80
   8  -3   5   22.99   11.18
   8  -3   5   14.42    7.55
  -8  -3   5   15.00    7.90
  -8   3  -5   16.32    7.08
  -8   3   5    5.07    5.09
  -8  -3  -5    9.44    3.93
  -9  -3   5  244.82   29.02
  -9  -3  -5  253.75   26.61
  -9   3  -5  275.33   27.96
   9  -3   5  286.69   35.20
   9  -3   5  238.91   26.66
   9  -3  -5  240.92   33.20
  -9   3   5  215.62   31.78
   9   3   5  194.08   24.85
  10  -3   5   12.98    9.50
 -10  -3  -5    3.05    1.85
 -10   3   5    5.40    6.61
 -10  -3   5    0.11    3.46
  10  -3  -5    4.85    6.24
 -10   3   5    8.23    7.23
  10   3   5    7.73    5.42
 -10   3  -5    8.77    6.49
  11  -3   5  709.43   50.72
 -11  -3   5  754.43   52.42
  11  -3  -5  845.25   59.77
 -11  -3  -5  756.14   47.37
 -11   3   5  732.08   59.44
  11   3   5  723.09   46.79
 -12   3   5    4.23    6.63
  12  -3   5   16.57    7.50
 -12  -3  -5   11.75    4.29
  12   3   5    8.51    3.90
 -12  -3   5   10.11    6.87
  13   3   5  765.12   54.36
 -13  -3  -5  816.49   51.40
 -13  -3   5  833.18   54.83
 -13   3   5  775.73   53.44
  13  -3  -5  809.98   56.61
  13  -3   5  753.37   53.97
 -13  -3   5  711.37   52.73
  14  -3  -5  136.73   22.71
  14   3   5  133.53   21.94
  14  -3   5  116.55   20.13
 -14  -3   5  123.26   21.55
  15   3   5  122.73   19.57
  15  -3   5   70.40   18.41
  15  -3  -5   66.84   19.30
 -15  -3   5  114.08   18.94
  16   3  -5    3.64    4.85
  16  -3   5   -6.74    4.55
  16  -3  -5    6.99    4.21
  16   3   5    6.27    5.11
 -16  -3   5   -4.37    6.71
  17  -3   5   12.19    5.98
  17  -3  -5    2.63    3.86
  17   3  -5   15.58    6.81
  17  -3  -5    6.57    4.26
  17  -3  -5    9.60    5.50
 -17  -3   5    9.79    3.72
  17   3   5    3.94    3.03
 -18  -3   5   -5.43    3.64
  18  -3  -5    7.55    3.46
  18  -3   5    5.84    3.56
  18   3  -5   -3.18    3.99
  18   3   5   -1.22    2.64
   0  -4  -5    0.32    2.25
   0   4  -5    4.08    3.31
   0  -4   5    3.96    3.17
   0  -4   5    1.48    2.29
   0  -4   5   -0.17    3.17
   0  -4  -5    3.93    3.27
   1  -4   5   19.11    4.36
   1  -4  -5   26.43    5.35
  -1   4  -5   22.16    8.36
  -1  -4  -5   20.10    5.22
   1  -4   5   20.84    4.90
   1   4   5   17.02    6.30
  -1  -4   5   26.77    5.13
   1   4  -5   19.66    9.81
   1  -4  -5   27.78    9.63
   1  -4   5   21.53    5.31
   1  -4   5   21.95    9.46
  -1  -4   5   21.52    9.33
  -1  -4   5   20.10    5.12
  -1  -4  -5   14.49    6.50
   1  -4  -5   17.53    6.24
   2  -4  -5   31.99    9.60
   2   4  -5   27.82    5.50
   2   4  -5   31.21   11.97
   2  -4   5   23.23    5.35
  -2  -4  -5   25.96    6.06
  -2  -4   5   25.26    9.69
   2  -4  -5   25.11    8.11
  -2  -4   5   21.05    9.91
  -2  -4   5   31.47    6.32
   2  -4   5   20.36    5.69
   2  -4  -5   23.67    5.26
  -2  -4   5   22.52    4.72
   3  -4  -5 1085.80   58.64
  -3  -4  -5  951.80   35.31
  -3  -4   5 1081.32   66.01
   3  -4   5  934.34   39.29
   3  -4   5  933.43   36.03
   3   4  -5  939.29   33.42
  -3  -4  -5  999.68   37.00
   4  -4  -5   36.27    7.57
   4  -4   5   45.91   10.14
  -4  -4  -5   45.82    8.16
   4   4  -5   47.75    7.62
   4  -4  -5   42.36   11.96
   4  -4   5   41.61    8.13
  -4  -4  -5   41.05    9.18
  -4  -4   5   46.20   13.17
  -5  -4  -5 2045.72   67.90
  -5  -4  -5 2215.67   62.18
   5  -4  -5 2436.10   85.48
  -5  -4   5 2462.32   89.35
  -5   4  -5 2893.52   99.07
   5  -4   5 2158.06   81.83
   5   4  -5 2553.46   61.65
   5  -4  -5 2212.33   68.99
   5  -4   5 2373.71   65.25
  -5  -4  -5 2694.34   92.55
  -5   4   5 2122.61   54.93
  -6  -4  -5   48.46   12.72
  -6   4  -5   51.40   12.06
  -6  -4  -5   32.60    8.38
  -6  -4  -5   40.30    9.33
  -6  -4   5   41.10   11.34
   6  -4   5   30.07   11.76
   6  -4  -5   41.04   11.46
   6  -4   5   46.59    9.97
  -6   4   5   21.83    7.84
   6  -4  -5   41.25   10.36
   7  -4  -5 1648.46   78.17
  -7  -4  -5 3052.92   94.44
  -7  -4   5 2171.75   83.18
   7  -4   5 2194.34   73.25
  -7  -4  -5 1919.15   67.96
  -7   4  -5 2746.01   93.78
  -7  -4  -5 2201.63   74.19
  -7   4   5 2301.04   74.85
   7  -4   5 1526.53   85.80
  -8  -4  -5   14.88    6.00
   8  -4   5   11.67    7.90
  -8  -4  -5    9.11    4.77
  -8  -4   5   12.78    6.97
  -8   4   5   11.39    6.02
  -8  -4  -5   11.60    5.42
   8  -4   5   12.35    7.95
  -8   4  -5   17.78    7.71
   8  -4  -5    4.08    3.60
  -9  -4   5  516.60   41.31
  -9   4  -5  561.52   41.69
   9  -4   5  568.84   52.85
  -9   4   5  446.00   43.66
   9  -4   5  544.97   41.75
  -9  -4  -5  601.65   41.40
  -9  -4  -5  547.45   40.06
  -9  -4  -5  527.01   38.06
  10   4   5    2.79    3.37
 -10   4   5    8.08    4.79
 -10  -4  -5   11.11    4.80
  10  -4  -5   11.99    8.10
 -10  -4   5   11.10    5.29
  10  -4   5   11.84    6.29
 -10  -4  -5   16.11    6.52
  10  -4   5   16.66    6.96
 -10   4  -5   10.58    5.37
  11   4   5   67.50   14.68
 -11  -4  -5   90.45   16.36
  11  -4   5   89.61   19.02
 -11  -4   5   77.78   16.73
 -11   4   5   80.10   20.23
  11  -4  -5   85.12   18.95
  12   4   5   61.61   15.13
 -12   4   5   63.19   17.35
  12  -4   5   47.62   13.21
  12  -4   5   36.31   12.12
 -12  -4   5   64.87   14.96
 -12  -4   5   15.49    5.84
 -12  -4  -5   45.82   11.78
  12  -4  -5   48.79   14.84
 -12  -4   5   57.08   14.22
  13  -4  -5  189.40   29.30
  13  -4   5  226.25   29.21
  13   4   5  190.11   26.64
 -13  -4  -5  188.00   24.36
 -13  -4   5  193.45   27.39
  13  -4   5  191.66   27.60
  14   4   5   14.13    7.55
  14  -4   5   -4.15    6.14
  14  -4  -5   -6.25    5.96
 -14  -4   5   -2.02    4.34
  15   4  -5  585.22   45.07
  15  -4   5  501.96   41.27
  15   4   5  524.01   40.36
  15  -4  -5  505.53   45.31
 -15  -4   5  543.73   42.47
  16  -4   5    1.71    3.36
  16   4  -5    5.49    2.63
  16  -4  -5  -10.99    8.00
 -16  -4   5   -2.37    6.21
  16   4   5   -5.90    5.32
  17  -4  -5  447.37   30.84
  17   4   5  480.38   32.93
  17   4  -5  530.77   34.47
  17  -4   5  420.01   32.40
 -17  -4   5  418.95   30.58
  18  -4  -5    2.57    1.64
  18   4  -5    0.78    1.41
  18  -4   5    2.14    2.94
 -18  -4   5   -1.00    1.95
  18  -4  -5    3.38    2.41
  18   4   5    2.30    2.11
   0  -5  -5   33.62   10.75
   0  -5   5   40.56   12.24
   0  -5   5   33.05    6.19
   0  -5   5   29.74    6.20
  -1  -5  -5  593.66   29.35
  -1  -5  -5  559.65   40.35
   1  -5  -5  627.21   30.32
   1  -5  -5  591.92   30.61
   1  -5  -5  628.75   27.89
  -1   5  -5  489.73   50.26
   1  -5   5  625.35   25.83
   1  -5   5  542.58   42.52
  -1  -5   5  551.45   45.94
   1  -5  -5  467.97   49.65
   1  -5   5  592.86   27.45
   1  -5  -5  629.27   47.97
  -1  -5   5  602.66   27.51
  -1  -5   5  624.98   27.10
   2  -5  -5  149.63   25.43
  -2  -5  -5  102.54   16.38
  -2  -5  -5  126.80   13.99
   2  -5  -5  119.38   12.57
   2  -5   5  132.17   11.58
   2  -5  -5  133.08   15.56
   2   5  -5  121.09   11.94
  -2  -5   5  133.88   13.17
   2  -5   5  111.25   19.17
  -2  -5   5  135.88   22.11
   2  -5   5  118.73   12.69
  -2  -5   5  123.62   25.90
  -2  -5   5  122.21   12.69
   2  -5  -5  117.16   20.75
  -3  -5   5  849.34   62.92
  -3  -5  -5  649.24   40.31
   3  -5   5  635.00   31.64
   3  -5  -5  786.28   56.69
   3   5  -5  714.48   29.20
  -3  -5   5  891.28   57.50
   3  -5  -5  684.42   38.17
   3  -5   5  673.79   34.34
   3  -5   5  572.97   40.51
   3  -5  -5  651.93   30.97
  -3  -5  -5  672.10   32.17
   4  -5  -5   37.02   11.16
   4  -5  -5   18.72    6.98
   4  -5   5   23.87    7.26
   4  -5   5   33.74    7.42
  -4  -5   5   39.70   11.38
  -4  -5  -5   31.12    7.55
  -4  -5   5   40.91   12.39
  -4  -5  -5   23.29    7.46
   4  -5  -5   32.87    7.60
  -5  -5  -5   42.59    9.32
   5  -5   5   31.24    9.26
   5  -5  -5   36.64   11.25
   5  -5  -5   33.35    8.38
  -5  -5   5   52.78   13.11
   5  -5   5   35.82    7.81
  -5  -5  -5   31.46    8.93
  -5   5   5   37.50    6.94
   6  -5   5   40.77   12.60
  -6  -5  -5   38.51    9.67
  -6  -5   5   60.35   13.80
  -6  -5  -5   47.64   10.91
   6  -5  -5   36.63   10.96
   6  -5   5   36.97    9.06
  -6   5   5   36.68    8.03
  -7   5  -5   30.53   11.47
   7  -5   5   13.81    9.90
  -7  -5  -5   16.52    6.56
  -7  -5   5   11.81    5.30
  -7   5   5   12.01    6.57
   7  -5  -5   15.30    8.26
   7  -5   5   13.97    6.03
  -7  -5  -5   19.00    8.14
  -8  -5  -5  142.19   20.01
  -8  -5  -5  146.76   22.72
   8  -5   5   90.96   22.34
  -8  -5  -5  127.86   19.12
   8  -5  -5   77.65   17.94
  -8  -5  -5  123.98   19.24
  -8  -5   5  140.04   21.48
  -8   5  -5  139.55   21.46
  -8   5   5  121.95   19.55
   8  -5   5   95.27   19.70
  -9  -5  -5   46.99   11.76
  -9  -5  -5   70.20   13.64
  -9  -5   5   54.92   13.69
  -9   5   5   47.80   14.08
   9  -5   5   54.75   13.66
  -9  -5  -5   71.07   14.78
   9  -5  -5   20.72    9.34
   9  -5   5   52.28   17.21
  -9   5  -5   82.46   17.26
  10  -5   5   67.29   18.74
  10  -5  -5   59.56   17.97
 -10  -5  -5   74.39   15.22
  10  -5   5   66.52   17.08
 -10  -5  -5   74.94   14.23
 -10   5   5   31.57   17.45
 -10   5  -5   69.61   15.44
 -10  -5  -5   73.24   15.76
 -10  -5   5   70.66   15.15
 -11   5   5    2.01    5.36
  11   5   5    2.71    6.80
  11  -5  -5    5.54    4.19
 -11  -5   5    2.08    2.65
 -11  -5  -5    3.55    4.93
 -11   5  -5    3.01    3.46
  12   5   5    0.19    2.87
 -12   5   5    7.04    6.05
 -12  -5  -5    5.67    2.35
  12  -5  -5    7.85    6.04
 -12  -5   5    2.33    5.06
  12  -5   5    2.81    3.21
 -12  -5   5   -6.10    7.89
  12  -5  -5    1.05    5.14
 -12  -5   5    7.04    5.87
 -12  -5  -5    3.29    3.15
 -13  -5   5    2.27    4.98
 -13  -5  -5   14.47    7.64
 -13  -5   5   13.08    9.16
  13  -5   5   -1.03    3.64
  13   5   5    2.21    2.65
  13  -5  -5    5.74    5.98
  13  -5  -5    1.69    3.16
  14   5   5   65.77   14.36
 -14  -5   5   92.15   18.55
  14  -5  -5  100.87   18.57
  14  -5   5   81.57   17.06
 -14  -5   5   86.08   16.03
  14  -5  -5   89.94   19.35
  14  -5   5   79.04   17.18
  15  -5   5    1.32    2.41
  15   5  -5    6.30    6.28
  15  -5  -5   -4.80    5.41
  15  -5   5    6.28    6.44
 -15  -5   5    2.43    4.65
  15   5   5    8.38    4.99
 -16  -5   5   -2.58    2.61
  16  -5   5    0.27    3.36
  16  -5  -5   -1.98    2.38
  16   5  -5   -2.55    2.40
  16  -5  -5    0.42    4.55
  16   5   5    3.40    5.03
  17  -5  -5    3.08    2.98
 -17  -5   5   -1.81    2.83
  17   5   5   -2.57    3.03
  17  -5   5    6.20    4.20
  17   5  -5   -2.34    2.68
  18  -5   5    2.31    2.37
  18   5   5    1.21    1.82
 -18  -5   5   -0.47    2.41
   0  -6  -5    7.75    4.12
   0  -6  -5    4.63    1.36
   0  -6   5    2.11    1.98
   0  -6  -5   10.19    6.06
   0  -6   5    0.56    2.37
  -1  -6  -5   27.09    9.07
   1  -6  -5   25.29    6.74
  -1  -6  -5   20.01    5.53
   1  -6   5   20.76    5.50
   1  -6   5   33.75   13.34
   1  -6  -5   16.88   11.47
   1  -6   5   26.62    5.07
  -1  -6   5   27.96   11.13
  -1  -6   5   30.34    6.05
  -1  -6   5   16.44    4.19
  -1  -6  -5   24.83    9.28
   1  -6  -5   26.59    7.16
   2  -6  -5   10.69    7.59
  -2  -6   5    7.10    4.48
  -2  -6  -5   13.65    7.20
  -2  -6   5   10.97    5.94
   2   6  -5   13.74    4.25
   2  -6   5   20.87    9.75
   2  -6  -5   21.12    7.33
  -2  -6   5   18.56    5.44
   2  -6   5   16.82    5.30
  -2  -6  -5   12.95    7.05
   2  -6   5   15.07    3.22
  -2  -6   5   18.80    5.69
   3  -6  -5 1485.33   60.74
   3  -6  -5 1535.07   49.88
  -3  -6   5 1283.81   75.99
  -3  -6  -5 1265.89   74.87
  -3  -6  -5 1448.94   65.52
   3  -6   5 1390.71   67.02
  -3  -6   5 1836.27   82.60
  -3  -6   5 1562.42   48.29
   3  -6   5 1369.99   49.11
  -3  -6  -5 1549.88   52.07
  -4  -6   5   -2.29    4.21
  -4  -6  -5    4.55    4.49
  -4  -6   5   -4.63    4.71
  -4  -6  -5    0.44    2.45
   4  -6  -5    1.72    2.79
   4  -6   5    1.26    2.04
  -4  -6  -5    0.58    5.34
   4  -6   5   -4.14    3.83
   4  -6  -5    4.59    5.53
   4  -6  -5   -2.83    2.44
  -5  -6   5 3852.74  111.34
   5  -6  -5 2677.02   95.91
  -5  -6  -5 2752.91   79.39
  -5  -6   5 3768.68  122.08
  -5  -6  -5 2849.73   89.76
   5  -6  -5 2792.07   78.95
  -5  -6  -5 2902.50   78.86
   5  -6   5 2859.25   80.01
  -5  -6  -5 3632.09  116.65
  -5   6   5 2770.04   66.63
  -6  -6  -5   27.34    8.40
  -6  -6   5   45.47   12.92
   6  -6  -5   46.61   11.98
  -6  -6  -5   33.81   10.18
   6  -6   5   12.58    7.30
  -6   6   5   29.68    7.76
  -6  -6  -5   31.68    9.36
   7  -6  -5 2032.87   85.58
  -7  -6   5 2702.27   96.01
  -7   6   5 1858.37   67.73
   7  -6   5 1847.79   78.05
  -7  -6  -5 2490.01   85.05
  -7  -6  -5 2161.15   80.15
  -7  -6  -5 2714.73   90.93
   8  -6  -5   12.02    8.28
  -8  -6  -5    7.00    3.96
  -8  -6   5    0.18    2.63
  -8  -6  -5    0.92    2.02
  -8   6   5   10.27    6.57
   8  -6   5    2.58    5.70
  -9  -6  -5  618.42   42.52
  -9  -6  -5  675.19   48.48
  -9  -6   5  662.63   46.87
  -9   6   5  528.74   43.83
   9  -6   5  584.45   47.81
 -10   6   5   -1.07    4.23
 -10  -6  -5   -3.74    5.89
 -10  -6   5    8.48    6.31
 -10  -6  -5    1.95    3.74
  10  -6   5    2.21    6.42
  10  -6  -5    8.69    6.57
 -10   6  -5    7.71    5.42
  11   6   5   43.14   13.71
 -11   6   5   35.66   11.69
 -11  -6   5   44.08   11.82
 -11  -6   5   50.56   15.92
  11  -6   5   39.48   14.76
  11  -6   5   75.78   19.57
  11  -6   5   48.13   16.11
  11  -6  -5   53.74   13.21
 -11   6  -5   44.74   11.58
  12   6   5   47.37   14.32
  12  -6  -5   43.91   13.95
 -12  -6  -5   32.63    9.64
 -12  -6   5   23.96    8.86
 -12  -6  -5   34.35   10.30
  12  -6   5   32.00   11.92
 -12  -6   5   36.71   14.82
  12  -6  -5   32.52    8.54
  12  -6   5   49.84   15.58
 -12  -6   5   29.64   10.06
 -12   6   5   31.16   10.13
 -13  -6   5  112.65   23.94
  13   6   5  138.45   22.60
  13  -6  -5  147.90   24.64
 -13  -6  -5  161.95   23.07
  13  -6   5  168.57   25.04
  13  -6   5  157.41   24.68
  13  -6  -5  200.70   27.75
 -13  -6   5  156.98   23.41
 -14  -6   5    7.49    5.14
  14  -6   5    6.80    7.56
 -14  -6  -5    7.25    5.36
  14  -6  -5   -8.33    7.04
  14  -6   5    8.61    6.45
 -14  -6   5    1.78    5.71
  14  -6  -5    1.80    3.16
  14   6   5   13.49    7.57
 -15  -6   5  524.19   39.13
 -15  -6   5  428.38   32.55
  15  -6  -5  279.83   30.69
  15   6   5  440.10   35.40
 -15  -6  -5  418.68   32.08
  15  -6   5  377.16   36.52
  15  -6   5  441.50   36.11
  15  -6  -5  395.86   33.60
  16  -6  -5   17.20    7.54
  16  -6   5   10.05    4.47
  16  -6   5   14.70    7.14
 -16  -6   5   21.53    7.06
  16  -6  -5   13.20    3.86
  16   6   5    6.62    3.98
  17  -6  -5  579.73   33.48
 -17  -6   5  613.28   34.19
  17   6   5  574.27   32.11
   0  -7   5   95.72   12.41
   0  -7  -5   90.47   14.11
   0  -7   5   99.74   11.67
   0  -7   5   97.54   21.14
   0  -7  -5   86.21   21.31
   0  -7  -5   97.29   14.49
  -1  -7   5  664.92   30.98
  -1  -7  -5  619.77   43.45
   1  -7  -5  719.48   35.21
   1  -7  -5  629.50   37.81
   1  -7   5  678.15   30.02
  -1  -7  -5  756.08   59.03
   1  -7  -5  667.29   57.65
   1  -7   5  619.79   51.90
  -1  -7   5  555.41   49.63
  -1  -7   5  720.02   32.74
   1  -7   5  667.39   34.03
  -2  -7   5    6.08    3.36
  -2  -7  -5   -1.17    2.74
   2  -7   5    7.16    2.43
  -2  -7   5    8.53    4.85
  -2  -7   5   11.27   10.82
   2  -7  -5   -2.14    7.00
   2  -7   5   13.15    5.05
  -2  -7  -5    5.96    4.02
   2  -7  -5    3.28    3.24
   2  -7   5   17.28    9.04
  -3  -7   5  189.43   18.66
  -3  -7  -5  183.85   25.47
  -3  -7  -5  132.19   24.05
   3  -7  -5  161.25   21.61
   3  -7   5  171.87   25.72
  -3  -7   5  142.83   21.42
  -3  -7   5  186.71   26.98
  -3  -7  -5  173.36   22.61
   3  -7   5  160.71   17.75
   3  -7  -5  200.37   28.09
  -3  -7   5  157.94   15.63
  -4  -7  -5    8.07    3.50
   4  -7  -5   14.00    6.51
  -4  -7  -5    3.22    2.63
   4  -7   5   12.86    5.67
  -4  -7  -5   16.18    5.84
  -4  -7   5   10.11    6.61
   4  -7  -5   15.46    6.24
   4  -7   5   17.93    5.98
  -4  -7   5   16.25    9.52
  -4  -7  -5    8.10    3.14
   5  -7  -5   89.46   14.68
  -5  -7  -5   94.75   15.46
  -5  -7   5  111.75   22.04
  -5  -7   5  130.67   21.88
  -5  -7  -5  101.77   16.10
   5  -7   5   93.66   15.26
  -5  -7  -5  109.65   22.47
  -5  -7  -5   97.70   17.14
  -5   7   5   93.86   12.73
  -6  -7  -5   33.82    9.31
  -6   7   5   38.42    9.13
  -6  -7   5   47.81   13.32
   6  -7   5   38.30   11.54
   6  -7  -5   50.91   12.63
  -6  -7  -5   50.99   12.22
  -6  -7  -5   64.32   15.38
   7  -7  -5   25.88    9.03
  -7  -7  -5   38.32   11.39
  -7  -7  -5   25.46    9.25
  -7  -7   5   38.24   12.95
  -7   7   5   27.41    8.44
   7  -7   5   24.46    8.95
  -8   7   5   22.48   10.03
  -8  -7  -5   29.38    8.93
  -8  -7   5   46.16   12.29
   8  -7  -5   31.51   12.11
   8  -7   5   45.86   12.76
  -8  -7  -5   37.97   11.03
  -9   7   5  117.83   20.37
   9  -7  -5   76.96   20.04
  -9  -7  -5  150.68   23.73
  -9  -7   5  172.15   24.81
   9  -7   5  154.15   25.60
  -9  -7  -5  136.88   20.51
 -10  -7   5    3.18    4.77
  10  -7  -5    4.57    4.99
 -10  -7  -5    3.73    1.99
 -10  -7  -5   11.53    6.03
 -10   7   5    4.88    2.60
  10  -7   5   -4.91    6.90
 -11  -7  -5  257.69   30.87
 -11  -7  -5  269.65   31.81
  11  -7   5  262.65   33.51
 -11  -7   5  260.75   30.51
 -11  -7  -5  255.17   31.15
  11  -7   5  261.05   35.49
 -11   7   5  151.70   29.65
  11   7   5  223.25   28.88
 -11  -7   5  258.66   35.32
 -11  -7  -5  223.24   26.11
  11  -7  -5  276.14   33.42
  11  -7   5  239.41   33.86
  11  -7  -5  244.06   33.95
 -12  -7  -5   -4.44    5.04
 -12  -7  -5   12.35    7.05
  12  -7   5    0.34    5.33
 -12  -7   5    6.34    7.19
  12  -7  -5   11.49    8.52
 -12  -7   5    9.55    2.41
  12  -7  -5    6.86    2.58
  12  -7   5    7.21    4.51
  12   7   5   -1.82    2.52
 -13  -7  -5  218.93   26.07
  13  -7  -5  218.57   28.68
  13   7   5  207.92   26.70
  13  -7   5  229.22   29.04
 -13  -7  -5  194.75   25.18
 -13  -7   5  204.24   27.06
  13  -7   5  223.66   29.06
 -13  -7   5  188.26   25.13
  13  -7  -5  199.06   29.35
 -14  -7  -5    7.56    3.79
  14  -7   5    9.21    5.89
 -14  -7   5    2.73    3.70
  14  -7  -5    4.65    3.17
  14  -7   5    1.91    5.09
 -14  -7   5    7.09    4.36
  14  -7  -5    2.44    3.12
 -14  -7  -5    4.05    4.79
  14   7   5    6.12    5.20
 -15  -7  -5   40.09    9.57
  15  -7   5   37.85   10.37
  15  -7   5   37.35    9.35
  15  -7  -5   45.34   11.59
 -15  -7   5   42.45   10.34
 -15  -7   5   38.00    9.80
  15  -7  -5   33.38    9.93
  15   7   5   34.95    9.31
 -16  -7   5   -4.38    4.45
 -16  -7  -5   -1.36    3.13
  16  -7   5   10.68    5.69
  16  -7   5    1.31    3.76
  16   7   5   -8.36    5.31
  16  -7  -5    4.29    3.03
 -17  -7   5    4.14    3.31
  17  -7   5    3.20    2.33
  17  -7  -5    9.29    4.56
  17   7   5    0.06    1.64
   0  -8   5   -0.95    1.29
   0  -8  -5   -6.94   14.07
   0  -8  -5    3.06    8.45
   0  -8  -5   -0.49    3.16
   0  -8   5    5.54    9.79
   0  -8   5    3.74    2.63
  -1  -8  -5   14.20    6.62
   1  -8   5    7.31    9.25
  -1  -8  -5   14.04    9.43
  -1  -8  -5    3.65    2.33
  -1  -8   5    9.13    3.86
  -1  -8   5    6.39    4.65
   1  -8  -5   15.09    9.46
   1  -8   5   20.52    6.55
   1  -8   5    9.66    2.85
  -1  -8   5   13.50    5.15
  -2  -8  -5  105.26   22.19
  -2  -8  -5   76.09   17.96
  -2  -8   5   73.37   11.77
   2  -8   5   94.37   13.36
   2  -8   5   86.16   11.05
   2  -8   5   64.23   17.45
  -2  -8   5   70.34   17.29
   2  -8  -5   65.34   18.52
  -2  -8  -5   91.11   17.89
  -2  -8   5   86.23   11.72
  -3  -8  -5  622.27   51.19
   3  -8  -5  560.56   44.89
   3  -8   5  543.93   48.94
  -3  -8   5  639.47   51.77
  -3  -8  -5  543.32   42.16
  -3  -8   5  559.34   30.95
   3  -8   5  571.59   34.58
  -3  -8   5  558.37   33.93
   3  -8  -5  616.45   52.35
   4  -8  -5  154.63   25.32
  -4  -8  -5  196.42   28.31
  -4  -8  -5  149.45   28.13
  -4  -8   5  135.34   24.32
   4  -8   5  173.32   19.66
   4  -8   5  187.74   26.89
  -4  -8   5  201.78   27.58
   4  -8  -5  188.27   26.10
  -4  -8  -5  163.47   21.44
  -4  -8  -5  165.79   20.43
  -5  -8   5 1531.32   86.06
  -5  -8  -5 1519.13   66.73
   5  -8   5 1363.47   72.44
  -5  -8   5 1876.04   83.16
  -5  -8  -5 1496.50   63.23
   5  -8   5 1388.64   60.88
  -5  -8  -5 1719.73   89.22
  -5   8   5 1584.30   56.71
  -6   8   5   42.04    9.59
  -6  -8  -5   53.07   13.40
  -6  -8   5   68.63   18.52
  -6  -8  -5   67.21   15.92
   6  -8   5   56.37   13.47
  -7  -8   5 1088.89   68.67
  -7  -8  -5 1018.66   61.48
   7  -8   5  823.27   54.63
  -7   8   5  783.72   45.38
  -7  -8  -5  777.57   53.25
  -8  -8  -5   30.87   10.29
  -8  -8  -5   34.56   11.71
  -8  -8   5   41.10   14.33
  -8   8   5   31.54   10.39
   8  -8   5   36.56   12.30
   9  -8   5  207.14   29.90
  -9  -8  -5  207.95   28.51
  -9  -8   5  249.80   31.23
  -9  -8  -5  213.06   26.55
 -10  -8  -5    7.56    4.56
 -10  -8  -5    6.47    5.86
 -10  -8   5   10.09    8.21
 -10  -8  -5    5.90    5.35
 -10  -8  -5    4.84    6.10
 -10  -8   5   17.56    9.46
  10  -8   5    5.11    5.30
  10  -8   5    6.53    4.21
 -10   8   5   10.43    9.09
  10  -8   5   16.95   11.09
  10  -8  -5   -2.82    6.74
 -11  -8  -5   -3.37    4.27
  11  -8   5   16.31    9.71
 -11  -8  -5    8.43    4.86
 -11  -8   5    6.54    6.63
 -11  -8   5    3.50    6.10
  11  -8   5   -2.39    8.83
  11  -8   5    0.85    3.19
  11  -8  -5    5.76    2.63
 -12  -8  -5   11.63    6.20
  12  -8   5   20.37    9.88
 -12  -8   5   13.75    8.26
  12  -8  -5   16.54    7.90
  12  -8   5    9.54    3.96
  12  -8  -5    1.58    5.24
 -12  -8  -5   14.50    7.76
  13  -8  -5   87.02   18.43
 -13  -8  -5  130.16   21.26
  13  -8   5  119.82   20.39
 -13  -8   5  103.33   19.82
 -13  -8  -5  122.80   18.68
  13  -8  -5  121.57   20.20
  13  -8   5  116.89   21.92
  14  -8   5    7.68    4.76
 -14  -8  -5   11.71    6.57
 -14  -8   5   12.03    5.61
  14  -8  -5    7.87    2.80
 -14  -8  -5   20.86    7.60
 -14  -8   5   22.38    6.66
  14  -8  -5   15.49    8.78
  14  -8   5   17.12    9.08
 -15  -8   5  163.13   19.38
  15  -8   5  157.92   20.28
  15  -8   5  159.97   21.30
 -15  -8  -5  151.41   18.67
 -15  -8   5  153.85   19.78
  15  -8  -5  152.93   19.71
  15  -8  -5  126.16   18.55
 -15  -8  -5  173.18   18.73
 -16  -8   5   15.96    5.07
 -16  -8  -5    7.77    2.63
  16  -8   5    6.23    4.30
  16  -8  -5   15.47    5.34
 -16  -8   5   14.45    5.23
  16  -8   5   12.85    5.31
  16  -8  -5   11.24    4.88
  17  -8   5  282.67   20.13
 -17  -8   5  289.04   20.19
  17  -8  -5  313.20   21.81
   0  -9  -5   17.02    6.45
   0  -9   5   21.13   14.26
   0  -9  -5   19.17   13.23
   0  -9   5   15.70    4.90
   0  -9   5   21.19    6.10
  -1  -9  -5 1607.64   72.92
  -1  -9   5 1652.23   54.86
   1  -9   5 1587.81   96.70
  -1  -9   5 1463.40   92.41
  -1  -9  -5 1721.77   96.06
  -1  -9   5 1726.69   56.78
   1  -9   5 1640.81   57.88
  -2  -9  -5    0.22    4.17
  -2  -9   5   -7.50    6.99
   2  -9  -5    7.38    8.67
  -2  -9  -5   -0.23    3.75
   2  -9   5   -0.53    7.71
  -2  -9   5    1.96    4.14
  -2  -9   5    0.37    2.57
   2  -9   5    2.45    3.08
  -3  -9  -5  439.94   47.03
   3  -9   5  549.69   53.92
  -3  -9   5  639.80   55.14
   3  -9  -5  629.68   55.55
  -3  -9  -5  554.08   44.89
   3  -9   5  585.77   36.02
  -3  -9   5  553.15   35.75
  -4  -9  -5    7.50    5.38
   4  -9  -5   -4.27    4.00
  -4  -9   5    0.54    3.82
  -4  -9  -5    4.71    5.21
  -4  -9   5    0.75    4.87
   4  -9   5    0.63    3.41
   4  -9   5    1.09    6.18
  -5  -9   5   18.23   10.66
   5  -9   5    5.34    4.50
  -5  -9  -5    3.37    2.76
  -5  -9   5    3.80    4.57
   5  -9   5   15.17    8.22
  -5  -9   5    8.98    9.00
  -5  -9  -5   12.06    4.84
  -5  -9  -5    5.88    4.55
  -5   9   5   21.03    7.89
  -6  -9  -5   34.21   12.39
  -6  -9   5   63.11   18.77
  -6  -9  -5   45.93   14.47
   6  -9   5   37.91   11.71
  -6   9   5   41.57   10.67
  -7  -9  -5  185.01   27.65
  -7  -9  -5  149.05   24.48
  -7  -9   5  205.97   32.30
   7  -9   5  151.09   23.72
  -7   9   5  147.13   20.22
  -8   9   5    4.83    4.81
  -8  -9  -5    9.00    5.03
  -8  -9  -5    5.74    2.85
  -8  -9   5   13.58    8.96
   8  -9   5   -4.05    9.24
  -9  -9  -5  803.31   57.66
  -9  -9   5  939.68   63.72
  -9  -9  -5  781.20   57.65
  -9  -9  -5  830.61   57.72
  -9  -9   5  813.38   61.08
  -9   9   5  611.86   51.40
  -9  -9  -5  797.90   53.16
   9  -9  -5  745.88   60.10
   9  -9   5  727.92   57.48
   9  -9   5  878.39   65.99
   9  -9  -5  810.63   63.50
 -10  -9  -5   -1.81    4.13
 -10  -9  -5   -0.34    5.62
 -10  -9  -5    2.20    4.13
 -10  -9   5    2.96    5.51
  10  -9  -5   -3.39    7.33
 -10  -9   5   -5.70    2.88
 -10  -9   5   -0.78    6.39
  10  -9   5    5.16    5.13
  10  -9   5    2.81    4.34
 -11  -9  -5  932.40   57.61
 -11  -9   5  859.42   61.18
 -11  -9  -5  818.78   56.21
  11  -9   5  956.11   64.49
  11  -9   5  947.65   68.11
  11  -9  -5  883.85   67.50
  12  -9   5   64.57   15.07
 -12  -9  -5   66.63   14.83
 -12  -9  -5   58.30   13.90
  12  -9   5   48.64   14.74
  12  -9  -5   65.36   18.05
 -12  -9   5   55.01   14.96
 -13  -9   5  687.30   48.61
  13  -9   5  678.30   50.16
 -13  -9  -5  651.33   44.34
 -13  -9   5  610.55   43.97
  13  -9   5  763.44   53.11
 -13  -9  -5  740.94   46.87
  13  -9  -5  669.50   53.60
 -14  -9  -5    2.57    3.85
  14  -9   5    5.50    6.64
 -14  -9  -5    8.90    4.63
 -14  -9   5    5.08    6.05
  14  -9   5    9.12    5.24
 -14  -9   5    4.16    3.32
  14  -9  -5    7.64    6.02
  14  -9  -5    9.66    6.22
 -15  -9   5  193.10   19.99
 -15  -9  -5  192.37   19.96
 -15  -9   5  192.01   20.45
  15  -9  -5  198.96   22.61
 -15  -9  -5  214.25   20.61
  15  -9   5  159.31   20.76
  15  -9   5  212.31   22.44
  16  -9  -5    2.77    3.14
 -16  -9  -5    4.05    3.07
 -16  -9   5   -4.23    2.66
  16  -9   5   -1.21    2.23
  16  -9   5   -5.10    3.23
  16  -9  -5    2.59    2.18
 -16  -9   5    2.05    2.15
   0 -10  -5    5.42    7.67
   0 -10   5    0.98    3.44
   0 -10   5   -5.09    6.18
   1 -10  -5   19.17   16.69
   1 -10   5   10.80    5.32
  -1 -10  -5   18.80   10.06
  -1 -10   5    9.46    2.60
   1 -10   5    8.97   10.50
  -1 -10   5   13.99   12.33
  -1 -10  -5    9.53    4.09
  -1 -10   5   12.39    5.42
  -2 -10   5    1.61    4.55
  -2 -10  -5   -1.79    5.98
   2 -10   5   -2.25   10.33
  -2 -10   5   -6.54    9.37
   2 -10  -5  -12.12   11.55
  -2 -10  -5   -3.01    6.07
   2 -10   5    6.08    3.83
  -3 -10  -5    6.90    4.85
   3 -10   5   17.21   12.71
  -3 -10   5    3.31    8.14
   3 -10  -5    7.81    6.68
  -3 -10  -5    6.24    4.97
   3 -10   5   11.55    5.87
  -3 -10   5   14.27    7.44
  -4 -10  -5   43.86   14.82
  -4 -10   5   44.37   12.10
  -4 -10   5   60.29   18.70
   4 -10  -5   58.80   16.28
  -4 -10  -5   50.28   12.88
   4 -10   5   41.65   10.68
   4 -10   5   54.91   17.71
  -5 -10  -5   94.68   23.26
  -5 -10   5   66.06   15.39
  -5 -10   5  102.75   23.47
   5 -10   5   56.53   16.92
  -5 -10  -5   86.60   17.32
   5 -10   5   68.18   13.99
  -5  10   5   87.87   15.89
  -6 -10  -5   22.21   11.67
  -6 -10   5   40.68   14.44
  -6 -10   5   32.21   13.52
   6 -10   5   25.34    9.13
  -6  10   5   28.26    9.73
  -7 -10  -5   69.76   17.93
  -7 -10   5   63.15   15.90
  -7 -10   5  100.51   22.59
  -7  10   5   57.04   15.08
   7 -10   5   64.68   16.09
  -8 -10   5   10.25    6.67
   8 -10  -5   -0.74    4.38
  -8 -10  -5    5.94    6.66
   8 -10   5    7.60    7.43
  -8 -10  -5   12.54    9.61
  -8 -10   5   11.61   10.22
  -8 -10  -5    8.50    5.90
  -8  10   5   -1.79    3.70
  -8 -10   5   10.45    7.75
   8 -10   5    6.95    4.38
  -8 -10  -5   10.15    6.37
   8 -10   5    5.32    3.94
   8 -10  -5    4.01    5.18
   8 -10  -5   13.53    3.80
  -8 -10   5    4.43    5.78
  -9 -10  -5   44.02   13.28
  -9 -10  -5   31.22   10.71
  -9 -10   5   21.78   12.36
  -9 -10   5   19.39    9.07
  -9 -10  -5   23.47    9.28
  -9 -10   5   18.39    7.13
   9 -10   5   23.07   10.25
   9 -10  -5   17.46   11.19
 -10 -10  -5   12.49    7.21
 -10 -10   5    3.72    4.58
  10 -10   5   12.33   10.42
 -10 -10  -5    3.15    5.49
  10 -10   5    2.35    7.76
  10 -10  -5    0.31    4.22
 -11 -10  -5   13.05    8.40
 -11 -10   5   -1.73    4.33
 -11 -10  -5    0.64    2.82
 -11 -10   5    5.70    5.87
  11 -10   5    4.65    6.14
  11 -10  -5    1.49    5.46
  12 -10   5    0.27    2.47
  12 -10   5    9.74    9.55
 -12 -10  -5   11.70    4.55
 -12 -10   5    5.29    5.23
 -12 -10   5    0.96    5.03
 -12 -10  -5    4.43    4.23
  12 -10  -5   -0.80    6.08
 -13 -10   5    1.62    5.27
 -13 -10  -5    4.12    3.05
 -13 -10   5    9.44    5.82
  13 -10   5    8.10    6.59
 -13 -10  -5   -0.50    3.57
  13 -10   5   15.28    8.77
  13 -10  -5   14.00    7.81
 -14 -10   5    1.75    4.78
 -14 -10  -5   -3.26    4.15
  14 -10   5   -0.41    2.18
 -14 -10  -5   -4.99    4.29
  14 -10   5   -1.10    2.33
  14 -10  -5   -7.66    6.21
 -14 -10   5   -3.06    3.33
 -15 -10  -5    9.28    4.41
 -15 -10   5    7.68    4.81
 -15 -10  -5   12.76    4.76
  15 -10   5    5.74    4.26
  15 -10  -5    9.00    5.17
 -15 -10   5    6.80    2.25
  15 -10   5    4.19    3.00
  15 -10  -5    8.59    4.39
   0 -11  -5   25.71   13.45
   0 -11   5   29.72   12.80
   0 -11   5   28.87    8.50
   1 -11   5 2114.78  130.03
  -1 -11   5 2257.17  127.87
   1 -11  -5 1963.43  126.61
  -1 -11  -5 2450.40  128.02
   1 -11   5 2396.80   77.17
   2 -11   5    1.68    6.69
  -2 -11   5   -3.02    9.32
   2 -11  -5    1.45    6.58
   2 -11   5   -0.07    1.59
  -2 -11   5    0.60    4.92
  -2 -11  -5    8.57   11.14
  -3 -11   5 1039.93   52.57
   3 -11   5 1068.89   85.95
  -3 -11   5 1287.90   86.81
   3 -11  -5 1166.31   84.22
  -3 -11  -5 1102.99   71.69
   3 -11   5 1095.74   54.32
  -4 -11  -5    6.55    7.43
  -4  11   5    3.12    3.03
   4 -11   5   -3.88   10.24
  -4 -11  -5   -1.02    5.15
  -4 -11   5    6.91    9.03
   4 -11  -5   -8.28    8.73
   4 -11   5    1.00    4.13
  -4 -11   5   -2.22    4.54
  -5 -11  -5   78.85   21.61
  -5 -11   5  140.51   26.32
   5 -11   5   92.17   22.81
  -5 -11  -5   86.97   18.63
  -5 -11   5   90.06   18.60
   5 -11   5   92.67   16.65
  -5  11   5   90.74   16.56
   6 -11  -5   -3.83    6.69
  -6 -11   5   -1.64    2.73
   6 -11   5   -6.79    6.11
  -6  11   5   -7.62    5.43
  -7 -11   5   28.52   10.11
  -7 -11   5   38.54   15.88
  -7 -11  -5   41.08   14.44
  -7 -11   5   33.90   13.49
  -7 -11  -5   35.43   12.01
   7 -11   5   35.36   14.03
  -7 -11   5   34.27   12.46
  -7  11   5   45.13   12.99
   7 -11   5   56.11   20.74
   7 -11  -5   50.63   14.56
   7 -11   5   31.79    9.88
   7 -11   5   41.92   14.31
  -7 -11  -5   37.74   12.75
  -8 -11   5    1.04    2.87
  -8 -11   5    1.22    3.43
  -8 -11  -5    9.23    3.89
   8 -11  -5    0.89    3.23
  -8 -11  -5    5.51    6.76
  -8 -11   5   -0.47    4.51
   8 -11   5  -19.15   14.82
   8 -11   5   -0.33    7.62
   8 -11  -5    6.81    7.21
   8 -11   5   -3.22    5.40
  -9 -11  -5  571.54   47.61
  -9 -11  -5  486.59   47.17
  -9 -11   5  524.54   45.43
   9 -11   5  474.61   51.17
   9 -11  -5  540.51   52.92
   9 -11   5  588.54   56.07
  10 -11  -5   27.14   11.44
 -10 -11   5   19.51    8.94
  10 -11   5   17.40    8.45
 -10 -11  -5   17.28    8.08
 -10 -11  -5   18.33    8.69
 -11 -11  -5  905.71   54.72
 -11 -11   5  790.53   52.57
  11 -11   5  731.19   58.97
 -11 -11  -5  774.94   53.05
 -11 -11   5  918.17   55.21
  11 -11  -5  817.87   62.50
 -12 -11   5    2.01    3.55
 -12 -11  -5    0.63    3.51
 -12 -11   5    1.28    4.96
 -12 -11  -5    1.81    3.08
  12 -11   5    7.14    7.68
  12 -11  -5   12.46    6.60
 -13 -11  -5  609.49   40.62
  13 -11   5  614.88   44.74
 -13 -11  -5  634.65   40.25
 -13 -11   5  594.94   37.06
  13 -11  -5  618.55   45.96
 -13 -11   5  664.00   41.73
 -14 -11  -5   -2.24    2.24
 -14 -11   5    9.57    4.57
  14 -11   5   12.39    5.59
  14 -11  -5    2.31    3.56
 -14 -11   5    3.20    2.82
 -14 -11  -5    0.12    2.78
 -15 -11  -5  260.99   20.11
  15 -11  -5  225.37   18.71
 -15 -11   5  267.14   18.83
 -15 -11   5  259.39   19.64
  15 -11  -5  264.20   21.81
  15 -11   5  255.53   21.04
   0 -12   5    2.44   14.85
   0 -12  -5   -0.65    6.37
   1 -12   5   36.95   19.84
  -1 -12   5   23.19   22.24
   1 -12  -5   14.91   12.64
  -1 -12  -5   37.38   16.99
   2 -12   5    1.77    2.30
   2 -12   5    0.10   10.85
  -2 -12   5    3.06    8.04
   2 -12  -5   -7.50   15.08
  -2 -12  -5   -7.77   11.41
  -3 -12  -5  266.31   36.27
  -3 -12   5  295.60   43.01
   3 -12  -5  263.50   42.68
   3 -12   5  208.60   40.04
   3 -12   5  230.33   26.01
  -4  12   5   37.08   10.18
  -4 -12   5   51.20   15.90
  -4 -12   5   39.88   14.85
   4 -12   5   51.70   21.25
  -4 -12   5   30.07   10.03
   4 -12   5   36.01   14.69
   4 -12  -5   48.66   12.37
   4 -12  -5   30.43   11.40
  -4 -12  -5   41.95   12.83
   4 -12   5   17.78    8.28
  -4 -12  -5   33.28   11.89
  -4 -12   5   68.32   22.03
   4 -12   5   21.23    9.45
  -5 -12   5  291.03   37.46
  -5 -12   5  257.55   38.64
  -5 -12  -5  242.37   32.38
   5 -12  -5  281.28   32.20
   5 -12   5  247.88   28.87
  -5 -12  -5  256.52   33.14
   5 -12   5  254.30   40.57
  -5 -12  -5  283.42   32.72
  -5 -12   5  233.86   30.38
  -5  12   5  254.38   29.03
   5 -12   5  319.92   51.17
   6 -12   5    1.06    8.81
  -6 -12   5    8.27    6.59
  -6 -12   5    3.39    3.87
   6 -12   5    8.73    8.78
   6 -12  -5    0.77    3.45
  -6 -12  -5   -0.02    2.48
  -6 -12   5   14.37   11.09
  -6 -12  -5    3.18    2.68
   6 -12   5    3.31    2.57
   7 -12  -5  154.58   25.84
  -7 -12   5  153.08   30.44
   7 -12   5  179.39   35.98
  -7 -12   5  183.68   30.38
   7 -12   5  134.34   28.90
  -7 -12  -5  111.14   23.40
  -7 -12  -5  157.06   26.26
   7 -12  -5  184.88   32.63
  -7 -12   5  166.99   26.06
   8 -12   5   -0.90    8.01
  -8 -12   5    8.26    4.74
  -8 -12   5   -6.24    7.37
  -8 -12  -5    7.78    6.00
   8 -12   5  -14.85   11.03
  -8 -12   5   -5.15    7.91
  -8 -12  -5    3.89    5.49
   8 -12   5   -9.89    8.88
   8 -12  -5    9.17    8.16
  -9 -12   5   34.23   11.38
  -9 -12   5   28.19    8.57
  -9 -12  -5   37.51   14.94
   9 -12   5   29.48   11.89
  -9 -12  -5   41.98   12.66
   9 -12   5   13.63    6.00
   9 -12  -5   33.13   13.94
 -10 -12   5    0.25    4.05
  10 -12  -5   -2.87    4.41
 -10 -12  -5   -7.50    5.28
 -10 -12  -5    3.95    6.73
  10 -12  -5    2.55    3.39
  10 -12   5   -2.18    8.37
  10 -12   5   -1.97    4.26
  11 -12  -5    3.72    5.44
 -11 -12  -5    3.87    5.40
 -11 -12  -5   -1.30    4.42
  11 -12   5    1.34    5.10
 -11 -12   5    8.68    3.80
  11 -12  -5    6.25    4.38
 -12 -12  -5    5.97    4.54
 -12 -12  -5    9.34    6.76
 -12 -12   5   -1.39    2.21
  12 -12   5    3.79    6.09
  12 -12  -5   12.53    7.88
 -13 -12  -5   46.74    9.75
 -13 -12   5   52.55   10.49
 -13 -12  -5   49.81   10.44
 -13 -12   5   42.54    8.75
  13 -12  -5   46.59    9.62
  13 -12   5   46.93   11.29
  13 -12  -5   49.53   11.39
 -14 -12   5    9.43    3.94
 -14 -12   5    4.62    2.56
  14 -12  -5    7.42    1.89
  14 -12   5   10.58    4.89
  14 -12  -5   10.58    4.96
 -14 -12  -5   11.36    4.78
   0 -13   5   19.65   14.12
   0 -13   5   14.12   12.90
   0 -13  -5   19.50    7.38
   0 -13   5   24.29    8.32
   0 -13  -5   25.43    8.45
   0 -13   5   32.56   21.60
   0 -13   5   19.67    9.36
   0 -13  -5   47.26   22.10
   0 -13   5   12.20    6.56
  -1 -13   5  552.11   61.89
   1 -13   5  662.98   81.47
  -1 -13   5  576.21   65.08
  -1 -13  -5  568.13   43.67
   1 -13  -5  598.66   41.48
  -1 -13   5  680.42   46.08
  -1 -13  -5  632.13   43.90
   1 -13   5  564.60   41.30
   1 -13   5  506.81   73.36
  -1 -13   5  561.89   69.88
   1 -13  -5  469.97   68.77
  -1 -13  -5  654.08   72.21
   1 -13  -5  602.31   43.93
   1 -13   5  558.16   60.99
   1 -13   5  554.43   54.80
  -1 -13   5  596.10   75.46
  -2 -13   5   56.21   22.54
   2 -13   5   61.40   20.18
   2 -13  -5   54.38   13.47
   2 -13   5   43.49   15.09
  -2 -13   5   37.80   13.97
  -2 -13  -5   60.37   14.08
   2 -13   5   53.94   11.98
   2 -13  -5   54.13   12.13
  -2 -13   5   61.99   14.20
  -2 -13  -5   57.87   13.53
   2 -13   5   31.02   17.17
   2 -13  -5   46.44   20.31
  -2 -13  -5   45.93   16.69
  -2 -13   5   48.81   18.31
  -2 -13   5   65.54   20.35
  -3 -13  -5  209.94   28.44
   3 -13  -5  229.63   27.77
   3 -13   5  218.91   36.73
   3 -13  -5  221.11   24.96
  -3 -13  -5  239.70   28.77
  -3 -13   5  295.25   43.94
   3 -13  -5  267.50   43.90
  -3 -13  -5  235.90   34.30
   3 -13   5  222.29   43.86
   3 -13   5  201.98   24.68
  -3 -13   5  274.37   31.10
  -3  13   5  231.16   26.26
   3 -13   5  252.04   42.52
  -3 -13   5  203.51   34.75
  -3 -13   5  321.76   47.94
  -4 -13   5   51.64   18.16
  -4 -13   5   54.13   18.29
   4 -13   5    0.03   17.68
   4 -13   5   40.51   18.66
   4 -13  -5   53.41   12.89
  -4 -13  -5   65.28   16.67
  -4 -13   5   71.58   16.51
  -4 -13  -5   66.37   15.85
  -5 -13   5   14.99    7.54
  -5 -13   5   13.97    8.37
   5 -13   5    9.12    9.78
  -5 -13  -5   15.75   10.31
  -5 -13   5   16.14    9.00
  -5 -13  -5    4.83    4.82
   5 -13  -5   20.36    9.43
   5 -13   5   17.18   10.74
  -6 -13   5    5.39    5.09
  -6 -13   5    1.84    4.07
   6 -13  -5    2.29    6.17
  -6 -13  -5   -2.50    7.19
   6 -13   5   -1.51    7.04
  -6 -13   5  -15.51    8.32
  -6 -13  -5    2.85    4.40
   6 -13   5   -9.32   15.43
  -6 -13  -5   -6.40    8.75
   6 -13  -5    7.88    9.28
   7 -13  -5    9.24    4.80
  -7 -13   5   25.39   10.96
  -7 -13  -5    0.38    6.13
   7 -13   5    7.62    7.60
  -7 -13   5   13.96   11.00
   7 -13   5   16.58   10.33
  -7 -13   5   33.53   15.61
   7 -13  -5   21.62   12.38
  -7 -13  -5    8.32    7.41
   8 -13  -5    8.50    5.97
  -8 -13   5    5.73    4.81
  -8 -13  -5   -5.36    6.18
   8 -13   5   -5.32    6.63
  -8 -13   5    3.74    2.06
  -8 -13   5   -2.78    6.81
  -8 -13  -5   -4.78    3.72
   8 -13  -5   11.39    8.10
  -9 -13   5  180.29   25.28
  -9 -13  -5  152.03   25.01
  -9 -13  -5  177.30   26.39
   9 -13   5  143.94   28.05
   9 -13   5  127.27   23.34
   9 -13  -5  143.80   25.65
   9 -13  -5  169.59   26.44
  -9 -13   5  172.65   23.95
  10 -13   5    3.70    6.54
 -10 -13  -5   -4.61    6.05
  10 -13  -5   -9.90    6.19
 -10 -13  -5  -13.64   12.06
 -10 -13   5    5.98    5.97
  10 -13   5   -5.01    7.81
  10 -13  -5   -3.59    4.45
  11 -13   5  331.22   35.44
 -11 -13  -5  374.77   32.18
 -11 -13  -5  369.74   33.21
 -11 -13   5  349.91   29.38
  11 -13  -5  382.29   37.25
  11 -13  -5  294.05   29.07
 -12 -13   5    4.90    1.99
 -12 -13  -5    1.46    4.66
 -12 -13   5   -0.12    2.09
  12 -13   5    0.47    2.42
  12 -13  -5   -4.36    6.26
 -13 -13   5  292.72   22.17
 -13 -13  -5  254.11   20.54
  13 -13  -5  260.19   23.49
  13 -13   5  276.68   24.67
 -13 -13  -5  313.36   23.41
   0 -14   5   10.42   13.16
   0 -14  -5   -4.39    5.08
   0 -14   5   -4.76    7.35
   0 -14   5    2.65   10.13
   0 -14  -5    3.39    4.71
   0 -14   5    1.65    7.63
   0 -14   5   -4.19    3.98
   1 -14  -5   26.79    8.68
  -1 -14   5   12.85    5.48
   1 -14   5   13.02   11.02
  -1 -14   5   27.00   13.09
  -1 -14  -5   30.73   11.19
   1 -14  -5   27.03    9.47
   1 -14   5   45.62   22.70
   1 -14   5   13.43    6.31
  -1 -14   5   21.06    7.82
  -1 -14  -5   29.90    9.85
   1 -14  -5   25.03   11.55
   1 -14   5   20.18   16.48
   1 -14   5   44.58   18.97
  -1 -14   5   20.76   15.00
  -2 -14   5    8.28   10.30
  -2 -14   5   -2.50    6.65
   2 -14  -5    0.76    2.09
   2 -14   5   -9.20    6.89
  -2 -14   5   -2.16    7.25
  -2 -14  -5   -1.67    3.58
   2 -14   5   -4.59    4.48
   2 -14  -5   -2.25    3.40
  -2 -14   5    1.73    2.12
  -2 -14  -5    2.23    2.36
   2 -14   5    0.51    5.46
  -3 -14   5  321.95   45.24
  -3 -14  -5  444.22   40.45
   3 -14  -5  419.62   40.22
   3 -14   5  303.74   47.44
   3 -14  -5  374.21   35.09
  -3 -14   5  460.12   41.31
  -3 -14   5  461.98   52.59
   3 -14   5  374.85   54.26
  -3 -14  -5  406.99   41.16
  -3 -14   5  498.45   59.64
  -4 -14   5   -4.41   11.32
   4 -14   5   21.00   11.94
   4 -14  -5   -1.37    6.06
  -4 -14  -5   -1.88    4.62
  -4 -14   5   -3.09    8.49
  -4 -14  -5    1.66    2.95
  -4 -14   5    0.24    2.17
   4 -14   5   27.59   15.95
  -5 -14   5  437.49   49.64
  -5 -14  -5  521.53   48.01
   5 -14   5  381.80   51.68
   5 -14  -5  484.75   42.60
  -5 -14   5  570.13   49.00
  -5 -14  -5  525.19   52.90
   5 -14   5  548.79   71.67
  -5 -14   5  581.48   53.22
  -6 -14   5   32.57   12.51
  -6 -14   5   17.96   10.29
   6 -14  -5   48.60   21.81
   6 -14   5   19.80    6.88
  -6 -14  -5   20.22    8.64
  -6 -14   5   31.47   12.68
  -6 -14  -5   20.46    9.62
   6 -14  -5   24.88   10.76
   6 -14   5   11.26    7.73
  -7 -14  -5  221.28   36.70
  -7 -14  -5  411.10   41.64
  -7 -14   5  324.02   38.28
  -7 -14  -5  303.13   39.29
   7 -14   5  267.12   41.34
   7 -14   5  435.32   57.26
   7 -14  -5  507.46   58.11
  -7 -14   5  428.18   39.21
  -8 -14   5    3.63    5.21
   8 -14   5   -9.94   12.30
  -8 -14  -5   -2.14    4.13
  -8 -14  -5    3.38    3.03
  -8 -14  -5   -0.95    5.58
  -8 -14   5    1.83    2.13
   8 -14  -5   -9.11   10.17
   8 -14  -5   10.60   11.30
  -9 -14  -5  160.82   22.48
  -9 -14   5  164.38   24.09
  -9 -14   5  176.72   22.76
  -9 -14  -5  155.15   24.31
   9 -14   5  153.26   26.58
   9 -14  -5  159.91   26.26
   9 -14  -5  184.57   27.47
  -9 -14   5  147.37   20.38
  10 -14   5    8.75    8.05
  10 -14  -5   10.77    5.33
 -10 -14   5   15.71    7.56
 -10 -14  -5    9.93    4.30
 -10 -14   5    6.40    5.50
 -10 -14  -5   17.69    8.31
  10 -14   5    3.16    5.81
  10 -14  -5   21.97   10.27
 -11 -14   5   11.32    5.32
 -11 -14   5   10.58    4.62
 -11 -14  -5   16.32    6.25
 -11 -14  -5   17.49    6.48
  11 -14   5   18.72    8.45
  11 -14  -5   15.63    6.84
  11 -14  -5   13.65    5.66
 -12 -14   5   -2.34    3.47
 -12 -14  -5   -0.12    1.24
  12 -14   5    0.49    4.44
  12 -14  -5   -0.98    2.76
 -12 -14  -5    3.64    2.20
   0 -15   5   17.90   12.07
   0 -15   5   16.07   10.96
   0 -15   5   13.07    8.51
   0 -15  -5   13.37    5.74
   0 -15   5   27.19   18.66
   0 -15   5    7.08    8.55
  -1 -15   5   34.73   15.85
  -1 -15   5   27.88   15.88
   1 -15   5   34.44   28.55
   1 -15  -5   35.02   13.68
   1 -15   5   34.25   21.43
   1 -15   5   21.72    9.08
   1 -15  -5   27.20    8.85
  -1 -15   5   22.63    7.19
   1 -15   5   17.29    8.76
  -1 -15   5   46.60   23.00
  -1 -15  -5   28.41    8.85
  -2 -15   5   44.47   19.88
  -2 -15   5   15.11   12.09
   2 -15  -5   20.17   13.89
   2 -15   5    9.16   10.86
   2 -15  -5    4.74    2.98
   2 -15  -5    7.74    3.25
  -2 -15   5   18.08    7.40
  -2 -15  -5   28.98   10.69
  -2 -15   5    8.41   13.30
   2 -15   5   16.54   13.20
  -3 -15   5    6.17    8.26
  -3 -15   5    3.08    7.14
   3 -15  -5   -0.65    3.61
  -3 -15   5   -2.64    9.58
   3 -15  -5    2.05    3.71
  -3 -15   5   -1.50    4.88
  -3 -15  -5    4.47    4.63
   3 -15  -5    3.37   11.13
   3 -15   5   -3.41    9.73
   3 -15   5   13.80    9.20
  -4 -15   5    2.51    5.56
   4 -15  -5   -1.78    4.32
   4 -15   5    3.85    8.33
  -4 -15   5    3.01    4.22
  -4 -15  -5   -2.14    4.39
   4 -15   5  -11.85   13.58
   4 -15  -5  -11.01   12.41
  -5 -15   5    0.55    4.27
  -5 -15   5   -2.06    5.55
   5 -15   5   12.67    9.56
  -5 -15   5    1.00    4.19
  -5 -15  -5   -2.87    4.05
   5 -15  -5   -0.04    3.48
   5 -15   5   -8.82    9.95
   5 -15  -5  -14.03   16.41
  -6 -15   5    2.97    3.00
   6 -15  -5   -1.86    7.61
   6 -15   5    3.16    8.10
   6 -15   5   10.56    8.21
  -6 -15   5   -0.75    5.65
  -6 -15  -5    2.35    3.60
  -7 -15   5    6.60    5.76
  -7 -15   5    8.33    6.94
  -7 -15  -5    3.92    7.29
   7 -15   5   -9.69    9.27
   7 -15  -5    1.59    6.98
  -8 -15   5   25.54    8.73
  -8 -15  -5   10.50    4.31
  -8 -15   5   27.16   10.08
  -8 -15  -5   17.36    7.58
   8 -15  -5   29.73   13.85
   8 -15   5   17.11    9.57
  -9 -15   5   21.05    7.04
   9 -15   5   26.11   11.56
   9 -15  -5   35.16   11.62
  -9 -15   5   49.53   11.72
  -9 -15  -5   44.24   11.76
   9 -15  -5   46.90   13.81
  -9 -15  -5   36.08    8.93
  10 -15   5   -3.19    3.33
 -10 -15   5   10.46    5.22
 -10 -15  -5    5.80    4.20
 -10 -15  -5   -1.26    2.48
  10 -15  -5    2.25    2.63
  10 -15  -5    6.76    5.34
 -11 -15  -5   46.31    8.86
 -11 -15   5   50.16    8.62
   0 -16   5    0.08    3.63
   0 -16   5   -4.56   17.40
   0 -16   5    2.67   13.74
   0 -16  -5    0.31    3.84
   0 -16   5    0.60    3.51
   0 -16  -5    3.73    3.78
  -1 -16   5   11.63   10.91
  -1 -16   5   20.28   16.54
   1 -16   5   20.95    9.69
  -1 -16   5    8.17    7.92
  -1 -16  -5   10.19    6.16
  -1 -16   5   22.12   15.39
   1 -16  -5   24.91   13.58
  -1 -16  -5    5.65    4.77
   1 -16   5  -11.73   14.95
  -2 -16   5    6.56    6.52
  -2 -16   5    5.62    6.78
  -2 -16   5   30.82   18.95
   2 -16  -5   17.14    9.30
  -2 -16  -5    8.48    6.09
   2 -16   5    3.89    4.84
  -2 -16   5    9.70    5.74
   2 -16  -5    4.36    5.56
   2 -16   5    2.33   14.61
  -2 -16  -5   16.85    7.61
   3 -16  -5  341.03   35.10
  -3 -16   5  287.46   41.52
   3 -16   5  303.90   49.37
  -3 -16  -5  296.82   33.30
  -3 -16  -5  285.09   44.31
  -3 -16   5  346.51   35.55
   3 -16   5  325.20   47.19
   3 -16  -5  288.38   47.52
  -3 -16   5  407.68   51.38
  -4 -16   5    2.89    6.89
   4 -16  -5   -6.98   15.07
  -4 -16  -5   -3.46    6.24
  -4 -16   5    3.25    3.76
  -4 -16  -5    4.84    7.11
   4 -16   5   -1.14    8.20
   4 -16   5   11.50   10.49
  -5 -16   5  505.66   44.47
  -5 -16  -5  462.97   44.99
   5 -16   5  476.36   52.48
   5 -16   5  562.33   72.44
   5 -16  -5  468.81   70.91
  -5 -16   5  605.13   50.24
  -6 -16   5   -5.03    4.94
   6 -16   5  -27.38   15.74
   6 -16  -5    6.43    5.35
   6 -16   5  -12.48   14.62
  -6 -16  -5   12.78    7.83
  -6 -16   5    0.08    1.78
  -6 -16  -5   -6.47    5.58
  -7 -16   5  433.49   37.70
  -7 -16  -5  524.39   45.34
   7 -16   5  559.82   64.93
  -7 -16   5  495.11   36.61
  -8 -16   5    2.84    3.41
   8 -16   5   -4.90    7.44
   8 -16  -5   -2.30    3.86
  -8 -16   5    2.36    2.91
  -8 -16  -5   -1.09    2.48
  -9 -16  -5  315.63   25.43
  -9 -16  -5  302.71   25.58
   9 -16   5  291.25   31.46
   9 -16  -5  276.49   29.57
   0 -17   5    2.89    6.63
   0 -17   5   17.77   19.92
   0 -17  -5    0.87    5.15
  -1 -17   5   29.47   14.50
   1 -17   5   38.48   11.92
  -1 -17  -5   28.25   11.37
  -1 -17  -5   30.03   10.05
   1 -17   5   29.05   15.97
   1 -17  -5   32.91   13.43
  -1 -17   5   18.69   20.24
  -2 -17   5   12.15   12.47
   2 -17   5  -19.47   20.87
   2 -17   5   -5.38    8.57
  -2 -17   5   -1.79   12.83
   2 -17  -5    3.92    6.26
  -2 -17  -5   13.57    7.98
  -2 -17  -5   15.23    6.46
  -2 -17   5    4.45    5.04
   2 -17  -5   11.19    7.63
   3 -17   5   36.46   17.84
  -3 -17   5   48.01   16.68
   3 -17   5   68.13   19.31
  -3 -17   5   70.81   17.16
   3 -17  -5   58.96   13.77
  -3 -17  -5   84.36   24.16
  -3 -17  -5   46.77   13.34
   3 -17  -5   79.13   23.70
  -3 -17   5   38.72   12.61
  -4 -17   5   -8.88    7.63
   4 -17   5   -4.75   12.60
   4 -17   5  -11.15   12.20
   4 -17  -5   10.27    7.14
  -4 -17  -5   -8.94    6.90
  -4 -17   5   -4.86    4.51
  -4 -17  -5   -5.66    5.73
  -5 -17   5   -4.53    4.55
  -5 -17  -5    6.77    4.27
  -5 -17   5    0.54    3.40
  -5 -17  -5   10.01    7.20
   5 -17   5   21.93   13.53
   5 -17  -5   -1.31   11.65
   5 -17   5  -10.50   16.70
  -6 -17   5    7.47    2.47
  -6 -17  -5    5.53    2.85
   6 -17   5   16.43   15.43
  -6 -17  -5    4.99    4.75
  -6 -17   5   14.11    6.78
   6 -17  -5   22.84   11.65
  -7 -17   5    7.41    4.62
   7 -17   5    2.04    7.16
  -7 -17  -5   -1.09    3.58
  -7 -17  -5    1.00    3.30
   7 -17  -5    4.40    9.65
   8 -17   5   -3.48    5.12
   8 -17  -5    3.49    5.06
   0 -18   5   23.68   17.18
   0 -18  -5    2.45    4.46
  -1 -18   5   22.90   21.94
   1 -18  -5    5.08    9.39
  -1 -18  -5    7.79    6.38
   1 -18   5  -23.31   23.74
   2 -18   5   31.82   12.50
   2 -18   5  -24.17   27.16
  -2 -18   5   29.90   16.79
   2 -18  -5    9.43    7.08
  -2 -18  -5    2.21    4.87
  -2 -18   5   -4.09    7.35
   3 -18  -5  129.84   19.11
   3 -18   5  117.88   22.98
   3 -18   5  122.74   36.72
   3 -18  -5  136.93   27.42
  -3 -18  -5  167.53   27.99
  -3 -18   5  181.86   27.60
   4 -18  -5   -5.35   12.18
  -4 -18  -5    7.28    3.74
  -4 -18  -5   -1.36    4.51
   4 -18   5    1.25    4.83
  -4 -18   5    4.12    3.13
  -5 -18  -5  361.95   29.07
   5 -18   5  353.61   48.30
   5 -18  -5  275.41   50.23
   0   0  -6 4081.17  133.24
   0   0   6 4098.22   78.74
  -1   0  -6    8.74    7.53
  -1   0   6    3.84    2.88
   1   0   6    5.12    2.42
   1   0  -6    3.73    1.79
   1   0  -6   -1.99    3.60
  -1   0   6    3.84    1.94
  -1   0  -6    4.94    3.72
  -1   0   6    2.60    2.22
  -1   0  -6    6.08    3.06
  -2   0   6 4162.96  127.33
  -2   0   6 4632.69  109.72
   2   0  -6 4313.20   73.57
  -2   0   6 4969.64   63.59
   2   0   6 4214.95   64.60
  -2   0  -6 4914.44  137.43
  -3   0   6   -6.79   15.55
   3   0  -6   -1.68    2.34
   3   0   6   -0.63    1.26
  -3   0   6   -0.69    1.15
  -3   0  -6    0.43    1.64
  -4   0   6 1180.88   34.26
   4   0  -6 1279.34   46.52
   5   0  -6   -0.10    1.46
  -5   0   6    0.69    1.33
  -5   0  -6    4.30    3.36
   5   0   6   -2.18    8.31
  -6   0  -6  183.32   18.50
   6   0  -6  165.15   19.25
   6   0   6  229.53   28.59
   7   0  -6    3.60    3.41
   7   0   6   -0.74    5.17
   8   0  -6  136.37   20.19
   8   0   6  174.82   23.69
   9   0   6    0.43    2.07
  -9   0   6   -4.43    7.75
   9   0  -6   -6.31    5.58
  10   0   6  623.46   43.73
 -10   0   6  602.77   51.40
 -11   0   6   13.89    9.56
  11   0   6    2.02    4.75
 -12   0  -6 1048.60   62.14
 -12   0   6  935.96   60.97
  12   0   6 1031.82   56.61
  13   0   6    5.22    4.96
 -13   0  -6    7.09    6.28
  13   0  -6    0.11    3.20
  13   0   6   -0.88    2.77
  13   0   6   -7.31    7.05
  13   0  -6    5.78    6.27
  14   0   6 1007.63   61.01
  14   0  -6 1086.89   62.15
  14   0   6  931.44   60.18
 -14   0   6  928.62   57.64
  15   0   6    3.86    4.93
  15   0   6   -2.17    2.90
  15   0  -6   11.25    5.97
 -15   0   6    0.48    4.71
  16   0   6   90.97   16.32
  16   0  -6   43.45   14.04
 -16   0   6   47.27   12.78
  16   0   6   77.12   14.60
  17   0  -6    1.35    3.14
  17   0  -6    3.21    3.08
 -17   0   6   -1.42    4.24
  17   0   6   -8.37    6.76
  18   0  -6   15.33    5.14
  18   0   6    6.13    2.79
   0  -1   6    4.62    2.73
   0   1  -6    3.75    5.49
   0  -1  -6    4.36    2.99
   0  -1   6    1.11    1.57
   0   1  -6    4.60    3.96
   0  -1   6    0.14    1.64
   0   1  -6    1.24    1.71
   0  -1  -6    2.38    3.93
   1  -1  -6   56.05    6.97
  -1  -1   6   38.39    6.62
  -1   1   6   40.25   12.23
   1   1  -6   47.64   13.98
  -1  -1   6   47.71    6.45
   1  -1   6   46.40    7.02
   1  -1   6   45.02    7.86
   1   1  -6   45.10    7.06
   1  -1  -6   41.57    6.91
  -1  -1  -6   43.64    6.66
  -1  -1  -6   47.75    7.50
  -1   1  -6   41.39   10.35
  -1  -1  -6   47.40   14.25
  -1   1  -6   52.73   13.89
   1  -1  -6   46.38   13.48
  -2  -1   6  106.54    9.96
  -2  -1   6   91.80   16.90
   2  -1  -6   90.14   10.88
   2   1  -6   82.69   10.04
  -2  -1  -6   91.60   10.63
  -2   1  -6   88.46   17.25
   2  -1   6   91.27    9.75
   2  -1   6   85.60   13.48
  -2  -1  -6  110.79   21.35
   2   1   6  108.77   22.67
  -3  -1   6   78.56    8.96
  -3   1  -6   69.03   14.07
  -3  -1   6   73.78   20.00
  -3   1   6   74.86   17.28
   3  -1  -6   81.66   11.22
   3   1  -6   91.95   11.03
   3  -1   6   73.40   15.50
   3  -1   6   80.74    9.48
   3   1   6  100.63   22.19
  -4  -1  -6  426.26   26.78
   4   1   6  407.28   46.85
   4  -1  -6  398.98   26.99
  -4  -1   6  292.98   50.53
   4   1  -6  384.93   25.15
   4  -1  -6  356.99   35.79
   4  -1   6  373.38   21.70
  -4   1   6  365.07   42.97
  -4  -1   6  408.14   21.70
   4  -1   6  306.98   34.79
   5  -1  -6 1054.45   48.02
  -5  -1  -6 1237.40   48.33
   5   1  -6 1164.34   47.34
   5  -1   6 1059.83   69.07
   5  -1   6 1126.82   39.59
  -5  -1   6 1085.51   38.37
  -6  -1  -6  188.01   20.47
   6  -1  -6  203.33   22.49
   6   1  -6  209.26   21.54
  -6   1  -6  203.22   19.07
   6  -1   6  238.21   31.82
   7  -1   6  606.79   48.42
   7   1   6  622.31   46.10
   7  -1  -6  550.38   39.17
   7   1  -6  525.85   36.86
  -7  -1  -6  594.39   36.85
   8  -1   6   76.77   16.66
  -8  -1   6   59.26   14.96
   8  -1  -6   54.05   13.59
   8   1  -6   50.09   13.20
   8   1   6   78.69   15.12
   9  -1   6   95.93   18.55
  -9   1   6  102.25   21.74
   9   1  -6   73.25   14.53
   9  -1  -6   57.45   14.09
  -9  -1   6   81.39   18.32
   9   1   6   72.70   14.69
 -10  -1   6   35.40   11.94
 -10   1   6   25.92   10.57
  10  -1   6   28.89    9.43
  10   1   6   28.59    9.65
 -11  -1  -6   10.62    5.70
  11   1   6    9.04    5.12
  11  -1   6    5.36    2.63
 -11  -1   6   12.41    6.84
 -11   1   6    4.69    6.57
  12  -1   6    0.83    2.50
 -12  -1  -6   -4.90    4.88
  12  -1  -6   -4.10    5.37
 -12   1   6   -4.13    7.55
 -12  -1   6   11.16    6.30
  12   1   6    3.07    4.80
  13   1   6   25.13    9.94
  13  -1   6   28.93    9.58
 -13  -1  -6   26.79    9.59
  13  -1   6   17.31    6.54
 -13  -1   6   10.26    5.39
  13   1   6   22.37    8.79
  13  -1   6   13.19    9.61
 -13   1  -6   22.96    9.01
  13  -1  -6   16.35    6.47
  13   1  -6   27.36   10.60
  13  -1  -6   18.39   11.15
 -13  -1   6   21.17    8.23
  13   1   6   21.38    8.01
  14   1   6   27.74    9.52
  14  -1   6   34.53   10.50
  14  -1   6   29.15   12.74
  14  -1  -6   34.65   13.88
  14   1  -6   40.88   11.80
 -14  -1   6   44.28   13.45
 -14   1   6   22.43    9.52
  15  -1   6  281.19   30.15
  15   1   6  271.03   29.88
  15   1  -6  234.60   31.12
  15  -1   6  227.15   28.68
  15  -1  -6  279.40   30.31
 -15   1   6  248.32   27.94
 -15  -1   6  236.26   27.00
  16  -1   6   77.71   15.96
  16  -1  -6   83.97   15.85
  16   1  -6   85.67   14.95
 -16   1   6   85.51   14.16
 -16  -1   6   78.88   14.42
  16  -1   6   81.82   14.67
  16   1   6   66.81   13.97
  17   1   6  148.48   18.40
  17  -1   6  150.89   18.05
  17   1  -6  161.73   19.22
  17  -1   6  158.95   18.46
 -17   1   6  176.26   19.19
  17  -1  -6  154.88   18.39
  17  -1  -6  135.47   17.91
 -17  -1   6  145.94   17.44
  18   1   6   36.51    9.03
  18  -1  -6   52.53    9.14
  18   1  -6   41.26    8.37
  18  -1   6   33.76    7.72
   0  -2  -6 1807.03   39.48
   0   2  -6 1483.16   79.56
   0  -2  -6 1351.57   42.65
   0   2   6 1478.67   62.81
   0  -2   6 1620.37   39.96
   0   2  -6 1624.43   74.33
   0  -2   6 1425.87   39.55
  -1  -2   6  191.50   13.62
  -1   2  -6  212.53   29.19
  -1  -2  -6  165.74   14.52
   1  -2   6  185.02   13.88
   1  -2  -6  163.53   15.48
   1   2  -6  176.26   14.30
  -1   2   6  194.11   23.22
  -1   2  -6  162.58   22.15
   1  -2   6  173.04   13.60
   1  -2  -6  210.75   14.46
  -1  -2   6  180.24   14.56
  -2  -2   6 1940.11   78.83
   2  -2  -6 2031.71   48.15
   2  -2  -6 1655.19   52.72
  -2  -2  -6 1820.16   49.01
  -2   2  -6 2215.81   88.21
  -2   2   6 1889.27   77.74
   2  -2   6 1969.53   46.84
  -2  -2   6 2014.41   45.27
   2  -2   6 1820.39   53.25
   2   2  -6 1899.29   48.61
  -3  -2   6  277.40   36.38
  -3  -2   6  337.75   19.39
   3  -2  -6  319.80   21.11
  -3  -2  -6  302.19   20.55
  -3  -2  -6  364.05   20.48
  -3   2   6  270.49   33.96
   3  -2  -6  296.88   23.38
   3   2  -6  311.81   20.51
   3  -2   6  316.74   19.53
  -3  -2  -6  314.18   23.01
   3  -2   6  278.56   25.22
  -4  -2  -6  555.54   32.24
  -4  -2  -6  617.89   26.41
  -4  -2   6  545.76   26.62
   4  -2  -6  475.36   32.79
   4   2  -6  583.92   30.32
   4  -2   6  411.90   35.62
   4  -2   6  525.53   26.52
  -4   2   6  585.00   25.21
   5  -2   6   46.18   14.14
  -5  -2  -6   83.81   13.23
  -5   2   6   81.55   10.95
   5   2  -6   79.58   12.12
   5  -2  -6   65.24   12.51
   5  -2   6   69.44   10.54
  -6  -2  -6  370.96   29.07
  -6  -2  -6  350.20   24.04
   6  -2  -6  312.87   28.70
   6   2  -6  399.50   28.95
  -6   2   6  401.48   28.80
   6  -2   6  301.47   24.20
   6  -2   6  271.34   34.34
  -6  -2   6  351.03   33.99
   7  -2  -6   60.07   12.78
   7  -2   6   63.97   16.76
  -7  -2   6   70.78   15.12
  -7   2   6   61.49   15.48
   7   2  -6   70.55   13.30
   7  -2   6   63.52   10.97
  -7  -2  -6   60.16   12.53
  -8  -2   6  411.75   39.80
   8  -2  -6  431.55   36.40
   8   2  -6  487.50   35.65
  -8  -2  -6  424.68   33.48
  -8   2   6  325.47   40.53
   8   2   6  413.83   36.34
   8  -2   6  500.73   45.57
  -9  -2  -6   12.38    8.07
   9  -2   6   12.41    7.02
   9   2   6   11.35    6.58
  -9  -2   6   12.34    8.12
   9  -2  -6    1.54    5.33
  -9   2   6   11.87    8.28
  10  -2   6  916.27   58.10
  10  -2  -6  972.15   65.90
 -10  -2   6  871.26   59.08
 -10   2   6  768.93   57.49
 -10  -2  -6  871.66   50.92
  10   2   6  806.90   49.47
  11  -2  -6   18.91    8.44
 -11  -2  -6   13.24    7.75
  11   2   6   12.88    7.06
 -11  -2   6    7.59    4.58
 -11   2   6   15.66    9.04
  11  -2   6   19.60    7.42
 -12  -2   6 1032.99   64.86
  12  -2   6 1027.38   58.29
  12   2   6 1066.23   66.11
  12  -2  -6 1195.74   66.72
 -12  -2  -6 1034.55   59.54
  12   2   6  973.66   54.90
  13   2   6  121.58   21.12
  13  -2   6  141.06   24.84
 -13   2  -6   88.97   20.80
  13  -2   6  121.78   19.65
 -13  -2   6   49.35   15.57
  13  -2  -6  131.41   23.80
  13  -2   6  107.87   21.26
 -13  -2  -6  113.16   19.35
 -13  -2   6   89.34   18.70
 -13   2   6  106.84   20.25
  14   2   6  881.70   57.25
  14  -2   6 1006.97   60.61
  14  -2   6  903.62   60.65
  14  -2  -6  964.30   60.04
 -14  -2   6  915.58   56.58
 -14   2   6  979.90   58.57
  15  -2   6   32.58    9.19
  15   2   6   26.28    8.55
  15  -2   6    8.07    6.77
  15  -2  -6   44.29   12.53
 -15   2   6   29.55    9.28
 -15  -2   6   26.98    9.76
  16  -2   6   80.13   14.96
  16   2   6   86.81   15.85
  16  -2  -6   63.64   14.78
 -16   2   6   92.96   16.03
 -16  -2   6   71.89   14.02
  16  -2   6   76.72   14.27
  17   2  -6    2.06    3.36
  17  -2   6    6.47    4.59
  17  -2  -6   -0.56    3.55
 -17   2   6    4.32    3.52
 -17  -2   6   11.64    4.37
  17  -2   6    6.46    3.77
  17   2   6    7.09    5.26
  17  -2  -6    0.67    2.77
  18  -2  -6    3.01    2.71
  18   2  -6    1.14    1.73
  18  -2   6    1.24    1.57
 -18  -2   6    0.88    1.88
  18   2   6   -4.29    3.96
   0  -3   6    1.50    1.36
   0  -3   6   -2.25    2.16
   0  -3  -6    2.63    2.44
   0  -3  -6   -0.31    2.18
   0   3   6    1.14    4.83
   0  -3   6   -0.99    1.33
  -1  -3  -6   24.92    6.48
   1  -3   6   32.08    6.15
   1  -3   6   26.29    5.66
  -1  -3  -6   25.15    7.04
  -1   3   6   25.01    9.66
  -1   3  -6   24.73    9.65
   1  -3   6   31.21    5.63
   1  -3  -6   32.89    5.97
  -1  -3   6   22.66    5.26
  -1  -3   6   20.64    4.93
   1  -3  -6   24.20    7.10
   1   3  -6   21.70    5.04
  -2  -3  -6  406.77   22.96
   2  -3   6  367.57   22.60
  -2   3  -6  446.84   39.77
   2  -3  -6  405.36   22.36
   2  -3  -6  382.61   29.27
   2   3  -6  399.69   22.48
   2  -3   6  370.12   21.30
  -2  -3   6  382.96   20.85
   3  -3  -6  339.87   28.32
  -3  -3  -6  396.47   23.11
  -3  -3   6  345.38   40.74
   3  -3   6  328.79   20.99
  -3  -3  -6  349.87   26.41
   3  -3  -6  355.60   22.58
   3   3  -6  360.47   22.11
   3  -3   6  352.02   25.71
  -3  -3   6  365.53   21.71
  -4  -3  -6 3639.75   70.64
  -4  -3  -6 3146.59   81.13
   4  -3  -6 3244.50   76.60
  -4  -3   6 2475.78   61.49
  -4  -3   6 2977.60   95.85
   4  -3  -6 3299.17   91.39
   4   3  -6 3506.33   73.19
   4  -3   6 3371.07   70.38
  -4   3   6 3541.90   63.00
   4  -3   6 2842.33   87.83
  -5  -3  -6  704.37   33.54
  -5  -3   6  652.08   45.66
   5  -3  -6  721.84   44.40
   5  -3  -6  664.08   39.87
  -5  -3  -6  685.79   39.51
   5  -3   6  622.83   33.90
   5   3  -6  765.37   37.10
  -5   3   6  651.77   31.09
  -6  -3  -6 2150.80   71.95
  -6   3   6 2261.42   66.84
  -6  -3   6 2015.22   81.82
  -6   3  -6 2339.26   74.91
   6  -3  -6 2238.46   79.44
   6  -3   6 2207.25   66.03
  -6  -3  -6 2059.87   61.66
   6   3  -6 2391.57   70.09
   6  -3  -6 1934.00   78.06
  -7   3  -6  471.52   35.03
  -7  -3  -6  415.21   33.30
   7  -3  -6  404.32   34.61
  -7  -3  -6  386.79   28.75
  -7  -3   6  382.21   36.52
   7  -3  -6  319.92   35.74
  -7   3   6  411.68   33.49
   7  -3   6  390.88   29.91
   7   3  -6  467.37   33.01
  -7  -3  -6  464.45   37.26
   7  -3   6  321.57   39.06
  -8  -3  -6 1336.88   59.71
  -8  -3   6 1118.57   63.00
   8  -3   6 1312.31   79.26
  -8  -3  -6 1120.22   55.50
  -8   3   6 1098.98   64.20
   8  -3   6 1110.31   53.82
  -9  -3  -6  145.08   20.31
   9  -3  -6  127.37   25.17
  -9   3   6   70.75   22.57
  -9  -3   6  122.85   21.64
   9   3   6  103.91   18.88
   9  -3   6  154.61   26.58
 -10   3   6  245.88   31.76
  10  -3   6  269.40   33.30
  10   3   6  280.02   30.12
  10  -3  -6  304.42   37.83
 -10  -3   6  255.27   31.11
 -10   3   6  250.95   35.44
 -10  -3  -6  274.63   28.34
 -11   3   6   -0.48    5.71
  11  -3   6   -1.10    3.15
  11   3   6    0.62    4.07
  11  -3  -6    0.79    3.28
 -11  -3  -6    4.06    5.71
 -11  -3   6    5.61    5.02
  12   3   6    2.51    4.90
 -12  -3  -6    2.45    2.22
  12   3   6    3.81    4.95
  12  -3   6    2.15    3.37
  12  -3  -6   10.89    7.73
 -12  -3   6    8.29    5.75
  12  -3   6   14.37    7.54
 -12  -3   6    5.40    6.91
  12  -3  -6    7.80    6.95
  13   3   6   20.53    9.81
  13  -3   6   22.00   10.27
 -13  -3   6    3.25    3.02
  13  -3  -6   15.32    7.24
 -13  -3   6   28.88   12.29
  14   3   6   89.25   18.19
  14  -3   6   73.35   17.04
  14  -3  -6  100.28   20.71
 -14  -3   6   91.13   17.41
  15   3   6  171.43   23.74
  15  -3   6  104.07   19.21
  15  -3  -6   99.93   20.43
 -15  -3   6  127.76   19.37
  16   3  -6  341.36   31.49
  16   3   6  370.17   33.06
  16  -3   6  283.29   29.93
  16  -3  -6  280.96   33.41
 -16  -3   6  317.77   28.99
  17  -3   6   39.26    9.08
  17   3  -6   37.55    8.99
  17  -3  -6   32.93    7.83
  17  -3  -6   39.27    9.58
  17  -3  -6   32.48    8.83
 -17  -3   6   48.84    9.83
  17   3   6   43.43   10.37
  18   3  -6  278.30   19.90
  18  -3   6  311.74   21.48
 -18  -3   6  226.00   17.53
  18  -3  -6  309.46   21.73
  18   3   6  258.53   20.24
   0  -4   6  593.29   25.97
   0  -4  -6  618.52   26.74
   0  -4  -6  547.46   42.75
   0  -4  -6  554.74   37.43
   0  -4   6  571.65   27.14
  -1  -4   6  941.80   35.18
   1  -4   6  972.92   32.78
   1  -4  -6 1025.44   53.64
  -1  -4  -6  894.04   46.45
  -1  -4  -6  934.21   36.96
  -1  -4   6  984.60   34.13
   1  -4   6  975.02   35.31
   1  -4  -6 1042.16   58.48
   1  -4   6  963.00   34.40
   1  -4  -6  994.74   34.97
   1   4  -6  901.25   65.74
  -2  -4   6  581.98   27.23
  -2  -4  -6  541.26   35.02
  -2  -4   6  573.27   28.25
   2   4  -6  583.38   27.85
  -2  -4  -6  601.05   29.88
   2  -4  -6  564.42   27.33
   2  -4   6  581.06   28.20
   2  -4  -6  643.02   46.28
   2  -4  -6  562.66   43.06
   2  -4   6  575.88   28.55
  -3  -4   6  365.52   39.59
  -3  -4  -6  342.66   22.82
  -3  -4   6  310.59   21.36
   3  -4  -6  332.41   32.71
   3   4  -6  338.34   21.55
   3  -4   6  302.82   21.53
   3  -4   6  287.74   22.79
  -3  -4  -6  289.60   25.64
   3  -4  -6  294.09   21.11
   4  -4  -6  106.52   13.90
  -4  -4  -6  104.70   15.58
  -4  -4  -6  123.24   14.17
  -4  -4   6  132.90   14.80
  -4  -4   6  157.81   25.46
   4   4  -6  142.69   14.61
   4  -4  -6  131.28   20.71
   4  -4   6  110.27   13.67
   4  -4   6  119.27   16.91
  -5  -4  -6   13.30    5.72
   5  -4   6   21.37    8.02
  -5  -4  -6   19.25    6.22
  -5  -4   6   10.45    6.55
   5  -4  -6   15.58    6.88
   5  -4  -6   10.70    5.79
   5   4  -6   23.00    6.45
   5  -4   6   14.71    5.50
  -5   4   6   19.14    5.56
   6  -4  -6   11.97    6.78
  -6  -4  -6    6.19    2.44
  -6  -4   6   18.23    8.43
   6  -4  -6   25.05    9.68
   6  -4   6    7.53    3.31
   6  -4   6   11.77    6.01
  -6   4   6   11.28    3.80
  -6  -4  -6    9.36    4.79
   7  -4  -6   26.87   10.46
   7  -4   6   18.57   11.32
   7  -4  -6   27.55   10.93
  -7  -4  -6   28.41    7.75
  -7  -4   6   34.18    9.12
  -7  -4  -6   32.80    9.99
  -7   4   6   33.02    9.60
   7  -4   6   18.51    7.95
  -8  -4  -6   43.57   11.67
  -8   4   6   28.44    9.10
   8  -4   6   47.76   17.47
  -8  -4  -6   26.75    8.27
  -8  -4   6   45.38   12.60
  -8  -4  -6   31.61   11.48
   8  -4   6   40.33   11.69
  -8   4  -6   49.56   12.52
   8  -4  -6   23.21   11.01
  -9  -4  -6   54.45   12.56
   9  -4   6   44.07   13.57
  -9   4  -6   44.80   11.62
   9  -4  -6   28.64   11.43
  -9   4   6   51.65   14.07
   9  -4   6   39.93   11.51
  -9  -4  -6   48.52   11.31
  -9  -4   6   58.68   14.30
 -10   4   6   38.85   15.98
  10  -4   6   73.24   19.06
 -10  -4   6   78.78   16.82
  10   4   6   50.49   13.11
  10  -4  -6   61.78   18.64
 -10  -4  -6   87.32   15.85
  11   4   6  405.84   37.34
 -11  -4  -6  486.12   38.63
  11  -4  -6  488.70   47.49
 -11  -4   6  396.42   38.86
 -11   4   6  386.47   44.51
  11  -4   6  456.89   44.14
  12   4   6  101.19   20.26
 -12   4   6   82.91   19.26
 -12  -4  -6  122.97   19.69
 -12  -4   6   94.02   18.30
  12  -4   6  100.41   20.76
 -12  -4   6   98.42   20.34
  12   4   6   87.25   16.89
  12  -4   6   77.15   16.92
  12  -4   6   79.21   17.98
  12  -4  -6   86.60   19.40
 -12  -4   6   94.26   20.20
  12  -4  -6  106.60   20.43
  13   4   6  377.74   37.71
  13  -4   6  425.70   41.59
 -13  -4   6  369.82   38.58
  13  -4  -6  478.84   44.65
  13  -4   6  516.29   43.66
 -13  -4   6  441.79   41.22
  14   4   6   53.11   14.35
  14  -4   6   52.46   13.27
  14  -4  -6   75.97   17.92
 -14  -4   6   59.23   13.68
 -15  -4   6   28.20    8.62
  15  -4  -6   21.01    8.51
  15  -4   6   12.04    6.67
  15   4   6   24.53    8.14
  16   4  -6   28.97    9.52
  16  -4   6   20.55    6.96
  16  -4  -6   14.13    8.97
 -16  -4   6   17.18    7.38
  16   4   6   19.32    8.32
  17   4  -6    7.52    4.04
  17  -4  -6    9.69    5.03
  17  -4   6    4.14    3.41
  17  -4  -6   -0.14    1.75
  17  -4  -6    8.31    4.49
 -17  -4   6    7.04    4.04
  17   4   6    1.44    1.95
  18  -4   6   18.78    5.19
 -18  -4   6   16.32    4.69
  18   4   6   17.84    4.40
   0  -5  -6    3.80    5.31
   0  -5  -6    2.19    2.95
   0  -5   6    0.68    1.13
   0  -5   6    0.17    2.40
   1  -5  -6   91.73   13.21
   1  -5  -6   82.23   11.93
  -1  -5  -6   84.68   11.68
   1  -5  -6   84.28   11.19
   1  -5  -6   85.05   17.24
   1  -5  -6   92.73   21.21
  -1  -5   6   93.45   11.08
  -1  -5  -6   89.25   15.58
  -1  -5   6   85.03   11.01
   1  -5   6   81.73   10.76
   1  -5   6   86.23   10.29
   2  -5  -6  401.72   43.38
   2  -5  -6  396.47   28.44
  -2  -5  -6  410.55   26.09
   2   5  -6  395.36   23.39
   2  -5  -6  372.39   23.03
  -2  -5   6  427.88   24.76
   2  -5   6  406.88   24.99
   2  -5  -6  497.66   49.67
  -2  -5  -6  347.67   30.89
  -2  -5   6  392.78   23.72
   3  -5   6  133.69   15.63
  -3  -5  -6  116.72   17.97
   3  -5  -6  134.84   18.08
   3  -5  -6  128.79   14.30
  -3  -5   6  170.23   31.06
   3  -5   6  133.95   14.61
   3   5  -6  139.45   13.87
  -3  -5   6  134.54   14.75
  -3  -5  -6  129.10   14.63
   3  -5  -6  169.64   26.69
  -4  -5  -6 2413.09   80.42
   4  -5  -6 2535.06   69.44
   4   5  -6 2979.20   66.33
  -4  -5   6 2772.29   73.05
  -4  -5   6 3576.03  128.37
   4  -5   6 2664.07   80.73
   4  -5  -6 3196.22  113.13
   4  -5   6 2698.16   70.11
   4  -5  -6 2552.69   87.48
   5  -5   6    9.12    4.55
   5  -5  -6    7.80    6.12
  -5  -5  -6    8.99    4.08
  -5  -5   6   22.05   10.64
   5  -5  -6    9.32    6.91
  -5  -5  -6   12.46    5.04
   5  -5   6    2.37    1.98
   5  -5  -6    4.40    4.51
  -5   5   6   10.90    4.62
  -6  -5  -6 2216.84   78.39
  -6  -5  -6 2150.23   71.73
   6  -5  -6 2222.93   82.11
   6  -5   6 2342.09   75.54
  -6   5   6 2330.82   65.72
   7  -5   6    3.63    3.37
   7  -5  -6   10.37    6.96
  -7  -5  -6    3.73    1.68
  -7  -5   6   15.53    7.29
  -7   5   6    6.61    5.99
  -7  -5  -6    8.25    5.25
   7  -5   6    7.86    4.83
   8  -5   6  708.17   65.19
  -8  -5  -6 1144.24   58.96
   8  -5  -6  693.90   57.78
  -8  -5  -6  959.85   53.87
  -8  -5   6 1033.45   61.10
  -8   5   6  970.97   54.61
   8  -5   6  794.44   51.82
  -9  -5  -6    5.68    4.15
  -9  -5  -6    7.08    4.41
  -9  -5  -6    8.30    7.05
   9  -5   6    3.20    3.20
  -9   5   6   -3.93    7.71
  -9  -5   6   -1.83    5.45
   9  -5   6   -0.81    5.80
   9  -5  -6    7.97    8.50
 -10   5   6  193.80   33.81
  10  -5   6  329.49   41.99
  10  -5  -6  292.05   39.97
 -10  -5   6  324.88   34.18
  10  -5   6  319.45   35.24
 -10  -5  -6  285.13   29.27
 -11   5   6    6.61    7.18
  11  -5  -6   12.95    6.17
 -11  -5   6   10.70    6.73
  11   5   6    5.26    3.62
 -11  -5  -6    5.10    4.84
  12   5   6    8.77    6.06
 -12   5   6   -2.27    5.44
 -12  -5   6   -2.27    4.26
  12  -5   6    2.73    3.57
 -12  -5   6   14.25    8.21
  12   5   6    6.78    6.48
 -12  -5   6   10.48    5.45
  12  -5   6    5.10    5.95
  12  -5  -6    0.14    6.24
  12  -5  -6   17.90    8.75
  13   5   6    7.80    6.50
  13  -5   6   12.05    6.21
  13  -5  -6   11.53    6.23
  13  -5   6    8.24    6.57
  13  -5  -6   19.42    7.46
 -13  -5   6   17.98    7.80
  14   5   6  265.12   29.75
  14  -5   6  284.52   30.89
  14  -5   6  295.21   32.30
 -14  -5   6  258.60   28.45
  14  -5  -6  280.79   34.00
 -14  -5   6  302.97   32.26
  15  -5   6   23.86    8.76
  15  -5   6   21.16    7.12
  15   5  -6   26.96    9.63
  15  -5  -6   32.28   10.43
 -15  -5   6   39.22   11.58
  15   5   6   18.79    6.92
  16   5  -6  682.78   40.66
  16  -5  -6  561.61   40.13
  16  -5   6  539.60   38.48
  16   5   6  576.85   37.74
 -16  -5   6  625.07   38.88
  16  -5  -6  679.67   44.04
  17   5  -6   -0.30    1.39
 -17  -5   6   -3.27    2.54
  17  -5  -6    4.73    3.23
 -17  -5   6   -1.62    3.33
  17   5   6   -4.25    4.27
  17  -5   6   -1.97    3.21
   0  -6  -6   95.65   21.54
   0  -6  -6   84.32   12.95
   0  -6   6   71.40   18.58
   0  -6  -6   71.87   13.09
   0  -6   6   68.21   11.13
   0  -6   6   80.91   10.37
  -1  -6  -6  627.46   48.88
   1  -6   6  677.37   30.10
   1  -6  -6  737.81   63.60
  -1  -6  -6  659.76   35.07
  -1  -6   6  688.33   31.48
   1  -6   6  592.02   52.71
  -1  -6   6  588.31   55.14
   1  -6  -6  636.85   36.58
   1  -6   6  673.49   32.84
  -1  -6  -6  659.13   51.47
  -1  -6   6  657.65   33.21
  -2  -6   6  174.37   16.97
  -2  -6   6  207.55   32.02
   2  -6  -6  177.78   20.18
  -2  -6  -6  165.67   17.86
   2  -6   6  175.60   17.07
  -2  -6   6  186.96   17.13
   2   6  -6  177.25   15.82
   2  -6  -6  149.42   28.26
   2  -6   6  161.48   25.52
  -2  -6  -6  160.53   23.36
   3  -6  -6  641.48   42.74
   3  -6  -6  733.09   63.75
  -3  -6   6  724.49   63.16
   3   6  -6  639.85   30.90
   3  -6  -6  650.66   33.82
  -3  -6   6  730.81   35.97
   3  -6   6  652.34   34.66
  -3  -6  -6  637.27   44.83
  -4  -6   6   52.64   18.97
   4  -6  -6   44.97    9.49
  -4  -6  -6   38.71   11.20
   4  -6   6   54.96    9.94
  -4  -6   6   49.17   10.30
   4  -6  -6   40.66   11.90
   5  -6  -6    4.14    3.75
  -5  -6  -6    2.54    4.40
  -5  -6  -6   -0.16    3.56
  -5  -6   6    2.73    2.74
   5  -6   6    2.87    1.83
   5  -6  -6    3.31    2.83
  -5   6   6    5.43    3.79
  -6  -6   6    1.24    2.66
  -6  -6  -6    6.04    5.24
   6  -6  -6    4.15    2.37
   6  -6   6    2.64    4.92
  -6   6   6    2.19    2.55
  -6  -6  -6    9.71    6.24
  -7  -6  -6  115.39   18.48
  -7  -6  -6  132.78   20.48
  -7   6   6   98.67   15.31
  -7  -6   6  153.93   23.83
   7  -6  -6   88.83   17.63
  -7  -6  -6  106.87   17.84
   7  -6   6  123.58   19.64
  -8  -6  -6   40.14   10.79
  -8  -6  -6   16.87    7.08
  -8  -6   6   22.19    7.90
  -8   6   6   27.70    8.96
   8  -6   6   33.25    9.83
  -8  -6  -6   37.51   10.60
   8  -6  -6   16.45    8.61
  -9  -6  -6  178.09   25.28
  -9   6   6  138.59   22.37
  -9  -6   6  193.05   25.29
   9  -6   6  166.06   24.75
  -9  -6  -6  196.06   24.19
 -10  -6  -6   78.78   15.34
  10  -6  -6   43.44   14.25
 -10   6   6   31.63   13.34
 -10  -6  -6   87.99   17.44
  10  -6   6   64.37   17.32
 -10  -6   6   88.30   17.81
 -11   6   6  191.20   31.07
 -11  -6  -6  308.92   33.49
 -11  -6   6  299.41   32.43
 -11  -6  -6  281.19   32.26
  11  -6   6  304.98   36.39
 -11  -6  -6  279.52   29.46
 -11  -6   6  332.94   39.25
  11  -6   6  295.25   33.59
  11  -6  -6  194.11   34.18
  11  -6  -6  292.08   38.56
  11  -6   6  298.40   36.46
 -11  -6   6  320.51   34.81
  11  -6  -6  253.55   33.80
  11   6   6  241.16   31.41
  11   6   6  219.06   30.85
 -12  -6  -6   10.35    7.02
 -12  -6  -6    0.84    2.24
  12  -6   6    5.79    5.38
 -12  -6   6    7.51    7.32
  12  -6  -6   12.91    9.59
  12  -6   6    6.79    4.57
  12  -6  -6    4.35    3.68
 -12  -6   6    6.51    4.74
  12   6   6    2.32    3.39
  13  -6   6  247.85   32.17
 -13  -6  -6  285.52   30.20
  13   6   6  232.96   29.35
 -13  -6   6  194.49   30.99
  13  -6  -6  261.51   31.60
 -13  -6   6  311.88   33.44
  13  -6  -6  268.50   33.14
  13  -6   6  249.35   31.49
 -14  -6  -6   27.04    9.33
  14  -6   6   29.40   10.96
 -14  -6   6   38.50   11.05
  14  -6  -6   35.69   11.56
  14  -6   6   34.88   11.70
 -14  -6   6   43.77   12.69
  14  -6  -6   29.57    8.62
  14   6   6   24.31    8.14
  15  -6   6   33.97    9.98
 -15  -6   6   40.85    9.46
  15  -6  -6   32.41   11.05
  15  -6   6   33.71    9.16
 -15  -6   6   43.06   11.19
  15  -6  -6   37.74    9.76
  15   6   6   28.27    8.19
  16  -6  -6    9.05    4.06
  16  -6   6   19.27    6.62
 -16  -6   6   12.01    4.31
  16   6   6    7.37    4.97
 -17  -6   6    3.25    1.98
  17  -6   6    0.39    3.00
  17  -6  -6   -1.90    4.31
  17   6   6    3.74    3.06
   0  -7  -6    5.14    4.88
   0  -7  -6   -0.30    3.25
   0  -7   6    0.07    2.68
   0  -7   6   -5.91    8.86
   0  -7   6    0.49    1.91
   0  -7  -6   12.40   10.58
   1  -7  -6    8.75    5.14
  -1  -7  -6    0.18    5.01
  -1  -7  -6   -0.88    5.21
   1  -7  -6    3.41    6.64
   1  -7   6    0.85    1.68
  -1  -7   6    2.97    3.40
   1  -7   6   10.21    4.98
  -1  -7   6   14.78    8.11
  -1  -7   6    7.05    3.38
   1  -7   6    3.77    4.06
  -1  -7  -6    1.75    2.71
  -2  -7   6  230.72   19.82
   2   7  -6  227.50   18.71
  -2  -7   6  203.09   18.86
   2  -7   6  202.44   31.02
  -2  -7   6  210.47   32.75
   2  -7  -6  238.50   25.47
  -2  -7  -6  176.34   28.45
   2  -7   6  203.59   19.77
  -2  -7  -6  243.92   32.04
  -3  -7   6   44.15   14.52
  -3  -7  -6   24.85   11.78
   3  -7   6   27.13    8.34
   3  -7   6   17.35    9.90
   3  -7  -6   39.30   11.37
   3  -7  -6   34.08    9.07
  -3  -7  -6   24.51    9.14
  -3  -7   6   27.12    7.72
  -4  -7  -6  810.93   52.89
  -4  -7   6  889.78   45.69
  -4  -7  -6 1049.99   74.16
   4  -7  -6  832.05   57.03
   4  -7   6  877.31   44.25
   4  -7  -6 1021.28   60.62
  -4  -7   6  929.55   68.65
   4  -7  -6  837.79   42.91
  -5   7   6   36.78    8.25
  -5  -7  -6   39.91    9.41
  -5  -7  -6   51.60   15.71
  -5  -7   6   30.14    9.95
  -5  -7  -6   33.61   11.94
   5  -7   6   36.49    9.75
  -5  -7   6   28.35   11.76
   5  -7  -6   36.37   11.26
   5  -7  -6   49.29   11.72
   6  -7  -6  764.71   49.55
  -6  -7   6 1068.63   67.92
  -6  -7  -6  822.11   49.58
  -6  -7  -6  911.84   54.48
   6  -7   6  902.85   50.41
  -6  -7  -6 1088.89   66.41
  -6   7   6  874.77   42.16
  -7  -7  -6   44.18   12.58
   7  -7  -6   37.60   12.93
  -7  -7  -6   27.17    8.98
  -7  -7   6   53.23   13.87
  -7  -7  -6   42.56   12.71
  -7   7   6   31.84    8.69
   7  -7   6   40.70   11.59
   8  -7  -6  490.21   49.23
  -8  -7  -6  618.99   47.39
  -8  -7   6  793.64   54.34
  -8  -7  -6  716.86   49.22
  -8   7   6  572.61   42.14
   8  -7   6  594.96   47.31
  -9  -7  -6   15.92    6.94
  -9  -7   6    7.09    3.61
  -9   7   6    9.04    6.03
   9  -7  -6    7.38    6.78
   9  -7   6    5.68    5.44
  -9  -7  -6   11.77    7.18
 -10  -7  -6  186.00   26.91
 -10  -7   6  185.50   25.64
 -10   7   6  119.87   24.06
  10  -7   6  185.67   28.62
  10  -7  -6  121.66   26.23
 -10  -7   6  194.73   29.61
  10  -7   6  168.36   25.92
  10  -7  -6  107.10   25.04
 -10  -7  -6  169.73   23.56
  10  -7   6  195.02   31.36
  10  -7  -6  149.34   26.55
 -11   7   6   -2.86    5.63
  11   7   6    2.02    7.30
  11  -7   6   16.76    9.46
 -11  -7  -6    2.07    3.62
 -11  -7   6   -6.92    8.62
  11  -7  -6    4.88    5.04
 -11  -7  -6    4.97    2.61
 -11  -7   6    0.30    3.49
  11  -7   6   13.94   12.89
  11  -7   6   -4.88    8.01
  11  -7  -6    0.59    4.67
  11  -7  -6    3.53    2.81
  11   7   6    0.86    3.34
 -11  -7  -6    3.88    3.47
 -12  -7  -6   -7.80    6.89
  12  -7   6    3.58    6.59
 -12  -7  -6   -0.01    4.02
 -12  -7   6  -13.04    8.70
  12  -7  -6    7.31    2.83
  12  -7   6   -3.30    4.81
 -12  -7   6    0.42    3.20
  12  -7  -6   -2.57    5.13
  12   7   6   -3.25    6.95
 -13  -7  -6   15.68    7.81
  13  -7  -6    2.72    3.10
 -13  -7  -6    8.79    4.30
  13  -7   6   15.63    8.27
  13  -7  -6    0.46    3.37
  13  -7   6   14.22    9.66
 -13  -7   6   19.66    9.53
 -13  -7   6   24.54   10.30
  13   7   6   14.03    5.52
 -14  -7   6  230.56   26.21
  14  -7   6  219.03   28.31
 -14  -7  -6  222.93   24.95
  14  -7  -6  236.60   28.18
  14   7   6  246.28   26.90
  14  -7   6  221.70   26.93
 -14  -7   6  245.11   26.99
  14  -7  -6  215.19   27.67
  15  -7   6   45.55   11.53
 -15  -7   6   52.08   11.16
 -15  -7  -6   60.03   11.82
  15  -7  -6   55.92   13.02
 -15  -7   6   53.92   10.90
  15  -7   6   65.32   13.13
  15  -7  -6   38.28    9.78
  15   7   6   57.33   11.30
 -16  -7   6  327.46   22.58
  16  -7   6  314.75   26.73
 -16  -7   6  361.24   28.12
  16   7   6  352.51   25.81
  16  -7   6  367.70   26.86
  16  -7  -6  338.03   24.67
  17  -7  -6   13.31    4.53
 -17  -7   6   16.29    5.11
  17  -7   6   20.16    5.81
   0  -8  -6 1611.36  106.12
   0  -8  -6 1367.35   95.81
   0  -8  -6 1514.74   63.95
   0  -8   6 1475.85   50.12
   0  -8   6 1543.79   54.77
  -1  -8  -6  274.22   41.37
  -1  -8   6  230.16   20.14
   1  -8  -6  200.79   24.24
   1  -8   6  172.28   31.78
  -1  -8  -6  238.56   35.24
  -1  -8   6  186.55   32.45
   1  -8  -6  216.39   38.43
  -1  -8   6  248.15   21.49
   1  -8   6  240.35   21.50
   1  -8   6  218.13   18.91
  -1  -8  -6  222.48   27.78
   2  -8  -6 1069.97   59.76
  -2  -8  -6  912.99   66.26
  -2  -8   6 1107.95   45.89
   2  -8   6 1097.27   77.00
  -2  -8   6 1127.67   78.11
   2  -8  -6 1114.87   84.92
  -2  -8  -6 1144.39   70.29
  -2  -8   6 1133.42   46.44
   2  -8   6 1153.38   49.13
   3  -8   6  155.60   18.42
  -3  -8  -6  109.14   24.98
   3  -8  -6  151.24   24.26
  -3  -8   6  175.80   19.37
   3  -8  -6  199.97   31.35
   3  -8   6  164.23   28.99
  -3  -8  -6  186.68   25.52
  -3  -8   6  205.25   30.04
  -3  -8  -6  209.05   30.59
  -4  -8  -6  242.02   36.78
  -4  -8   6  251.56   25.77
  -4  -8   6  319.37   38.33
   4  -8  -6  281.29   33.82
   4  -8   6  218.89   22.68
   4  -8  -6  263.89   34.56
  -4  -8  -6  260.99   27.69
  -4  -8  -6  256.52   31.82
  -5   8   6   36.31    8.85
  -5  -8  -6   30.71   10.14
  -5  -8   6   36.97   10.68
  -5  -8   6   44.21   17.24
  -5  -8  -6   26.40   10.92
  -5  -8  -6   44.21   13.62
   5  -8   6   29.29    8.95
  -6  -8  -6   12.01    5.87
  -6  -8   6   22.06    9.93
  -6  -8  -6   14.68    7.38
   6  -8   6   14.03    7.47
  -6   8   6   18.77    5.99
  -6  -8   6   16.40    7.26
  -7  -8  -6  119.83   21.38
  -7  -8  -6   95.84   18.79
  -7  -8   6  120.58   24.29
   7  -8   6   71.51   16.00
  -7   8   6   76.95   14.10
  -8   8   6   95.18   17.76
  -8  -8  -6  120.16   20.56
  -8  -8  -6  100.66   19.66
  -8  -8   6  148.26   25.39
   8  -8   6  108.80   21.06
  -9  -8  -6  184.82   25.13
  -9  -8  -6  154.61   25.17
  -9  -8   6  205.94   28.51
  -9   8   6   94.40   20.89
   9  -8   6  152.96   25.83
 -10  -8  -6  538.52   45.82
 -10  -8  -6  507.88   40.77
 -10  -8  -6  546.73   46.01
 -10  -8   6  514.01   44.55
 -10  -8  -6  482.00   44.13
  10  -8   6  552.57   50.66
 -10   8   6  377.97   42.07
 -10  -8   6  606.55   53.77
  10  -8   6  461.79   44.50
  10  -8   6  518.38   52.47
  10  -8  -6  546.48   51.68
 -11  -8  -6  222.77   29.09
  11  -8   6  254.17   33.11
 -11  -8  -6  230.59   29.15
 -11  -8   6  283.01   35.86
  11  -8   6  246.60   34.91
  11  -8  -6  204.14   31.64
 -12  -8  -6  404.71   37.02
  12  -8   6  410.19   41.56
 -12  -8  -6  349.06   35.27
  12  -8  -6  438.81   40.64
 -12  -8   6  400.75   41.36
  12  -8   6  400.07   42.00
  12  -8  -6  390.05   42.66
 -13  -8  -6  163.20   22.99
  13  -8   6  101.14   22.71
 -13  -8  -6  133.65   20.07
  13  -8  -6  186.06   25.27
 -13  -8   6  156.39   24.05
  13  -8   6  155.07   24.10
  13  -8  -6  146.17   24.70
  14   8   6  278.57   27.31
 -14  -8  -6  349.61   30.49
  14  -8   6  333.90   35.27
 -14  -8  -6  351.37   30.07
  14  -8  -6  245.14   27.42
  14  -8   6  340.12   32.44
 -14  -8   6  389.11   33.29
  14  -8  -6  373.87   35.40
 -15  -8   6   61.23   11.81
 -15  -8  -6   68.24   12.07
 -15  -8   6   64.95   12.28
  15  -8   6   54.35   12.79
  15  -8  -6   64.80   11.59
  15  -8   6   67.54   12.89
  15   8   6   66.54   11.57
 -15  -8   6   52.81   11.31
  15  -8  -6   48.21   11.16
 -16  -8  -6   42.52    8.08
 -16  -8   6   34.28    6.78
 -16  -8   6   47.12    9.61
  16  -8   6   28.58    8.38
  16  -8  -6   49.48   10.28
  16  -8   6   40.28    8.44
  16  -8  -6   44.33    8.87
   0  -9  -6    1.05    1.85
   0  -9  -6    9.52   12.38
   0  -9   6    4.75    9.53
   0  -9   6    1.56    2.44
   0  -9   6    2.38    2.52
   0  -9  -6    1.38    8.71
  -1  -9  -6    0.99    5.52
   1  -9   6    5.84    4.00
  -1  -9  -6    7.87    6.11
  -1  -9   6    2.66    2.71
   1  -9   6    5.32   10.55
  -1  -9   6   -5.03    7.77
   1  -9   6   13.64    5.85
   1  -9  -6    2.12    6.71
  -1  -9  -6    2.98    4.19
  -1  -9   6    5.82    4.03
  -2  -9  -6   11.83    7.52
  -2  -9   6   11.00    5.42
  -2  -9   6   11.95    5.36
  -2  -9  -6   24.84   14.65
  -2  -9  -6   11.45    8.44
   2  -9   6   14.75    9.94
  -2  -9   6    2.91    9.54
   2  -9  -6   16.90    4.70
   2  -9   6   14.56    5.48
  -3  -9  -6  146.38   28.10
  -3  -9  -6   72.63   20.59
   3  -9  -6  166.11   30.15
  -3  -9  -6  127.83   22.32
   3  -9   6  123.66   27.47
  -3  -9   6  146.84   28.27
   3  -9   6  129.72   17.70
  -3  -9   6  109.77   16.10
  -4  -9  -6   19.81    9.72
  -4  -9   6   27.02    7.40
   4  -9  -6   24.55    9.68
  -4  -9  -6   25.82    9.02
   4  -9   6   25.91    7.11
  -4  -9   6   30.27    7.60
  -5  -9  -6  662.32   60.75
  -5  -9  -6  560.91   41.24
   5  -9   6  525.18   39.04
  -5  -9   6  500.26   40.50
  -5   9   6  606.71   38.03
  -6  -9  -6  115.06   24.63
  -6  -9   6  133.79   26.78
   6  -9   6   90.16   17.04
  -6   9   6  106.23   16.83
  -6  -9   6   94.41   19.06
  -7  -9   6  307.92   35.67
  -7  -9  -6  427.37   43.28
  -7  -9   6  473.90   50.16
   7  -9   6  340.30   35.23
  -7   9   6  318.65   30.25
  -8  -9   6   81.94   18.85
  -8  -9  -6  104.25   20.37
  -8  -9   6   81.25   19.76
  -8   9   6   88.22   17.76
   8  -9   6   84.47   19.27
  -9  -9   6   70.41   16.93
  -9  -9  -6   96.44   18.25
  -9  -9  -6   87.32   18.98
  -9  -9   6   94.85   20.24
  -9  -9  -6   86.39   19.70
  -9   9   6   81.11   17.83
  -9  -9   6   85.91   19.06
   9  -9   6   83.82   18.52
   9  -9   6   88.23   22.91
   9  -9  -6   87.63   20.96
   9  -9  -6   88.97   21.59
 -10  -9  -6   11.55    7.58
 -10  -9  -6   -0.34    4.52
 -10  -9   6   12.41   12.92
  10  -9   6    6.36    7.84
  10  -9  -6   -5.73    9.82
 -11  -9   6    5.00    5.98
 -11  -9  -6    1.34    2.60
 -11  -9  -6    3.36    4.06
  11  -9   6    4.88    4.33
  11  -9   6    5.90    4.48
  11  -9  -6    1.82    5.78
 -12  -9  -6   26.95    9.54
  12  -9   6   30.15   10.58
 -12  -9   6   17.70    9.43
 -12  -9  -6   32.94   11.19
  12  -9   6   20.01   10.41
  12  -9  -6   32.12   13.04
 -13  -9  -6    7.42    5.29
 -13  -9   6   21.94    9.77
  13  -9   6    7.12    4.97
 -13  -9  -6    4.82    4.59
  13  -9   6    9.07    6.83
  13  -9  -6    7.70    3.50
 -14  -9  -6   64.86   12.68
 -14  -9  -6   61.45   12.17
 -14  -9   6   54.14   11.73
  14  -9   6   72.80   14.27
  14  -9   6   59.59   12.96
 -14  -9   6   77.48   14.55
  14  -9  -6   61.12   14.60
 -15  -9  -6   57.44   11.11
 -15  -9   6   50.49    9.92
  15  -9   6   56.19   11.46
 -15  -9  -6   53.33    9.98
 -15  -9   6   47.21    9.67
  15  -9   6   52.24   10.36
  15  -9  -6   46.86   10.13
  16  -9  -6   45.68    9.01
  16  -9   6   61.37    9.79
 -16  -9   6   44.89    8.15
 -16  -9   6   46.88    7.50
  16  -9   6   44.06    8.47
  16  -9  -6   44.03    8.41
   0 -10   6 1430.71   53.91
   0 -10   6 1290.63   99.76
   0 -10  -6 1354.25  104.56
   0 -10   6 1520.36   59.95
  -1 -10  -6   25.42    9.20
  -1 -10   6   29.30    7.85
   1 -10   6   34.38   15.87
  -1 -10   6   31.58   18.76
   1 -10  -6   25.80   15.20
  -1 -10  -6   28.78   14.68
  -1 -10   6   24.70    6.26
   1 -10   6   25.90    7.97
   2 -10   6  769.52   43.97
  -2 -10  -6  666.35   57.61
   2 -10   6  675.39   71.96
  -2 -10   6  741.04   69.56
  -2 -10   6  716.08   41.06
   2 -10  -6  757.42   76.30
  -2 -10  -6  795.70   64.20
  -2 -10   6  860.51   43.79
  -3 -10  -6    0.71    2.81
  -3 -10  -6    1.67    2.90
   3 -10   6    0.26    7.01
  -3 -10   6   -5.32    8.23
   3 -10  -6    8.91    6.01
   3 -10   6    8.93    6.14
  -3 -10   6    2.78    3.85
  -4 -10  -6  134.15   29.27
  -4 -10   6  275.62   39.28
   4 -10  -6  241.75   33.81
  -4 -10  -6  197.89   27.65
   4 -10   6  206.17   24.42
  -4 -10   6  205.73   25.02
  -5 -10  -6   25.86   12.14
   5 -10   6   26.78    9.88
  -5 -10   6   27.71   10.67
  -5 -10  -6   34.39   10.64
  -5  10   6   36.10    9.23
  -6 -10  -6   22.17   11.20
  -6 -10   6   15.62    6.73
   6 -10   6   25.05   10.31
  -6  10   6   14.72    5.49
  -7 -10  -6    5.09    3.26
  -7 -10  -6    3.56    4.41
  -7 -10   6    3.33    5.59
  -7 -10  -6    6.54    8.19
  -7  10   6   -1.59    2.97
   7 -10   6    3.56    5.16
  -7 -10   6   11.96   10.90
   7 -10  -6    1.53    2.27
   7 -10   6   12.05    6.71
  -8 -10   6  258.87   31.97
  -8  10   6  237.15   29.07
  -8 -10  -6  270.80   33.73
  -8 -10   6  143.13   25.60
  -8 -10  -6  181.50   28.77
  -8 -10   6  291.79   38.67
   8 -10  -6  213.52   29.29
  -8 -10   6  255.32   33.02
   8 -10   6  222.66   30.81
   8 -10   6  229.84   34.21
  -8 -10  -6  238.43   30.79
   8 -10  -6  244.97   34.14
   8 -10   6  270.29   40.97
  -9 -10  -6    1.25    4.05
  -9 -10   6   10.67    9.58
  -9 -10  -6   -3.66    8.08
  -9 -10   6    5.87    5.20
   9 -10   6   13.08   11.47
   9 -10  -6    6.18    8.26
   9 -10  -6   -2.84    6.99
 -10 -10   6  673.41   52.67
 -10 -10  -6  680.61   52.89
 -10 -10  -6  704.22   52.23
 -10 -10   6  765.22   57.08
  10 -10   6  677.86   60.67
  10 -10  -6  694.79   60.11
 -11 -10   6   18.08    9.07
 -11 -10  -6   50.13   13.83
 -11 -10  -6   42.01   12.98
 -11 -10   6   26.76    9.23
  11 -10   6   34.14   12.35
  11 -10  -6   54.31   16.95
 -12 -10  -6  572.33   43.06
 -12 -10   6  576.39   42.13
 -12 -10   6  599.55   45.14
  12 -10   6  592.75   48.70
  12 -10  -6  607.23   52.77
 -12 -10  -6  604.15   44.96
 -13 -10  -6   35.62   10.28
 -13 -10   6   43.05   12.07
 -13 -10  -6   32.11    9.83
 -13 -10   6   25.54    7.64
  13 -10   6   17.75    9.08
  13 -10   6   31.28    9.32
  13 -10  -6   39.35   13.17
 -14 -10  -6  531.03   34.57
 -14 -10   6  510.34   32.32
 -14 -10   6  508.80   35.09
  14 -10   6  512.85   35.56
  14 -10   6  493.36   35.74
  14 -10  -6  511.27   38.63
 -14 -10  -6  499.83   33.02
 -15 -10  -6    8.56    3.55
 -15 -10   6    9.11    4.50
  15 -10   6   12.84    5.55
  15 -10   6    0.60    2.65
  15 -10  -6    8.27    4.92
  15 -10  -6    3.64    2.31
 -15 -10   6    7.80    3.70
   0 -11   6  -12.59   12.87
   0 -11  -6   13.81   18.67
   0 -11   6    1.24    6.99
   1 -11   6   22.92   20.45
  -1 -11   6    1.21    8.70
   1 -11  -6   17.41   16.19
  -1 -11  -6    1.82    9.02
   1 -11   6   16.93    7.64
   2 -11   6    6.69   11.95
  -2 -11   6   17.48   14.38
   2 -11  -6   11.83    5.35
  -2 -11  -6    3.56    8.38
   2 -11   6    2.46    1.93
  -2 -11   6    6.41    4.31
  -3 -11  -6   77.03   22.10
   3 -11   6   94.93   25.40
  -3 -11   6   99.34   16.57
  -3 -11   6  137.25   31.30
   3 -11  -6  113.14   27.05
  -3 -11  -6  112.36   21.51
   3 -11   6   99.13   16.72
  -4  11   6   11.08    7.88
  -4 -11  -6    3.77    7.35
  -4 -11   6   16.77    6.14
   4 -11  -6   14.04   10.98
  -4 -11  -6   10.25    5.05
  -4 -11   6   15.73    7.00
   4 -11   6    5.25    2.94
  -5 -11   6  123.84   21.27
  -5 -11  -6  138.60   30.04
  -5 -11  -6  152.54   23.84
   5 -11   6  128.94   21.00
  -5  11   6  154.76   21.84
   6 -11   6   -1.17    9.26
  -6 -11   6    6.87    4.47
  -6 -11   6  -10.68   10.94
   6 -11   6   10.25   10.06
  -6 -11  -6    1.14    5.85
  -6 -11  -6    6.54    6.41
   6 -11  -6    0.77    2.99
  -6 -11  -6    5.70    3.25
  -6 -11   6   16.58    9.19
   6 -11   6    9.84    6.56
  -6  11   6    3.18    4.91
  -7 -11   6  112.82   22.90
  -7 -11   6  129.59   26.58
   7 -11   6  116.70   30.93
  -7 -11  -6  113.88   22.26
  -7 -11  -6  133.62   25.13
   7 -11   6   90.14   21.78
  -7 -11  -6   91.12   20.85
  -7 -11   6   73.27   17.52
   7 -11  -6  102.68   20.63
  -7  11   6  103.23   19.43
   7 -11   6  120.42   22.15
   7 -11   6  106.41   23.08
  -7 -11   6   91.14   24.08
  -8 -11   6    2.77    5.02
   8 -11  -6   10.82    8.66
  -8 -11   6    7.88    8.86
  -8 -11  -6   -0.90    4.37
  -8 -11  -6    1.48    6.77
  -8 -11   6    9.55    7.99
   8 -11   6   -3.86    9.22
   8 -11   6    8.05    9.31
   8 -11  -6   11.24    8.15
   8 -11  -6   -5.83    7.59
  -9 -11   6  108.41   20.95
  -9 -11  -6   95.62   20.27
  -9 -11  -6   99.01   20.44
   9 -11   6  118.54   24.71
   9 -11   6   94.42   23.95
   9 -11  -6   91.17   20.85
 -10 -11  -6   -1.00    6.19
 -10 -11   6    5.71    4.26
 -10 -11  -6    7.07    6.45
  10 -11   6   11.58    6.51
  10 -11  -6    1.98    4.53
  11 -11  -6   -4.38    6.09
 -11 -11  -6   10.53    5.96
 -11 -11  -6    1.07    4.36
  11 -11   6   16.29    9.44
  11 -11  -6   16.09   12.08
 -11 -11   6    2.98    3.50
 -12 -11   6   12.53    5.39
 -12 -11  -6   15.53    6.32
 -12 -11  -6   17.42    8.00
 -12 -11   6    8.49    4.83
  12 -11   6   15.51    8.14
  12 -11  -6   12.02    7.47
 -13 -11  -6    1.32    2.13
 -13 -11   6    5.21    5.28
 -13 -11  -6    8.87    3.91
 -13 -11   6   13.93    6.42
  13 -11   6    8.48    6.12
  13 -11  -6   -5.28    7.10
 -14 -11  -6   -0.29    3.14
 -14 -11   6    3.57    3.57
  14 -11   6   -1.80    2.35
  14 -11  -6    2.69    2.68
 -15 -11   6   54.99    8.67
  15 -11   6   53.57    8.63
  15 -11  -6   52.13    9.34
   0 -12   6 1042.50   99.91
   0 -12  -6 1231.81  108.92
   1 -12   6   20.15   11.52
  -1 -12   6    1.58    9.48
   1 -12  -6   11.97   15.02
  -1 -12  -6   18.06   10.24
   1 -12   6   14.86    5.85
   2 -12   6  631.59   42.36
   2 -12   6  548.11   73.45
  -2 -12   6  722.97   75.99
   2 -12  -6  595.31   74.45
  -2 -12  -6  657.99   64.28
  -3 -12   6    3.28   10.24
   3 -12   6    4.00    6.11
  -3 -12   6    7.40    5.55
   3 -12   6   -3.94    9.70
   3 -12  -6    5.24    4.84
  -3 -12  -6    4.00    5.34
   3 -12   6    1.75   17.45
  -3 -12   6   13.48   11.00
   3 -12  -6   15.17   14.23
  -3 -12  -6    9.99    9.16
   3 -12   6    7.17    5.62
  -4 -12   6  191.01   34.65
  -4 -12   6  155.88   22.86
  -4 -12   6  143.90   27.80
   4 -12   6  131.02   33.67
  -4 -12  -6  175.26   26.69
   4 -12   6  145.68   30.78
   4 -12  -6  192.78   25.43
  -4 -12   6  234.33   37.30
   4 -12  -6  196.81   33.77
  -4 -12  -6  189.15   28.72
   4 -12   6  190.18   24.26
  -4  12   6  176.23   23.21
  -5 -12   6    3.43    3.45
  -5 -12   6    0.56    3.90
  -5 -12   6    3.44    5.43
  -5 -12  -6    3.64    7.28
   5 -12  -6   -3.50    4.90
   5 -12   6   -5.16    8.88
  -5 -12  -6   -2.59    4.75
   5 -12   6    0.98    4.29
  -5  12   6    4.35    4.00
   5 -12   6  -12.16   15.19
  -6 -12   6   19.55    9.07
  -6 -12   6    7.03    3.24
  -6 -12  -6   13.20    7.43
  -6 -12  -6    8.93    8.94
   6 -12  -6    8.17    5.31
   6 -12   6   -0.91    6.57
   6 -12   6   -1.04    6.46
  -7 -12   6   18.69    8.50
  -7 -12   6    7.11    5.08
   7 -12   6   30.20   17.09
   7 -12   6    9.09    8.97
   7 -12  -6   10.18    6.43
  -7 -12   6    7.00    8.04
  -7 -12  -6   15.14   10.22
  -7 -12  -6   -0.20    3.79
   7 -12   6    1.84    3.71
   7 -12  -6   20.96   11.01
  -8 -12   6  145.94   27.85
  -8 -12   6  158.02   25.15
  -8 -12  -6  125.10   25.53
  -8 -12  -6   91.14   20.44
   8 -12   6  162.60   32.49
   8 -12   6  114.28   23.19
   8 -12  -6  127.35   24.80
  -8 -12   6  149.53   23.61
  -9 -12   6   47.47   12.77
  -9 -12  -6   36.01   10.16
  -9 -12   6   47.37   12.85
  -9 -12  -6   47.15   14.82
   9 -12   6   54.76   15.92
   9 -12  -6   49.05   15.22
   9 -12   6   51.46   17.31
 -10 -12   6  485.31   40.17
 -10 -12  -6  461.84   42.57
  10 -12   6  381.89   42.03
  10 -12  -6  455.54   45.81
  10 -12   6  496.89   46.14
  10 -12  -6  467.99   42.29
 -10 -12  -6  481.54   41.80
 -11 -12  -6   18.20    7.27
  11 -12  -6    9.16    5.37
 -11 -12   6   11.88    6.13
 -11 -12  -6   17.11    7.75
  11 -12   6    9.39    4.79
  11 -12  -6   13.59    7.92
  12 -12   6  320.50   32.58
 -12 -12   6  331.48   28.34
 -12 -12  -6  327.53   28.40
  12 -12  -6  337.90   34.19
 -12 -12  -6  338.58   30.16
 -13 -12  -6    2.65    2.19
  13 -12   6    3.91    2.70
  13 -12  -6    3.24    2.28
 -13 -12   6    9.30    5.82
 -14 -12  -6  270.30   20.88
  14 -12   6  205.44   20.09
  14 -12  -6  240.10   20.75
 -14 -12   6  256.83   19.71
   0 -13   6   -3.49    9.55
   0 -13   6    6.53    8.28
   0 -13  -6    2.65    4.20
   0 -13   6  -30.73   27.68
   0 -13  -6    7.93    8.80
   0 -13   6   -2.17   12.28
   0 -13   6   -8.99    9.10
  -1 -13   6   24.93   20.07
  -1 -13   6   -3.01   13.64
   1 -13   6   13.78   16.40
  -1 -13   6    9.13   12.36
   1 -13  -6   13.19    7.17
  -1 -13  -6   14.88    8.71
   1 -13   6  -17.54   23.62
  -1 -13   6   -4.57   15.42
   1 -13  -6   -3.44   10.76
  -1 -13  -6   14.93   15.40
   1 -13   6    7.77    7.08
   1 -13   6   29.13   14.74
  -2 -13   6   82.38   26.04
   2 -13   6  114.64   41.07
   2 -13   6   66.20   24.14
   2 -13  -6   75.87   15.10
  -2 -13   6   77.73   24.72
  -2 -13  -6   84.78   17.81
   2 -13   6   77.74   21.69
  -2 -13   6   67.90   21.26
  -3 -13   6  180.96   37.20
  -3 -13   6  140.97   29.14
   3 -13   6  162.92   36.27
   3 -13  -6  163.49   23.37
  -3 -13  -6  148.27   24.10
   3 -13   6  160.04   35.81
  -4 -13   6  198.35   34.08
   4 -13   6  199.86   38.93
   4 -13  -6  243.40   29.18
  -4 -13  -6  237.73   31.94
   4 -13   6  221.89   45.03
  -4 -13   6  252.65   39.57
  -5 -13  -6  203.77   31.54
  -5 -13   6  236.74   37.15
   5 -13  -6  220.57   28.73
   5 -13   6  227.92   45.81
   5 -13   6  186.11   36.59
  -5 -13   6  232.25   34.42
  -6 -13   6  198.39   33.99
   6 -13  -6  224.48   29.24
   6 -13   6  154.17   32.33
   6 -13   6  239.77   47.10
  -6 -13  -6  158.22   29.56
   6 -13  -6  258.82   39.68
  -6 -13  -6  191.23   28.88
  -6 -13  -6  201.85   31.07
  -6 -13   6  217.17   31.36
  -7 -13   6  197.93   33.58
  -7 -13  -6  223.19   31.11
  -7 -13  -6  167.10   28.65
   7 -13   6  195.36   33.13
   7 -13   6  238.57   43.75
   7 -13  -6  267.95   38.33
   7 -13  -6  208.87   29.47
  -7 -13   6  224.50   29.98
  -8 -13   6  151.88   27.57
  -8 -13   6  155.12   23.75
  -8 -13  -6   94.74   21.67
   8 -13   6  181.12   33.04
   8 -13   6  131.95   23.95
   8 -13  -6  176.36   29.81
  -8 -13  -6  153.62   24.84
  -8 -13   6  129.14   21.09
  -9 -13   6  141.15   21.13
  -9 -13  -6  121.39   21.53
   9 -13  -6  116.90   21.12
  -9 -13  -6   63.05   18.42
   9 -13   6   91.33   19.11
   9 -13  -6  118.88   23.41
   9 -13   6  126.37   24.97
  -9 -13   6  123.51   19.59
  10 -13   6   28.63   10.38
 -10 -13  -6   32.06   10.12
  10 -13  -6   27.27    8.26
 -10 -13   6   21.98    7.81
 -10 -13  -6    6.93    6.54
  10 -13   6   31.66   11.63
  10 -13  -6   36.18   13.38
 -11 -13  -6    0.96    3.33
 -11 -13   6   -1.23    4.35
 -11 -13  -6   -2.25    3.35
  11 -13  -6    2.97    2.03
  11 -13   6    4.94    3.13
  11 -13  -6   -1.39    2.96
 -12 -13  -6   -7.25    4.96
 -12 -13  -6    2.02    3.53
 -12 -13   6   -5.71    4.46
 -12 -13  -6   -1.28    1.14
  12 -13   6   -4.66    5.30
  12 -13  -6   -1.13    2.35
 -13 -13  -6    1.06    1.80
  13 -13   6    2.10    1.91
  13 -13  -6    6.83    4.27
 -13 -13   6    3.10    2.91
   0 -14   6  223.42   44.36
   0 -14   6  284.19   52.05
   0 -14  -6  265.67   30.15
   0 -14   6  256.80   51.61
   0 -14   6  194.57   31.03
  -1 -14   6  157.35   39.00
   1 -14  -6  126.89   20.38
   1 -14   6  189.12   42.55
  -1 -14   6  127.06   36.12
  -1 -14   6  103.44   27.33
   1 -14   6  119.43   25.76
  -1 -14  -6  155.50   23.50
   1 -14   6  142.47   41.57
  -2 -14   6   63.75   22.16
  -2 -14   6   70.56   23.31
   2 -14   6   83.59   23.42
   2 -14   6   93.51   30.49
  -2 -14   6   74.86   23.72
   2 -14  -6   49.73   12.62
  -2 -14  -6   84.42   18.70
  -3 -14   6  116.41   28.36
  -3 -14   6   83.85   23.27
   3 -14  -6   68.02   14.81
  -3 -14  -6   70.34   17.18
   3 -14  -6  114.58   20.51
   3 -14   6   66.61   23.32
   3 -14   6   63.35   26.70
  -4 -14   6   11.94   10.96
  -4 -14   6    8.05    9.18
   4 -14  -6    0.50    3.61
  -4 -14  -6   12.79    8.35
  -4 -14  -6    3.84    3.72
   4 -14   6   17.16   13.63
   4 -14   6   10.12   12.42
   5 -14  -6    4.07    5.41
  -5 -14   6   22.70   10.26
  -5 -14   6   -1.29    4.25
  -5 -14  -6    7.21    7.73
   5 -14   6   -0.87    7.49
  -5 -14  -6   -2.48    3.90
   5 -14   6    5.30    8.87
  -6 -14   6    0.65    3.27
  -6 -14   6   -3.44    7.10
  -6 -14  -6   -4.27    7.77
   6 -14   6    1.04    9.19
  -6 -14  -6    0.25    6.19
  -6 -14  -6    4.43    6.65
   6 -14   6   16.02   13.72
   6 -14  -6    7.30    6.74
  -7 -14   6   35.61   11.54
  -7 -14   6   24.08   11.52
  -7 -14  -6   18.82    8.09
   7 -14  -6   31.63   13.45
  -7 -14  -6   30.77   14.67
  -7 -14  -6   22.10    9.57
   7 -14  -6   39.10   14.81
   7 -14   6   36.34   17.70
  -8 -14   6   42.38   11.66
   8 -14   6   32.07   13.47
  -8 -14  -6   23.88    8.32
   8 -14  -6   49.66   16.40
  -8 -14  -6   29.07    9.11
  -8 -14  -6   36.98   11.31
   8 -14  -6   48.27   15.57
   9 -14   6  112.84   23.25
  -9 -14   6  105.59   16.71
   9 -14  -6  102.79   19.46
  -9 -14  -6  116.05   22.23
  -9 -14  -6  112.11   18.65
  -9 -14  -6  105.02   18.66
   9 -14  -6  106.44   20.88
  -9 -14   6   91.41   16.10
 -10 -14   6  171.21   19.35
 -10 -14  -6  202.62   22.84
 -10 -14  -6  217.55   25.42
  10 -14   6  136.95   21.92
  10 -14  -6  177.34   24.67
  10 -14   6  142.06   21.85
  10 -14  -6  148.26   21.17
 -10 -14  -6  170.52   20.95
 -11 -14  -6  131.85   16.38
 -11 -14   6  113.22   13.89
 -11 -14  -6  122.78   14.70
 -11 -14  -6  141.79   17.51
  11 -14   6  109.79   18.31
  11 -14  -6  108.92   16.19
  11 -14  -6  112.12   15.47
 -12 -14   6   92.12   11.23
 -12 -14  -6   81.32   11.46
  12 -14  -6   80.07   11.93
   0 -15   6    3.85    9.15
   0 -15   6    0.54    5.04
   0 -15   6   13.71   17.16
   0 -15   6  -18.92   19.59
   0 -15  -6   -6.34    8.21
  -1 -15   6   -8.53    8.90
  -1 -15   6   12.68   15.27
   1 -15   6  -12.62   24.99
   1 -15   6    4.56    8.90
   1 -15   6  -12.91   15.83
  -1 -15   6   -0.24   12.31
   1 -15  -6   -1.39    3.18
  -1 -15  -6    0.34    5.60
   1 -15  -6   12.46    9.00
  -2 -15   6  226.09   44.82
  -2 -15   6  174.52   35.24
   2 -15  -6  222.80   30.42
   2 -15  -6  210.96   25.96
   2 -15   6  195.34   47.16
  -2 -15   6  235.73   40.64
  -2 -15  -6  221.41   29.86
   2 -15   6  181.41   33.32
   2 -15  -6  225.93   39.75
  -3 -15   6    3.67    4.78
   3 -15   6   13.26   12.50
  -3 -15   6   10.94    5.54
   3 -15  -6   19.22   12.07
   3 -15  -6    9.46    6.14
   3 -15  -6    4.52    3.08
  -3 -15  -6    7.96    5.49
   3 -15   6   -7.41   12.39
  -3 -15  -6    3.58    5.16
  -4 -15  -6  356.21   42.88
  -4 -15   6  331.43   42.47
   4 -15  -6  406.96   36.67
  -4 -15  -6  385.21   39.61
   4 -15   6  315.73   46.75
   4 -15   6  418.26   60.08
   4 -15  -6  353.24   60.59
  -4 -15   6  431.34   49.25
   5 -15  -6    9.02    5.17
  -5 -15   6   14.85    6.64
  -5 -15   6   17.03    9.20
   5 -15   6    2.59   10.74
   5 -15  -6   20.11   14.67
   5 -15   6    6.90   12.53
  -5 -15  -6   11.08    4.09
  -5 -15  -6    5.02    5.88
  -6 -15  -6  215.80   34.58
   6 -15   6  259.51   41.46
  -6 -15  -6  425.83   42.81
   6 -15   6  556.00   67.97
   6 -15  -6  548.44   71.85
  -6 -15   6  448.05   40.24
  -7 -15   6   34.96   10.58
   7 -15   6   47.72   20.53
  -7 -15  -6   39.56   11.62
   7 -15  -6   43.53   17.19
  -7 -15  -6   13.43    5.79
  -7 -15  -6   33.81   12.38
  -8 -15  -6  337.14   37.17
  -8 -15  -6  328.26   33.30
   8 -15  -6  406.16   42.99
   8 -15   6  345.18   43.74
   8 -15  -6  364.84   41.60
  -8 -15   6  284.17   27.81
  -8 -15  -6  350.83   33.61
  -9 -15   6    7.69    4.19
   9 -15   6    5.64    5.63
   9 -15  -6   10.81    6.10
  -9 -15  -6   13.65    6.24
  -9 -15  -6    7.24    4.84
   9 -15  -6   19.80    7.90
 -10 -15   6   54.54   10.03
  10 -15   6   47.23   11.35
 -10 -15  -6   65.40   12.15
  10 -15  -6   51.96   11.20
  10 -15  -6   61.88   13.00
   0 -16   6   11.92    8.06
   0 -16   6   10.88   11.88
   0 -16   6   -1.30   17.09
   0 -16  -6    7.01    5.22
   0 -16  -6   11.95   10.59
  -1 -16   6   59.95   20.85
  -1 -16   6  103.73   31.05
   1 -16   6   81.35   19.03
   1 -16   6  129.39   39.01
   1 -16  -6   84.41   17.33
  -1 -16  -6   94.06   18.51
   1 -16  -6  100.11   22.94
  -1 -16  -6   62.37   20.56
  -1 -16   6   98.93   33.42
   1 -16   6   93.96   38.27
  -2 -16   6    1.08    4.22
  -2 -16   6    4.97    6.94
   2 -16   6   13.23   11.13
  -2 -16  -6   10.13    6.67
   2 -16  -6   17.61   11.10
   2 -16   6   15.62   19.19
   2 -16  -6    7.52    2.55
  -2 -16  -6   18.62    8.31
   2 -16  -6   37.48   13.73
  -2 -16  -6   -4.52   11.49
  -2 -16   6   21.56   10.26
  -3 -16   6   80.87   23.59
  -3 -16   6   48.10   16.66
   3 -16   6   64.97   18.04
   3 -16  -6   59.93   20.81
   3 -16   6   77.24   28.89
   3 -16  -6   77.49   15.63
  -3 -16  -6   45.12   12.46
   3 -16  -6   58.48   14.14
  -4 -16   6    7.49    7.61
  -4 -16   6    5.13    4.82
   4 -16   6   21.70   18.48
   4 -16  -6    6.64    8.81
   4 -16   6    7.97   12.42
  -4 -16  -6    0.53    4.04
   4 -16  -6    3.02    2.56
  -5 -16   6    8.31    6.42
   5 -16   6  -13.60   15.41
   5 -16  -6  -13.63   17.99
   5 -16   6   -1.39    9.50
  -5 -16  -6    2.23    4.33
  -6 -16   6    4.82    5.77
   6 -16   6   -3.91    6.18
   6 -16  -6   24.77   12.05
  -6 -16  -6    9.32    7.64
  -6 -16  -6    8.78    5.58
  -7 -16   6   11.42    5.55
   7 -16   6   40.61   17.28
   7 -16  -6   15.99   11.28
  -7 -16  -6   19.70    6.71
  -8 -16   6   -0.97    2.62
   8 -16  -6   -4.51    4.32
   9 -16   6   98.55   17.41
   9 -16  -6  107.69   17.86
   0 -17   6    5.90    4.62
   0 -17  -6    0.47    7.12
  -1 -17   6   14.99    9.92
   1 -17   6    7.92    4.35
   1 -17   6    1.73   16.82
   1 -17  -6   -1.18    3.76
  -1 -17  -6    0.08    4.30
  -1 -17   6  -15.41   10.35
  -2 -17   6  139.22   32.42
   2 -17   6  127.63   24.35
   2 -17   6  135.55   33.45
  -2 -17  -6   67.14   21.11
   2 -17  -6  129.79   21.22
  -3 -17   6   25.74   12.78
   3 -17   6   -7.45    9.95
   3 -17  -6   20.77   12.69
   3 -17   6   45.64   25.87
   3 -17  -6   15.02    6.82
  -3 -17  -6   11.92    6.77
  -4 -17  -6  398.34   42.23
   4 -17   6  382.91   50.08
   4 -17  -6  300.77   53.44
  -4 -17   6  372.29   39.05
  -5 -17   6   34.94   10.83
   5 -17   6   16.14    9.41
  -5 -17  -6   42.24   10.91
   5 -17  -6   31.84   16.98
  -6 -17  -6  514.66   34.75
   6 -17   6  515.59   62.02
   6 -17  -6  606.73   72.02
  -6 -17   6  426.69   31.87
  -7 -17   6    1.00    3.39
   7 -17   6    6.07    8.60
   7 -17  -6    6.18    7.44
   0 -18  -6  101.86   24.01
   0 -18   6  110.59   37.25
   1 -18   6   62.30   32.89
   1 -18  -6   84.13   18.37
  -1 -18  -6   48.82   16.89
  -1 -18   6   44.36   13.21
  -2 -18   6  111.47   24.76
  -2 -18   6   70.72   17.31
   2 -18   6   47.86   14.49
  -2 -18  -6   83.81   21.21
   2 -18  -6   81.25   16.40
  -3 -18   6   53.13   13.80
   3 -18   6   28.44   11.13
  -3 -18  -6   50.03   13.79
  -4 -18   6   41.87   10.89
   4 -18   6   30.43   13.01
  -4 -18  -6   58.55   13.82
   0   0  -7    2.58    1.26
   0   0  -7   10.46    5.94
   1   0   7   13.35    6.27
   1   0  -7    3.25    2.97
  -1   0  -7    5.55    2.95
   2   0   7  195.76   28.11
   2   0  -7  172.13   15.68
   2   0   7  164.39   14.60
  -2   0   7  178.01   13.14
  -3   0  -7   -3.47    6.39
  -3   0   7    1.53    1.76
   3   0  -7    1.39    1.49
   3   0   7    1.88    1.70
   3   0   7    0.10    5.91
   4   0  -7 3556.99   82.82
  -4   0   7 3529.64   62.43
   5   0  -7   -0.37    1.59
   5   0   7   -4.14   13.42
  -6   0  -7 4028.65   94.81
   6   0  -7 3869.90  101.47
   7   0   7    6.02    5.18
   7   0  -7    2.48    2.72
  -7   0  -7    1.61    2.51
   8   0   7 1853.42   81.13
   8   0  -7 1553.93   71.23
   9   0   7   -0.97    4.05
   9   0  -7    1.91    3.95
  -9   0   7    3.31    4.55
 -10   0   7  165.18   28.81
  10   0   7  195.67   25.25
 -11   0   7   -7.43    5.65
  11   0   7   -0.32    1.69
  12   0   7   15.33    8.66
 -12   0  -7   -0.78    5.45
  12   0   7    3.54    3.95
 -12   0   7   -5.65    5.38
  12   0   7    3.63    6.21
  12   0  -7   -0.42    4.52
  13   0   7    0.84    7.91
  13   0   7    1.52    2.94
  13   0  -7   -4.60    6.59
  14   0   7  166.89   24.87
  14   0   7  183.98   25.69
  14   0  -7  191.02   25.61
 -14   0   7  177.05   24.50
  15   0   7   -2.99    5.62
  15   0  -7  -10.56    6.18
 -15   0   7    2.02    3.15
  15   0   7    1.56    3.44
  16   0   7  690.20   41.60
  16   0   7  594.19   40.01
  16   0  -7  564.00   38.20
 -16   0   7  592.70   38.37
  17   0  -7   -0.42    3.07
  17   0  -7    1.99    2.60
 -17   0   7    2.46    2.50
  17   0   7   -2.82    2.38
  18   0  -7  505.27   27.18
  18   0   7  482.35   27.36
   0  -1  -7  686.44   25.06
   0  -1  -7  540.77   27.17
   0   1  -7  591.65   28.33
   0   1  -7  658.50   45.95
   1  -1  -7 1186.82   35.84
  -1   1  -7 1233.10   77.21
   1  -1  -7 1020.97   38.58
   1   1  -7 1083.83   38.57
  -1  -1   7 1194.84   35.22
  -1   1  -7 1130.59   57.25
   1  -1   7  997.79   35.77
  -1  -1  -7 1028.31   38.44
   1  -1   7 1076.84   39.44
  -2   1  -7 1076.63   68.99
  -2  -1   7 1003.03   32.78
   2  -1  -7  910.95   37.49
   2   1  -7  974.25   37.15
  -2  -1  -7  998.89   39.00
   2  -1   7  944.04   34.69
   2  -1   7  902.91   44.68
  -3  -1   7  174.32   14.02
   3   1  -7  148.10   15.28
  -3  -1  -7  158.84   16.47
   3  -1   7  145.16   14.07
   3  -1  -7  141.46   15.99
   3  -1   7  150.50   21.72
   4  -1  -7  597.72   35.24
   4   1  -7  634.96   33.80
  -4  -1   7  599.05   27.79
   4  -1   7  618.36   30.27
   5  -1   7  132.58   24.23
  -5  -1  -7  158.32   18.46
  -5  -1   7  138.32   14.44
   5   1  -7  168.85   19.21
   5  -1  -7  135.31   17.59
  -6  -1   7    0.94    1.43
   6   1  -7    4.69    5.15
  -6   1  -7    2.72    2.14
   6  -1  -7    7.25    5.18
   6   1   7   -4.79   10.01
   6  -1   7    2.43    3.79
  -6  -1  -7   -3.96    3.44
   7  -1   7   45.02   13.98
  -7  -1  -7   32.87    9.56
   7  -1  -7   41.40   11.86
   7   1  -7   36.97   10.58
   7   1   7   45.86   13.91
   8  -1   7   52.67   14.98
   8   1  -7   41.50   11.98
  -8  -1   7   49.56   15.68
   8  -1  -7   46.06   12.44
   8   1   7   59.43   14.33
   9  -1   7  147.50   22.83
   9   1   7  148.53   22.03
  -9  -1   7  146.25   25.13
   9   1  -7   91.20   19.12
   9  -1  -7  140.22   21.87
  10  -1   7   44.78   12.08
 -10   1   7   25.38    8.30
 -10  -1   7   36.37   13.65
  10   1   7   31.65   10.14
 -11  -1  -7  206.90   29.03
 -11  -1   7  230.45   31.26
  11  -1   7  249.81   29.09
  11  -1  -7  282.10   33.48
  11   1   7  220.67   26.15
 -11   1   7  214.31   30.49
  12   1   7   57.92   16.23
  12  -1   7   59.26   16.28
 -12  -1  -7   59.26   15.10
  12   1   7   50.76   12.03
  12  -1   7   60.88   14.28
  12  -1  -7   62.23   15.53
  12   1   7   33.36   12.33
  12  -1   7   55.50   15.40
 -12   1   7   62.49   14.35
  12   1  -7   45.10   13.84
  12  -1  -7   70.58   16.90
 -12  -1   7   49.41   15.67
  13  -1   7  261.37   32.00
  13   1   7  260.37   31.99
  13   1   7  260.61   31.96
  13  -1   7  238.92   32.43
  13   1  -7  235.55   32.42
  13  -1  -7  218.82   30.70
  14   1   7   38.93   10.74
  14  -1   7   48.51   13.56
  14   1  -7   17.27    6.75
  14  -1  -7   35.86   11.55
 -14  -1   7   30.73   10.18
 -14   1   7   33.07   10.54
  14  -1   7   48.33   13.47
  14   1   7   36.90   11.98
  15  -1   7   59.52   13.86
  15   1  -7   61.76   13.23
  15  -1  -7   76.55   16.08
 -15  -1   7   69.45   14.67
 -15   1   7   76.28   15.40
  15  -1   7   71.59   14.80
  15   1   7   86.85   15.66
  16  -1   7   30.62    8.48
  16   1  -7    9.45    6.20
  16  -1  -7   13.52    8.34
 -16   1   7   20.78    7.72
 -16  -1   7   21.03    7.06
  16  -1   7   20.14    8.28
  16   1   7   22.56    8.87
  17   1  -7    2.81    2.30
  17  -1  -7   -1.04    3.57
  17  -1   7    0.85    2.26
  17  -1  -7    1.04    2.37
 -17   1   7    5.53    1.92
 -17  -1   7    5.83    3.54
  17  -1   7    1.52    2.24
  17   1   7    3.65    1.90
  18  -1  -7    5.41    4.10
  18   1  -7    5.03    3.02
  18  -1   7    4.66    2.71
  18   1   7   -3.59    3.59
   0  -2  -7   -2.34    1.57
   0  -2   7   -1.43    2.52
   0  -2  -7    1.08    2.59
   0   2  -7    3.19    1.97
   0  -2   7   -3.40    3.13
  -1   2  -7  213.96   31.57
   1  -2   7  199.52   15.39
   1  -2  -7  222.55   16.06
  -1  -2   7  185.36   14.52
   1  -2  -7  174.44   16.85
  -1  -2  -7  165.57   16.35
   1   2  -7  193.64   16.17
  -1   2   7  200.66   25.40
  -1   2  -7  177.59   25.04
   1  -2   7  188.48   15.93
   2  -2   7  320.60   23.40
   2  -2  -7  328.66   20.63
  -2   2  -7  364.97   39.40
   2  -2  -7  297.50   23.69
   2   2  -7  333.85   21.74
  -2  -2  -7  305.62   22.82
  -2  -2   7  329.80   19.74
   2  -2   7  309.65   20.41
  -3  -2  -7  493.18   30.90
   3  -2  -7  489.16   27.61
  -3  -2   7  498.23   25.27
  -3  -2  -7  545.54   27.40
   3  -2  -7  450.39   30.57
   3   2  -7  511.38   28.14
  -3  -2  -7  441.69   28.75
   3  -2   7  478.10   26.24
   3  -2   7  464.28   33.26
   4  -2   7 1568.01   72.40
  -4  -2  -7 1929.84   65.15
  -4  -2  -7 2199.30   54.76
  -4  -2   7 1954.01   53.49
   4  -2  -7 1821.46   64.46
   4   2  -7 2054.01   60.64
   4  -2   7 1924.40   55.56
   4  -2  -7 1830.05   61.30
  -5  -2  -7  102.54   15.85
  -5  -2   7  111.37   13.90
   5  -2  -7  114.54   17.11
   5   2  -7  127.66   16.24
   5  -2   7  112.93   14.25
   5  -2   7   68.03   16.64
  -6  -2  -7 1920.02   71.63
   6  -2  -7 1864.96   72.62
   6   2  -7 1994.26   69.38
   6  -2   7 1789.31   59.56
  -6  -2   7 1798.73   59.55
  -7  -2  -7  183.24   22.07
  -7  -2   7  163.52   19.66
  -7  -2   7  172.89   25.82
   7  -2  -7  176.42   23.31
   7   2  -7  200.43   23.56
   7  -2   7  223.71   32.57
   8  -2   7  836.68   61.26
  -8  -2  -7  669.44   44.47
   8  -2  -7  666.94   56.56
  -8  -2   7  661.52   52.40
   8  -2  -7  663.53   47.32
   8   2  -7  737.04   45.84
   8   2   7  756.72   51.74
  -9  -2   7   25.59   11.54
   9  -2  -7   15.53    8.66
   9  -2  -7   22.75   11.18
   9   2   7   20.91    9.19
   9  -2   7   21.80    8.05
 -10  -2  -7  207.18   25.85
  10   2   7  185.65   24.50
  10  -2   7  206.91   28.21
  10  -2  -7  205.98   30.81
 -10  -2   7  221.81   30.88
 -10   2   7  142.40   25.12
 -11  -2  -7    5.58    5.03
  11   2   7    4.88    4.98
  11  -2   7    5.04    2.47
  11  -2  -7    0.50    5.50
 -11  -2   7    0.10    5.94
 -11   2   7    2.60    3.23
  12   2   7    6.04    3.88
  12  -2   7   20.20   11.14
  12  -2   7   25.12   10.03
  12  -2   7    3.41    5.32
  12  -2  -7   21.32   10.20
 -12  -2   7   21.04   10.15
 -12  -2   7    3.91    5.13
 -12  -2  -7    9.04    5.69
  12  -2  -7   12.48    8.33
  12   2   7   15.19    6.46
  13  -2   7   96.82   18.68
  13   2   7  115.63   21.83
  13  -2   7   91.61   20.11
 -13  -2   7   86.86   18.57
  13  -2  -7  101.69   20.80
  14  -2   7  288.01   32.29
  14   2   7  271.54   31.88
  14  -2  -7  305.27   33.60
  14  -2   7  249.22   30.19
 -14  -2   7  256.20   29.73
 -14   2   7  275.50   31.14
  15  -2   7   43.19   12.69
  15  -2  -7   39.18   12.21
 -15  -2   7   44.61   12.14
 -15   2   7   50.92   11.95
  15  -2   7   68.80   14.07
  15   2   7   67.14   14.85
  16   2   7  381.36   32.18
  16  -2   7  411.97   33.02
  16  -2   7  343.14   28.94
 -16   2   7  358.14   30.42
 -16  -2   7  373.58   30.26
  17   2  -7   60.80   10.30
  17  -2  -7   77.25   13.07
  17  -2   7   79.35   12.33
  17  -2  -7   66.14   11.51
 -17   2   7   80.94   11.93
 -17  -2   7   49.31   10.12
  17  -2   7   61.34   10.74
  17   2   7   59.05   11.49
  18   2  -7  304.16   20.51
  18  -2  -7  349.65   22.50
  18   2   7  323.88   22.00
   0  -3  -7 1841.21   63.17
   0  -3   7 1888.20   51.06
   0  -3   7 2035.88   49.64
   1  -3   7   17.77    4.45
  -1  -3  -7   20.49    7.19
   1  -3  -7   13.20    4.12
  -1  -3   7   14.15    4.82
   1  -3  -7   11.76    4.41
  -1  -3  -7   10.15    4.44
   1   3  -7   15.95    5.41
   1  -3   7   17.07    4.60
  -1  -3   7   20.10    4.46
  -2  -3  -7 2616.84   62.80
   2   3  -7 2640.70   62.33
  -2  -3   7 2669.84   59.26
   2  -3   7 2588.52   62.95
   2  -3   7 2525.30   60.17
   2  -3  -7 2636.45   59.89
  -2  -3  -7 2389.40   70.69
  -3  -3  -7   12.04    4.80
   3  -3  -7   15.24    5.26
  -3  -3   7    9.13    2.47
   3  -3  -7   23.26    8.17
   3   3  -7   11.20    4.46
   3  -3   7   14.76    5.33
   3  -3   7    7.54    4.33
  -3  -3  -7   11.66    5.42
  -4  -3  -7  818.82   43.38
   4  -3   7  769.13   47.13
  -4  -3  -7  950.07   37.95
   4  -3  -7  772.22   39.34
  -4  -3   7  773.06   35.00
   4  -3  -7  724.47   44.52
   4   3  -7  853.92   38.34
   4  -3   7  771.47   36.08
  -4   3   7  867.80   32.18
   5  -3   7    1.22    4.43
  -5  -3  -7    6.00    4.00
  -5  -3   7   -5.01    6.90
   5  -3  -7    1.89    2.21
  -5  -3   7   -4.70    3.33
   5  -3  -7    1.65    3.31
   5   3  -7    3.82    3.96
   5  -3   7   -1.46    3.25
  -5   3   7   -3.04    2.57
  -6  -3  -7  115.97   17.54
  -6  -3   7  106.34   15.70
  -6  -3   7  106.36   19.04
   6  -3  -7  107.22   18.30
   6   3  -7  135.86   17.53
   6  -3  -7  119.75   20.09
  -6   3   7  133.56   15.94
   6  -3   7  109.59   14.85
   6  -3   7   84.82   20.87
  -7  -3   7  126.76   21.81
   7  -3   7  108.92   24.30
  -7  -3  -7  129.83   19.58
   7  -3  -7  106.77   21.36
  -7  -3   7  135.18   18.06
   7   3  -7  148.81   19.81
  -7   3   7  158.99   20.97
   7  -3   7  138.24   18.33
   7  -3  -7  119.10   19.21
  -8  -3  -7  239.89   28.30
  -8  -3   7  177.06   22.66
  -8  -3   7  211.46   28.53
   8  -3  -7  250.14   28.51
   8  -3   7  261.49   36.98
   8  -3  -7  180.90   29.77
  -8  -3  -7  202.17   24.68
  -9  -3  -7  136.82   20.04
   9   3   7   94.33   18.96
   9  -3  -7  113.32   23.62
  -9  -3   7   98.33   17.77
  -9  -3   7  121.69   22.25
   9  -3   7  129.71   24.78
  10   3   7  444.18   38.87
  10  -3   7  506.81   47.29
  10  -3  -7  491.48   49.34
 -10  -3   7  465.91   44.46
 -10   3   7  403.34   41.24
 -10  -3  -7  476.96   39.10
  11  -3  -7   88.39   20.68
  11  -3   7   91.47   18.65
 -11   3   7   72.22   17.38
  11   3   7   73.44   15.82
 -11  -3   7   59.22   16.65
 -11  -3  -7   82.22   15.89
 -12  -3  -7  661.36   46.12
  12  -3  -7  700.58   53.19
  12   3   7  591.53   44.07
  12   3   7  554.80   48.27
 -12  -3   7  595.54   49.33
  12  -3   7  646.19   52.49
 -12  -3   7  579.19   50.18
  12  -3   7  611.97   46.93
  12  -3  -7  501.65   49.10
  13  -3   7   55.11   14.88
 -13  -3   7   46.02   13.36
  13  -3  -7   63.85   16.26
 -13  -3   7   70.36   16.85
  13   3   7   62.69   15.07
  14   3   7  324.48   33.21
  14  -3   7  347.02   35.30
  14  -3  -7  399.10   38.86
 -14  -3   7  332.24   33.67
 -14   3   7  362.22   34.52
  15  -3   7   24.31    8.71
  15  -3  -7   24.02    9.83
 -15  -3   7   23.01    8.04
  15   3   7   37.34   10.94
  16  -3   7   32.46    8.72
  16   3  -7   32.67    9.09
  16  -3  -7   30.64    9.58
 -16  -3   7   32.28    9.00
  16   3   7   26.21    7.52
  17   3  -7   -1.94    3.18
  17  -3  -7    1.99    2.88
  17  -3   7   -3.96    3.13
  17  -3  -7    7.15    3.85
 -17  -3   7    4.11    2.17
  17   3   7    6.48    3.88
  18   3   7   22.11    6.07
   0  -4  -7   10.49    6.75
   0  -4  -7    2.04    2.41
   0  -4   7    0.74    2.06
   0  -4  -7    0.45    4.98
   0  -4  -7    1.48    1.35
   0  -4   7    1.67    3.82
   1  -4  -7  167.09   25.19
  -1  -4  -7  144.13   19.62
   1  -4  -7  155.54   14.52
  -1  -4   7  169.59   14.98
  -1  -4  -7  153.05   15.88
   1   4  -7  137.21   14.57
   1  -4  -7  171.54   23.69
  -1  -4   7  147.03   14.98
   1  -4   7  147.03   15.04
   1  -4   7  146.54   13.57
   1  -4   7  150.64   13.87
  -2  -4  -7   31.61    9.65
   2  -4  -7   29.68   10.63
   2  -4   7   33.25    7.27
  -2  -4  -7   27.95    6.70
   2  -4  -7   24.76    6.12
  -2  -4   7   28.77    6.27
  -2  -4   7   34.23   16.40
   2  -4  -7   52.07   14.56
   2   4  -7   26.74    6.92
   2  -4   7   32.30    7.22
  -3  -4   7  323.05   22.63
   3  -4   7  321.58   25.21
  -3  -4  -7  352.71   24.76
   3  -4  -7  304.95   22.52
  -3  -4   7  367.11   40.42
   3  -4  -7  372.96   34.90
   3   4  -7  355.78   23.55
  -3  -4  -7  289.05   27.45
   3  -4   7  312.16   22.67
   4  -4   7  109.87   17.13
  -4  -4  -7   95.04   16.33
  -4  -4  -7  126.29   14.61
   4  -4  -7  103.66   14.32
  -4  -4   7  138.83   23.26
   4  -4  -7  106.42   20.65
   4   4  -7  117.03   13.89
  -4  -4   7  117.18   14.58
   4  -4   7  102.02   13.72
   5  -4   7  391.09   37.81
  -5  -4  -7  380.47   32.10
  -5  -4   7  431.72   29.79
   5  -4  -7  442.12   38.18
   5   4  -7  442.15   29.26
   5  -4   7  379.80   27.70
  -5   4   7  432.06   25.59
  -5  -4   7  426.29   40.14
   5  -4  -7  431.75   33.11
   6  -4   7  196.05   30.09
   6  -4  -7  239.65   28.56
  -6  -4   7  267.78   26.03
   6   4  -7  309.78   25.70
   6  -4   7  254.66   24.52
  -6   4   7  279.36   22.94
  -6  -4   7  259.95   30.80
   6  -4  -7  252.34   28.61
  -6  -4  -7  256.16   27.24
   7  -4  -7  781.98   51.82
   7  -4  -7  685.30   53.66
  -7  -4   7  780.49   46.56
  -7  -4   7  798.94   53.49
  -7   4   7  851.27   46.06
   7  -4   7  779.42   45.54
  -7  -4  -7  792.75   49.48
   8  -4   7  195.47   33.31
  -8  -4  -7  196.50   24.63
   8  -4  -7  143.72   26.54
  -8  -4   7  191.60   26.39
  -8   4   7  208.22   26.76
   8  -4   7  154.48   21.72
   9  -4   7  157.42   29.43
  -9  -4  -7  133.76   20.24
  -9  -4   7  126.96   22.72
  -9   4   7  101.05   22.81
   9  -4  -7  102.18   24.49
  10  -4   7  143.67   26.30
  10   4   7  111.30   20.57
 -10   4   7   97.46   21.05
  10  -4  -7  127.70   26.63
 -10  -4   7  110.12   18.72
 -10  -4   7  108.05   20.61
  11  -4   7   36.13   12.30
 -11  -4   7   26.02   10.58
  11   4   7   42.05   12.24
  11  -4   7   41.83   13.18
  11  -4  -7   40.40   14.05
 -11  -4  -7   32.75   10.62
  11  -4  -7   22.84   12.76
  12   4   7    6.87    4.69
  12  -4   7    7.42    5.31
 -12  -4   7    9.35    7.36
  12  -4   7   10.87    7.91
 -12  -4   7   12.87    8.48
  12  -4  -7    1.79    5.81
  12  -4   7    6.99    5.36
  12  -4  -7    6.95    5.16
  12   4   7    7.65    5.42
  13  -4   7   45.05   13.42
  13  -4   7   31.20    9.88
 -13  -4   7   50.65   14.77
  13  -4  -7   21.15   10.91
 -13  -4   7   54.91   14.57
  13   4   7   41.66   12.71
  14  -4   7   56.26   13.94
  14  -4  -7   55.96   13.46
 -14  -4   7   69.33   14.82
  14   4   7   58.24   14.42
  15  -4   7   27.48   11.76
  15  -4  -7   18.14    9.20
 -15  -4   7   23.50    8.05
  15   4   7   19.81    8.25
  16  -4   7   72.63   14.11
  16   4  -7   87.84   14.58
  16  -4  -7   66.47   14.98
 -16  -4   7   89.20   15.23
  16   4   7   81.37   14.56
  17   4  -7  125.03   15.04
  17  -4  -7  145.26   16.22
  17  -4   7  126.11   15.43
  17  -4  -7  102.60   13.12
  17  -4  -7  139.36   16.88
 -17  -4   7  115.13   14.24
  17   4   7  119.35   15.11
   0  -5  -7 2713.76   72.33
   0  -5   7 2849.86   63.77
   0  -5   7 2814.86   67.79
   0  -5  -7 2859.20  105.45
   1  -5  -7  239.42   18.77
   1  -5  -7  243.75   34.08
  -1  -5  -7  192.69   24.90
   1  -5  -7  209.58   20.62
  -1  -5  -7  218.91   19.76
   1  -5   7  209.25   18.62
   1  -5  -7  307.26   42.65
   1   5  -7  228.88   18.85
   1  -5   7  226.61   17.38
  -1  -5   7  209.65   18.86
  -1  -5   7  201.43   17.08
  -2  -5   7 3219.23   73.97
   2  -5  -7 3070.15  131.81
  -2  -5  -7 2870.78   93.89
  -2  -5  -7 3182.84   77.34
   2  -5  -7 3118.83   70.50
  -2  -5   7 3155.80   70.56
   2   5  -7 3173.06   71.38
   2  -5   7 3194.20   73.61
   2  -5  -7 3072.94   84.68
   3  -5   7  200.44   19.90
  -3  -5  -7  179.61   22.75
   3  -5  -7  187.66   22.75
  -3  -5  -7  218.89   20.50
   3  -5  -7  197.37   18.75
  -3  -5   7  196.36   19.17
   3  -5  -7  286.05   36.75
   3   5  -7  201.88   18.02
   3  -5   7  206.21   19.30
  -4  -5  -7  471.70   37.13
   4  -5  -7  628.62   51.86
   4  -5  -7  500.37   32.28
  -4  -5   7  525.63   32.91
   4   5  -7  539.90   30.11
   4  -5   7  549.47   37.24
   4  -5   7  524.68   32.17
   5  -5   7    2.86    4.23
   5  -5  -7   10.44    6.39
  -5  -5   7   15.41    6.84
  -5  -5   7    7.41    8.04
   5  -5  -7   16.90    8.32
   5   5  -7    8.80    3.76
   5  -5   7    3.74    1.67
  -5  -5  -7   10.43    5.84
  -5   5   7    7.69    3.75
  -6  -5   7   20.28    7.46
   6  -5   7   22.21   11.06
  -6  -5  -7   24.56    8.53
   6  -5  -7   30.21   12.43
  -6  -5   7   30.32    9.34
   6  -5  -7   19.65    6.38
   6  -5   7   25.44    8.12
   6  -5  -7   31.51   10.26
  -6   5   7   22.57    6.41
   7  -5   7    8.60    9.14
   7  -5  -7    4.73    4.10
  -7  -5   7   -3.40    5.56
  -7   5   7    6.11    1.91
  -7  -5  -7    3.14    2.85
   7  -5   7    8.17    5.40
  -7  -5   7    8.63    7.54
   8  -5   7  113.87   26.85
  -8  -5  -7  211.88   26.11
   8  -5  -7  137.79   26.34
  -8  -5   7  189.75   26.86
  -8   5   7  189.27   23.92
   8  -5   7  171.00   23.44
  -8  -5   7  164.99   23.01
   9  -5   7    5.87    7.91
  -9   5   7   15.76    9.45
   9  -5  -7    5.98    6.97
  -9  -5   7    4.46    3.46
  -9  -5   7    6.02    4.51
  -9  -5  -7    5.26    2.80
   9  -5   7   -0.89    3.82
  10   5   7  502.69   46.08
 -10  -5  -7  659.31   45.71
  10  -5  -7  604.85   59.40
 -10  -5   7  511.85   41.99
 -10  -5   7  661.48   49.17
 -10   5   7  545.07   51.97
  10  -5   7  718.58   62.54
  11   5   7    5.22    7.13
 -11  -5  -7   11.32    5.79
 -11  -5   7    7.21    2.55
  11  -5   7    8.16    5.08
  11  -5  -7    8.61    6.79
 -11  -5   7   17.03    7.79
  11  -5   7   -6.33    8.86
  11  -5  -7    9.14    9.04
  11  -5  -7   10.85    7.33
 -11   5   7   23.70   10.96
  11   5   7    6.95    5.07
  12   5   7 1100.06   66.63
  12  -5   7 1282.24   75.59
 -12  -5   7 1248.33   74.00
  12  -5  -7  950.07   73.36
  12  -5   7 1285.71   74.60
 -12  -5   7 1292.12   72.79
  12  -5  -7 1114.48   67.27
  13  -5   7    7.34    3.67
 -13  -5   7    6.57    3.28
  13  -5   7   15.85    7.45
  13  -5  -7    3.81    7.23
 -13  -5   7   10.60    4.66
  13   5   7   19.06    9.40
 -14  -5   7  775.78   51.56
  14   5   7  852.58   52.86
  14  -5   7  820.07   55.98
  14  -5  -7 1056.85   62.06
  14  -5   7  977.64   56.70
 -14  -5   7  991.66   57.28
  15   5  -7   -1.39    2.36
  15  -5   7   -1.70    5.47
  15  -5  -7    0.01    4.92
 -15  -5   7    2.99    4.13
  15   5   7    0.55    2.59
  16   5  -7  112.32   15.51
  16  -5   7  110.68   16.47
  16   5   7  121.69   16.80
  16  -5  -7  129.53   18.07
 -16  -5   7  128.74   17.14
  17  -5   7   11.33    5.61
 -17  -5   7   11.79    5.30
  17  -5  -7    6.89    3.98
 -17  -5   7    5.96    3.48
  17   5   7    4.74    2.71
   0  -6  -7    4.40    5.88
   0  -6   7   -5.45    3.23
   0  -6  -7   -1.91    2.21
   0  -6   7    4.13    2.40
   0  -6  -7   -0.35    7.90
   1  -6  -7   69.54   21.17
   1  -6  -7   45.28    9.83
  -1  -6  -7   45.94    9.93
  -1  -6   7   45.62    8.57
   1  -6   7   44.45    8.32
  -1  -6  -7   33.18   10.39
  -1  -6   7   50.03    9.69
   1  -6   7   43.50    9.10
  -2  -6  -7   28.57    9.23
  -2  -6  -7   27.25    6.85
  -2  -6   7   33.56    7.87
   2  -6   7   42.40    9.34
   2  -6  -7   46.13   20.33
   2   6  -7   33.44    7.56
   2  -6  -7   27.00    8.48
  -2  -6   7   38.47    8.42
   2  -6  -7   33.21    8.10
  -3  -6  -7  272.87   30.57
   3  -6  -7  291.42   30.35
  -3  -6   7  291.48   23.84
   3  -6  -7  376.78   48.59
   3  -6  -7  266.47   22.92
   3   6  -7  288.87   21.97
   3  -6   7  277.66   23.60
   4  -6  -7  126.39   21.75
   4  -6  -7  141.17   17.59
  -4  -6   7  179.73   35.11
   4  -6  -7  210.75   33.55
  -4  -6  -7  146.09   21.92
   4  -6   7  160.23   18.43
  -4  -6   7  150.52   17.83
   5  -6  -7  166.11   27.84
   5  -6  -7  182.63   21.99
  -5  -6   7  198.02   22.63
  -5  -6   7  198.02   36.27
  -5  -6  -7  197.15   25.01
   5  -6   7  208.38   22.17
  -5   6   7  174.07   17.59
   6  -6  -7   25.06    8.95
  -6  -6   7   19.85    9.18
  -6  -6   7   19.59   11.18
   6  -6   7   19.36    7.88
  -6   6   7   18.55    6.29
  -6  -6  -7   19.98    8.82
  -7  -6   7  429.57   43.01
  -7  -6  -7  388.61   35.65
   7  -6  -7  351.30   38.55
  -7  -6   7  310.76   32.67
   7  -6   7  366.12   33.36
  -7   6   7  398.44   30.40
  -8  -6  -7   14.34    8.80
  -8  -6  -7   12.15    6.77
  -8  -6   7    6.25    4.63
   8  -6  -7    1.24    3.64
  -8  -6   7    5.81    6.47
  -8   6   7    8.34    6.82
   8  -6   7    5.62    5.12
  -9  -6  -7  135.08   20.51
  -9  -6   7  138.07   22.46
  -9   6   7  131.51   23.21
   9  -6   7  162.03   24.94
   9  -6  -7   79.48   21.37
  -9  -6  -7  147.13   22.83
  -9  -6   7  103.66   20.27
 -10  -6  -7   55.11   13.48
  10  -6  -7   40.14   15.77
 -10  -6   7   22.66    9.24
 -10  -6   7   42.94   11.74
  10  -6   7   47.06   13.47
 -10   6   7   27.29   10.07
  11  -6  -7   40.50   13.14
 -11  -6  -7   48.22   13.63
 -11  -6  -7   42.97   11.67
 -11   6   7   15.09    5.51
 -11  -6   7   36.19   11.65
 -11  -6   7   54.07   13.24
  11  -6  -7   26.57   13.96
 -11  -6  -7   46.38   14.44
  11  -6   7   45.46   17.06
 -11  -6   7   61.99   16.22
  11   6   7   31.42   12.23
  11  -6   7   44.46   13.65
  11  -6  -7   35.31   12.60
 -11  -6   7   29.53    8.11
  11   6   7   47.75   13.47
 -12  -6  -7    1.96    2.88
 -12  -6  -7    0.63    4.94
  12  -6   7    3.46    5.90
 -12  -6   7   -9.68    8.18
  12  -6   7    6.49    7.87
  12  -6  -7   -6.69    5.55
  12  -6  -7   12.18    6.16
 -12  -6   7    2.19    3.24
  12   6   7   -0.28    5.35
 -13  -6  -7   61.97   14.37
 -13  -6   7   41.06   14.04
  13  -6   7   52.60   15.16
 -13  -6   7   47.81   15.83
  13  -6  -7   69.23   16.91
  13  -6   7   44.36   12.85
  13  -6  -7   51.51   13.44
 -13  -6   7   73.97   15.71
  13   6   7   46.83   12.10
  14  -6   7   -0.37    2.82
 -14  -6   7    4.53    5.09
  14  -6  -7   -4.63    6.17
  14  -6   7   -4.42    3.73
 -14  -6   7    5.03    6.71
  14  -6  -7    2.07    3.42
  14   6   7    1.49    4.63
  15  -6   7   48.37   12.54
  15  -6  -7   50.33   12.36
  15  -6   7   58.43   12.05
 -15  -6   7   58.22   12.58
  15   6   7   52.10   12.23
 -15  -6   7   44.08    9.85
  16  -6   7   11.36    5.30
  16  -6  -7   27.06    8.65
  16   6   7   16.17    6.35
 -16  -6   7   10.76    4.28
  17   6   7  139.69   14.39
  17  -6   7  157.83   15.80
 -17  -6   7  138.39   14.57
  17  -6  -7  126.70   14.25
   0  -7  -7 1350.90   63.08
   0  -7  -7 1143.03   53.40
   0  -7   7 1273.89   50.42
   0  -7  -7 1431.21   99.44
   0  -7   7 1299.05   46.63
   1  -7   7  312.53   22.74
   1  -7  -7  358.62   53.28
  -1  -7  -7  303.13   36.49
   1  -7  -7  308.49   28.38
  -1  -7  -7  293.40   26.25
  -1  -7  -7  392.91   46.82
  -1  -7   7  321.28   24.86
   1  -7   7  310.47   25.02
  -1  -7   7  311.31   23.21
   2  -7  -7 1151.65   58.69
  -2  -7  -7 1201.68   74.11
  -2  -7   7 1215.74   48.30
   2   7  -7 1195.81   46.50
  -2  -7   7 1258.21   49.68
   2  -7   7 1190.21   50.29
  -3  -7  -7   12.32    8.91
  -3  -7  -7   -4.31   10.29
   3  -7  -7    2.00    3.51
   3  -7   7    5.34    4.46
  -3  -7   7    4.46    3.01
   4  -7  -7  291.40   26.26
  -4  -7   7  319.03   27.66
   4  -7  -7  319.53   37.48
   4  -7  -7  351.04   37.91
   4  -7   7  293.94   26.90
  -4  -7  -7  304.66   33.18
  -5   7   7   44.62    9.64
   5  -7  -7   35.67   10.40
  -5  -7   7   57.78   16.24
  -5  -7  -7   46.93   13.27
  -5  -7  -7   44.83   15.10
  -5  -7   7   31.81    9.01
   5  -7   7   39.79   10.25
   5  -7  -7   58.70   19.13
  -6  -7  -7   33.72   12.53
   6  -7  -7   19.63    7.47
  -6  -7   7   33.48   10.70
  -6  -7   7   46.12   14.22
   6  -7   7   33.97   10.62
  -6  -7  -7   37.37   12.36
  -6   7   7   23.17    7.52
  -7  -7  -7   -5.99    5.86
  -7  -7  -7    0.02    3.82
  -7  -7   7   -4.34    5.71
  -7   7   7    1.29    2.58
   7  -7   7   -7.44    6.20
  -7  -7   7   -9.24    8.98
   7  -7  -7    3.23    4.05
   8  -7  -7  138.62   26.87
  -8  -7  -7  224.48   27.92
  -8  -7   7  160.80   24.80
  -8  -7  -7  229.70   28.89
  -8  -7   7  246.33   30.70
  -8   7   7  191.54   24.07
   8  -7   7  179.25   25.62
   9  -7  -7   30.83   14.17
  -9  -7   7   62.06   15.18
  -9  -7   7   83.61   17.52
  -9  -7  -7   81.55   16.34
   9  -7   7   81.06   17.39
  -9   7   7   59.92   15.42
 -10  -7  -7  601.66   49.04
  10   7   7  396.59   41.56
 -10  -7   7  367.31   37.17
 -10  -7   7  541.59   44.10
  10  -7   7  474.55   48.66
 -10  -7  -7  500.24   44.62
  10  -7  -7  310.50   42.63
 -10   7   7  270.82   40.16
 -10  -7   7  590.58   54.58
 -10  -7  -7  457.07   38.82
  10  -7   7  482.12   44.80
  10  -7  -7  434.82   44.80
  10  -7   7  544.02   53.35
  10  -7  -7  463.82   46.59
  10  -7  -7  450.52   45.31
 -11  -7  -7   87.54   18.49
  11  -7   7   84.08   19.72
 -11  -7  -7   92.90   19.30
 -11  -7   7   90.74   20.70
  11  -7   7   90.16   19.16
  11  -7  -7   74.41   17.78
  11  -7  -7   76.56   19.12
  11   7   7   64.17   15.31
 -12  -7  -7  946.72   57.52
  12   7   7  712.13   52.18
  12  -7   7  932.65   65.53
 -12  -7  -7  891.80   56.52
 -12  -7   7  989.35   66.13
  12  -7  -7  873.88   60.23
  12  -7   7  893.96   62.82
 -12  -7   7  970.87   57.80
  12  -7  -7  846.18   61.41
 -13  -7  -7   38.88   10.51
 -13  -7   7   32.62   11.35
 -13  -7  -7   39.96   11.46
  13  -7   7   24.82   11.70
  13  -7  -7   38.45   13.39
  13  -7   7   34.08   11.33
 -13  -7   7   41.69   11.90
  13  -7  -7   33.42   10.80
  13   7   7   30.33   10.58
 -14  -7   7  542.04   40.46
  14   7   7  510.14   38.10
  14  -7   7  563.08   41.90
  14  -7   7  486.84   41.99
 -14  -7  -7  622.27   40.78
  14  -7  -7  516.74   43.88
 -14  -7   7  641.70   42.46
  14  -7  -7  539.20   41.39
 -15  -7   7   13.97    5.40
  15  -7   7    7.44    6.43
  15  -7  -7   25.79    8.19
  15  -7   7   14.90    5.89
  15   7   7   16.55    7.01
 -15  -7   7   17.84    5.58
  15  -7  -7   15.95    5.65
  16  -7   7   72.90   12.19
 -16  -7   7   68.74   12.17
  16  -7  -7   77.58   12.72
 -16  -7   7   57.01    8.65
  16  -7   7   67.36   10.63
  16   7   7   68.33   10.88
  17  -7   7    4.78    3.29
 -17  -7   7    1.10    1.58
   0  -8   7   -1.33    3.22
   0  -8  -7    2.37   14.52
   0  -8   7    4.88    4.26
  -1  -8  -7    5.16   10.09
  -1  -8  -7   -0.02    6.31
  -1  -8   7    2.69    1.84
   1  -8   7   -2.27    1.76
   1  -8  -7   -4.89    4.25
  -1  -8   7    2.31    4.00
   1  -8   7    1.18    3.17
  -2  -8  -7  180.77   32.00
  -2  -8  -7  154.62   28.89
   2  -8  -7  151.63   23.82
  -2  -8   7  168.56   18.49
   2  -8  -7  163.35   35.06
  -2  -8   7  167.75   19.10
   2  -8   7  167.63   19.40
   3  -8  -7   51.91   17.13
  -3  -8  -7   38.80   17.09
   3  -8  -7   30.01   10.02
  -3  -8   7   42.06   10.07
  -3  -8  -7   46.64   13.53
   3  -8   7   47.92   10.40
  -3  -8  -7   45.98   13.99
  -4  -8  -7  832.73   58.64
  -4  -8  -7  824.19   73.47
   4  -8  -7  734.89   61.36
  -4  -8   7  716.95   43.87
   4  -8  -7  897.06   63.53
  -4  -8  -7  719.27   48.84
   4  -8   7  720.08   42.96
  -5  -8  -7   96.18   19.09
  -5  -8  -7  115.74   25.74
   5  -8  -7   90.99   22.88
  -5  -8  -7   77.73   14.68
  -5  -8   7   88.25   16.19
   5  -8   7   93.80   16.29
  -5   8   7   90.92   14.08
  -6  -8  -7  692.65   50.42
  -6  -8   7  556.69   44.82
  -6  -8   7  874.49   67.29
   6  -8   7  612.29   45.64
  -6  -8  -7  834.99   63.98
  -6   8   7  627.02   38.24
  -7  -8   7   60.80   15.11
  -7  -8  -7   89.84   19.72
  -7  -8   7   81.83   20.44
   7  -8   7   56.29   14.39
  -7   8   7   64.30   12.80
  -8  -8  -7  294.31   33.37
  -8  -8   7  340.07   37.89
  -8  -8   7  209.89   29.57
  -8   8   7  269.20   28.77
   8  -8   7  235.83   31.59
  -9  -8  -7   40.34   11.82
  -9  -8   7   28.70   11.14
  -9  -8   7   66.10   16.92
  -9  -8  -7   39.45   12.46
  -9   8   7   47.55   14.03
  -9  -8  -7   43.25   12.11
  -9  -8   7   65.41   19.74
   9  -8   7   42.85   13.40
   9  -8   7   45.55   14.69
   9  -8  -7   50.21   14.64
 -10  -8  -7   96.96   20.12
 -10  -8  -7  129.52   23.43
 -10  -8  -7  114.92   20.16
  10  -8   7  104.51   23.44
 -10  -8   7  122.92   24.48
  10  -8   7  112.15   23.80
  10  -8  -7   98.95   21.72
  10  -8  -7  116.34   23.57
 -11  -8  -7   32.82   10.80
 -11  -8  -7   25.28    9.84
  11  -8   7   14.74    9.72
 -11  -8   7   10.58    5.36
  11  -8  -7    7.74    5.92
  11  -8   7   21.45   10.62
  11  -8  -7   24.90   10.25
 -12  -8  -7    1.12    2.76
 -12  -8   7   -6.70    3.06
 -12  -8  -7    2.77    3.14
  12  -8   7    2.73    6.27
  12  -8  -7    3.81    4.25
  12  -8   7    3.26    5.22
  12   8   7   -0.77    2.66
  12  -8  -7    0.18    6.08
 -13  -8  -7   49.67   12.56
 -13  -8  -7   49.78   12.52
 -13  -8   7   44.32   11.74
  13  -8   7   27.87   11.54
  13  -8  -7   39.52   11.64
  13  -8   7   39.38   12.07
  13   8   7   39.00   10.56
  13  -8  -7   48.58   13.40
 -14  -8  -7  118.86   16.76
 -14  -8   7   96.07   16.61
  14  -8   7  115.22   19.08
 -14  -8  -7  104.94   15.97
  14  -8  -7  104.18   18.00
  14  -8   7  126.80   19.19
  14  -8  -7  107.55   18.33
  14   8   7  116.19   16.65
 -15  -8   7   16.40    6.03
 -15  -8  -7   14.65    5.56
 -15  -8   7   23.16    7.27
  15  -8   7   11.26    5.22
  15  -8  -7   19.98    7.09
  15   8   7    7.41    3.05
  15  -8   7   18.43    6.74
  15  -8  -7   14.00    5.25
  16  -8   7  378.50   25.38
 -16  -8   7  353.61   24.10
 -16  -8   7  306.34   19.57
  16  -8   7  322.48   22.61
  16  -8  -7  344.93   21.89
   0  -9  -7  276.76   50.26
   0  -9   7  254.61   22.95
   0  -9   7  264.62   44.08
   0  -9  -7  316.37   51.75
   0  -9   7  278.20   25.52
  -1  -9  -7  511.35   64.21
  -1  -9  -7  368.53   38.91
   1  -9   7  405.91   27.99
  -1  -9   7  375.05   28.64
   1  -9  -7  314.74   53.17
  -1  -9   7  379.13   52.56
  -1  -9  -7  468.70   56.51
  -1  -9   7  377.90   30.21
   1  -9   7  434.22   32.00
  -2  -9  -7   87.47   23.33
   2  -9  -7   89.73   27.49
  -2  -9  -7  115.41   24.38
  -2  -9   7   91.11   14.25
   2  -9   7   82.78   13.73
  -2  -9  -7  110.28   26.20
  -2  -9   7   88.82   13.82
  -3  -9  -7    6.58    5.64
  -3  -9  -7    1.92    6.37
   3  -9   7    8.83    3.73
  -3  -9   7   12.39    4.76
   3  -9  -7   27.11   15.97
  -3  -9  -7   11.52    7.81
  -4  -9  -7   17.36    9.80
   4  -9  -7   25.39   11.64
  -4  -9  -7   13.09    5.44
   4  -9   7    6.83    2.41
  -4  -9   7   12.71    6.26
  -5  -9  -7    3.43    6.96
  -5  -9  -7    5.79    8.06
  -5  -9   7    2.16    2.41
  -5  -9  -7    2.79    4.27
   5  -9   7   -0.42    3.37
  -5   9   7    2.88    2.51
  -6  -9  -7   88.02   21.62
  -6  -9   7   64.11   16.78
   6  -9   7   68.84   14.97
  -6   9   7   57.16   12.47
  -7  -9  -7   31.89   11.53
  -7  -9   7   13.90    8.81
  -7  -9   7   38.29   14.26
  -7   9   7   14.20    6.69
   7  -9   7   24.70    9.09
  -8  -9   7  107.42   20.71
   8  -9   7  144.52   28.96
  -8  -9  -7  149.23   24.91
   8  -9  -7  119.05   20.82
  -8  -9   7  114.71   23.20
  -8  -9   7  173.92   29.16
  -8  -9  -7  127.21   22.76
  -8  -9   7  149.29   27.00
  -8   9   7  138.57   21.03
   8  -9   7  148.78   24.85
   8  -9   7  129.21   24.84
   8  -9  -7  144.29   25.48
  -8  -9  -7  148.58   25.27
  -9  -9   7  147.74   23.97
  -9  -9  -7  210.01   29.02
  -9  -9  -7  216.66   27.71
  -9  -9   7  207.56   29.98
  -9  -9  -7  171.07   27.08
  -9  -9   7  210.48   32.78
   9  -9   7  170.70   30.73
   9  -9  -7  187.46   30.19
 -10  -9  -7  289.64   34.41
 -10  -9  -7  238.47   31.46
 -10  -9   7  320.10   39.62
  10  -9   7  247.77   35.50
  10  -9  -7  233.66   34.87
  11  -9   7  221.37   31.37
 -11  -9  -7  222.26   29.04
 -11  -9   7  193.45   28.97
 -11  -9  -7  248.42   29.50
  11  -9   7  211.92   31.76
  11  -9  -7  222.82   34.11
 -11  -9   7  270.90   35.10
 -12  -9   7  473.93   41.62
  12  -9   7  367.69   41.29
 -12  -9  -7  437.40   37.97
  12  -9   7  414.28   42.18
  12  -9  -7  406.67   43.32
 -12  -9  -7  453.43   38.34
 -13  -9  -7  110.17   16.88
 -13  -9   7   97.31   17.78
 -13  -9  -7  102.39   16.81
  13  -9   7  115.01   20.62
  13  -9   7  107.23   18.47
  13  -9  -7  100.71   19.96
  14  -9   7  110.95   18.21
 -14  -9  -7  136.58   17.81
 -14  -9  -7  134.63   17.77
 -14  -9   7  120.59   16.78
 -14  -9   7  132.17   18.18
  14  -9  -7  116.61   18.27
  14  -9   7  136.19   19.28
 -15  -9   7   31.77    7.65
  15  -9   7   36.94    8.93
 -15  -9   7   28.50    7.16
  15  -9   7   23.40    6.77
  15  -9  -7   45.42    9.96
 -15  -9  -7   31.70    7.29
  16  -9  -7    9.86    3.91
   0 -10   7   -3.82    4.98
   0 -10  -7   -3.53    5.54
   0 -10   7    3.97    5.27
  -1 -10   7   28.28    8.49
  -1 -10   7   16.25   12.42
   1 -10  -7   11.01    8.70
  -1 -10  -7   34.99   14.81
  -1 -10   7   36.21    9.80
   1 -10   7   32.50    9.34
  -1 -10  -7   26.87    9.35
  -2 -10  -7  481.64   51.95
  -2 -10   7  486.77   34.70
   2 -10  -7  603.05   72.12
  -2 -10  -7  565.69   56.51
  -2 -10   7  578.63   38.20
   2 -10   7  550.29   38.21
  -3 -10  -7    1.69    8.80
  -3 -10   7    4.10    1.85
   3 -10  -7    1.09    3.39
  -3 -10  -7   12.92    7.95
   3 -10   7    1.69    3.04
  -4 -10   7 1171.65   60.23
   4 -10  -7 1341.64   84.75
  -4 -10  -7 1300.38   70.97
   4 -10   7 1194.77   59.76
  -5 -10  -7   11.82    8.27
  -5 -10   7   16.48    7.98
  -5 -10  -7    9.78    5.86
   5 -10   7   14.76    8.42
  -5  10   7   11.76    4.31
   6 -10   7 1131.64   64.19
  -6  10   7 1179.35   59.11
  -6 -10   7 1009.92   63.60
  -7 -10   7   -6.84    6.32
  -7 -10   7   -1.69    5.43
  -7 -10  -7   -7.55    4.25
  -7 -10  -7   -0.73    6.33
  -7 -10   7    8.39    8.29
   7 -10  -7    0.69    4.03
  -7 -10  -7    3.46    4.61
  -7  10   7    4.25    4.35
   7 -10   7    4.03    4.64
   7 -10   7   10.59    7.97
   7 -10  -7    6.28    2.77
  -8 -10   7  918.08   65.81
  -8 -10  -7  982.66   65.74
  -8 -10  -7 1075.59   67.51
   8 -10  -7  872.70   59.22
  -8 -10  -7  860.09   62.80
  -8 -10   7 1141.98   72.90
   8 -10   7  930.69   69.42
   8 -10  -7 1035.81   69.80
   8 -10   7 1127.60   86.18
  -9 -10  -7    4.63    3.23
  -9 -10  -7   12.80    6.74
  -9 -10   7   12.21    9.71
   9 -10   7   17.33    8.54
   9 -10  -7    8.62    2.93
   9 -10  -7   15.80   10.22
 -10 -10  -7  283.46   32.57
 -10 -10   7  229.36   31.92
 -10 -10  -7  246.53   31.88
 -10 -10   7  278.99   35.09
  10 -10   7  245.95   35.29
  10 -10  -7  265.97   36.91
 -11 -10  -7   -0.80    5.54
 -11 -10   7    7.58    5.03
 -11 -10  -7    7.48    6.16
  11 -10   7    7.74    5.96
  11 -10  -7   15.69    6.21
 -12 -10  -7    6.25    3.30
 -12 -10  -7    1.52    3.75
 -12 -10   7   -1.75    4.35
 -12 -10   7    0.80    3.29
  12 -10   7    8.17    5.94
  12 -10  -7   -4.36    6.04
 -13 -10  -7   10.67    4.82
 -13 -10   7   17.74    7.07
 -13 -10  -7   15.12    7.02
 -13 -10   7   17.55    6.34
  13 -10   7   17.17    7.30
  13 -10   7    9.91    6.41
  13 -10  -7   23.28   10.38
  14 -10   7  230.04   22.45
 -14 -10   7  208.89   19.47
 -14 -10  -7  246.91   22.26
  14 -10   7  211.91   22.56
  14 -10  -7  244.53   25.50
 -14 -10   7  231.24   22.37
 -15 -10   7    2.03    2.42
 -15 -10   7    4.36    2.56
  15 -10   7   -0.57    1.67
  15 -10  -7    3.59    3.07
 -15 -10  -7   -0.53    1.45
   0 -11  -7   41.85   21.57
   0 -11   7   32.30    9.75
  -1 -11   7  699.59   41.13
  -1 -11  -7  830.53   81.74
  -1 -11   7  793.83   46.53
   1 -11   7  695.79   45.01
  -2 -11  -7   33.54   12.61
  -2 -11   7   32.84    9.27
   2 -11  -7   47.55   20.74
  -2 -11  -7   49.03   18.84
   2 -11   7   34.64    9.64
  -3 -11   7  313.21   30.91
  -3 -11  -7  226.99   39.22
   3 -11  -7  394.22   54.37
  -3 -11  -7  367.98   42.00
   3 -11   7  301.93   31.19
  -4  11   7    7.31    5.00
  -4 -11  -7    1.49    8.71
   4 -11  -7    7.84    5.68
  -4 -11  -7    9.15    7.22
   4 -11   7    4.14    4.01
  -4 -11   7    8.41    5.79
  -5 -11   7  124.05   25.14
  -5 -11   7  122.55   26.56
  -5 -11  -7  131.46   23.32
  -5 -11  -7  114.48   29.83
   5 -11  -7  123.37   20.61
   5 -11   7   98.75   26.32
  -5 -11   7  109.34   19.83
  -5 -11  -7  131.72   22.43
   5 -11   7  106.93   18.80
  -5  11   7  130.20   19.56
   5 -11   7  148.67   34.27
  -6 -11   7    7.30    5.51
  -6 -11   7    9.72    4.70
   6 -11   7   11.65    4.60
  -6 -11  -7   19.12    9.25
  -6 -11  -7   30.96   13.84
   6 -11   7    1.77    8.27
  -6 -11   7   15.39    7.81
  -6 -11  -7   15.43    7.92
   6 -11   7   18.73    9.60
   6 -11  -7   14.11    8.29
  -6  11   7   17.20    7.49
   6 -11   7    5.50    4.07
   6 -11  -7   20.68   10.09
  -7 -11   7    2.86    4.14
  -7 -11   7    8.21    8.95
  -7 -11  -7    4.77    4.87
   7 -11  -7    5.16    3.89
  -7 -11  -7    4.44    3.03
   7 -11   7   -2.27    8.72
   7 -11  -7    6.72    3.04
   7 -11   7   20.43   14.49
  -8 -11   7   20.65    9.85
  -8 -11   7   16.50   12.08
  -8 -11   7   10.83    7.05
  -8 -11  -7   23.48    9.88
   8 -11  -7   25.52   10.98
  -8 -11  -7   13.92    6.58
   8 -11   7   27.25   13.14
   8 -11   7   17.33    8.48
   8 -11  -7   39.81   13.12
   9 -11   7  137.60   26.44
  -9 -11  -7  131.35   22.34
  -9 -11  -7  118.57   23.43
  -9 -11   7  162.76   24.84
   9 -11   7  106.43   23.22
   9 -11  -7  130.37   25.04
  -9 -11   7  127.68   23.35
  -9 -11   7  137.31   23.18
 -10 -11  -7   18.65    8.18
 -10 -11   7   16.07    7.99
 -10 -11  -7   16.39    6.59
  10 -11   7   10.03    6.70
  10 -11  -7   27.50   12.84
 -11 -11  -7  210.10   25.22
 -11 -11   7  188.50   25.11
 -11 -11  -7  221.68   27.55
  11 -11   7  193.96   28.45
  11 -11  -7  195.54   29.06
  11 -11  -7  173.65   24.41
 -12 -11  -7   24.93    8.37
 -12 -11   7   33.86   10.92
 -12 -11  -7   21.76    6.73
  12 -11   7   33.47   10.06
  12 -11  -7   26.34   10.58
 -13 -11  -7   75.77   13.33
  13 -11   7   66.27   14.16
 -13 -11   7   78.76   13.76
  13 -11  -7   79.17   15.59
 -14 -11  -7   37.77    7.98
 -14 -11   7   33.21    6.95
 -14 -11   7   36.21    7.92
  14 -11   7   23.45    6.64
  14 -11  -7   41.33    9.72
   0 -12   7   -0.65    6.96
   0 -12   7  -18.09    9.96
   0 -12  -7    0.72    4.95
   0 -12  -7   -2.41    7.26
   0 -12   7    6.41    4.02
  -1 -12   7    8.26    7.66
  -1 -12   7   15.07    9.62
   1 -12   7   19.00   16.01
  -1 -12   7   23.06   16.19
   1 -12  -7   13.57    7.62
  -1 -12  -7    7.30    4.14
   1 -12   7    8.03    5.81
   1 -12  -7    4.00    9.22
  -1 -12  -7   18.17   16.39
   1 -12   7   20.39    7.73
  -2 -12   7  273.44   56.53
  -2 -12  -7  260.25   29.28
   2 -12  -7  240.75   27.84
  -2 -12  -7  310.18   44.48
   2 -12  -7  258.35   50.10
   2 -12   7  268.83   28.73
   2 -12   7  259.79   47.50
   2 -12   7  185.59   36.84
  -3 -12   7   28.22   17.65
   3 -12   7    9.95    8.61
   3 -12  -7   10.13    5.94
  -3 -12  -7   10.98    7.92
  -3 -12   7    4.66    8.97
   3 -12  -7   15.50   13.49
  -3 -12  -7   30.08   13.25
   3 -12   7    6.84    6.08
   3 -12   7   26.40   21.44
  -3 -12   7   21.81    8.41
  -4 -12   7  366.42   49.29
  -4 -12  -7  373.66   38.64
  -4 -12   7  414.95   47.82
   4 -12   7  319.34   52.07
   4 -12  -7  397.56   36.83
  -4 -12   7  370.98   35.41
   4 -12  -7  483.25   53.71
  -4 -12  -7  388.69   42.35
   4 -12   7  383.24   35.57
  -4  12   7  454.31   36.47
   4 -12   7  352.46   55.50
  -5 -12   7    0.80    5.44
  -5 -12   7   12.75    9.75
   5 -12   7   19.75   10.69
  -5 -12  -7   14.99    9.77
   5 -12   7   -0.36   11.60
   5 -12  -7    5.90    4.88
  -6 -12   7  587.22   53.82
  -6 -12   7  618.07   60.55
  -6 -12  -7  561.01   50.94
   6 -12   7  547.52   60.21
   6 -12  -7  628.65   48.44
   6 -12   7  721.14   81.39
  -7 -12   7   63.27   15.63
  -7 -12   7   68.15   19.94
   7 -12   7   64.63   22.93
  -7 -12  -7   87.69   20.42
  -7 -12   7   66.62   19.46
   7 -12  -7   68.02   16.66
   7 -12   7   65.25   16.59
  -8 -12   7  542.28   53.38
  -8 -12   7  562.13   48.44
   8 -12   7  453.64   45.90
   8 -12  -7  525.78   50.82
   8 -12   7  647.40   66.54
  -8 -12  -7  596.29   50.74
  -8 -12   7  559.67   45.82
  -9 -12   7    9.58    6.27
   9 -12   7   16.83   11.54
  -9 -12  -7    5.89    5.05
  -9 -12   7   27.28   10.71
   9 -12   7   17.12   10.96
   9 -12  -7    8.99    8.98
 -10 -12   7  126.10   20.12
 -10 -12  -7  120.42   20.30
  10 -12   7  104.43   20.84
  10 -12  -7  125.07   23.41
 -11 -12  -7   -2.46    4.73
 -11 -12   7    1.88    3.11
  11 -12  -7   -5.61    5.37
  11 -12   7   -7.88    8.11
  11 -12  -7    5.67    7.36
 -12 -12   7    2.49    1.81
  12 -12   7    5.33    2.35
  12 -12  -7    1.12    3.94
 -12 -12  -7   -0.46    3.56
 -13 -12   7    1.40    2.31
  13 -12   7    3.20    2.75
 -13 -12  -7    3.99    2.93
   0 -13  -7  337.81   33.36
   0 -13   7  310.53   51.96
   0 -13   7  312.59   57.13
   0 -13   7  274.55   37.08
   0 -13   7  246.40   53.87
  -1 -13   7   23.51   12.62
   1 -13   7   19.06   11.27
  -1 -13   7   28.50   14.16
   1 -13   7   41.00   21.75
  -1 -13   7   28.97   16.66
   1 -13  -7   24.62    9.70
  -1 -13  -7   26.89    9.56
  -2 -13   7  280.75   51.80
  -2 -13   7  182.31   33.95
   2 -13  -7  193.94   25.04
  -2 -13  -7  222.47   27.73
  -2 -13   7  155.06   36.44
   2 -13   7  155.40   38.26
   2 -13   7  178.81   36.94
  -3 -13   7    4.68   10.14
  -3 -13   7    4.54    3.65
   3 -13   7    2.80    4.35
   3 -13  -7   13.36    8.79
  -3 -13  -7    8.25    7.85
   3 -13   7    1.89   12.57
  -4 -13   7   53.95   18.86
  -4 -13   7   52.93   16.95
   4 -13   7   52.79   25.60
   4 -13  -7   51.51   12.78
  -4 -13  -7   47.38   15.00
   4 -13   7   43.83   23.75
  -5 -13   7    6.45    6.83
  -5 -13   7   -1.48    8.55
  -5 -13  -7   -2.02    6.88
   5 -13   7   -3.72   11.65
   5 -13  -7   -3.41    5.84
  -5 -13  -7   -0.87    4.39
   5 -13   7   -4.41   12.68
  -6 -13   7    4.42    8.03
   6 -13   7    3.30   13.48
  -6 -13   7    5.16    6.43
   6 -13   7    7.00   13.78
   6 -13  -7   -2.48    5.19
  -6 -13  -7   -5.65    9.18
  -6 -13  -7    4.55    7.12
  -7 -13   7   -3.17    6.72
  -7 -13   7    0.99    5.32
   7 -13   7   -2.20   10.98
  -7 -13  -7   -0.51    4.50
   7 -13  -7    8.74    4.72
  -7 -13  -7    7.89   12.39
   7 -13  -7    0.94    6.45
  -8 -13   7   66.24   14.86
  -8 -13   7   76.43   19.24
   8 -13   7   59.83   23.02
  -8 -13  -7   67.76   16.92
  -8 -13   7   68.30   15.63
  -8 -13  -7   41.82   15.74
   8 -13   7   58.87   15.76
   8 -13  -7   69.23   18.19
  -9 -13   7   24.69    8.31
   9 -13   7   19.99    9.40
  -9 -13  -7   22.57    8.31
   9 -13  -7   27.22   11.45
  -9 -13   7    9.83    6.37
   9 -13   7   25.48   11.74
   9 -13  -7   16.31    7.76
 -10 -13  -7  210.58   24.93
 -10 -13   7  180.50   20.96
 -10 -13  -7  188.65   26.59
  10 -13   7  169.62   25.58
  10 -13  -7  170.96   25.40
  10 -13   7  173.60   25.80
  10 -13  -7  189.73   24.03
  11 -13  -7   48.31   10.93
 -11 -13  -7   37.33    9.95
 -11 -13  -7   52.73   10.91
 -11 -13   7   36.22    8.36
  11 -13   7   26.91    9.86
  11 -13  -7   40.51   11.40
 -12 -13  -7  259.70   22.45
 -12 -13  -7  238.65   21.05
 -12 -13   7  239.79   20.24
  12 -13   7  204.44   23.04
  12 -13  -7  227.24   23.41
 -13 -13  -7   24.79    5.94
  13 -13  -7   22.13    5.72
   0 -14   7   -3.86    7.00
   0 -14   7   13.54    9.45
   0 -14   7    0.70   11.46
   0 -14   7   26.14   21.30
   0 -14  -7    3.93    5.52
  -1 -14   7  -12.33   20.81
   1 -14   7   18.94   10.97
   1 -14   7   17.42   13.07
   1 -14  -7   22.16    8.96
  -1 -14  -7   11.21    6.30
  -1 -14   7   36.20   18.49
   1 -14   7    3.73   21.20
  -1 -14   7   15.77   11.67
   2 -14   7    8.30   11.41
  -2 -14   7   52.86   23.16
  -2 -14   7   30.81   15.87
   2 -14   7   43.35   15.77
   2 -14   7   21.16   20.90
   2 -14  -7   32.21    9.81
  -2 -14   7   41.19   15.68
  -2 -14  -7   31.39   11.87
  -3 -14   7   79.92   25.85
   3 -14   7   67.37   24.68
  -3 -14   7   48.24   17.97
   3 -14   7   47.04   24.86
   3 -14  -7   55.58   14.43
  -3 -14  -7   58.35   15.92
  -4 -14   7   70.33   20.43
  -4 -14   7   58.96   18.29
   4 -14   7   88.33   31.79
   4 -14  -7   62.50   14.93
  -4 -14  -7   92.83   21.73
   4 -14   7   76.75   27.89
  -5 -14   7   63.47   17.89
  -5 -14   7   48.00   15.29
   5 -14   7   54.59   20.61
  -5 -14  -7   43.15   14.68
   5 -14  -7   53.83   13.64
   5 -14   7   42.58   22.82
  -6 -14   7  193.97   31.72
   6 -14   7  245.12   49.28
  -6 -14  -7  201.73   29.25
   6 -14  -7  159.85   23.20
  -6 -14  -7  139.44   27.95
   6 -14  -7  223.13   38.13
  -6 -14   7  197.31   27.74
  -7 -14   7   88.89   17.23
  -7 -14   7  100.80   22.01
   7 -14   7  103.88   29.74
  -7 -14  -7   85.57   19.09
  -7 -14  -7   47.15   15.43
   7 -14  -7  132.32   25.70
   8 -14   7  165.92   31.23
  -8 -14  -7  166.37   28.25
  -8 -14  -7  165.93   24.83
   8 -14  -7  163.48   27.40
   8 -14  -7  160.95   29.16
  -8 -14   7  147.62   20.70
  -9 -14   7   24.27    7.82
   9 -14   7   24.76   10.53
  -9 -14  -7   32.11    9.89
   9 -14  -7   20.15    8.07
  -9 -14   7   27.83    8.33
  -9 -14  -7   16.66    5.81
   9 -14  -7   28.16   10.11
  10 -14   7    8.43    5.19
 -10 -14  -7   -2.30    3.66
  10 -14  -7    4.57    2.86
 -10 -14  -7    1.45    3.08
 -10 -14   7    4.22    3.45
  10 -14   7   14.20    8.05
  10 -14  -7    8.99    6.38
 -11 -14  -7    1.79    2.98
 -11 -14   7    1.31    3.39
 -11 -14  -7    2.75    2.50
  11 -14  -7   -3.30    2.05
  11 -14   7    0.38    2.65
  11 -14  -7    0.50    2.41
   0 -15   7  561.67   77.08
   0 -15  -7  439.42   38.74
   0 -15   7  431.50   70.92
   0 -15   7  425.85   44.61
   0 -15   7  440.72   60.80
   1 -15   7    3.16   21.02
  -1 -15   7    7.29    8.91
   1 -15   7   16.89   11.64
  -1 -15   7   -0.99    7.12
   1 -15   7    2.94    8.91
  -1 -15   7   24.73   16.49
   1 -15  -7   -5.83    7.05
  -1 -15  -7    3.41    5.65
   2 -15   7  288.49   54.79
  -2 -15   7  348.63   48.24
   2 -15   7  507.18  101.52
  -2 -15   7  460.23   61.83
   2 -15  -7  316.17   34.84
   2 -15  -7  316.93   31.34
  -2 -15  -7  293.32   35.09
   2 -15   7  367.30   47.84
   2 -15  -7  351.60   46.65
  -2 -15   7  406.64   59.50
  -3 -15   7   -8.71   11.62
   3 -15   7   21.39   15.08
   3 -15  -7    0.52    8.60
   3 -15   7   28.07   21.84
   3 -15  -7    2.41    2.55
  -3 -15  -7   -3.66    7.28
   3 -15  -7   14.28    8.25
  -3 -15   7   -0.56    3.86
  -4 -15   7  138.18   27.12
  -4 -15   7   80.01   21.34
   4 -15   7  113.47   30.20
   4 -15  -7   98.67   33.49
   4 -15   7   91.92   28.68
  -4 -15  -7   87.11   20.98
   4 -15  -7   83.61   16.36
  -5 -15   7    2.80    4.82
  -5 -15   7    4.51    6.18
   5 -15   7    6.47   17.08
   5 -15  -7  -13.53   16.28
   5 -15  -7   -3.44    5.05
  -5 -15  -7    4.17    8.30
  -6 -15   7   -2.14    4.56
  -6 -15   7    3.73    5.66
   6 -15   7  -12.25   14.36
   6 -15  -7   -6.50    9.44
  -6 -15  -7   11.50    9.91
  -7 -15   7   -1.71    3.15
   7 -15   7    0.14    8.77
   7 -15  -7   -0.73    8.79
  -7 -15  -7    2.12    7.05
  -7 -15  -7   -2.86    5.55
  -8 -15  -7  272.61   31.90
  -8 -15  -7  237.89   28.95
   8 -15  -7  366.28   39.73
   8 -15   7  303.48   39.92
   8 -15  -7  334.22   38.76
  -8 -15   7  210.88   22.98
  -9 -15   7    2.24    2.42
   9 -15   7    3.88    5.62
  -9 -15  -7    2.67    4.60
   9 -15  -7   -0.68    2.94
  -9 -15  -7    1.14    4.12
   9 -15  -7   -7.26    6.54
  10 -15  -7  500.38   33.98
  10 -15  -7  407.76   29.84
 -10 -15  -7  448.94   29.33
   0 -16   7   -3.83    4.11
   0 -16   7    6.40    7.04
   0 -16   7   -5.38    6.49
   0 -16  -7    0.64    5.99
   0 -16  -7   -1.24    5.07
  -1 -16   7    1.60   10.53
   1 -16   7    6.05    5.55
  -1 -16   7   14.72   14.03
   1 -16   7   13.32   13.88
   1 -16   7   44.88   24.53
  -1 -16   7   52.18   23.21
   1 -16  -7   11.88    8.15
  -1 -16  -7   13.25    6.55
   1 -16  -7   28.98   13.63
  -1 -16  -7    9.16    8.56
  -2 -16   7    5.78    6.93
   2 -16   7  -22.75   12.57
  -2 -16   7   -3.62    9.47
   2 -16  -7   -0.97    4.50
   2 -16   7    4.37   15.89
  -2 -16   7   -7.43   13.24
   2 -16  -7    8.83    6.73
  -2 -16  -7   -0.06    6.14
   2 -16  -7    6.77    5.13
  -3 -16   7  118.35   28.12
   3 -16   7   97.21   26.09
  -3 -16   7   85.06   21.36
   3 -16  -7   76.60   24.56
   3 -16  -7   64.14   14.21
  -3 -16  -7   70.85   17.32
   3 -16  -7   89.76   16.03
   3 -16   7  110.84   37.35
   4 -16  -7   11.58    4.55
  -4 -16   7   30.14   13.53
  -4 -16   7   11.40    8.45
   4 -16   7   21.01   17.51
   4 -16  -7   30.05   20.55
  -4 -16  -7   14.08    9.44
  -5 -16   7  100.90   18.92
   5 -16   7  128.39   34.03
   5 -16  -7  143.72   39.81
  -5 -16  -7   51.16   16.36
  -6 -16   7   -2.08    2.85
  -6 -16  -7    3.89    5.98
   6 -16   7    9.60   11.91
   6 -16  -7    6.63    7.47
  -6 -16  -7    4.46    3.54
   7 -16   7  155.04   31.45
   7 -16  -7  177.16   31.62
  -7 -16  -7  132.71   17.22
  -7 -16  -7  132.50   21.40
  -7 -16   7  120.77   16.30
  -8 -16   7   -0.04    2.07
   8 -16   7    6.17    6.59
   8 -16  -7    4.73    4.53
  -8 -16  -7    1.59    2.37
   9 -16  -7   40.57    9.50
   0 -17  -7  312.52   40.30
   0 -17   7  380.42   66.29
   0 -17  -7  327.00   33.78
   0 -17   7  307.79   39.35
  -1 -17   7    1.88    4.09
   1 -17   7   18.13    7.92
   1 -17   7   43.73   30.48
  -1 -17   7    9.10    9.82
  -1 -17   7   10.34   14.84
  -1 -17  -7   10.61    6.50
  -1 -17  -7    5.11    6.04
   1 -17  -7   12.68    6.81
   1 -17  -7   27.80   11.26
  -2 -17   7  317.78   44.08
   2 -17  -7  237.63   27.63
   2 -17  -7  230.95   27.86
  -2 -17  -7  139.71   29.36
   2 -17   7  176.29   30.04
   2 -17   7  175.51   50.75
  -2 -17   7  247.53   38.52
   3 -17   7    4.60    6.31
   3 -17  -7    1.89    6.28
   3 -17  -7   14.61    6.34
  -3 -17  -7   13.21    7.88
  -4 -17   7   94.67   19.48
   4 -17   7   50.21   17.18
  -4 -17  -7  107.64   21.58
   4 -17  -7   54.18   24.71
  -5 -17   7    5.50    5.19
   5 -17   7    0.35   10.84
   5 -17  -7   -7.25   12.46
  -5 -17  -7    2.26    2.69
  -6 -17   7    2.68    2.59
   6 -17   7   -7.80   10.25
  -6 -17  -7   -0.81    3.11
   6 -17  -7   -2.23    7.82
   7 -17   7   -2.98    7.74
   7 -17  -7   -6.91    5.59
   0 -18  -7    1.66    4.22
  -1 -18  -7   -2.59    6.80
   1 -18  -7    6.20    5.52
  -2 -18   7   12.09    5.93
  -2 -18  -7   32.74   13.83
  -3 -18   7   32.08   10.00
  -3 -18  -7   47.83   13.62
   0   0  -8  239.18   19.85
   1   0  -8    8.16    4.21
  -1   0  -8    3.41    1.09
   2   0   8  583.07   44.59
   2   0  -8  533.98   29.78
  -2   0  -8  598.12   32.46
   2   0   8  572.84   30.59
   3   0  -8    3.54    4.10
  -3   0   8    4.08    3.03
   3   0   8    5.21   10.74
   4   0  -8  181.66   19.95
  -4   0   8  165.16   14.49
   5   0   8    0.27    4.78
   5   0  -8    1.52    2.99
   6   0   8   51.46   15.01
   6   0  -8   45.58   11.25
  -6   0  -8   35.09    9.54
  -7   0  -8    0.74    3.89
   7   0  -8    1.06    2.40
   7   0   8    7.16    6.62
   8   0   8  205.61   27.58
   8   0  -8  234.14   28.57
   9   0   8   -1.62    4.27
  -9   0   8   -3.72    5.94
   9   0  -8    1.35    2.95
  10   0  -8   12.07    4.73
  10   0   8    7.70    5.27
 -10   0   8   14.05    9.72
  11   0   8   -1.27    3.76
 -11   0   8   -8.39    9.38
 -12   0  -8   94.43   19.71
  12   0   8   80.50   18.99
  12   0  -8   99.69   18.83
 -12   0   8   86.10   19.15
  12   0  -8   53.66   19.34
  12   0   8   94.11   17.78
  12   0   8  108.15   20.99
  13   0   8   -2.88    4.40
  13   0  -8    7.86    7.62
  13   0   8  -11.22    6.94
  14   0   8   44.63   12.76
  14   0  -8   33.13   10.41
 -14   0   8   30.86   12.28
  14   0   8   24.56   10.12
  15   0   8   -7.69    5.37
  15   0  -8    7.40    4.42
 -15   0   8   -2.95    5.80
  15   0   8    5.63    6.08
  16   0   8   52.47   11.01
  16   0  -8   50.15   11.36
 -16   0   8   53.55   10.91
  16   0   8   32.42   10.06
  17   0  -8    1.78    2.21
  17   0  -8   -1.03    2.30
  17   0   8   -4.42    4.15
 -17   0   8    2.91    2.76
  18   0  -8    1.56    1.60
   0  -1  -8    1.84    1.84
   0   1  -8    5.31    3.14
   1  -1  -8  382.21   21.34
   1  -1  -8  282.24   21.91
   1   1  -8  297.22   21.88
  -1   1  -8  333.54   23.50
   1  -1   8  319.04   22.04
   1  -1   8  330.52   22.52
  -1  -1  -8  330.97   24.03
   2  -1   8    8.97    4.91
   2  -1  -8   18.89    5.21
  -2  -1   8   13.87    4.58
   2  -1  -8   17.71    5.96
   2   1  -8   15.00    4.88
  -2  -1  -8   27.23    7.35
   2  -1   8   24.35    6.66
   3  -1   8 1011.59   56.49
  -3  -1   8 1096.61   38.17
   3  -1  -8 1071.72   46.44
   3   1  -8 1140.61   45.25
  -3  -1  -8 1087.22   47.35
   3  -1   8 1120.01   43.43
   4  -1   8   11.16    5.90
   4   1  -8   17.69    6.46
   4  -1  -8   14.36    6.20
  -4  -1  -8   13.51    6.39
   4  -1   8   14.73    6.00
  -4  -1   8   13.26    4.78
   5  -1   8 2049.71   97.36
   5  -1  -8 2245.26   76.68
   5   1  -8 2267.04   73.92
  -5  -1   8 2252.41   59.66
  -6  -1  -8   33.78   10.25
  -6   1  -8   23.73    9.40
   6  -1  -8   29.74   10.00
   6   1  -8   37.32   10.58
   6   1   8   33.82   13.08
   6  -1   8   19.48    8.78
   7  -1  -8 2705.24   93.77
   7   1  -8 2885.39   94.98
   7  -1   8 3342.61  122.55
  -7  -1  -8 2853.65   91.13
   7   1   8 3226.82  113.08
   8   1   8   11.17    6.87
   8  -1   8    7.12    4.31
  -8  -1   8    2.76    6.28
   8  -1  -8    7.82    5.96
   8   1  -8    5.19    6.11
  -9  -1   8  894.00   66.36
   9  -1   8 1052.30   64.02
   9   1   8  932.88   56.98
   9  -1  -8  891.97   58.32
   9   1  -8  911.23   56.96
  10   1   8    0.35    4.29
  10  -1   8   -4.37    4.24
 -10   1   8    3.37    2.82
  10   1  -8    0.22    2.61
  10  -1  -8   -2.89    3.20
 -10  -1   8   -5.51    7.45
  11   1   8  202.71   25.92
 -11  -1  -8  165.93   25.12
  11  -1   8  176.80   25.44
 -11  -1   8  186.02   29.98
 -11   1   8  160.81   27.55
  11  -1  -8  234.64   31.41
  12   1   8   15.30    7.30
  12  -1   8   23.97    9.07
  12  -1  -8   27.23    8.89
 -12  -1   8   14.45    8.92
 -12   1   8   20.17    7.91
  12   1   8   20.98   10.08
  12  -1   8    4.92    6.61
  12   1  -8   19.46    7.25
  12  -1  -8   13.82   11.89
 -12  -1  -8   20.20    7.90
  12  -1   8   25.89   10.44
  12   1   8   24.86    9.28
  13  -1   8  154.85   24.04
  13   1   8  153.30   25.20
  13   1   8  121.62   20.58
  13  -1   8  109.80   22.28
  13   1  -8  147.72   23.18
  13  -1  -8  133.36   23.22
  14   1   8   14.36    6.34
  14  -1   8   -0.28    2.85
  14   1  -8   16.10    7.49
  14  -1  -8    6.27    3.18
 -14  -1   8    0.77    5.56
 -14   1   8    5.35    4.82
  14  -1   8   20.99    8.83
  14   1   8    9.34    5.80
  15  -1   8  418.30   35.60
  15   1   8  377.07   34.17
  15   1   8  450.10   35.47
  15  -1   8  461.10   37.28
  15   1  -8  336.72   33.07
  15  -1  -8  398.51   34.15
 -15  -1   8  386.48   33.27
 -15   1   8  397.12   33.37
  16  -1   8    7.02    4.81
  16   1  -8   -4.26    2.05
  16  -1  -8   -7.14    5.42
 -16   1   8    2.70    3.25
 -16  -1   8   -1.65    2.83
  16  -1   8    0.69    3.71
  16   1   8    3.66    2.97
  17   1  -8  655.48   34.67
  17  -1  -8  592.66   34.35
  17  -1  -8  591.33   32.86
  17  -1   8  744.00   37.56
 -17   1   8  650.79   33.07
 -17  -1   8  651.22   33.40
  17  -1   8  647.20   34.13
  17   1   8  679.26   35.84
  18  -1  -8   -0.80    0.99
  18   1  -8    2.62    2.72
   0  -2  -8   88.82   10.20
   0  -2  -8   72.67   11.87
   0   2  -8   72.46   10.67
   0  -2   8   65.83    9.93
   1  -2   8 2093.87   52.39
   1  -2  -8 2239.44   53.53
  -1  -2   8 2018.98   51.32
   1  -2  -8 1821.36   60.29
  -1  -2  -8 1866.82   60.79
   1   2  -8 1938.84   56.12
   1  -2   8 1836.58   54.06
   2  -2   8  249.95   21.14
   2  -2  -8  269.35   19.96
  -2  -2   8  241.35   18.25
   2  -2  -8  220.05   21.63
  -2  -2  -8  255.43   23.31
   2   2  -8  247.82   20.32
   2  -2   8  237.92   19.73
  -3  -2  -8  487.19   28.21
  -3  -2  -8  400.68   30.27
   3  -2  -8  415.60   27.27
   3  -2  -8  381.44   29.79
   3   2  -8  408.45   26.85
   3  -2   8  414.97   26.40
  -3  -2   8  421.12   24.78
   3  -2   8  404.40   32.03
  -4  -2  -8   -0.76    1.77
   4  -2   8    9.24    7.04
  -4  -2   8    2.35    2.69
  -4  -2  -8    1.19    1.98
   4  -2  -8    6.42    4.15
   4   2  -8    2.35    3.46
   4  -2   8    3.76    2.67
   4  -2  -8    7.54    4.45
   5  -2   8  127.54   23.56
  -5  -2  -8  153.18   20.46
   5  -2  -8  141.42   20.09
   5   2  -8  153.18   18.73
   5  -2   8  153.55   17.13
  -5  -2   8  139.24   16.01
   5  -2  -8  137.70   19.35
  -6  -2  -8    4.17    3.71
   6  -2   8    6.65    6.14
   6  -2  -8    8.51    4.90
  -6  -2   8    6.45    3.50
   6  -2  -8    4.35    4.20
   6   2  -8    5.31    3.42
  -7  -2  -8    4.78    3.79
   7  -2  -8   10.36    4.15
  -7  -2   8   10.22    5.76
  -7  -2   8   14.45    8.39
   7  -2  -8   14.87    6.85
   7   2  -8   18.51    8.43
   7   2   8    9.58    6.31
   7  -2   8   25.44   13.08
   8   2   8    8.86    4.29
   8  -2   8   10.23    7.25
  -8  -2  -8    3.37    3.33
   8  -2  -8    9.38    7.41
  -8  -2   8   11.15    8.86
   8  -2  -8    5.45    2.31
   8   2  -8    2.52    3.36
   9   2   8  219.73   27.56
   9  -2  -8  225.46   33.18
  -9  -2   8  179.90   28.08
   9  -2  -8  208.71   27.49
   9  -2   8  289.60   35.81
  10   2   8    6.37    5.30
 -10  -2   8    7.04    5.12
 -10   2   8    5.88    3.97
  10  -2   8   13.71    9.81
  10  -2  -8   31.30   13.54
 -10  -2  -8    6.11    6.47
 -11   2   8  305.40   36.87
 -11  -2  -8  348.54   35.46
  11   2   8  284.00   31.17
  11  -2   8  378.21   38.17
  11   2   8  347.64   38.28
  11  -2  -8  442.26   43.95
 -11  -2   8  320.07   38.42
 -12  -2  -8   66.57   15.84
  12   2   8   77.55   15.83
  12  -2   8   57.81   14.60
  12  -2  -8   64.32   15.89
 -12   2   8   46.48   12.97
 -12  -2   8   52.58   14.84
  12  -2   8   45.73   15.66
 -12  -2   8   77.74   18.53
  12   2  -8   64.29   15.49
  12  -2  -8   38.48   13.54
  12  -2   8   35.48   11.43
  12   2   8   46.95   13.38
  13  -2   8  443.35   41.41
  13   2   8  386.44   39.83
  13  -2   8  420.45   40.99
 -13  -2   8  347.06   37.06
  13  -2  -8  344.63   39.77
  14  -2   8   18.92    9.69
  14  -2  -8   26.02    9.51
 -14  -2   8   32.42    9.18
 -14   2   8   13.34    6.56
  14  -2   8   39.86   12.34
  14   2   8   23.57   10.08
  15  -2   8  114.00   18.06
  15  -2   8  125.30   20.20
  15  -2  -8  122.73   20.00
 -15   2   8  121.42   18.61
 -15  -2   8  114.15   17.38
  15   2   8  102.39   17.47
  16  -2   8    5.29    3.54
  16  -2   8    4.19    3.06
 -16   2   8    6.67    5.36
 -16  -2   8    9.91    6.01
  16   2   8    5.49    3.91
  17  -2  -8    5.71    4.03
  17  -2   8   -1.27    2.57
  17   2  -8    0.22    1.65
  17  -2  -8    6.98    3.92
  17   2   8   -3.24    3.82
 -17   2   8   -3.30    3.78
 -17  -2   8    1.48    2.11
   0  -3  -8   -1.88    2.10
   0  -3   8   -0.30    2.04
   0  -3  -8    0.52    2.99
   0   3  -8   -1.04    1.18
   0  -3   8    0.17    2.00
   1  -3   8  113.27   12.09
   1  -3  -8  129.01   13.47
  -1  -3   8  114.10   12.65
   1  -3  -8  113.62   16.96
  -1  -3  -8  108.66   16.80
   1   3  -8  115.41   14.16
   1  -3   8  108.06   13.77
  -1  -3  -8  107.18   16.50
   2  -3   8   62.98    9.86
   2  -3  -8   63.87    9.74
  -2  -3  -8   57.25   11.70
   2   3  -8   70.16   10.71
   2  -3  -8   52.78   12.11
   2  -3   8   55.45    9.72
  -2  -3  -8   67.83   10.73
  -2  -3   8   60.27    9.48
  -3  -3   8  695.83   33.45
  -3  -3  -8  723.23   35.68
   3  -3  -8  653.94   34.03
   3  -3  -8  618.63   42.38
   3   3  -8  719.59   36.09
  -3  -3  -8  658.37   40.17
   3  -3   8  659.31   34.34
   3  -3   8  694.31   39.18
  -4  -3  -8  132.86   15.31
  -4  -3  -8  112.56   17.35
   4  -3  -8  122.56   16.05
   4  -3  -8  110.22   17.91
   4   3  -8  116.98   15.11
  -4  -3   8  116.43   14.34
   4  -3   8  105.90   14.07
   4  -3   8  116.77   18.63
  -5  -3  -8 1164.76   57.41
  -5  -3   8 1072.83   47.43
  -5  -3   8  973.88   60.09
   5  -3   8  928.84   61.05
   5  -3  -8 1060.78   57.51
   5   3  -8 1284.57   53.05
   5  -3   8 1073.33   48.44
   5  -3  -8 1084.66   53.87
   6  -3   8   87.91   20.44
  -6  -3  -8  115.33   19.45
   6  -3  -8   92.90   17.46
  -6  -3   8  108.62   15.32
  -6  -3   8   96.13   18.74
   6  -3  -8  110.61   19.43
   6   3  -8  120.52   17.60
   6  -3   8  116.76   16.40
  -7  -3   8  976.36   51.08
   7  -3   8  864.95   68.31
  -7  -3  -8 1089.42   60.45
   7  -3  -8  945.92   64.26
  -7  -3   8  971.87   62.48
   7  -3  -8 1059.27   60.22
   7   3  -8 1180.82   57.73
   8   3   8    3.36    6.63
   8  -3   8    7.02    7.70
   8  -3  -8    8.29    7.48
  -8  -3   8   -1.52    3.20
   8  -3  -8    1.13    5.64
  -8  -3  -8    5.32    5.66
  -8  -3   8    5.74    7.32
   9   3   8  216.33   27.82
   9  -3   8  293.28   38.35
   9  -3  -8  232.92   35.89
  -9  -3   8  244.44   32.29
  10  -3   8    9.52    6.23
 -10  -3   8   -2.86    4.38
  10  -3  -8   13.02    8.74
  10   3   8    4.89    3.95
  11  -3   8    0.03    4.16
  11  -3  -8    4.65    4.87
 -11  -3   8    0.60    5.13
 -11   3   8    0.68    5.19
  11  -3   8    2.95    5.87
 -11  -3   8    1.44    5.81
  11  -3  -8   17.64   10.63
  11   3   8   -2.42    5.83
  11   3   8    9.42    7.96
  12  -3   8   16.81   11.50
 -12  -3   8    8.49    2.38
  12  -3  -8   23.40   12.56
  12  -3  -8   22.87   10.93
  12   3   8   14.58    9.18
  13   3   8  195.87   27.50
  13  -3   8  174.12   26.65
 -13  -3   8  186.66   27.15
  13  -3  -8  175.88   29.18
 -13  -3   8  145.94   24.77
  14  -3   8   13.52    9.53
  14  -3  -8   10.24    5.26
 -14  -3   8   21.49   10.57
 -14   3   8   12.73    6.35
  14   3   8   23.96   10.40
  15   3   8  261.14   27.92
  15  -3   8  259.78   29.18
  15  -3  -8  280.98   29.99
 -15  -3   8  239.66   26.06
 -15   3   8  261.46   27.01
  16   3  -8   13.48    7.23
  16  -3   8   16.18    6.88
  16  -3  -8   13.72    5.25
 -16  -3   8    9.40    5.16
  16   3   8    1.90    2.36
  17   3   8  281.50   22.06
  17   3  -8  279.01   22.09
  17  -3   8  251.57   21.82
  17  -3  -8  270.47   22.55
  17  -3  -8  256.07   21.87
 -17  -3   8  263.21   20.85
   0  -4  -8    2.19    2.22
   0  -4   8    1.22    2.03
   0  -4  -8    0.54    1.71
   0  -4  -8    5.99    4.82
   0  -4  -8    3.53    2.50
   1  -4   8 5606.40   89.20
   1  -4  -8 5301.75  141.73
  -1  -4  -8 5149.11  123.33
  -1  -4  -8 5556.20  103.49
  -1  -4   8 5621.68   92.87
   1  -4  -8 5568.92  149.11
   1   4  -8 5472.29   97.83
  -1  -4   8 5536.83   98.62
   1  -4   8 5443.60   97.92
  -2  -4  -8    3.96    5.19
  -2  -4  -8    1.82    1.92
   2  -4  -8    5.71    3.89
   2  -4  -8    1.65    5.46
   2   4  -8    9.96    4.10
   2  -4   8    2.95    3.19
   2  -4   8    5.02    2.92
  -2  -4   8    4.98    3.81
   2  -4  -8    1.98    7.36
   3  -4   8 1408.16   54.58
  -3  -4  -8 1177.32   58.46
  -3  -4  -8 1556.06   55.38
   3  -4  -8 1355.71   50.03
  -3  -4   8 1378.44   49.12
  -3  -4   8 1512.81   86.12
   3  -4  -8 1444.96   72.73
   3   4  -8 1445.80   51.48
   3  -4   8 1279.79   49.52
  -4  -4  -8    3.66    3.83
  -4   4   8    1.36    1.28
   4  -4   8    3.55    2.34
   4  -4  -8    1.97    2.83
  -4  -4   8    5.64    6.32
   4  -4  -8    6.49    5.45
  -4  -4   8   -1.54    3.58
   4   4  -8    3.92    3.27
   4  -4   8   -2.39    1.76
  -4  -4  -8    6.13    3.78
  -5  -4  -8  190.94   23.76
  -5  -4   8  207.85   21.01
  -5  -4   8  194.65   27.51
   5  -4  -8  179.42   25.27
   5  -4  -8  191.01   22.44
   5   4  -8  231.94   22.00
   5  -4   8  201.56   27.17
   5  -4   8  194.66   21.24
  -5   4   8  214.09   18.80
  -6  -4   8    7.83    3.28
   6  -4   8   13.12   11.11
  -6  -4   8    7.14    5.97
   6  -4  -8    2.56    4.67
   6   4  -8    7.99    4.56
   6  -4   8   11.45    6.17
   6  -4  -8    6.87    5.11
  -6  -4  -8    1.59    2.69
  -7  -4   8  133.07   22.77
   7  -4   8   73.82   20.00
   7  -4  -8  117.87   23.00
  -7  -4   8  107.91   18.16
   7  -4  -8  114.17   20.85
  -7  -4  -8  100.84   18.79
   7  -4   8  103.22   17.52
  -8  -4   8    4.20    2.67
   8  -4   8   10.65    8.14
   8  -4  -8   -1.23    4.55
   8  -4  -8   13.37    5.97
  -8  -4   8   15.23    7.12
  -8  -4  -8   10.66    5.20
   9  -4   8  832.22   68.99
  -9  -4  -8  761.37   51.38
   9  -4  -8  581.30   57.19
  -9  -4   8  697.57   53.12
  -9  -4   8  628.25   44.86
   9   4   8  611.33   49.05
  10   4   8    0.23    4.91
  10  -4   8    1.23    3.60
  10  -4  -8    2.64    5.84
 -10  -4   8    0.28    5.26
  11   4   8 1617.44   76.29
  11  -4   8 1729.36   88.92
 -11  -4  -8 1642.01   75.34
  11   4   8 1523.44   80.50
  11  -4  -8 1889.06   97.38
 -11  -4   8 1593.20   80.28
  11  -4   8 1716.47   89.20
 -11  -4   8 1608.99   84.54
  11  -4  -8 1677.06   89.94
  11  -4   8 1648.00   85.59
  12  -4   8   32.00   13.69
 -12  -4   8   21.13    8.10
  12  -4   8   50.78   14.18
  12  -4  -8   30.54   12.63
  12   4   8   21.86    9.62
  13   4   8 1025.73   63.08
  13  -4   8 1015.16   70.38
 -13  -4   8 1104.43   64.57
  13  -4  -8 1148.35   70.18
  13  -4   8 1213.63   66.22
 -13  -4   8 1046.67   64.18
  14  -4   8   17.73    8.39
  14  -4  -8    7.62    4.37
 -14  -4   8    6.88    5.10
  14   4   8   18.95    8.93
  15   4   8  251.41   27.19
  15  -4   8  256.97   27.43
  15  -4  -8  227.88   30.35
 -15  -4   8  281.33   28.08
  16   4  -8   17.59    6.80
  16  -4  -8    0.10    6.23
  16   4   8   10.96    4.92
 -16  -4   8   14.25    6.16
  16  -4   8   23.59    7.49
  17   4  -8    6.40    3.40
  17  -4  -8   18.61    5.66
  17  -4   8   11.28    5.22
  17  -4  -8    8.71    3.81
  17  -4  -8   10.52    5.44
  17   4   8    9.89    5.01
 -17  -4   8    1.72    3.09
   0  -5  -8    1.33    2.70
   0  -5  -8    4.09    5.84
   0  -5   8    3.94    4.00
   0  -5   8    2.68    3.48
   1  -5  -8  103.26   23.52
  -1  -5  -8   90.12   13.67
   1  -5  -8   83.99   12.15
  -1  -5   8   80.26   11.38
   1   5  -8   93.54   13.19
   1  -5  -8   92.73   26.82
  -1  -5  -8   91.08   17.41
  -1  -5   8   75.74   11.71
   1  -5   8   76.71   11.78
   1  -5  -8   76.12   13.09
   2  -5  -8   49.64   11.59
  -2  -5  -8   61.89   11.00
   2  -5  -8   57.45   10.41
   2  -5  -8   78.66   21.20
   2   5  -8   49.12   10.57
  -2  -5   8   63.04   10.51
   2  -5   8   62.47   11.46
   2  -5  -8   68.97   20.30
  -2  -5  -8   62.75   14.06
   3  -5   8    9.69    4.77
   3  -5  -8    7.25    5.26
  -3  -5  -8    9.48    3.97
  -3  -5   8    8.32    3.70
  -3  -5   8   10.13    8.08
   3  -5  -8    8.96    7.35
   3   5  -8    6.81    4.80
   3  -5   8    5.97    2.54
   3  -5  -8    6.02    3.28
  -3  -5  -8    5.33    2.86
  -4  -5  -8   41.98   11.21
   4  -5   8   59.34   12.87
  -4  -5  -8   58.54   12.12
  -4  -5   8   68.26   19.28
   4  -5  -8   83.41   19.43
   4   5  -8   59.55   10.71
   4  -5   8   64.52   11.91
   4  -5  -8   58.84   11.43
  -4  -5   8   50.42   10.82
   5  -5   8  104.82   19.66
  -5  -5  -8  101.38   18.68
  -5  -5   8  104.16   15.79
  -5  -5   8  107.42   21.98
   5   5  -8  102.26   14.57
   5  -5  -8  101.96   20.75
   5  -5  -8  109.27   17.47
   5  -5   8  125.98   17.08
  -5   5   8   97.42   13.21
  -6  -5  -8   67.67   15.44
   6  -5   8   70.95   18.69
   6  -5  -8   61.09   13.78
  -6  -5   8   66.18   13.65
  -6  -5   8   90.74   19.50
   6  -5  -8   84.28   18.95
   6  -5   8   61.94   12.23
  -6   5   8   55.66   10.84
   7  -5   8    9.27    7.71
  -7  -5   8   10.53    5.64
  -7  -5   8   10.92    7.96
  -7   5   8   17.96    7.72
   7  -5   8   16.00    6.75
   7  -5  -8    3.47    3.42
  -7  -5  -8    9.92    5.71
   8  -5   8    9.65    8.19
  -8  -5  -8   14.96    8.43
   8  -5  -8   15.62    9.31
  -8  -5   8   23.03    9.59
  -8  -5   8   20.33    9.61
  -8   5   8   22.36    8.38
   8  -5   8    5.61    2.75
   9  -5   8    3.15    5.10
  -9  -5  -8    8.19    5.75
   9  -5  -8    1.65    5.22
  -9  -5   8   12.22    5.99
  -9  -5   8   16.68    8.96
  10   5   8   47.02   14.23
  10  -5   8   55.23   18.35
 -10  -5  -8   63.06   13.95
  10  -5  -8   62.20   19.72
 -10  -5   8   27.91   11.45
 -10  -5   8   59.49   15.17
  10  -5   8   60.89   19.15
 -10  -5   8   46.71   18.77
  10  -5  -8   60.28   17.41
  11  -5  -8   20.63   12.07
 -11  -5  -8    9.72    4.69
 -11  -5   8   24.89   10.95
  11   5   8   22.28    8.74
  11  -5   8   31.30   11.17
 -11  -5   8   16.77    6.34
  11  -5   8   27.65   11.05
  11  -5  -8   38.12   13.49
  11  -5  -8   17.69    8.62
  11   5   8   29.11   10.29
  12  -5   8   33.10   12.87
 -12  -5   8   54.89   15.30
  12  -5   8   43.25   13.28
  12  -5  -8   47.88   15.07
 -12  -5   8   52.50   15.09
  12   5   8   44.62   12.85
  13  -5   8   -3.10    4.81
 -13  -5   8    7.28    6.82
  13  -5   8   -0.61    6.14
  13  -5  -8    1.61    3.14
 -13  -5   8    9.43    9.05
  13   5   8   -1.55    4.22
 -14  -5   8   14.74    5.89
  14  -5   8   -1.57    5.87
  14  -5   8    9.53    4.67
  14  -5  -8    0.93    3.07
 -14  -5   8    8.54    6.84
  14   5   8    6.45    4.93
  15   5  -8    3.36    3.69
  15  -5   8    3.73    5.18
  15  -5  -8    3.40    4.23
  15   5   8    5.47    5.81
 -15  -5   8   -1.41    3.74
  16  -5   8   13.43    5.73
  16  -5  -8   -2.51    3.46
  16   5   8   13.16    5.87
 -16  -5   8   16.71    6.31
 -17  -5   8   -0.08    2.17
  17  -5  -8   -4.37    2.71
  17  -5  -8    0.66    1.61
  17   5   8    2.85    3.06
 -17  -5   8    0.64    1.57
   0  -6  -8   55.11   17.77
   0  -6  -8   41.54   10.02
   0  -6   8   51.49    9.46
   0  -6  -8   55.43   14.88
   0  -6   8   41.23    9.51
   1  -6  -8 2539.91  137.80
  -1  -6  -8 2387.88  106.93
   1  -6  -8 2225.02   76.84
  -1  -6  -8 2305.56   73.28
  -1  -6   8 2388.84   66.26
   1   6  -8 2536.12   70.26
  -1  -6   8 2471.09   70.95
   1  -6   8 2457.95   70.84
   2  -6  -8   31.76    9.84
  -2  -6  -8   34.00    9.61
  -2  -6   8   27.79    7.57
  -2  -6  -8   34.49   12.10
   2  -6  -8   43.86   17.62
   2   6  -8   37.58    8.41
   2  -6   8   27.73    7.36
  -3  -6  -8  853.07   56.46
   3  -6  -8  857.80   55.41
   3  -6  -8  913.10   43.91
  -3  -6   8  903.40   43.92
  -3  -6  -8  978.15   48.56
   3   6  -8  959.38   42.79
   3  -6   8  938.69   45.35
  -4  -6   8    2.50    2.86
  -4  -6   8    3.56    8.27
   4  -6  -8    0.02    6.87
   4   6  -8   -2.14    2.12
  -4  -6  -8   -3.30    7.18
   4  -6   8    0.32    2.48
   4  -6  -8    3.42    4.19
   4  -6  -8    1.11    4.13
  -5  -6  -8  157.50   23.62
   5  -6  -8  170.70   30.10
   5  -6  -8  162.46   21.19
  -5  -6   8  186.84   22.44
  -5  -6   8  224.52   34.74
   5  -6  -8  218.55   34.03
   5  -6   8  182.39   21.58
  -5   6   8  180.31   18.51
   6  -6  -8   13.66    8.04
   6  -6  -8   23.19    9.83
  -6  -6   8   17.20    7.54
  -6  -6   8   21.45   12.28
   6  -6   8   19.87    8.51
  -6   6   8   21.36    7.33
  -6  -6  -8   24.97   11.18
  -7  -6  -8  137.70   21.99
   7  -6  -8  129.68   23.28
  -7  -6   8  116.27   20.10
  -7  -6   8  140.53   23.42
   7  -6   8  123.96   19.54
  -7   6   8  142.97   18.94
  -8  -6   8   11.21    5.02
  -8  -6  -8   12.20    8.26
   8  -6  -8    6.72    8.73
  -8  -6   8    5.17    4.92
  -8   6   8    3.26    4.37
   8  -6   8    3.26    2.96
  -8  -6  -8    6.12    4.25
  -9  -6  -8  461.83   40.09
  -9  -6   8  389.86   37.37
  -9  -6   8  455.14   41.36
  -9   6   8  462.07   42.56
   9  -6   8  467.87   42.56
  -9  -6  -8  535.89   44.57
  10   6   8   18.79   11.42
 -10  -6  -8   40.02   12.76
 -10  -6  -8    9.75    6.55
 -10  -6   8   10.36    8.10
 -10  -6   8   20.76    9.52
 -10  -6  -8   12.15    6.41
  10  -6   8    5.51    5.11
  10  -6  -8    4.34    4.45
 -10  -6   8   22.80   10.37
  10  -6   8    3.31    6.64
  10  -6  -8   19.05   12.21
  10   6   8    5.47    5.41
  10  -6  -8    4.93    3.66
 -11  -6  -8 1207.30   68.62
  11  -6   8 1089.24   72.54
 -11  -6  -8 1114.39   64.83
 -11  -6   8 1118.04   73.18
  11   6   8  920.51   63.18
  11  -6  -8  983.17   68.76
  11  -6   8 1137.57   73.13
  11  -6  -8  958.27   64.20
 -12  -6  -8    2.24    4.18
  12  -6   8   17.60    8.09
 -12  -6   8   12.19    9.09
  12  -6   8    2.72    5.45
  12  -6  -8    9.05    5.14
  12  -6  -8   11.34    7.66
 -12  -6   8    3.36    5.86
  12   6   8    3.96    3.41
  13   6   8  652.96   47.68
  13  -6   8  691.54   56.67
 -13  -6   8  729.90   52.13
  13  -6  -8  791.11   55.16
  13  -6   8  785.42   54.11
 -13  -6   8  835.44   53.86
  13  -6  -8  669.48   48.85
 -14  -6   8   18.77    7.89
  14  -6   8   15.54    7.07
  14  -6  -8   18.20    7.18
  14  -6   8    9.60    3.55
  14   6   8    9.79    5.17
 -14  -6   8   23.49    9.18
 -15  -6   8  238.65   22.17
  15  -6   8  267.91   27.19
  15   6   8  263.34   24.83
  15  -6  -8  283.59   28.47
  15  -6   8  240.46   23.81
 -15  -6   8  270.17   25.22
  16  -6   8    8.28    6.52
  16  -6  -8    0.57    3.06
  16   6   8   -1.93    3.01
 -16  -6   8   -2.50    2.83
  17  -6   8   14.45    4.68
 -17  -6   8   17.35    4.57
   0  -7  -8    9.65    4.78
   0  -7  -8  -10.33   13.07
   0  -7   8    1.27    3.26
   0  -7   8   -1.68    2.10
  -1  -7   8  170.55   17.96
   1  -7  -8  213.26   43.88
  -1  -7  -8  171.13   29.09
   1  -7  -8  180.23   22.97
  -1  -7  -8  180.03   21.30
   1   7  -8  206.98   20.65
   1  -7   8  172.51   19.35
  -1  -7   8  180.74   20.07
  -1  -7  -8  178.30   31.68
  -2  -7  -8    4.76    4.13
  -2  -7  -8    3.39    4.82
   2  -7  -8    8.55    7.42
  -2  -7  -8   -2.79    3.36
  -2  -7   8    0.39    1.96
   2   7  -8    8.86    5.10
  -2  -7   8    8.17    5.50
   2  -7   8    0.53    3.13
  -3  -7  -8  366.35   39.72
  -3  -7  -8  313.32   49.87
   3  -7  -8  368.95   38.45
  -3  -7   8  393.35   30.39
   3  -7  -8  476.94   64.16
   3  -7   8  359.60   29.67
  -4  -7  -8   27.93   10.04
  -4  -7  -8   45.26   18.28
   4  -7  -8   25.23    8.51
  -4  -7   8   34.51    9.06
   4  -7   8   17.59    5.08
   4  -7  -8   25.67   11.17
   5  -7  -8  141.41   28.15
  -5  -7  -8  174.50   25.23
   5  -7  -8  178.47   23.26
  -5  -7   8  197.42   24.35
  -5  -7   8  231.69   39.14
   5  -7   8  188.63   22.88
  -5   7   8  211.20   20.46
   6  -7  -8   93.16   18.59
  -6  -7  -8   88.14   17.60
  -6  -7  -8  119.52   23.85
  -6  -7   8   93.09   17.94
  -6  -7   8  151.48   27.01
   6  -7   8   96.43   16.70
  -6   7   8   75.77   13.88
  -7  -7  -8  434.39   40.27
  -7  -7  -8  498.60   45.29
   7  -7  -8  390.40   42.15
  -7  -7   8  403.34   38.57
  -7  -7   8  554.50   48.48
   7  -7   8  392.33   37.17
  -7   7   8  419.69   33.51
  -8  -7  -8   55.44   14.47
  -8  -7  -8   68.63   16.23
   8  -7  -8   36.83   14.50
  -8  -7   8   41.22   12.05
  -8  -7   8   72.49   16.69
  -8   7   8   40.86   11.73
   8  -7   8   53.10   15.80
  -9  -7  -8  142.37   24.25
  -9  -7  -8  136.28   21.82
   9  -7  -8   80.17   21.94
  -9  -7   8  117.49   21.22
  -9  -7   8  145.16   23.15
   9  -7   8  136.76   26.14
  -9  -7  -8  150.68   24.60
  -9   7   8  122.36   21.48
  -9  -7   8  150.92   28.97
   9  -7   8  120.74   21.87
   9  -7  -8  169.30   26.96
   9  -7   8  158.45   28.10
   9   7   8  110.39   21.67
   9  -7  -8  123.01   22.11
 -10  -7  -8    2.56    2.60
 -10  -7  -8    3.00    2.86
 -10   7   8   -2.96    7.13
 -10  -7   8   -5.36    6.05
 -10  -7  -8   10.66   10.65
  10  -7   8    2.49    5.71
  10  -7  -8   11.16   11.07
 -10  -7   8    1.46    4.53
 -10  -7   8   -4.84    7.05
  10  -7   8   -0.22    3.14
  10  -7  -8   16.57   11.75
  10   7   8   10.24    8.06
  10  -7  -8   -2.97    5.26
 -11  -7  -8    7.64    6.55
 -11  -7  -8    3.32    5.49
  11  -7   8    7.46    9.48
 -11  -7   8   -2.02    5.94
  11  -7   8  -13.07    8.68
  11  -7  -8    6.76    6.35
  11   7   8   -0.02    4.60
  11  -7  -8    4.82    5.05
 -12  -7  -8   13.00    7.70
 -12  -7  -8    1.42    5.72
  12  -7   8    5.09    4.45
 -12  -7   8    8.25    9.02
  12  -7   8    7.19    9.31
  12  -7  -8    5.08    8.49
  12   7   8   -0.97    5.41
 -12  -7   8   -0.62    5.61
  12  -7  -8   -5.90    3.85
 -13  -7  -8   72.77   14.33
 -13  -7  -8   56.97   12.94
  13  -7   8   48.14   14.77
 -13  -7   8   70.06   15.44
  13  -7  -8   62.18   14.72
  13  -7   8   73.37   16.19
  13   7   8   56.25   14.22
 -13  -7   8   60.78   12.97
  13  -7  -8   52.88   13.75
 -14  -7   8   -1.24    4.83
  14  -7   8    4.64    4.27
  14  -7  -8    9.68    7.62
  14  -7   8   -0.40    2.90
  14   7   8   10.02    5.32
 -14  -7   8    4.61    3.88
  14  -7  -8    2.29    2.78
 -15  -7   8  124.81   15.47
  15   7   8  119.89   15.76
  15  -7   8  137.09   17.98
  15  -7  -8   88.43   15.40
  15  -7   8  105.59   15.58
 -15  -7   8  145.02   16.98
  15  -7  -8  132.53   16.59
  16  -7   8   21.18    6.34
 -16  -7   8   17.73    6.13
  16  -7  -8   16.16    4.73
 -16  -7   8   19.66    5.27
  16   7   8    7.19    3.67
  16  -7   8    7.02    2.79
   0  -8   8   12.94    5.06
   0  -8  -8    8.86    8.08
   0  -8   8   15.10    6.77
   0  -8  -8   30.30   10.01
  -1  -8  -8  521.13   62.69
  -1  -8  -8  459.77   45.62
   1  -8  -8  406.68   37.12
  -1  -8   8  401.98   29.36
   1   8  -8  406.13   30.12
  -1  -8   8  404.43   31.74
   1  -8   8  451.02   33.11
  -2  -8  -8   54.80   19.19
   2  -8  -8   54.11   14.27
  -2  -8   8   55.01   11.12
  -2  -8  -8   90.72   23.15
  -2  -8   8   59.57   12.14
   2  -8   8   50.85   11.38
  -3  -8  -8  210.81   32.30
  -3  -8  -8  147.06   33.71
   3  -8  -8  219.25   31.85
  -3  -8   8  226.68   23.62
   3  -8   8  205.00   23.20
  -4  -8  -8   97.38   27.24
   4  -8  -8   52.64   16.40
  -4  -8  -8   70.71   17.34
  -4  -8   8   71.74   14.22
   4  -8  -8   84.63   21.09
  -4  -8  -8   79.84   16.48
   4  -8   8   59.85   12.47
  -5  -8   8    8.99    6.05
  -5  -8  -8    0.13    3.23
  -5  -8  -8    4.85    7.23
   5  -8  -8   -1.20    7.10
  -5  -8  -8    1.48    5.71
   5  -8   8    5.92    4.26
  -5   8   8    9.62    4.46
  -6  -8  -8    2.76    3.26
  -6  -8   8    2.62    4.40
   6  -8   8    3.03    3.89
  -6   8   8    4.54    3.89
  -6  -8  -8    0.54    2.71
  -7  -8  -8  183.33   28.72
  -7  -8   8  131.16   21.61
  -7  -8   8  193.87   30.12
  -7  -8  -8  177.17   25.93
   7  -8   8  165.16   24.84
  -7   8   8  166.35   21.27
  -8  -8  -8    6.18    4.30
  -8  -8  -8   -0.34    4.67
   8  -8  -8    0.91    5.12
  -8  -8   8    4.49    4.33
  -8  -8   8   12.94    9.50
  -8  -8  -8    2.80    5.88
  -8   8   8    8.68    5.56
  -8  -8   8   11.31   12.18
   8  -8   8    3.02    2.29
   8  -8   8   15.65    8.73
   8  -8  -8   15.28   10.01
  -9  -8  -8  387.57   40.71
  -9  -8  -8  347.44   35.73
  -9  -8   8  251.13   31.69
  -9  -8   8  409.77   40.31
  -9  -8  -8  329.11   37.38
  -9   8   8  296.43   34.95
  -9  -8   8  423.67   47.80
   9  -8   8  296.90   35.76
   9  -8   8  362.87   43.59
   9  -8  -8  312.89   37.54
 -10  -8  -8   23.81    8.96
 -10  -8  -8   26.75   10.88
  10  -8   8   22.12   10.72
 -10  -8   8   26.00   13.14
  10  -8   8   21.71   13.89
  10  -8  -8   24.27   10.04
  10  -8  -8   14.72    8.42
  11   8   8  447.65   41.91
 -11  -8  -8  611.85   47.97
  11  -8   8  467.14   50.82
 -11  -8  -8  574.19   46.62
 -11  -8   8  690.15   57.98
  11  -8  -8  564.97   47.06
  11  -8   8  523.30   50.08
  11  -8  -8  471.82   47.05
 -12  -8   8   11.29    6.23
 -12  -8  -8   16.88    7.07
  12  -8   8   26.32   13.39
 -12  -8  -8   18.89    8.90
 -12  -8   8   20.62    7.78
  12  -8  -8   29.54   11.37
  12  -8   8   27.90   10.75
  12   8   8   13.51    6.88
  12  -8  -8   20.58    9.86
 -13  -8   8  445.03   38.46
  13   8   8  333.87   31.93
  13  -8   8  375.97   35.84
  13  -8   8  358.75   36.64
 -13  -8  -8  408.08   34.38
  13  -8  -8  380.16   35.33
  13  -8  -8  360.35   36.61
 -13  -8  -8  428.67   34.63
 -14  -8   8   38.31   11.40
  14  -8   8   37.66    9.94
 -14  -8  -8   26.54    8.34
  14  -8  -8   32.36   10.15
  14   8   8   42.15    9.77
  14  -8   8   28.55   10.21
  14  -8  -8   29.18    9.58
  15   8   8  172.36   17.96
 -15  -8   8  176.08   17.55
 -15  -8   8  176.15   18.74
  15  -8   8  184.67   19.84
  15  -8  -8  202.28   19.98
  15  -8   8  153.54   17.26
  15  -8  -8  181.40   18.79
  16  -8   8    2.24    2.28
 -16  -8   8    5.01    2.31
   0  -9   8   -2.58    3.31
   0  -9  -8    0.37   11.34
   0  -9   8   -3.87    6.45
  -1  -9  -8  240.43   46.89
  -1  -9   8  177.57   20.08
   1  -9  -8  123.14   36.58
  -1  -9  -8  208.52   39.83
  -1  -9   8  202.36   22.95
   1  -9   8  195.11   22.35
  -2  -9  -8   26.90   12.01
  -2  -9   8   30.34    8.61
  -2  -9  -8   50.09   19.02
   2  -9  -8   37.07   16.48
  -2  -9  -8   41.92   15.15
   2  -9   8   22.43    7.18
  -3  -9  -8  811.39   68.70
   3  -9  -8  716.48   63.08
  -3  -9   8  659.89   42.08
   3  -9  -8  892.55   80.73
  -3  -9  -8  739.47   58.58
   3  -9   8  653.19   42.59
  -4  -9  -8    1.66    7.41
  -4  -9   8   -0.66    5.97
   4  -9  -8   20.90   10.71
  -4  -9  -8    5.45    2.24
   4  -9  -8   23.91   13.89
   4  -9   8    7.85    6.23
  -4  -9  -8   10.04    9.28
  -5  -9  -8 1237.54   74.10
  -5  -9  -8 1095.88   62.00
   5  -9   8  997.88   58.74
  -5  -9   8 1080.07   61.28
  -5   9   8 1224.36   56.13
  -6  -9  -8   10.55   10.11
  -6  -9   8    8.19    5.81
   6  -9   8   12.68    8.06
  -6   9   8    6.48    3.70
  -7  -9   8 1216.15   72.79
  -7  -9  -8 1108.21   69.59
  -7  -9  -8 1424.73   82.38
   7  -9  -8 1095.25   60.98
  -7  -9   8 1024.57   65.02
  -7  -9  -8 1056.60   67.67
  -7  -9   8 1094.46   76.30
   7  -9   8 1048.52   64.03
  -7   9   8 1226.07   61.29
   7  -9   8 1176.71   73.47
   7  -9  -8 1289.99   72.46
   7  -9   8 1417.04  100.33
  -8  -9   8   53.48   15.85
   8  -9   8   79.03   20.85
  -8  -9  -8   45.12   13.28
  -8  -9  -8   70.78   16.82
   8  -9  -8   47.67   12.76
  -8  -9   8   44.30   14.00
  -8  -9   8   75.32   18.96
  -8  -9  -8   51.64   15.33
  -8   9   8   70.02   16.27
  -8  -9   8   53.74   16.00
   8  -9   8   50.55   15.09
   8  -9   8   51.31   16.25
   8  -9  -8   57.90   16.62
  -9  -9  -8  373.88   39.55
  -9  -9  -8  309.97   36.77
  -9  -9   8  396.27   44.96
   9  -9   8  345.75   41.78
   9  -9  -8  343.52   40.60
 -10  -9  -8    6.73    7.85
 -10  -9  -8    4.93    4.68
 -10  -9   8   -1.76    8.71
  10  -9   8    6.04    4.87
  10  -9  -8    2.93    4.86
 -11  -9  -8    3.11    4.78
 -11  -9  -8    7.68    6.62
 -11  -9   8   10.99    9.56
  11  -9   8    3.82    3.75
  11  -9  -8    4.22    8.34
 -12  -9  -8   24.01    9.11
 -12  -9   8   13.47    7.53
 -12  -9  -8    0.40    3.79
  12  -9   8   23.70   10.51
  12  -9   8   32.55   13.38
  12  -9  -8    6.60    4.87
 -13  -9  -8  176.86   21.37
 -13  -9   8  155.96   21.54
  13  -9   8  183.44   24.62
 -13  -9  -8  167.47   21.25
  13  -9   8  171.80   23.45
  13  -9  -8  154.35   23.25
 -14  -9  -8   10.02    5.87
 -14  -9   8    0.72    1.90
  14  -9   8    1.69    3.19
 -14  -9   8    5.56    3.74
  14  -9   8    0.17    3.50
  15  -9   8  212.06   20.16
 -15  -9   8  231.68   18.85
 -15  -9   8  220.41   18.42
  15  -9  -8  216.75   19.61
   0 -10   8   17.18    7.17
   0 -10  -8    6.27    8.54
   0 -10   8   16.56    7.96
  -1 -10   8   28.15    9.65
  -1 -10   8   37.96   10.36
   1 -10  -8   21.47   16.04
  -1 -10  -8   24.97   13.25
   1 -10   8   18.89    6.95
  -2 -10  -8   51.03   14.59
  -2 -10   8   65.73   12.46
   2 -10  -8  105.33   34.29
  -2 -10  -8   68.30   20.61
   2 -10   8   69.40   14.10
  -3 -10  -8   15.56   14.57
  -3 -10   8    6.06    4.89
   3 -10  -8   22.95    7.54
  -3 -10  -8   17.71    9.92
   3 -10   8   24.64    9.75
  -4  10   8   29.01    9.56
  -4 -10  -8   10.84   11.12
  -4 -10   8   24.47    9.21
   4 -10  -8   29.20   12.41
  -4 -10  -8   24.19   10.81
   4 -10   8   21.19    9.14
  -5 -10  -8  102.01   20.45
  -5 -10  -8  132.85   31.84
  -5 -10   8   73.01   16.04
  -5 -10  -8   94.52   18.67
   5 -10   8   70.42   16.54
  -5  10   8   87.19   15.81
  -6 -10   8    0.35    3.53
  -6 -10   8   17.66    9.24
  -6 -10  -8   10.48   12.03
  -6 -10  -8   -3.36    6.20
  -6 -10   8    6.66    4.62
   6 -10  -8    9.56    6.80
   6 -10   8    8.39    5.26
   6 -10   8    4.38    6.00
  -6  10   8   -2.80    4.98
   6 -10   8    2.93    5.88
   6 -10  -8   -1.04    6.83
  -7 -10   8   17.93   10.66
   7 -10   8   54.43   20.31
  -7 -10   8   33.33   14.59
  -7 -10  -8   21.65    9.15
  -7 -10  -8   50.49   15.87
  -7 -10  -8   17.53    8.79
   7 -10  -8   30.59   10.45
   7 -10   8   42.61   15.20
   7 -10  -8   33.73   10.39
  -8 -10   8    3.45    4.93
   8 -10   8   -4.49    4.34
  -8 -10  -8    4.02    4.90
   8 -10  -8   -0.25    3.18
  -8 -10  -8    0.24    4.99
  -8 -10   8    8.96    9.09
   8 -10   8   -8.70    8.79
   8 -10  -8   13.13    6.89
  -9 -10   8   10.56    7.00
  -9 -10  -8   -8.93    9.93
  -9 -10  -8   -0.90    6.72
  -9 -10   8  -10.90    8.89
   9 -10   8    0.14    6.89
   9 -10  -8   -0.91    4.36
   9 -10  -8   -0.65    4.69
 -10 -10  -8   -0.60    3.39
 -10 -10   8    8.53    2.96
 -10 -10  -8    4.09    4.88
 -10 -10   8   -1.51    3.71
  10 -10   8    9.01    6.39
  10 -10  -8   -0.95    5.22
 -11 -10  -8   46.66   12.81
 -11 -10   8   34.07   10.91
 -11 -10  -8   28.96    8.79
  11 -10   8   30.31   10.82
  11 -10  -8   37.96   14.56
 -12 -10  -8  104.29   17.94
  12 -10   8   89.34   19.94
  12 -10  -8  127.34   22.59
 -12 -10   8  114.49   18.82
 -13 -10   8   33.83    9.37
 -13 -10   8   35.03    8.49
 -13 -10  -8   29.25    8.10
  13 -10   8   21.17    8.38
  13 -10  -8   17.82    8.19
 -14 -10   8   32.38    7.86
 -14 -10   8   31.43    6.98
 -14 -10  -8   38.05    8.83
  14 -10  -8   32.53    8.40
   0 -11  -8  -17.13   12.77
   0 -11   8    0.96    3.56
   1 -11  -8  100.64   33.75
  -1 -11  -8  152.43   35.87
  -1 -11   8  127.11   19.05
   1 -11   8  108.65   18.98
  -1 -11   8  110.33   17.44
  -2 -11   8    0.13    2.18
   2 -11  -8    0.09   14.25
  -2 -11  -8    2.16    4.10
   2 -11   8    2.22    5.08
  -3 -11   8  589.81   70.34
  -3 -11   8  585.61   42.56
  -3 -11  -8  417.83   55.97
   3 -11   8  613.93   71.77
   3 -11  -8  652.45   45.88
  -3 -11  -8  629.28   45.44
   3 -11  -8  788.46   80.20
  -3 -11  -8  694.22   59.79
   3 -11   8  614.47   44.46
   3 -11  -8  644.88   45.70
   3 -11   8  625.00   69.11
  -4  11   8   48.71   12.28
  -4 -11   8   37.60   17.58
  -4 -11  -8   42.70   13.02
  -4 -11  -8   18.20    9.67
   4 -11   8   31.54   20.24
   4 -11  -8   43.30   12.51
   4 -11  -8   53.27   18.07
  -4 -11  -8   52.48   15.66
   4 -11   8   44.38   12.48
  -4 -11   8   40.13   10.87
   4 -11  -8   45.80   10.95
   4 -11   8   48.08   24.87
  -5 -11   8  882.35   70.07
  -5 -11  -8  843.41   61.75
  -5 -11   8 1100.20   77.86
  -5 -11  -8  985.61   86.47
   5 -11   8  882.87   78.25
   5 -11  -8  939.79   57.48
  -5 -11   8  900.76   58.47
   5 -11   8  931.97   57.75
  -5 -11  -8  984.86   61.36
  -5  11   8 1014.58   54.78
   5 -11  -8 1061.34   62.90
   5 -11   8 1109.94   99.71
  -6 -11   8    1.80    5.86
  -6 -11   8    5.12    5.76
  -6 -11  -8   10.81    8.13
   6 -11  -8   14.49    8.43
   6 -11   8   22.33   15.83
   6 -11   8   14.79    9.90
   6 -11  -8   -1.81    5.65
  -7 -11   8  888.30   65.46
  -7 -11   8 1111.45   78.04
   7 -11  -8 1001.46   61.90
   7 -11   8  921.37   65.03
   7 -11  -8 1069.67   67.76
   7 -11   8 1213.53   99.48
  -7 -11  -8 1029.11   68.49
  -8 -11   8    5.12    4.79
   8 -11   8    3.54    7.12
  -8 -11  -8    8.82    6.76
   8 -11  -8    0.67    4.59
   8 -11   8    3.44    5.06
   8 -11  -8    2.64    4.42
  -9 -11   8  424.24   41.15
  -9 -11   8  519.42   45.74
   9 -11   8  389.40   42.45
   9 -11  -8  411.74   44.79
   9 -11  -8  436.37   45.60
   9 -11   8  532.04   53.92
  -9 -11  -8  477.71   43.90
  -9 -11   8  478.61   42.03
 -10 -11   8    5.61    6.04
 -10 -11  -8    6.84    4.79
  10 -11   8    6.16    5.62
  10 -11  -8   -1.67    6.48
 -11 -11  -8   48.02   12.58
 -11 -11   8   43.50   11.31
  11 -11   8   33.08   11.94
  11 -11  -8   30.47   11.33
 -12 -11  -8   19.06    7.03
 -12 -11   8   26.08    9.83
  12 -11   8   16.23    6.76
  12 -11  -8   25.77    9.32
 -13 -11  -8   95.68   15.31
 -13 -11   8   86.11   13.34
  13 -11   8   78.78   14.01
  13 -11  -8   89.38   15.17
 -14 -11  -8    6.82    2.65
  14 -11   8    6.25    4.43
  14 -11  -8    6.69    3.89
 -14 -11   8    9.96    3.82
   0 -12   8   -3.90   10.63
   0 -12   8    2.19    7.69
   0 -12  -8    7.92    4.80
   0 -12  -8    6.63   11.51
   0 -12   8   10.20    7.97
  -1 -12   8    5.53    4.73
  -1 -12   8   12.62    9.90
   1 -12   8   11.02    5.18
  -1 -12   8   16.42   14.17
   1 -12  -8   23.79    9.85
  -1 -12  -8   22.03    9.07
   1 -12  -8    0.21   18.22
  -1 -12  -8   38.55   19.78
   1 -12   8   25.39    9.41
   1 -12   8   14.86   16.16
  -2 -12   8   46.48   22.78
   2 -12   8   29.24   16.14
   2 -12   8   30.74   12.45
   2 -12  -8   42.95   12.08
  -2 -12  -8   50.79   13.74
   2 -12  -8   64.17   22.96
  -2 -12  -8   44.07   13.31
   2 -12   8   40.97   11.91
  -3 -12   8   20.81    7.06
  -3 -12   8   11.80   10.40
   3 -12   8   -0.64   12.47
   3 -12   8   12.76   10.87
   3 -12  -8   27.47    9.08
  -3 -12  -8   19.09    8.04
  -3 -12   8   27.86   12.58
  -4 -12   8    3.42    8.22
  -4 -12   8   13.26    9.03
   4 -12   8  -23.91   18.48
  -4 -12  -8   12.06   10.08
   4 -12   8   15.23   13.54
   4 -12  -8   11.95    5.05
  -4 -12  -8    6.12    7.30
  -5 -12   8    8.27    3.63
   5 -12   8  -16.26   10.77
  -5 -12   8    5.35    7.42
   5 -12  -8    4.73    4.02
  -5 -12  -8   15.01    9.52
  -5 -12  -8    2.14    7.61
   5 -12   8   28.66   13.23
  -6 -12   8    3.59    5.31
   6 -12   8    4.00    6.68
  -6 -12   8   -5.34    7.03
  -6 -12  -8   -5.89    6.24
   6 -12  -8    0.78    3.28
   6 -12  -8    2.05    2.67
  -7 -12   8   12.58    8.13
  -7 -12   8   22.74   11.20
   7 -12   8   32.12   16.11
  -7 -12  -8   25.27   12.83
   7 -12  -8   11.35    6.79
  -7 -12   8   23.38    9.51
   7 -12   8   26.55   10.96
   7 -12  -8   26.49    8.83
  -8 -12   8    2.13    3.57
  -8 -12   8   -4.52    7.87
   8 -12   8    7.20    8.31
  -8 -12  -8   -1.90    3.51
  -8 -12   8   -3.80    4.36
   8 -12   8  -20.28   11.97
   8 -12  -8    5.41    6.09
   8 -12  -8    5.77    5.46
   9 -12   8  151.70   28.29
  -9 -12  -8  177.06   26.49
  -9 -12   8  125.62   21.63
   9 -12   8  110.57   24.36
   9 -12  -8  123.35   22.39
  -9 -12   8  157.57   22.80
 -10 -12  -8    2.60    5.08
 -10 -12   8   -3.96    4.18
  10 -12  -8   -2.43    3.44
 -11 -12  -8  126.80   18.18
 -11 -12   8  101.90   15.82
  11 -12   8   83.30   16.96
  11 -12  -8  113.92   20.17
  11 -12  -8  116.16   17.28
 -12 -12  -8   37.54    9.06
 -12 -12   8   43.70    9.67
  12 -12   8   36.58   10.19
  12 -12  -8   23.87    7.66
 -13 -12   8   37.15    7.75
 -13 -12  -8   32.59    7.54
 -13 -12  -8   39.58    8.63
  13 -12   8   35.66    8.73
  13 -12  -8   41.53    9.40
   0 -13   8   -1.25    6.51
   0 -13   8    4.42    6.72
   0 -13   8   -9.49   13.88
   0 -13  -8    1.42    5.26
  -1 -13   8   62.42   25.91
  -1 -13   8   41.46   15.71
   1 -13   8   37.28   15.84
   1 -13   8   29.86   19.85
   1 -13  -8   33.12   10.62
  -1 -13  -8   37.68   10.91
  -1 -13   8   30.31   16.23
  -1 -13   8   41.48   24.17
  -2 -13   8    6.66   11.75
   2 -13   8    1.49    6.25
   2 -13   8   20.66   21.13
   2 -13  -8    0.95    2.88
  -2 -13  -8    0.78    4.37
  -2 -13   8   -2.49    3.57
  -3 -13   8  280.41   47.70
  -3 -13   8  218.60   34.72
   3 -13   8  168.47   39.05
   3 -13  -8  235.05   27.66
   3 -13   8  280.29   53.20
  -3 -13  -8  246.89   31.62
  -4 -13   8   15.52   10.30
   4 -13   8    3.55    7.71
   4 -13   8   25.03   21.13
   4 -13  -8   15.11    6.54
  -4 -13  -8   30.80   12.89
  -4 -13   8   12.09   10.87
  -5 -13   8  453.34   48.12
  -5 -13   8  423.14   47.86
  -5 -13  -8  413.43   44.08
   5 -13   8  389.84   55.38
   5 -13  -8  391.43   36.88
  -5 -13  -8  407.46   45.19
   5 -13   8  496.27   71.67
  -6 -13  -8   14.65   11.33
  -6 -13   8    1.00    2.80
   6 -13   8   -5.84    8.59
  -6 -13   8    3.58    4.17
   6 -13  -8    0.75    4.60
  -6 -13  -8   -7.10    5.81
  -7 -13   8  420.86   45.71
   7 -13  -8  409.16   39.73
  -7 -13  -8  409.60   42.34
   7 -13  -8  442.68   46.64
  -7 -13  -8  307.68   41.31
  -7 -13   8  456.72   40.77
  -8 -13   8    0.38    2.06
  -8 -13   8    6.17    6.33
   8 -13   8    4.85    8.39
  -8 -13   8    0.20    3.47
  -8 -13  -8   -4.61    6.46
  -8 -13  -8   11.58    5.48
   8 -13   8    0.21    5.11
   8 -13  -8    7.16    5.96
   9 -13   8  160.89   28.06
  -9 -13  -8  167.05   24.40
  -9 -13   8  163.84   21.00
   9 -13   8   93.33   19.68
   9 -13  -8  148.69   24.39
  -9 -13  -8  181.67   27.26
  -9 -13   8  159.97   21.69
  10 -13   8   39.54   11.27
 -10 -13  -8   30.47   11.16
  10 -13  -8   35.02    9.62
 -10 -13   8   36.92    9.08
 -10 -13  -8   41.84   12.60
  10 -13   8    8.37    5.83
  10 -13  -8   37.80   12.35
 -11 -13  -8    4.40    2.27
  11 -13  -8   -0.83    3.19
 -11 -13   8   10.88    3.43
 -11 -13  -8    6.30    3.96
  11 -13   8    5.27    4.61
  11 -13  -8    5.26    2.24
 -12 -13  -8    8.90    4.21
 -12 -13   8   17.60    5.06
 -12 -13  -8    9.11    3.12
  12 -13   8    8.00    5.01
  12 -13  -8   20.31    6.59
   0 -14  -8    1.90    4.02
   0 -14   8   -7.45    6.12
   0 -14   8   -8.20    8.65
   0 -14   8   -3.32    7.94
   0 -14   8   -1.93   11.95
  -1 -14   8  590.09   65.32
   1 -14   8  712.89   93.48
   1 -14   8  606.42   89.85
  -1 -14   8  625.34   82.87
   1 -14  -8  559.21   42.75
  -1 -14  -8  577.49   45.48
   1 -14   8  571.71   56.81
  -1 -14   8  509.75   74.96
  -2 -14   8   12.55   10.85
  -2 -14   8   25.03   12.07
   2 -14   8    4.55   10.96
   2 -14   8   22.48   19.08
   2 -14   8   33.26   26.72
  -2 -14   8   13.17   16.08
   2 -14  -8   16.39    7.76
  -2 -14  -8   14.72    7.69
  -3 -14   8  202.61   34.28
   3 -14   8  240.99   44.52
   3 -14   8  238.85   50.55
   3 -14  -8  246.76   27.71
  -3 -14  -8  276.94   34.24
  -3 -14   8  295.03   48.70
  -4 -14   8   13.73   10.27
   4 -14   8   -3.82   11.40
  -4 -14   8   -1.89    4.67
   4 -14  -8    0.49    5.18
  -4 -14  -8   -2.33    6.99
   4 -14   8   11.94   15.73
  -5 -14   8   33.63   13.34
   5 -14   8   44.10   27.79
  -5 -14   8   20.16   11.20
  -5 -14  -8   34.97   15.32
   5 -14  -8   19.44   10.82
   5 -14  -8   29.28    9.98
  -6 -14  -8   -1.21    3.71
  -6 -14   8    3.38    3.20
   6 -14   8    9.95   11.92
  -6 -14   8   11.79    7.34
   6 -14  -8   -0.92    3.71
  -6 -14  -8    3.73    7.34
   6 -14  -8    9.11   11.64
  -7 -14   8   66.31   14.95
  -7 -14   8   59.81   16.69
   7 -14   8   69.42   20.69
  -7 -14  -8   88.12   18.45
  -7 -14  -8   42.33   15.22
   7 -14  -8   75.40   19.07
  -8 -14   8   19.49    6.74
   8 -14   8   33.85   13.58
  -8 -14  -8   14.85    7.04
   8 -14  -8   23.72   10.09
  -8 -14  -8   14.49    8.31
   8 -14  -8   19.62    7.53
  -9 -14  -8  288.75   32.37
  -9 -14   8  300.93   25.56
  -9 -14  -8  395.54   37.18
   9 -14  -8  291.21   31.84
   9 -14   8  284.60   34.01
   9 -14  -8  319.54   32.53
  -9 -14   8  248.45   24.07
  10 -14   8   11.57    6.53
  10 -14  -8    7.47    3.41
 -10 -14  -8   20.38    6.89
 -10 -14   8   11.22    3.29
  10 -14   8    8.88    4.96
  10 -14  -8   11.90    7.42
 -10 -14  -8   10.47    5.67
 -11 -14  -8  458.46   29.75
 -11 -14  -8  502.94   28.58
  11 -14  -8  499.16   31.83
   0 -15   8   29.04   10.15
   0 -15   8   -8.59    9.91
   0 -15   8    8.65   11.43
   0 -15   8    6.38   23.46
   0 -15  -8    4.70    4.74
  -1 -15   8    1.98   12.62
   1 -15   8    0.36    5.77
  -1 -15   8    7.31   10.72
   1 -15   8   -7.68   13.67
   1 -15   8  -22.23   22.39
  -1 -15   8   -3.77   20.06
   1 -15  -8    0.15    2.18
  -1 -15  -8    5.48    4.64
  -2 -15   8  -13.77   14.34
   2 -15   8    6.77    8.72
  -2 -15   8    3.58   12.64
   2 -15   8  -16.54   19.58
   2 -15  -8   -1.65    4.33
   2 -15   8    8.97   13.99
  -2 -15   8   -8.98   13.43
   2 -15  -8   -2.34    2.93
  -2 -15  -8    7.93    7.29
   2 -15  -8    6.01    4.93
  -3 -15   8    0.54    9.97
   3 -15   8   18.39   13.42
  -3 -15   8   10.87    8.43
   3 -15  -8   -2.68    5.69
   3 -15   8   -5.09   13.50
   3 -15  -8    3.91    5.38
  -3 -15  -8    2.53    5.09
  -4 -15   8   57.09   17.33
   4 -15   8   57.78   23.00
  -4 -15   8   39.77   15.81
   4 -15  -8   59.40   23.52
   4 -15  -8   33.38   10.64
  -4 -15  -8   54.77   18.01
  -5 -15   8   17.90    7.89
   5 -15   8   25.99   15.58
  -5 -15   8   24.60   10.44
   5 -15  -8    7.14    7.83
   5 -15  -8   11.90    7.25
  -5 -15  -8   20.01   12.37
  -6 -15   8   15.16    7.90
   6 -15   8   27.26   20.37
  -6 -15   8   19.66    9.63
  -6 -15  -8    9.82    4.52
  -7 -15   8   24.52    7.23
   7 -15   8   59.30   20.18
  -7 -15  -8   27.19    8.02
   7 -15  -8   61.20   18.86
  -7 -15  -8   26.04   11.61
   7 -15  -8   56.59   18.29
  -8 -15   8    3.90    1.90
   8 -15   8    3.03    5.05
  -8 -15  -8    1.18    4.55
   8 -15  -8   14.18    8.02
  -8 -15  -8    7.48    4.64
   8 -15  -8   16.48    9.07
  -9 -15   8    0.65    1.35
   9 -15   8    8.77    5.45
   9 -15  -8    1.19    1.86
  -9 -15  -8    6.70    2.79
   9 -15  -8    2.63    3.52
   0 -16   8   -1.70    6.14
   0 -16   8   12.31    7.06
   0 -16   8   -5.00   14.08
   0 -16   8    9.02   15.17
   0 -16  -8    4.51    5.92
   0 -16  -8   -8.28    8.38
  -1 -16   8  541.54   65.67
   1 -16   8  825.33  123.06
   1 -16   8  683.94   98.45
  -1 -16   8  726.36   83.51
   1 -16  -8  521.25   46.93
  -1 -16  -8  396.14   51.05
   1 -16  -8  453.49   37.90
  -1 -16  -8  477.36   41.58
   1 -16   8  453.66   45.26
  -1 -16   8  275.06   46.66
  -2 -16   8    4.34    4.51
   2 -16   8    0.79    5.06
  -2 -16   8    7.33   10.78
   2 -16  -8   -2.85    4.88
  -2 -16   8    2.78   13.46
   2 -16  -8   -0.80    2.39
  -2 -16  -8    5.69    6.57
   2 -16  -8   -0.93    3.88
  -3 -16   8  196.29   32.19
   3 -16  -8  211.32   25.43
  -3 -16  -8  214.67   30.59
   3 -16   8  259.70   41.16
   3 -16  -8  254.48   42.86
  -3 -16   8  302.82   42.14
  -4 -16   8    0.81    3.91
  -4 -16   8    7.95    6.23
   4 -16  -8   -4.22    8.52
   4 -16  -8    2.42    4.26
  -4 -16  -8    6.12    6.05
  -5 -16   8    6.16    7.30
   5 -16   8   24.40   18.55
   5 -16  -8   12.80    7.95
  -5 -16  -8   12.49    6.64
  -6 -16   8    0.45    3.24
   6 -16   8  -11.83   12.02
   6 -16  -8   -8.68   12.10
  -6 -16  -8    5.36    6.35
   7 -16   8  219.10   34.36
  -7 -16  -8  130.85   16.17
  -7 -16  -8  169.77   21.70
   7 -16  -8  202.22   33.99
  -7 -16   8  113.33   14.91
  -8 -16   8    2.24    2.27
   8 -16   8    3.83    5.50
   8 -16  -8    7.95    6.36
   0 -17  -8    1.78    2.40
   0 -17  -8   -9.64    9.06
  -1 -17   8   -0.15    4.95
   1 -17   8   -1.92    2.81
  -1 -17   8   -8.77    9.13
  -1 -17  -8   -4.02    7.09
   1 -17  -8    5.91    4.95
  -1 -17  -8   -7.23   11.44
   1 -17  -8    2.51    4.98
  -2 -17   8   -5.40    8.82
   2 -17   8    5.12    7.25
   2 -17  -8   -4.12    3.88
  -2 -17  -8   -0.45    2.35
   2 -17  -8   -6.81    4.67
  -2 -17  -8    7.56    6.72
  -3 -17   8   69.77   16.90
   3 -17   8   25.20   13.68
   3 -17  -8   49.90   17.57
   3 -17  -8   55.45   13.91
  -3 -17  -8   41.16   12.46
  -3 -17  -8   60.93   17.02
  -4 -17   8   10.89    6.56
   4 -17   8    9.38    6.63
   4 -17  -8   17.43   12.49
  -4 -17  -8   10.78    6.63
  -4 -17  -8   20.00    8.68
  -5 -17   8   51.50   11.29
   5 -17   8   75.36   28.04
   5 -17  -8  101.19   30.09
  -5 -17  -8   97.16   16.24
  -6 -17   8   -1.43    2.11
   6 -17   8  -12.05    8.55
   0   0  -9    4.42    4.32
   1   0  -9   -0.44    1.68
  -1   0  -9    1.88    3.14
   2   0  -9   35.34    8.23
  -2   0  -9   38.44   10.39
   2   0   9   48.54   12.67
   3   0   9   10.72    5.10
   3   0  -9    5.40    5.06
  -3   0  -9    1.84    3.56
   4   0   9  676.80   56.85
   4   0  -9  673.68   39.99
  -4   0  -9  684.14   42.96
   5   0  -9    1.73    4.07
   5   0   9    7.90    8.57
  -6   0  -9 1507.54   66.73
   6   0   9 1570.98   86.88
   6   0  -9 1326.48   64.40
   7   0   9    5.05    4.70
  -7   0  -9    2.04    2.68
   7   0  -9    2.45    3.46
   8   0   9  966.82   63.10
   8   0  -9  945.07   59.90
   9   0   9   -2.08    5.43
  -9   0   9   -2.73    7.93
   9   0  -9   10.10    7.17
  10   0   9   32.78   12.10
 -10   0   9   33.40   12.30
  10   0  -9   15.08    8.19
  11   0   9    2.76    6.28
  11   0  -9    2.49    5.29
 -11   0   9   -2.74    5.39
  11   0   9   -1.60    6.02
  11   0  -9    5.73    6.17
  11   0   9   -2.25    9.91
  12   0   9  100.41   20.86
  12   0  -9   94.38   20.37
  12   0   9  113.56   21.56
  13   0   9   -1.49    3.14
  13   0  -9   -0.39    3.50
  13   0   9   -2.10    6.81
  14   0   9  158.92   23.95
  14   0   9  197.23   25.25
  14   0  -9  182.26   24.05
 -14   0   9  115.19   20.87
  15   0   9    3.18    2.25
  15   0  -9   -0.17    3.85
  15   0   9   -2.80    5.96
 -15   0   9   -4.86    6.06
  16   0   9  372.37   28.77
  16   0   9  369.49   29.55
  16   0  -9  318.84   26.28
 -16   0   9  331.11   26.59
  17   0  -9   -0.45    1.85
  17   0  -9   -1.97    2.10
  17   0   9   -1.16    1.93
 -17   0   9   -7.40    3.18
   0  -1  -9  246.17   22.24
   0   1  -9  235.05   20.44
   1  -1  -9 1666.59   57.72
  -1  -1  -9 1629.19   58.63
   1   1  -9 1693.69   56.43
  -1   1  -9 1768.90   58.90
   2  -1   9  308.33   26.74
   2   1   9  392.26   43.83
   2  -1  -9  362.69   23.68
   2  -1  -9  326.84   26.33
   2   1  -9  321.78   24.60
  -2  -1  -9  323.37   27.13
  -2   1  -9  328.03   26.39
   2  -1   9  339.23   25.80
   3   1   9  648.96   62.96
   3  -1   9  512.72   39.22
   3  -1  -9  562.74   32.78
  -3  -1   9  526.65   28.10
   3  -1  -9  503.63   33.64
   3   1  -9  540.69   33.41
  -3  -1  -9  588.78   38.66
   3  -1   9  579.30   34.53
   4  -1   9  105.98   20.42
   4  -1  -9  107.46   15.79
   4   1  -9  119.80   16.30
  -4  -1  -9  108.65   17.04
  -4  -1   9  100.42   12.89
   4   1   9  146.93   27.30
  -5  -1   9   66.64   11.01
   5   1   9   82.39   18.63
   5  -1   9   67.24   17.16
   5  -1  -9   44.99   11.46
   5   1  -9   67.09   12.67
  -5  -1  -9   70.68   14.84
  -6  -1  -9    6.03    4.36
   6   1   9    8.91    7.56
   6  -1   9    4.24    6.44
   6  -1  -9    4.02    3.29
   6   1  -9    9.79    4.47
  -6   1  -9    4.33    3.71
  -7  -1  -9    2.81    2.65
   7   1   9    8.04    4.71
   7  -1   9   18.39    8.60
   7  -1  -9    7.01    5.24
   7   1  -9    5.54    4.63
   8   1   9   41.54   12.29
   8  -1   9   41.70   14.21
  -8  -1   9   26.52   12.70
   8  -1  -9   27.86   10.57
   8   1  -9   27.08   10.32
   9   1   9  270.37   31.33
   9  -1   9  255.16   32.20
   9  -1  -9  221.76   33.18
   9  -1  -9  205.40   28.64
   9   1  -9  205.53   27.50
  -9  -1   9  202.53   31.61
  10  -1   9  175.92   26.73
  10  -1  -9  202.79   31.33
 -10  -1   9  193.63   30.72
 -10   1   9  144.89   27.62
  10  -1  -9  135.28   26.21
  10   1  -9  157.21   24.63
  10   1   9  176.14   24.57
  11   1   9  926.73   56.81
  11  -1   9  882.70   57.67
  11  -1   9  791.02   57.71
  11   1   9  798.70   57.92
  11  -1  -9  979.14   65.13
 -11  -1   9  840.24   62.47
 -11   1   9  761.04   60.16
  11   1   9  877.36   61.77
  11  -1   9  827.53   61.97
  11   1  -9  711.98   54.33
  11  -1  -9  732.81   57.75
 -11  -1  -9  855.52   57.40
  12   1   9   35.38   12.98
  12  -1   9   44.29   13.56
  12   1  -9   45.79   13.37
  12  -1  -9   51.94   15.24
  12  -1   9   36.06   11.16
  12   1   9   26.32    9.98
  13  -1   9  488.79   43.41
  13   1   9  535.02   44.58
  13  -1   9  505.14   44.15
  13   1   9  428.85   40.95
  13   1  -9  492.78   41.96
  13  -1  -9  451.63   41.66
  14   1   9   40.07   11.39
  14  -1   9    8.54    4.72
  14   1  -9    6.33    4.47
  14  -1  -9   11.47    7.77
  14  -1   9   18.19    7.84
 -14  -1   9   23.19    9.11
 -14   1   9   16.90    8.11
  14   1   9   15.85    9.31
  15  -1   9  214.28   24.85
  15   1   9  254.72   26.08
  15   1  -9  226.53   23.85
  15  -1  -9  229.01   26.04
  15   1   9  236.83   25.92
  15  -1   9  235.04   26.47
 -15  -1   9  196.93   22.69
 -15   1   9  209.40   23.82
  16  -1   9   -2.38    2.17
  16   1  -9   -0.52    1.51
  16  -1  -9   -1.49    3.03
  16  -1   9   -2.75    4.72
  16   1   9   -4.30    3.71
 -16   1   9    5.04    2.72
 -16  -1   9    5.35    5.03
  17   1  -9   10.66    4.89
  17  -1  -9    7.67    3.82
  17  -1  -9   11.03    4.11
  17  -1   9    6.47    2.51
  17   1   9   14.15    4.96
 -17   1   9    7.19    3.65
 -17  -1   9   16.40    5.48
   0  -2  -9    1.53    3.03
   0   2  -9    2.05    3.82
   1  -2  -9   67.33    9.79
   1  -2  -9   50.46   10.26
  -1  -2  -9   50.35   10.95
   1   2  -9   54.42    9.80
  -1   2  -9   51.65   10.13
   1  -2   9   60.28   10.92
   2  -2   9   29.51    7.58
   2  -2  -9   37.66    7.64
   2  -2  -9   28.72    8.54
  -2  -2  -9   32.12    9.52
   2   2  -9   27.77    7.28
   2  -2   9   28.95    7.33
  -2  -2   9   30.80    7.08
  -3  -2  -9   87.47   15.35
  -3  -2  -9   98.69   13.68
   3  -2  -9   89.17   12.70
  -3  -2   9   75.81   10.93
   3   2  -9   75.91   12.41
   3  -2   9   82.27   14.69
   3  -2  -9   61.07   12.74
   3  -2   9   90.48   13.27
  -4  -2  -9  557.92   39.95
   4  -2  -9  567.29   35.98
  -4  -2   9  559.71   31.59
   4  -2  -9  507.33   37.62
   4   2  -9  562.61   35.48
   4  -2   9  534.27   34.45
   4  -2   9  485.75   40.85
   5  -2  -9  403.00   34.12
   5  -2   9  336.67   38.81
  -5  -2  -9  372.19   34.41
   5  -2  -9  383.86   34.69
   5   2  -9  392.89   31.44
  -5  -2   9  375.12   27.47
   6   2   9  742.11   58.59
   6  -2   9  491.32   49.26
  -6  -2  -9  635.63   45.87
   6  -2  -9  538.26   44.55
  -6  -2   9  528.13   34.49
   6  -2  -9  560.02   42.73
   6   2  -9  639.61   43.59
   7   2   9  403.27   40.63
   7  -2   9  378.71   43.61
  -7  -2  -9  378.09   36.57
   7  -2  -9  340.62   39.39
  -7  -2   9  337.53   38.74
   7  -2  -9  373.47   36.26
   7   2  -9  361.67   34.02
   8   2   9  563.27   46.54
   8  -2   9  629.61   56.05
  -8  -2  -9  473.59   41.37
   8  -2  -9  477.55   49.14
  -8  -2   9  489.67   47.20
   8  -2  -9  483.31   43.96
   8   2  -9  545.35   43.38
  -9  -2   9  239.65   33.57
   9  -2   9  287.10   36.25
   9  -2  -9  226.13   34.74
   9  -2  -9  230.10   30.56
   9   2  -9  225.76   28.59
   9   2   9  253.57   30.40
  10   2   9   11.73    6.28
  10  -2   9   18.46    9.43
  10  -2  -9   21.29   11.68
 -10   2   9   15.04    7.57
 -10  -2   9    1.93    8.68
  11   2   9    3.20    3.74
  11  -2   9   15.25    8.70
 -11  -2   9    8.08    4.53
 -11   2   9    8.90    4.32
  11   2   9   24.40   10.61
  11  -2   9   16.01   11.88
 -11  -2   9    9.39    7.71
  11  -2  -9   15.81    8.26
  11   2  -9   13.83    8.18
  11  -2  -9    7.34   10.85
  11   2   9    1.73    3.76
  12   2   9   68.55   15.35
  12  -2   9   60.08   15.99
 -12  -2   9   63.22   17.02
  12   2  -9   68.37   15.30
  12  -2  -9   61.26   17.06
  12  -2   9   52.45   14.32
  12   2   9   60.89   16.11
  13   2   9   44.20   12.32
  13  -2   9   32.68   11.41
 -13  -2   9   29.52   10.07
  13   2  -9   45.55   13.03
  13  -2  -9   34.22   12.38
  13  -2   9   36.91   12.26
  13   2   9   32.70   11.67
  14  -2   9  181.29   26.67
  14   2   9  189.32   25.57
  14  -2   9  165.91   23.95
  14  -2  -9  137.08   21.47
 -14  -2   9  129.09   20.70
 -14   2   9  174.14   24.43
  15  -2   9   77.32   15.09
  15  -2  -9   70.85   15.03
  15  -2   9   68.20   13.48
  15   2   9   58.75   13.67
 -15  -2   9   60.28   12.41
 -15   2   9   58.38   11.86
  16   2   9  243.62   23.27
  16  -2   9  278.17   25.44
  16  -2  -9  195.94   22.10
 -16   2   9  235.55   22.06
 -16  -2   9  224.01   21.71
  17   2   9  151.91   15.94
  17   2  -9  158.28   15.48
  17  -2   9  139.63   15.97
  17  -2  -9  138.39   15.05
  17  -2  -9  145.25   15.67
 -17  -2   9  137.81   13.91
   0  -3  -9 1079.29   58.17
   0   3  -9 1091.58   46.39
   0  -3   9 1054.52   45.15
  -1  -3  -9  963.42   51.87
  -1  -3   9  980.28   39.59
   1  -3  -9  899.75   52.53
  -1  -3  -9 1004.37   56.27
   1   3  -9 1006.87   44.07
  -1   3  -9  969.29   44.58
   1  -3   9  961.66   43.19
   1  -3  -9 1150.84   42.22
   2  -3   9  602.79   33.09
  -2  -3  -9  479.87   36.43
   2  -3  -9  587.33   31.63
  -2  -3  -9  586.70   34.60
  -2  -3   9  553.10   30.40
   2  -3  -9  511.23   38.62
   2   3  -9  549.74   32.83
   2  -3   9  544.79   32.90
  -3  -3  -9   68.35   13.74
   3  -3   9   84.55   13.73
  -3  -3  -9  103.22   14.34
   3  -3  -9   76.72   11.83
  -3  -3   9   82.32   12.36
   3   3  -9   91.15   13.19
   3  -3  -9   72.32   15.64
   3  -3   9   79.04   13.27
   4  -3   9  176.40   23.79
  -4  -3  -9  144.25   21.44
  -4  -3  -9  184.99   19.37
   4  -3  -9  165.54   19.14
  -4  -3   9  165.32   17.97
   4  -3  -9  156.03   22.88
   4   3  -9  176.70   19.59
   4  -3   9  175.98   19.84
   5  -3   9    9.34    4.59
  -5  -3  -9   15.70    7.66
   5  -3  -9   19.15    8.14
  -5  -3   9    9.78    7.45
   5  -3  -9   11.01    7.19
   5   3  -9   15.76    6.34
  -5  -3   9   14.24    5.36
   5  -3   9   15.82    6.83
  -6  -3  -9    2.64    5.39
   6  -3   9   -8.84   11.49
   6  -3  -9   -0.52    4.33
  -6  -3   9   -2.53    3.13
   6  -3  -9    6.12    5.35
   6   3  -9    5.77    5.59
   6  -3   9    4.12    4.49
  -6  -3   9   -3.59    4.88
   7   3   9   74.69   19.80
   7  -3   9   66.06   18.99
  -7  -3  -9   70.03   16.26
   7  -3  -9   73.99   17.46
  -7  -3   9   74.42   13.73
  -7  -3   9   86.44   17.96
   7  -3  -9   80.83   17.84
   7   3  -9   89.23   16.03
   8  -3   9  158.41   29.53
  -8  -3  -9  122.11   21.55
   8  -3  -9  121.65   25.34
  -8  -3   9  136.25   24.03
   8  -3  -9  141.56   23.88
   8   3  -9  152.73   22.00
   8   3   9  138.02   22.94
   9  -3   9  197.11   32.28
   9  -3  -9  124.11   26.08
  -9  -3   9  142.69   24.09
   9  -3  -9  160.85   24.88
   9   3   9  181.30   25.50
  10  -3   9  782.75   61.09
  10  -3  -9  719.95   62.54
 -10  -3   9  663.34   54.14
  10   3   9  639.80   47.89
  11   3   9  542.99   43.25
  11  -3   9  603.65   50.09
  11   3   9  485.84   45.84
  11  -3  -9  597.70   53.38
 -11  -3   9  550.28   48.48
 -11   3   9  390.19   41.54
  11  -3   9  433.69   47.78
 -11  -3   9  305.51   44.49
  11  -3  -9  492.89   49.64
  11  -3   9  559.85   48.77
  12  -3   9  145.04   26.70
 -12  -3   9  191.40   27.59
  12  -3  -9  157.10   27.74
  12   3   9  125.15   22.87
  13   3   9  248.06   32.15
  13  -3   9  284.38   33.77
 -13  -3   9  265.46   31.20
  13  -3  -9  240.32   33.45
  14  -3   9   48.23   13.40
  14  -3  -9   45.60   12.64
  14   3   9   54.88   14.61
 -14  -3   9   41.56   10.69
 -14   3   9   39.70   11.26
  15  -3   9   80.32   14.38
  15  -3  -9   64.86   15.55
  15   3   9   67.62   13.22
 -15  -3   9   52.24   11.34
 -15   3   9   67.64   12.38
  16   3  -9    4.96    3.93
  16  -3   9    8.70    6.21
  16  -3  -9    6.03    3.41
  16   3   9   12.99    6.59
 -16  -3   9    2.99    2.12
  17   3  -9    2.89    1.56
  17  -3  -9    1.52    2.97
  17  -3   9    7.67    3.85
  17  -3  -9    8.24    4.65
  17   3   9    3.84    1.62
 -17  -3   9   14.46    5.30
   0  -4  -9   -0.04    3.64
   0  -4  -9   -5.88   10.04
   0   4  -9    6.18    3.48
   0  -4   9   -4.02    3.72
   0  -4  -9    2.16    4.69
   1  -4  -9  363.57   40.23
  -1  -4  -9  296.11   31.67
  -1  -4  -9  313.39   26.21
   1  -4  -9  367.16   24.71
  -1  -4   9  314.39   23.20
   1  -4  -9  408.70   42.89
   1   4  -9  320.82   25.47
   1  -4   9  338.66   25.83
  -2  -4  -9   42.27   12.89
   2  -4   9   51.56    9.66
  -2  -4  -9   60.22   10.95
   2  -4  -9   54.39    9.92
   2  -4  -9   61.15   16.14
  -2  -4   9   43.03    8.53
   2   4  -9   46.48    9.92
   2  -4   9   53.80   10.75
   2  -4  -9   49.45   17.25
  -3  -4  -9  670.34   46.26
  -3  -4  -9  841.57   43.30
   3  -4  -9  782.33   39.90
  -3  -4   9  744.15   38.09
  -3  -4   9  863.66   68.21
   3  -4  -9  790.62   56.15
   3   4  -9  790.07   40.32
   3  -4   9  771.92   40.95
   3  -4   9  849.30   43.46
  -4  -4  -9  265.61   29.18
  -4  -4  -9  316.65   26.23
  -4  -4   9  261.80   23.79
  -4  -4   9  292.81   37.06
   4  -4  -9  262.27   31.97
   4   4  -9  305.71   25.66
   4  -4   9  241.21   24.28
   4  -4  -9  247.94   24.14
   4  -4   9  295.57   29.17
   5  -4   9 1000.13   62.80
  -5  -4  -9  926.01   56.46
   5  -4  -9  948.99   52.09
  -5  -4   9  982.37   48.38
  -5  -4   9  921.88   64.23
   5  -4  -9  940.61   60.51
   5   4  -9 1039.22   49.96
   5  -4   9  989.58   50.24
  -6  -4  -9  255.98   31.06
   6  -4  -9  262.99   30.49
  -6  -4   9  296.25   27.94
  -6  -4   9  280.03   33.75
   6  -4  -9  257.98   31.61
   6   4  -9  308.77   28.35
   6  -4   9  258.15   35.72
   6  -4   9  266.11   27.01
  -7  -4  -9  899.76   58.52
   7  -4  -9  815.59   60.62
  -7  -4   9  840.58   50.45
  -7  -4   9  929.92   62.39
   7  -4  -9  883.54   59.22
   7  -4   9  814.61   50.01
   8  -4   9   39.65   16.54
   8  -4  -9   38.23   13.02
  -8  -4   9   45.80   11.91
  -8  -4   9   59.50   14.90
   8  -4  -9   56.75   14.29
  -8  -4  -9   48.64   13.70
   9   4   9  689.31   53.18
   9  -4   9  857.63   70.13
  -9  -4  -9  764.27   53.91
   9  -4  -9  692.20   62.85
  -9  -4   9  707.67   55.05
  10  -4   9   50.35   15.49
 -10  -4   9   37.67   11.79
  10  -4   9   28.82    9.13
 -10  -4   9   48.28   15.40
  10  -4  -9   23.12    9.85
  10   4   9   36.29   13.06
  10  -4   9   51.75   15.80
  10   4   9   35.31   12.90
  10  -4  -9   46.34   16.46
  10  -4  -9   33.28   11.91
  11   4   9   30.07   10.65
  11  -4   9   18.67    8.39
 -11  -4  -9   39.50   12.23
  11  -4  -9   32.39   11.69
  11  -4   9   37.24   14.90
 -11  -4   9    4.89    3.71
  11  -4   9   32.29   12.66
  11  -4  -9    4.79    4.64
  11   4   9   23.96    9.57
  12  -4   9   -6.21    9.39
 -12  -4   9   14.28    7.72
  12  -4   9    6.72    6.68
  12  -4  -9   12.35    8.33
  12   4   9   14.51    7.56
  13  -4   9   96.44   19.98
 -13  -4   9   75.31   16.01
  13  -4   9   86.76   17.50
  13  -4  -9   94.71   20.38
  13   4   9   78.58   16.79
 -13  -4   9   94.79   17.49
  14  -4   9   15.85    6.95
  14  -4  -9   18.72    8.02
  14   4   9   24.20    9.61
 -14  -4   9   15.18    6.44
  15  -4   9  251.50   26.77
  15  -4  -9  285.89   29.15
  15   4   9  238.95   25.16
 -15  -4   9  214.50   23.35
  16   4  -9   31.80    7.63
  16  -4   9   30.62    8.38
  16  -4  -9   24.54    7.89
  16   4   9   43.26    9.90
 -16  -4   9   42.08    8.90
  17  -4   9  274.73   20.91
  17  -4  -9  273.55   20.81
  17   4   9  287.58   20.84
 -17  -4   9  263.14   18.37
   0  -5  -9 1405.78   82.88
   0  -5  -9 1424.96   58.59
   0   5  -9 1480.08   56.58
   0  -5   9 1402.16   55.30
   0  -5   9 1453.59   50.65
   1  -5  -9   48.33   18.24
   1   5  -9   29.43    8.54
  -1  -5  -9   33.85   12.26
  -1  -5   9   27.26    8.71
   1  -5   9   28.23    7.97
   1  -5  -9   26.38    8.26
  -1  -5   9   30.49    7.36
  -1  -5  -9   30.63    8.80
   1  -5  -9   33.88   17.91
   2  -5  -9  806.77   78.38
   2  -5  -9  656.65   43.82
  -2  -5  -9  723.57   41.65
   2  -5  -9  736.86   37.67
  -2  -5   9  670.10   36.48
   2   5  -9  757.43   39.80
  -2  -5  -9  641.36   49.37
   2  -5   9  700.86   39.58
  -3  -5  -9   34.80   11.46
   3  -5   9   41.49    9.73
   3  -5  -9   36.26   10.22
  -3  -5  -9   42.50    9.81
   3  -5  -9   36.46    8.89
  -3  -5   9   35.50    8.32
   3  -5  -9   47.60   17.45
   3   5  -9   26.37    7.33
   3  -5   9   38.49    9.10
  -4  -5  -9  115.80   20.18
  -4  -5  -9  128.38   17.81
   4  -5  -9  117.39   17.03
  -4  -5   9  119.40   16.85
  -4  -5   9  128.51   25.67
   4   5  -9  110.10   15.62
   4  -5  -9  124.37   25.23
   4  -5   9  100.76   15.69
   4  -5   9  133.67   19.63
   5  -5   9   23.35   10.42
  -5  -5   9   19.08    7.80
  -5  -5   9   33.42   13.04
   5  -5  -9   36.22   12.70
   5   5  -9   16.52    6.11
   5  -5  -9   15.85    6.75
   5  -5   9   25.22    8.46
  -5  -5  -9   12.95    9.08
   6  -5   9   16.80    9.44
  -6  -5  -9   13.24    6.63
  -6  -5   9   -0.32    4.28
  -6  -5   9   11.75    8.23
   6  -5  -9   14.64    7.77
   6  -5   9    5.28    3.64
   6  -5  -9    4.45    4.41
  -7  -5  -9    6.48    5.44
   7  -5   9   -3.81    9.35
  -7  -5   9    7.90    4.05
  -7  -5   9    1.98    2.28
   7  -5  -9   -3.18    6.00
   7  -5   9    8.57    6.54
   7  -5  -9    3.47    7.57
   8  -5   9   72.62   20.73
  -8  -5  -9   98.00   20.07
   8  -5  -9   91.35   22.51
  -8  -5   9   99.41   18.86
  -8  -5   9  115.49   21.36
   8  -5   9  103.88   20.38
   9   5   9   -3.34    4.63
   9  -5   9    7.82    9.03
  -9  -5  -9    3.26    4.68
  -9  -5   9   -2.46    5.75
  -9  -5   9   -1.03    4.37
   9  -5  -9   -2.88    7.57
  10   5   9  881.19   58.45
 -10  -5  -9  944.59   64.64
  10   5   9  727.41   56.01
 -10  -5  -9  921.83   57.51
  10  -5  -9  843.34   69.78
 -10  -5   9  846.41   57.64
  10  -5   9  851.45   65.68
  10  -5   9 1027.94   76.80
 -10  -5   9  807.34   63.33
  10  -5  -9  960.11   68.74
  10  -5   9  864.25   65.73
  10  -5  -9  757.90   54.93
  11  -5   9    7.17    6.16
 -11  -5   9   -7.18    7.51
  11  -5   9   13.40   10.17
  11  -5  -9    7.64    5.74
  11   5   9   -4.27    8.18
  11  -5  -9    9.01    6.45
  12   5   9  435.95   41.42
  12  -5   9  363.62   44.17
 -12  -5   9  492.82   45.28
  12  -5  -9  438.65   47.20
  12  -5   9  445.39   43.01
  13  -5   9    4.61    6.31
 -13  -5   9    3.53    6.27
  13  -5   9    4.40    5.26
  13  -5  -9    1.06    3.14
  13   5   9   -5.09    6.50
 -13  -5   9   -5.36    6.96
  14   5   9  366.78   33.12
  14  -5   9  455.88   38.21
  14  -5  -9  475.82   39.96
  14  -5   9  404.89   34.80
 -14  -5   9  392.80   34.23
  15  -5   9    6.09    2.41
  15  -5  -9    3.47    4.97
  15   5   9    3.55    2.23
 -15  -5   9   -0.86    3.29
  16  -5   9   52.53   10.53
  16  -5  -9   32.92    8.69
  16   5   9   57.56   10.66
 -16  -5   9   56.17    9.97
   0  -6  -9   -0.01    2.71
   0   6  -9    1.93    1.73
   0  -6   9   -2.00    4.53
   0  -6  -9   -2.72    7.18
   0  -6   9   -1.41    3.06
   1  -6  -9   98.00   16.38
  -1  -6  -9  105.99   16.79
   1   6  -9  104.01   15.12
  -1  -6   9  111.20   16.59
   1  -6   9  112.05   16.33
  -1  -6   9  106.79   14.56
  -1  -6  -9  152.94   27.82
   1  -6  -9  135.49   32.28
  -2  -6  -9    0.62    5.34
   2  -6  -9    0.41    4.49
  -2  -6   9    3.08    3.36
   2  -6  -9   14.10    7.34
   2   6  -9    2.53    1.57
  -2  -6  -9   -0.30    1.64
   2  -6   9    2.17    2.97
  -3  -6  -9  273.42   33.54
   3  -6  -9  278.30   32.87
  -3  -6  -9  344.95   30.02
   3  -6  -9  302.38   26.21
  -3  -6   9  311.65   27.23
   3   6  -9  318.30   26.32
   3  -6   9  300.33   27.54
   4  -6  -9    8.77    6.35
   4  -6  -9   10.78    5.27
  -4  -6   9   11.89    5.77
   4  -6  -9   24.93    8.79
   4   6  -9   18.25    6.34
   4  -6   9   14.63    7.25
  -4  -6  -9   11.08    8.33
  -5  -6  -9  803.68   55.33
   5  -6  -9  667.71   63.58
   5  -6  -9  823.31   49.31
  -5  -6   9  824.15   49.22
  -5  -6   9 1124.84   79.45
   5  -6  -9 1069.39   77.77
   5  -6   9  837.98   49.01
  -5   6   9  840.47   42.08
   6  -6  -9   13.71   12.01
  -6  -6  -9   11.12    7.64
   6  -6  -9    4.87    5.40
  -6  -6   9    5.24    6.54
  -6  -6   9   16.97    8.36
   6  -6   9    5.93    4.92
  -6   6   9    7.26    3.78
   7  -6  -9  755.09   58.33
  -7  -6   9  794.96   53.07
  -7  -6  -9  856.48   58.29
   7  -6   9  739.03   50.82
  -8  -6  -9   47.93   14.36
  -8  -6  -9   59.42   15.55
   8  -6  -9   46.68   15.52
  -8  -6   9   31.27   10.86
  -8  -6   9   47.88   13.25
   8  -6   9   29.98   11.75
  -9  -6  -9  312.32   36.85
  -9  -6  -9  321.79   35.99
  -9  -6  -9  297.32   33.13
   9  -6  -9  192.19   34.44
  -9  -6   9  234.80   29.43
  -9  -6   9  336.33   34.89
   9  -6   9  274.79   34.74
  -9  -6  -9  284.76   33.04
  -9  -6   9  238.96   40.53
   9  -6  -9  289.31   38.36
   9   6   9  253.54   33.00
   9  -6   9  328.35   39.74
   9  -6  -9  251.61   30.50
  10   6   9  -10.27    7.39
 -10  -6  -9    1.64    5.63
 -10  -6  -9    2.64    4.52
  10  -6  -9   -6.99    7.30
 -10  -6   9    4.23    2.12
 -10  -6  -9  -10.73    8.42
  10  -6   9    2.20    3.96
 -10  -6   9   -5.01    7.42
  10  -6   9   12.34    6.37
  10   6   9    4.70    5.07
  10  -6  -9   -0.15    6.01
  10  -6  -9   -9.25    8.60
 -11  -6  -9    6.16    4.69
  11  -6   9    5.84    4.49
 -11  -6   9   -4.06    9.03
  11  -6   9   12.44   12.58
  11   6   9    3.52    3.64
  11  -6  -9   -2.50    4.86
  11  -6  -9   10.00    8.70
 -12  -6  -9   58.84   13.48
  12  -6   9   41.32   15.02
 -12  -6   9   43.60   14.88
  12  -6   9   41.10   12.99
  12  -6  -9   42.31   13.96
  12   6   9   44.11   13.28
  12  -6  -9   39.10   12.00
 -12  -6   9   38.47   12.16
  13  -6   9   23.22    7.87
 -13  -6   9   10.14    7.25
  13  -6   9   31.84   10.12
  13  -6  -9   33.66   10.42
  13   6   9   28.70   10.00
  13  -6  -9   25.69    7.95
 -13  -6   9   33.76   10.39
 -14  -6   9   -2.09    4.01
  14  -6   9    2.75    2.57
  14  -6  -9   -1.30    2.41
  14  -6   9   -2.19    3.96
  14   6   9    6.03    6.29
 -14  -6   9   -4.73    4.08
 -15  -6   9  102.61   13.77
  15   6   9   97.50   14.34
  15  -6   9  101.99   15.27
  15  -6  -9   56.06   17.73
  15  -6   9   88.00   13.70
 -15  -6   9  108.05   15.55
  16  -6   9    4.71    3.39
  16  -6  -9    8.88    5.71
  16   6   9    0.06    2.48
 -16  -6   9    3.88    2.42
   0  -7  -9  980.60   54.24
   0   7  -9 1130.88   52.32
   0  -7   9 1046.21   51.45
   0  -7   9 1038.84   46.32
  -1  -7  -9  236.37   36.77
   1  -7  -9  225.46   26.20
  -1  -7  -9  228.90   25.89
  -1  -7   9  218.73   21.72
   1   7  -9  194.25   22.69
  -1  -7   9  261.59   25.33
   1  -7   9  240.91   24.65
  -1  -7  -9  289.68   44.36
  -2  -7  -9  457.95   50.75
  -2  -7  -9  305.84   49.65
   2  -7  -9  373.53   37.27
  -2  -7  -9  418.86   35.51
   2   7  -9  452.24   32.75
   2  -7   9  412.63   32.58
  -2  -7   9  416.72   30.90
  -3  -7  -9  107.50   21.58
  -3  -7  -9  145.34   36.03
   3  -7  -9  123.16   23.35
  -3  -7   9  117.19   16.97
   3   7  -9  123.16   16.35
   3  -7   9  105.00   16.70
  -4  -7  -9   55.97   16.45
  -4  -7  -9  112.87   29.40
   4  -7  -9   64.11   20.08
  -4  -7   9   63.06   13.34
   4  -7   9   56.73   13.19
  -5  -7  -9   61.08   19.60
   5  -7  -9   33.29   14.90
   5  -7  -9   29.19    9.95
  -5  -7   9   36.14   10.09
  -5  -7  -9   31.20   11.40
   5  -7   9   36.09    9.78
  -5   7   9   32.57    9.08
  -6  -7  -9   13.61    7.63
  -6  -7  -9   20.15   11.45
   6  -7  -9   15.16   13.48
   6  -7  -9    5.53    2.35
  -6  -7   9   22.58    8.99
  -6  -7   9    0.70    4.28
   6  -7   9    7.82    5.80
  -6   7   9   18.11    7.67
  -7  -7  -9    3.92    4.51
  -7  -7  -9    9.35    7.08
   7  -7  -9   -5.16    7.56
  -7  -7   9    6.04    7.36
  -7  -7   9    3.62    4.28
  -7   7   9    4.50    2.93
   7  -7   9   12.61    7.28
  -8  -7  -9   72.25   17.47
  -8  -7  -9   83.30   19.70
  -8  -7  -9   98.94   19.84
   8  -7  -9   62.55   19.09
  -8  -7   9   68.88   18.41
  -8  -7   9   86.89   19.65
  -8  -7   9   85.51   22.02
   8  -7   9   48.23   13.58
   8  -7   9   84.91   19.09
   8  -7  -9   57.89   14.85
  -9  -7  -9   28.09   10.02
  -9  -7  -9   24.54    9.69
   9  -7  -9   23.51   13.50
  -9  -7   9   10.67    6.41
  -9  -7   9   22.45    7.27
  -9  -7  -9   18.97    8.26
   9  -7   9   21.58    6.99
  -9  -7   9   17.96   14.17
   9  -7   9   20.55   10.62
   9  -7   9   29.05   12.36
   9   7   9   17.47   10.90
   9  -7  -9   13.76    6.23
   9  -7  -9   29.38    9.27
 -10  -7  -9  384.61   40.99
  10   7   9  303.15   36.69
  10  -7   9  353.92   41.95
 -10  -7  -9  370.15   38.96
 -10  -7   9  424.02   47.09
  10  -7  -9  312.39   39.43
  10  -7   9  352.31   42.06
  10  -7  -9  323.57   37.46
  11   7   9  131.15   24.06
 -11  -7  -9  165.87   26.53
  11  -7   9  203.63   31.36
 -11  -7  -9  171.08   26.21
 -11  -7   9  179.29   29.74
  11  -7  -9  157.58   26.53
  11  -7   9  173.12   29.10
  11  -7  -9  140.91   25.30
 -12  -7  -9  374.42   36.08
  12   7   9  271.78   31.64
  12  -7   9  334.69   39.02
 -12  -7  -9  391.08   36.30
 -12  -7   9  300.27   37.29
  12  -7  -9  317.63   35.15
  12  -7   9  329.18   37.39
 -12  -7   9  365.26   34.15
  12  -7  -9  304.12   34.73
 -13  -7  -9   88.36   16.07
 -13  -7   9   65.28   16.04
  13  -7   9   72.13   16.84
 -13  -7   9   79.54   15.62
  13  -7   9   89.89   17.08
  13  -7  -9   72.07   15.65
  13   7   9   60.63   14.19
 -13  -7   9   83.71   15.17
  13  -7  -9   68.31   14.93
  14   7   9  305.59   27.17
 -14  -7   9  288.99   26.52
  14  -7   9  328.79   30.89
  14  -7  -9  316.03   29.15
  14  -7   9  230.59   25.85
 -14  -7   9  332.23   28.09
  14  -7  -9  294.75   27.14
 -15  -7   9   27.46    6.47
  15  -7   9   34.03    8.81
  15  -7  -9   33.72    9.18
  15   7   9   21.82    6.54
  15  -7   9   17.71    5.93
 -15  -7   9   44.76    9.38
 -16  -7   9   22.55    6.35
  16  -7   9   16.17    5.73
  16  -7  -9   17.68    5.21
   0   8  -9    1.76    2.38
   0  -8  -9    3.33    3.97
   0  -8   9    1.59    3.65
   0  -8   9    0.94    2.50
   0  -8  -9   -2.34   12.29
  -1  -8  -9   93.49   26.18
   1  -8  -9   68.75   15.96
  -1  -8   9   55.34   10.92
   1   8  -9   76.73   13.77
  -1  -8   9   70.68   13.71
   1  -8   9   72.09   14.02
  -2  -8  -9  181.17   33.63
  -2  -8  -9  116.49   29.83
   2  -8  -9  134.24   23.92
  -2  -8   9  168.00   19.87
   2   8  -9  166.30   19.75
   2  -8   9  166.44   21.33
  -3  -8  -9  117.52   25.50
  -3  -8  -9   73.16   24.28
   3  -8  -9  100.40   21.49
  -3  -8   9   95.74   15.74
   3  -8   9   92.53   16.93
  -4  -8  -9  219.32   32.22
  -4  -8  -9  293.23   48.90
   4  -8  -9  249.58   39.19
  -4  -8   9  231.55   26.51
   4  -8  -9  283.34   39.61
   4  -8   9  210.64   25.17
  -5  -8  -9  483.05   45.27
   5  -8  -9  368.09   51.39
  -5  -8   9  496.44   41.00
  -5  -8  -9  509.24   42.67
   5  -8   9  479.54   39.84
  -5   8   9  455.04   34.78
  -6  -8  -9  191.88   28.02
  -6  -8   9  226.04   28.65
   6  -8   9  193.11   26.69
  -6   8   9  227.39   25.07
  -7  -8  -9  435.27   42.49
  -7  -8  -9  464.72   43.32
  -7  -8  -9  620.09   53.62
   7  -8  -9  494.45   40.06
  -7  -8   9  493.74   44.03
  -7  -8  -9  458.32   43.31
  -7  -8   9  418.20   49.59
   7  -8   9  417.46   41.86
  -7   8   9  376.36   37.57
   7  -8   9  489.99   47.34
   7  -8  -9  514.98   44.79
  -8  -8   9  329.37   37.84
  -8  -8  -9  316.23   37.73
  -8  -8  -9  329.22   36.32
   8  -8  -9  225.91   28.00
  -8  -8   9  233.42   30.90
  -8  -8   9  380.03   40.37
  -8  -8  -9  255.07   32.96
  -8  -8   9  288.20   40.36
  -8   8   9  203.54   29.00
   8  -8   9  261.00   33.15
   8  -8   9  309.81   38.74
   8  -8  -9  280.92   34.78
  -9  -8  -9   85.95   19.92
  -9  -8  -9   78.15   19.21
  -9  -8   9   72.09   20.23
   9   8   9   51.67   16.66
   9  -8   9   71.69   19.00
   9  -8  -9   67.36   16.79
 -10  -8  -9    8.13    6.29
 -10  -8  -9    4.60    2.81
  10  -8   9    4.55    3.80
 -10  -8   9   16.95    9.13
  10   8   9    8.25    4.80
  10  -8   9    6.02    6.00
  10  -8  -9   11.43    7.79
  10  -8  -9    6.19    7.49
 -11  -8  -9    8.78    4.55
 -11  -8  -9    1.95    5.66
  11  -8   9   -0.38    8.21
 -11  -8   9    2.88    3.70
  11   8   9    0.28    2.66
  11  -8   9   -4.01    7.14
  11  -8  -9    1.60    2.70
  11  -8  -9    6.39    6.41
 -12  -8  -9   61.26   14.11
  12  -8   9   54.89   15.14
 -12  -8   9   56.67   14.82
  12   8   9   41.49   11.57
  12  -8   9   41.07   13.05
  12  -8  -9   60.45   14.07
  12  -8  -9   40.74   13.19
 -13  -8  -9   11.95    5.14
 -13  -8   9   23.98    9.80
  13  -8   9   22.20    8.52
  13   8   9    7.67    4.99
  13  -8  -9    3.54    2.96
  13  -8   9   19.68    8.48
  13  -8  -9    6.75    3.03
 -14  -8  -9   53.81   11.37
 -14  -8   9   75.64   12.77
  14  -8   9   67.03   12.59
  14   8   9   46.94   11.09
  14  -8  -9   62.68   13.07
  14  -8   9   44.25   10.64
  14  -8  -9   69.61   13.23
 -15  -8   9   60.66    9.32
  15  -8   9   58.52   11.01
 -15  -8   9   54.96    9.71
  15  -8  -9   72.91   11.30
  15   8   9   46.89    9.15
  15  -8   9   45.99    8.70
  15  -8  -9   61.47    9.92
   0   9  -9  182.14   22.17
   0  -9  -9  218.59   51.50
   0  -9   9  165.46   21.79
  -1  -9   9  741.33   42.52
   1  -9  -9  616.01   91.17
  -1  -9   9  763.94   46.91
   1  -9   9  767.16   47.56
  -2  -9  -9   57.65   21.87
  -2  -9  -9   29.46    9.95
   2  -9  -9   41.49   13.64
  -2  -9   9   40.22    9.51
   2  -9  -9   54.17   24.70
  -2  -9  -9   67.79   20.49
   2  -9   9   57.12   12.91
  -3  -9  -9  506.79   56.05
   3  -9  -9  412.85   49.22
  -3  -9   9  418.77   34.64
  -3  -9  -9  503.53   49.69
   3  -9   9  398.60   34.66
  -4   9   9    2.75    2.47
  -4  -9  -9    5.29    6.32
  -4  -9  -9    2.00    5.38
   4  -9  -9   -1.87    5.85
  -4  -9   9    7.51    6.34
   4  -9  -9    9.37   10.00
  -4  -9  -9    3.09    4.70
   4  -9   9    2.57    3.93
  -5  -9  -9   31.66   14.66
  -5  -9  -9   40.17   15.58
   5  -9  -9   28.61   13.55
  -5  -9   9   29.18   10.61
  -5  -9  -9   30.89   11.49
   5  -9   9   26.71    7.29
  -5   9   9   29.64    8.06
  -6  -9   9   42.38   13.56
   6  -9   9   30.24   13.36
  -6  -9  -9   37.40   13.22
  -6  -9  -9   16.30    9.27
  -6  -9  -9   39.73   16.64
  -6  -9   9   30.20   11.54
   6  -9  -9   42.26   11.08
  -6  -9   9   24.88    8.77
   6  -9   9   35.28   11.51
  -6   9   9   29.58   10.28
   6  -9   9   25.83    9.61
   6  -9  -9   41.37   12.75
  -7  -9   9  103.78   22.34
   7  -9   9  157.81   33.98
  -7  -9  -9  121.76   23.19
  -7  -9  -9  127.37   24.40
   7  -9  -9  116.29   20.32
  -7  -9   9  102.32   20.91
  -7  -9   9  132.89   26.21
  -7   9   9   88.25   18.10
   7  -9   9   90.44   19.65
   7  -9   9  109.89   22.00
   7  -9  -9  112.92   21.62
  -8  -9   9   68.52   18.06
   8  -9   9   79.52   22.23
  -8  -9  -9   62.57   17.40
   8  -9  -9   55.67   13.88
  -8  -9  -9   36.77   12.38
  -8  -9   9   75.20   18.89
   8  -9   9   67.82   19.55
   8  -9  -9   54.31   15.72
  -9  -9  -9  343.54   39.36
  -9  -9  -9  291.34   36.15
  -9  -9   9  375.22   43.72
   9  -9   9  271.58   38.07
   9  -9  -9  312.33   38.11
 -10  -9  -9  113.36   22.11
 -10  -9   9  126.10   24.08
  10  -9   9  107.19   23.74
  10  -9  -9  105.32   22.54
  10  -9  -9  102.62   23.18
 -11  -9  -9  400.17   39.74
 -11  -9   9  510.75   45.48
  11  -9   9  400.58   41.59
  11  -9  -9  408.96   43.06
 -12  -9   9  166.58   24.91
  12  -9   9  201.19   26.77
  12  -9   9  156.70   23.11
  12  -9  -9  146.88   23.35
 -12  -9  -9  216.00   26.00
 -13  -9   9  262.20   26.45
  13  -9   9  266.25   27.39
  13  -9   9  173.11   24.97
 -13  -9  -9  286.24   26.53
  13  -9  -9  258.92   28.55
 -14  -9  -9  128.85   16.04
 -14  -9   9  140.16   16.60
  14  -9   9  104.76   15.09
 -14  -9   9  133.07   15.26
  14  -9   9  111.75   15.14
  14  -9  -9  131.57   17.29
 -15  -9   9  104.98   11.50
  15  -9   9   71.53   10.88
  15  -9   9   82.04   11.21
   0 -10  -9    7.25   17.80
   0 -10   9    1.26    4.48
  -1 -10   9    7.07    5.71
  -1  10  -9    8.89    6.22
   1 -10  -9  -18.74   23.54
  -1 -10  -9   11.66   15.56
  -1 -10   9   10.52    6.70
   1 -10   9    1.71    3.69
  -2 -10  -9  672.59   78.27
  -2 -10   9  405.07   33.47
   2 -10  -9  559.33   80.68
  -2 -10  -9  537.33   60.40
   2 -10   9  436.09   36.41
  -3 -10  -9   -2.03   12.29
  -3 -10  -9   -1.77   11.34
   3 -10  -9    7.96   13.23
  -3 -10  -9    0.99    6.13
   3 -10   9   -2.47    6.09
  -3 -10   9    1.38    2.18
  -4 -10   9  682.31   64.42
  -4 -10  -9  662.51   51.81
  -4 -10  -9  568.78   70.46
   4 -10  -9  707.82   47.84
  -4 -10   9  640.20   46.64
   4 -10  -9  843.13   71.54
  -4 -10  -9  740.75   57.24
   4 -10   9  618.97   46.36
  -4  10   9  752.45   45.96
   4 -10  -9  759.56   51.31
   4 -10   9  769.58   81.96
   4 -10   9  678.91   76.12
  -5 -10   9    8.95    7.98
   5 -10   9   15.89   12.55
  -5 -10  -9    6.59    5.73
  -5 -10  -9    2.64    6.10
  -5 -10   9    3.52    5.91
   5 -10  -9    4.90    6.59
  -5 -10  -9   -4.09    6.44
   5 -10   9    6.67    6.38
   5 -10   9    6.05    6.30
  -5  10   9    3.36    4.76
   5 -10  -9   -5.51    6.52
  -6 -10   9  765.89   59.70
  -6 -10   9  843.55   68.23
  -6 -10  -9  747.10   57.73
  -6 -10  -9 1069.35   82.47
   6 -10  -9  816.56   53.28
  -6 -10   9  740.87   55.06
   6 -10   9  851.33   59.80
   6 -10  -9  843.17   58.35
   6 -10   9  989.46   93.75
  -7 -10   9   13.38    9.24
   7 -10   9   13.85   11.14
  -7 -10   9   21.19    9.93
  -7 -10  -9   15.95    7.20
   7 -10  -9   10.26    4.71
  -7 -10   9   20.44   10.95
   7 -10   9   22.49    9.92
   7 -10  -9   28.11   10.58
  -8 -10   9  629.13   52.37
  -8 -10  -9  672.32   56.84
   8 -10  -9  640.17   49.95
  -8 -10   9  817.84   61.17
   8 -10   9  603.73   54.16
   8 -10  -9  710.12   56.59
   8 -10   9  826.11   75.90
  -9 -10   9   -8.24    7.29
  -9 -10  -9   -3.64    6.69
  -9 -10   9   -1.69    6.28
   9 -10   9    1.82    3.64
   9 -10  -9    5.76    7.66
 -10 -10  -9   65.36   16.28
 -10 -10   9   58.25   15.16
  10 -10   9   54.61   14.88
  10 -10  -9   61.76   16.63
 -11 -10  -9    5.16    5.68
 -11 -10   9    3.76    3.98
  11 -10   9   10.70    6.94
  11 -10  -9   -8.83    9.31
 -12 -10  -9    6.25    6.48
 -12 -10   9   22.19    8.59
  12 -10   9   24.42    9.66
  12 -10  -9   13.41    8.37
 -13 -10  -9    4.24    5.38
 -13 -10   9   -4.68    3.77
  13 -10   9   -3.84    2.55
  13 -10  -9   -2.49    2.12
 -14 -10  -9   85.15   12.15
 -14 -10   9   97.89   12.75
  14 -10   9   55.44   10.96
  14 -10   9   43.33   10.38
  14 -10  -9  102.21   13.99
   0 -11   9   -5.19    7.68
   0 -11   9  -15.23    8.93
   0 -11   9   -5.47   11.08
   0 -11  -9    5.46    3.52
   0 -11  -9   -1.89    8.22
   0 -11   9    3.83    6.75
   0 -11  -9    5.52    3.07
  -1 -11   9  700.29  102.31
   1 -11   9  696.56   92.77
  -1 -11   9  605.91   82.78
   1 -11  -9  711.58   47.43
  -1 -11  -9  695.86   47.64
   1 -11  -9  498.80   86.01
   1 -11   9  667.43   46.01
   1 -11  -9  652.48   45.94
  -1 -11   9  567.56   54.58
   1 -11   9  540.75   60.01
  -2 -11   9   -1.40   10.42
   2 -11   9  -15.94   13.17
   2 -11   9   26.00   23.99
   2 -11  -9    6.72    4.79
  -2 -11  -9   -0.32    4.84
   2 -11  -9   -3.46   13.36
  -2 -11  -9    7.80    3.99
   2 -11   9    4.15    2.51
  -2 -11   9    2.63    3.68
   2 -11  -9    5.50    3.59
  -3 -11   9  219.52   43.76
   3 -11   9  222.06   41.60
  -3 -11  -9  263.05   31.99
  -3 -11  -9  164.92   35.23
   3 -11   9  225.71   46.84
   3 -11  -9  218.74   26.79
  -3 -11   9  217.07   26.13
  -3 -11  -9  225.57   28.31
   3 -11  -9  295.48   50.42
  -3 -11  -9  275.50   37.92
   3 -11   9  229.95   28.02
   3 -11  -9  232.48   27.61
  -4 -11   9   -4.74    4.50
   4 -11   9    4.79   11.35
  -4 -11  -9    2.48    4.04
  -4 -11  -9    4.94   10.65
  -4 -11   9   -1.24    5.29
   4 -11  -9    2.36    3.95
  -4 -11  -9   -4.76    8.10
   4 -11   9  -13.26   20.28
   4 -11  -9    3.45    4.03
  -5 -11   9   25.22   12.56
   5 -11   9   36.43   20.35
  -5 -11   9   31.09   13.85
  -5 -11  -9   50.47   15.64
   5 -11  -9   23.70   10.32
   5 -11  -9   34.21   12.04
  -6 -11   9   -6.02    5.17
   6 -11   9   -2.49    9.76
  -6 -11   9   -4.19    6.02
  -6 -11  -9  -13.33    9.55
   6 -11  -9   -0.78    3.65
   6 -11   9   -7.21    6.81
   6 -11  -9   -2.37    2.94
  -7 -11   9   33.42   12.18
   7 -11   9   37.50   18.48
  -7 -11   9   48.24   16.52
  -7 -11  -9   50.76   16.71
   7 -11  -9   44.23   13.87
   7 -11   9   50.42   13.33
   7 -11  -9   28.58   10.57
  -8 -11   9    0.34    2.47
   8 -11   9   -0.75    6.94
  -8 -11  -9   20.08   11.11
   8 -11   9   17.58   10.91
   8 -11  -9   12.30    8.45
   9 -11   9  132.78   28.00
  -9 -11  -9  146.70   24.38
  -9 -11   9   97.61   20.25
  -9 -11   9  149.08   23.55
   9 -11   9   91.91   20.01
   9 -11  -9  124.46   23.54
   9 -11  -9  120.35   23.22
  -9 -11   9  141.37   22.18
 -10 -11  -9   37.01   11.93
 -10 -11   9   30.95   10.99
  10 -11   9   29.82   13.15
  10 -11  -9   37.04   12.11
 -11 -11  -9  401.28   34.41
 -11 -11   9  323.69   30.31
  11 -11   9  293.73   32.95
  11 -11  -9  325.55   35.37
 -12 -11  -9    8.79    4.04
 -12 -11   9    2.86    2.54
  12 -11   9    2.95    3.43
  12 -11  -9    5.70    5.70
 -13 -11  -9  297.74   25.40
 -13 -11   9  303.38   23.30
  13 -11   9  249.52   23.13
  13 -11  -9  297.20   26.59
   0 -12   9   16.62   21.54
   0 -12   9    8.03    7.57
   0 -12   9   33.87   26.41
   0 -12  -9   -1.27    3.70
  -1 -12   9   22.80   16.82
  -1 -12   9   15.66   10.30
   1 -12   9   21.15   11.63
   1 -12   9   47.14   30.01
  -1 -12   9   -7.82   18.36
   1 -12  -9   19.02    7.60
  -1 -12  -9   12.58    4.82
  -2 -12   9  142.74   38.57
   2 -12   9  103.92   28.12
   2 -12   9   89.92   32.86
   2 -12  -9  114.56   18.67
  -2 -12  -9  126.47   21.35
   2 -12  -9  123.89   20.02
  -3 -12   9   27.62   17.34
   3 -12   9   54.83   24.91
   3 -12   9   31.28   18.95
   3 -12  -9   65.97   14.58
  -3 -12  -9   55.48   13.71
   3 -12  -9   77.13   15.76
  -4 -12   9  220.44   38.86
  -4 -12   9  210.36   33.49
   4 -12   9  232.50   46.73
  -4 -12  -9  242.06   33.81
   4 -12  -9  204.58   25.54
  -4 -12  -9  221.99   30.41
   4 -12  -9  207.76   27.04
  -5 -12   9   44.29   16.95
   5 -12   9   74.51   29.49
  -5 -12   9   74.22   21.54
  -5 -12  -9   44.20   13.87
   5 -12  -9   68.17   15.69
  -5 -12  -9   46.94   14.81
   5 -12  -9   45.28   13.54
  -6 -12   9  330.17   38.93
  -6 -12   9  347.32   43.15
  -6 -12  -9  242.05   36.15
   6 -12  -9  313.41   33.28
  -6 -12  -9  302.29   38.70
   6 -12  -9  323.69   35.70
   6 -12   9  391.17   62.47
  -7 -12   9   -8.02    6.10
   7 -12   9    7.12    7.56
  -7 -12   9   -1.03    4.12
  -7 -12   9   10.73    9.21
   7 -12  -9    9.23    7.43
  -7 -12  -9   10.85    9.56
  -7 -12  -9    0.40    7.09
   7 -12   9   16.00    9.47
   7 -12  -9    6.35    6.31
  -8 -12   9  310.78   36.99
  -8 -12  -9  371.39   39.08
  -8 -12   9  303.43   34.84
   8 -12   9  319.68   37.19
   8 -12  -9  326.25   37.54
   8 -12  -9  304.95   35.58
   8 -12   9  394.71   53.71
  -8 -12   9  346.65   34.82
  -9 -12   9   17.73    6.71
   9 -12   9   24.88    9.67
  -9 -12  -9   16.97    7.49
  -9 -12   9   24.06    8.63
   9 -12   9   30.97   10.45
   9 -12  -9   16.56    9.21
 -10 -12  -9   43.77   10.62
 -10 -12   9   28.09    8.27
  10 -12   9   29.83   11.47
  10 -12  -9   43.38   13.20
 -11 -12  -9   12.44    5.87
  11 -12  -9   15.16    6.57
 -11 -12   9    4.78    3.57
  11 -12   9   19.62    9.86
  11 -12  -9   -2.40    5.76
 -12 -12  -9    5.18    3.13
 -12 -12   9   -6.29    4.10
 -12 -12  -9    3.53    3.80
  12 -12   9   -0.12    4.46
  12 -12  -9    1.14    2.18
   0 -13   9  171.47   45.28
   0 -13   9  271.38   59.04
   0 -13  -9  244.23   28.90
   0 -13   9  211.96   35.07
  -1 -13   9  229.34   52.86
   1 -13   9  151.60   32.25
   1 -13   9  211.05   52.24
  -1 -13   9  257.60   56.12
   1 -13  -9  211.40   25.88
  -1 -13  -9  213.96   27.35
  -1 -13   9  194.59   30.34
  -2 -13   9  123.70   34.26
   2 -13   9   67.78   21.99
  -2 -13   9   90.56   24.31
   2 -13   9   69.70   31.89
   2 -13  -9   86.98   16.33
  -2 -13  -9  111.26   19.91
  -3 -13   9  204.93   40.46
   3 -13   9  150.58   36.45
  -3 -13   9  143.24   27.09
   3 -13   9  177.42   49.07
   3 -13  -9  132.84   20.19
  -3 -13  -9  180.67   27.18
  -4 -13   9   49.74   17.00
   4 -13   9   15.66   14.49
  -4 -13   9   32.45   13.14
   4 -13  -9   32.04   10.03
  -4 -13  -9   29.32   10.85
  -5 -13   9   25.41   10.02
   5 -13   9   11.67   14.93
  -5 -13   9   29.96   13.17
  -5 -13  -9   37.86   12.29
   5 -13  -9   12.23    6.68
  -5 -13  -9   20.41    7.83
  -6 -13   9   -6.49    5.90
   6 -13   9   -2.71   14.67
  -6 -13   9  -10.04    8.05
  -6 -13  -9    1.19    3.57
   6 -13  -9    3.78    3.71
  -6 -13  -9    0.25    3.08
  -7 -13   9   52.42   13.49
   7 -13   9   58.18   22.50
  -7 -13   9   48.12   15.83
   7 -13  -9   41.54   11.58
  -7 -13  -9   42.26   14.72
   7 -13  -9   40.37   13.85
   7 -13  -9   47.86   12.66
  -7 -13  -9   52.27   16.32
  -8 -13   9   70.25   14.87
   8 -13   9   83.76   21.04
  -8 -13   9   60.90   15.45
  -8 -13   9   70.50   15.53
  -8 -13  -9   69.43   18.56
  -8 -13  -9   68.96   16.81
   8 -13   9   56.83   13.93
   8 -13  -9   47.47   14.10
  -9 -13   9   67.48   13.77
   9 -13   9   88.71   20.80
  -9 -13   9   65.33   12.93
  -9 -13  -9   67.68   16.00
   9 -13   9   40.46   11.43
   9 -13  -9   50.57   13.52
  -9 -13  -9   75.20   14.85
 -10 -13   9  203.83   20.42
 -10 -13  -9  233.07   25.80
 -10 -13  -9  183.65   24.23
  10 -13   9  165.83   24.58
  10 -13  -9  199.11   24.88
  10 -13  -9  230.44   24.24
 -11 -13  -9  131.68   19.15
 -11 -13   9  137.51   14.92
 -11 -13  -9  155.41   17.72
  11 -13   9  139.92   19.71
  11 -13  -9  128.89   17.88
  11 -13  -9  151.40   16.37
   0 -14   9   21.56   16.12
   0 -14   9   -0.58    5.35
   0 -14   9    4.26    9.27
   0 -14   9   19.11   15.40
   0 -14  -9    1.32    4.94
  -1 -14   9   19.67   18.43
  -1 -14   9   10.73    8.57
   1 -14   9   30.25   13.34
  -1 -14   9   10.60    7.09
   1 -14   9   28.62   14.28
   1 -14   9   14.08   21.00
  -1 -14   9   18.60   12.46
   1 -14  -9   31.89   10.09
  -1 -14  -9   23.20    9.57
  -2 -14   9   15.34   14.47
   2 -14   9   -1.38    8.18
  -2 -14   9   22.24   13.86
   2 -14   9    0.66   13.11
   2 -14  -9   12.89    7.81
  -2 -14  -9    0.81    4.73
  -3 -14   9  154.71   35.19
   3 -14   9  121.10   33.14
  -3 -14   9   96.03   21.61
   3 -14   9  199.34   70.69
   3 -14  -9  108.46   18.11
  -3 -14  -9  122.90   23.22
  -4 -14   9   32.93   13.50
   4 -14   9   44.89   22.33
  -4 -14   9   19.02   10.66
   4 -14  -9   25.63    8.86
  -4 -14  -9   14.63    6.38
  -5 -14   9  283.14   36.25
   5 -14  -9  237.87   27.10
  -5 -14  -9  266.15   36.72
  -5 -14   9  339.18   38.32
  -6 -14   9   82.10   16.97
   6 -14   9  118.95   35.21
  -6 -14   9   64.94   16.31
  -6 -14  -9   77.92   17.46
   6 -14  -9   75.04   17.16
  -6 -14  -9   49.76   18.05
   6 -14  -9  103.25   22.57
   7 -14   9  210.85   40.74
  -7 -14   9  163.77   25.09
  -7 -14  -9  163.63   28.15
  -7 -14  -9  133.18   24.82
   7 -14  -9  179.08   28.21
  -7 -14   9  163.03   21.57
  -8 -14   9   52.36   11.29
   8 -14   9   77.47   19.58
   8 -14  -9   72.12   17.26
  -8 -14  -9   76.68   17.09
  -8 -14  -9   51.63   14.12
   8 -14  -9   46.02   12.43
   9 -14   9   63.27   15.18
  -9 -14  -9  110.77   18.80
   9 -14  -9   98.83   17.04
  -9 -14  -9  106.95   17.50
   9 -14  -9  110.11   18.48
  -9 -14   9   78.74   12.50
  10 -14  -9    5.84    4.05
 -10 -14  -9    2.11    2.61
  10 -14   9    0.72    2.45
  10 -14  -9    7.41    4.82
 -10 -14  -9   -6.17    5.77
   0 -15   9  320.60   56.47
   0 -15  -9  266.05   29.24
   0 -15   9  201.30   33.27
   0 -15   9  211.88   40.43
  -1 -15   9    5.64    5.63
   1 -15   9    1.43    8.07
  -1 -15   9   -1.32    9.68
   1 -15  -9    7.04    2.46
  -1 -15  -9   -0.47    2.95
  -2 -15   9  163.53   36.94
   2 -15   9  126.52   29.60
  -2 -15   9  115.96   25.47
   2 -15   9  185.06   63.41
   2 -15  -9  142.58   29.15
   2 -15  -9  114.13   18.38
  -2 -15  -9  131.89   22.00
   2 -15  -9  154.53   22.09
  -3 -15   9    0.24    6.47
   3 -15   9   -7.09   11.01
  -3 -15   9   -2.89    8.60
   3 -15  -9    2.34    2.44
  -3 -15  -9    6.09    6.83
  -4 -15   9   75.55   18.22
   4 -15   9   52.88   16.98
  -4 -15   9   53.28   14.98
  -4 -15  -9   46.54   14.85
   4 -15  -9   42.68   10.76
  -5 -15   9    4.83    6.27
   5 -15   9   -4.83   11.91
  -5 -15   9    8.72    6.34
   5 -15  -9  -18.39   21.44
   5 -15  -9   -0.01    3.06
  -5 -15  -9   -6.75   10.22
  -6 -15   9    0.63    4.00
  -6 -15   9   12.72    8.04
   6 -15  -9   13.08   12.25
  -6 -15  -9    7.82    9.85
   6 -15  -9    1.20    5.56
  -7 -15   9   24.87    8.43
   7 -15   9   17.27    9.99
  -7 -15  -9   10.85    2.91
   7 -15  -9   25.90   11.72
  -7 -15  -9   15.24    7.46
   7 -15  -9   35.40   12.29
  -8 -15  -9  128.09   18.78
  -8 -15  -9  142.44   20.42
   8 -15  -9  160.32   23.24
   8 -15  -9  158.97   24.10
  -8 -15   9   90.75   12.90
   9 -15  -9    3.27    2.86
  -9 -15  -9    7.81    3.06
   0 -16   9   -0.62    6.48
   0 -16   9    0.29    5.78
   0 -16   9  -13.98   14.67
   0 -16  -9   -9.86    7.13
   0 -16  -9    6.61    6.63
  -1 -16   9    0.56    7.47
   1 -16   9    5.65    7.16
  -1 -16   9    9.11    5.47
   1 -16   9   21.81   18.92
   1 -16  -9   17.72    7.49
  -1 -16  -9    6.59    4.30
   1 -16  -9   14.85    7.39
  -1 -16  -9    5.91    7.45
  -2 -16   9   13.20   12.52
   2 -16   9  -11.32   11.67
  -2 -16   9  -13.17   11.05
   2 -16   9  -16.33   35.85
   2 -16  -9    0.06    3.81
  -2 -16  -9   12.97    8.82
  -3 -16   9  139.59   28.53
   3 -16   9   86.37   24.17
  -3 -16   9   86.84   19.73
   3 -16  -9  121.97   29.60
   3 -16  -9   85.78   15.82
  -3 -16  -9   80.88   18.18
  -4 -16   9   11.52    5.29
  -4 -16   9    1.02    3.76
   4 -16  -9    2.62    6.92
   4 -16  -9    7.67    5.10
  -4 -16  -9   10.32    8.12
  -5 -16  -9  288.11   33.38
   5 -16   9  370.35   54.66
   5 -16  -9  398.50   63.63
  -5 -16   9  362.92   33.06
  -6 -16   9    3.89    3.21
   6 -16   9    0.58    7.44
  -6 -16  -9   19.58    8.67
  -6 -16  -9   12.49    5.56
  -7 -16  -9  181.42   18.34
  -7 -16   9  213.83   19.04
   0 -17  -9  216.62   29.65
   0 -17  -9  214.76   27.54
  -1 -17   9    9.97    7.07
   1 -17   9   -3.30    7.66
  -1 -17   9   18.21   11.81
   1 -17   9   19.67   19.39
   1 -17  -9   17.72    9.61
  -1 -17  -9    9.60    5.18
   1 -17  -9   15.43    7.44
  -1 -17  -9   10.94    6.79
  -2 -17  -9  109.94   19.89
  -2 -17  -9  124.90   24.57
   2 -17  -9  141.38   21.45
  -2 -17   9  172.36   27.58
  -3 -17   9   14.02    7.70
  -3 -17  -9   10.87    7.51
  -3 -17  -9    0.48    5.18
  -4 -17   9   71.48   14.68
  -4 -17  -9   65.92   14.99
   0   0 -10 2048.67   67.74
   1   0 -10    8.63    5.78
  -1   0 -10    3.29    3.53
   2   0 -10 1572.18   59.31
  -2   0 -10 1628.14   64.99
   3   0  10   -1.65    6.30
   3   0 -10   -2.60    2.41
  -3   0 -10   -0.76    3.76
   4   0 -10  392.06   32.75
  -4   0 -10  392.18   35.73
   4   0  10  440.56   44.00
  -5   0 -10    8.14    5.96
   5   0  10    0.27    6.01
   5   0 -10    9.46    5.81
  -5   0 -10   -0.72    4.84
  -6   0 -10   34.54   10.88
   6   0  10   49.40   15.93
   6   0 -10   30.45    9.99
  -7   0 -10    1.79    1.95
   7   0  10    1.24    2.72
   7   0 -10    6.99    5.38
   8   0 -10  484.98   44.60
   8   0  10  529.88   47.62
   9   0  10    2.78    3.20
  -9   0  10   -0.55    3.68
   9   0 -10   -0.44    2.92
  10   0  10 1266.63   69.59
  10   0  10  835.33   60.03
  10   0 -10 1250.26   75.89
 -10   0  10 1040.19   73.50
  10   0  10 1164.96   73.89
  10   0 -10 1077.47   66.43
  10   0 -10 1021.98   66.15
  11   0  10    4.03    4.30
  11   0 -10    0.25    3.82
  11   0  10    7.86    7.68
  11   0  10   -6.40    8.25
  11   0 -10   -4.35    4.94
  12   0  10  743.27   57.98
  12   0  10  836.44   59.08
  12   0 -10  674.98   52.07
  13   0  10   -1.18    2.64
  13   0 -10    1.69    2.97
  13   0  10   -1.24    4.79
  14   0  10  546.49   42.16
  14   0  10  635.22   44.71
  14   0 -10  500.62   38.07
 -14   0  10  501.94   38.71
  15   0  10   -1.30    3.96
  15   0 -10    1.74    2.41
  15   0  10    5.93    3.38
 -15   0  10   -3.95    4.64
  16   0  10  128.36   15.67
  16   0 -10  130.30   15.40
 -16   0  10  103.96   13.71
  17   0 -10   -2.99    3.31
 -17   0  10   -0.71    1.71
   0  -1 -10    3.77    4.15
   0   1 -10    0.86    2.50
   1  -1 -10   10.18    5.66
  -1  -1 -10   13.29    6.80
   1   1 -10   10.33    5.17
  -1   1 -10   11.57    5.66
   2  -1 -10   25.96    6.56
   2   1  10    9.98    5.71
   2  -1 -10   22.28    7.72
   2   1 -10   18.08    6.09
  -2  -1 -10   17.57    7.57
  -2   1 -10    7.52    2.65
   3   1  10  101.26   22.78
   3  -1  10   72.99   14.73
   3  -1 -10   72.93   12.34
   3  -1 -10   68.60   12.94
   3   1 -10   67.10   12.84
  -3  -1 -10   58.80   12.78
  -3   1 -10   68.01   13.88
   4   1  10  218.61   34.85
   4  -1  10  150.38   23.64
  -4  -1 -10  159.22   21.89
   4  -1 -10  158.64   19.39
  -4  -1  10  144.76   16.17
   4  -1 -10  155.14   21.11
   4   1 -10  159.93   19.83
  -4   1 -10  166.54   22.74
   5   1  10   63.56   17.79
   5  -1  10   65.53   17.73
   5  -1 -10   47.93   13.05
   5  -1 -10   42.83   11.98
   5   1 -10   65.70   13.82
  -5  -1 -10   49.48   12.98
   6  -1  10  447.41   46.79
  -6   1 -10  525.78   41.05
  -6  -1 -10  429.50   39.41
   6  -1 -10  399.32   38.89
   6   1  10  521.28   49.57
   6  -1 -10  390.53   36.45
   6   1 -10  417.59   37.07
   7  -1  10   48.22   15.66
   7   1  10   29.13   10.62
  -7  -1 -10   30.66   10.34
   7  -1 -10   25.71   12.09
   7  -1 -10   37.69   12.64
   7   1 -10   31.54   11.18
  -8  -1 -10  246.48   30.07
   8  -1 -10  218.63   32.80
  -8  -1  10  215.43   32.12
   8  -1 -10  235.49   31.63
   8   1 -10  219.46   29.09
   8  -1  10  282.16   36.67
   8   1  10  234.78   30.93
   9   1  10   18.24    8.33
   9  -1  10   32.52   12.70
   9  -1 -10   16.97   10.54
  -9  -1  10    7.08    5.74
   9  -1 -10    8.97    3.54
   9   1 -10    6.82    3.75
  10   1  10    0.76    3.83
  10  -1  10    2.04    3.84
  10  -1 -10    9.41    7.65
 -10  -1  10   -1.52    7.01
 -10   1  10   30.69   12.87
  10   1  10    5.24    6.98
  10  -1  10   15.27    7.91
  10  -1 -10    8.68    7.35
  10   1 -10    4.99    5.22
 -10  -1  10   -3.18    5.30
  10  -1  10    1.63    4.73
  10   1  10    8.41    8.50
  10  -1 -10   -6.35    7.72
  10   1 -10    8.26    3.25
  11   1  10   21.11    9.14
  11  -1  10   32.54   11.50
  11  -1 -10   38.16   14.04
  11   1  10   40.61   14.30
  11  -1  10   37.79   14.03
  11  -1  10   30.50   12.36
  11   1  10   27.00   10.80
  11   1 -10   23.77    9.34
  11  -1 -10   23.98    9.60
  12   1  10    2.55    7.06
  12  -1  10    0.79    3.97
  12  -1  10    3.10    6.17
  12   1  10    3.47    2.87
  12   1 -10    0.80    4.06
  12  -1 -10    6.66    4.70
  13   1  10    0.81    3.43
  13   1 -10    0.70    3.51
  13  -1 -10    3.07    4.60
  13  -1  10    2.31    3.85
  13   1  10   -0.05    4.72
  14   1  10   17.99    7.76
  14  -1  10   15.97    7.23
  14   1 -10    7.44    5.49
  14  -1 -10    9.62    6.05
  14  -1  10    1.86    3.53
  14   1  10    8.52    4.98
 -14  -1  10   16.77    7.42
 -14   1  10   20.56    9.75
  15  -1  10   38.05   10.78
  15   1 -10   20.71    7.52
  15  -1 -10   31.98    9.39
  15  -1  10   17.75    5.63
  15   1  10   29.96    8.99
 -15  -1  10   28.57    8.30
 -15   1  10   32.03    8.22
  16  -1  10   30.05    9.44
  16   1 -10   28.44    7.84
  16  -1 -10   40.28    9.97
  16  -1  10   51.76    9.85
  16   1  10   45.73    8.78
 -16   1  10   52.09    9.73
 -16  -1  10   34.56    7.10
  17   1 -10   24.30    5.76
  17  -1 -10   26.40    5.96
  17   1  10    7.60    4.51
 -17  -1  10   28.79    5.97
   0  -2 -10 2231.09   78.70
   0   2 -10 2193.69   69.80
   1  -2 -10   56.71   12.67
  -1  -2 -10   66.24   13.67
   1   2 -10   53.70   10.50
  -1   2 -10   58.80   11.90
   2  -2 -10 1212.74   46.30
   2  -2 -10 1015.95   53.52
  -2  -2 -10 1074.00   57.83
   2   2 -10 1083.29   49.30
  -2   2 -10 1096.19   52.23
   2  -2  10 1086.38   50.97
   3  -2  10    3.87    2.95
  -3  -2 -10    0.47    1.26
   3  -2 -10    0.80    3.35
  -3  -2  10    1.13    4.13
   3  -2 -10    3.52    2.85
   3   2 -10   -1.00    3.46
  -3   2 -10    2.08    4.18
  -3  -2 -10    2.10    2.97
   3  -2  10    2.15    5.06
   4   2  10   75.74   24.46
   4  -2  10   40.28   11.93
  -4  -2 -10   47.59   11.34
  -4  -2  10   47.97    9.65
   4  -2 -10   43.63   10.71
   4   2 -10   44.17   10.60
   4  -2  10   54.74   11.78
   4  -2 -10   39.63    9.37
   5   2  10   13.94   13.24
   5  -2  10    5.95    4.50
  -5  -2 -10    1.80    3.61
   5  -2 -10    0.08    2.19
  -5  -2  10    2.19    4.31
   5  -2 -10    0.41    3.95
   5   2 -10    8.41    4.31
   6  -2  10   20.87   10.12
   6  -2 -10   18.57    8.93
   6  -2 -10   16.55    6.91
   6   2 -10   25.15    8.73
  -6  -2 -10   24.93   10.83
  -7  -2 -10   17.79    7.62
   7   2  10    6.03    6.61
   7  -2  10    8.82    6.01
   7  -2 -10    5.57    3.89
  -7  -2  10   11.58    8.49
   7  -2 -10    1.50    3.47
   7   2 -10    5.82    3.35
   8   2  10  505.04   44.71
   8  -2  10  508.17   51.27
   8  -2 -10  413.25   45.52
  -8  -2  10  404.81   44.67
   8  -2 -10  388.77   40.02
   8   2 -10  429.73   40.04
  -8  -2 -10  418.45   40.35
   9   2  10    6.10    5.17
   9  -2  10    6.42    9.20
   9  -2 -10    4.44    7.73
  -9  -2  10   -2.27    5.92
   9  -2 -10   -0.68    3.11
   9   2 -10    0.44    4.28
  10   2  10 1303.35   68.60
  10  -2 -10 1325.07   82.01
 -10  -2  10 1255.26   76.78
 -10   2  10 1032.40   70.32
  10   2  10 1148.19   74.97
  10  -2  10 1260.15   76.52
  10   2  10 1041.72   65.84
 -10  -2  10  983.88   66.25
  10  -2 -10 1276.91   77.92
  10   2 -10 1150.00   67.82
  10  -2  10 1407.32   79.04
  11   2  10   26.31   10.28
  11  -2  10   29.64   13.88
 -11  -2  10   15.64    9.02
  11   2  10   27.25   10.95
  11   2 -10   32.71   10.56
  11  -2 -10   21.79   10.00
  12   2  10  912.42   61.63
  12   2  10 1018.09   63.98
  12  -2  10  965.67   65.22
 -12  -2  10  955.28   60.81
  12   2 -10  982.37   59.43
  12  -2 -10  964.91   63.55
  13   2  10   -0.34    5.00
  13  -2  10   -0.67    3.92
 -13  -2  10   -0.77    5.35
  13   2 -10    1.65    2.58
  13  -2 -10   -2.91    5.01
  13   2  10   12.12    7.65
  14   2  10  490.63   39.44
  14  -2  10  509.95   41.45
  14  -2 -10  488.17   39.64
 -14  -2  10  445.04   36.36
 -14   2  10  438.71   37.29
  15  -2  10    1.54    2.40
  15  -2 -10   -4.04    5.26
  15   2  10   -1.98    2.24
 -15  -2  10    0.17    3.16
 -15   2  10   -2.09    3.24
  16  -2  10   54.50   11.10
  16  -2 -10   40.01   10.41
  16   2  10   53.80   10.58
 -16   2  10   46.22    9.44
 -16  -2  10   51.38    8.94
  17  -2 -10   -0.88    1.20
  17  -2 -10    1.69    1.86
  17   2  10   -0.82    2.10
 -17  -2  10    5.33    3.06
   0  -3 -10    4.10    7.13
   0   3 -10   -4.74    4.26
   1  -3 -10   18.33    5.38
   1  -3 -10   12.28    5.25
  -1  -3 -10   18.32    8.89
   1   3 -10   12.89    6.24
  -1   3 -10    8.06    2.91
   1  -3  10   12.96    6.00
  -1  -3 -10   14.51    8.59
  -2  -3 -10  387.41   35.32
  -2  -3 -10  476.81   33.29
   2  -3 -10  463.17   29.58
  -2  -3  10  380.12   26.74
   2  -3 -10  437.82   38.68
   2   3 -10  404.07   29.91
  -2   3 -10  398.45   31.68
   2  -3  10  437.12   32.78
  -3  -3 -10   23.80    7.64
   3  -3 -10   18.90    6.02
   3  -3 -10   17.98    8.72
   3   3 -10   22.55    7.51
  -3  -3  10   19.72    6.58
   3  -3  10   11.38    5.09
   3  -3  10   23.57    7.60
  -3  -3 -10   18.77    7.37
   4  -3  10 1084.45   59.19
  -4  -3 -10 1039.10   60.17
   4  -3 -10 1061.78   50.90
  -4  -3  10  997.66   46.45
   4  -3 -10  973.64   59.20
   4   3 -10 1097.37   52.25
   4  -3  10  981.14   51.33
   5  -3  10   42.42   13.70
  -5  -3  10   36.14    8.25
  -5  -3  10   35.41   11.18
   5  -3 -10   42.05   12.37
   5   3 -10   31.99    8.96
   5  -3  10   41.43   10.79
   5  -3 -10   45.21   11.46
  -5  -3 -10   39.53   12.52
  -6  -3 -10 1572.77   78.39
   6  -3 -10 1362.03   71.39
  -6  -3  10 1394.84   60.77
   6   3  10 1524.20   91.19
  -6  -3  10 1351.21   77.32
   6  -3 -10 1467.98   74.16
   6   3 -10 1547.08   68.50
   6  -3  10 1249.23   79.75
   7  -3  10   22.73   10.02
   7  -3 -10   25.30   10.64
  -7  -3  10   31.79   12.50
   7  -3 -10   32.64   11.38
  -7  -3 -10   27.36   10.50
   7   3 -10   26.56    9.76
   7   3  10   20.77   10.83
   8   3  10 1293.81   73.04
  -8  -3 -10 1191.57   71.01
   8  -3 -10 1092.92   75.90
  -8  -3  10 1090.06   70.37
   8  -3  10 1215.47   83.17
   8  -3 -10 1143.18   69.17
   8   3 -10 1163.25   63.19
   9  -3 -10   10.34    8.83
   9  -3  10    2.82    3.50
  -9  -3  10   -0.60    4.53
   9  -3 -10   10.15    6.88
   9   3  10    4.61    2.67
  10   3  10   23.92    9.29
  10  -3  10    8.02    4.93
  10  -3 -10   24.17   11.60
 -10  -3  10   22.69    9.89
  10   3  10   28.50   13.17
  10  -3  10   27.93   11.52
 -10  -3  10    4.37    4.74
  10  -3  10   20.55    8.61
  10   3  10   15.60    8.80
  10  -3 -10   13.09    7.46
  10  -3 -10   12.12    9.18
  11  -3  10    8.61    4.80
 -11  -3  10   -2.06    2.70
  11  -3  10   -6.63    6.10
  11   3  10   -1.41    2.98
  11  -3 -10   -2.07    5.17
  12  -3  10   64.62   16.52
 -12  -3  10   55.14   14.62
  12   3  10   60.44   15.45
  12  -3 -10   78.70   18.64
  13  -3  10   50.23   12.63
 -13  -3  10   43.74   12.23
  13  -3 -10   29.79   11.49
  13   3  10   36.74   10.18
  14  -3  10  211.63   25.84
  14  -3 -10  221.77   27.04
 -14  -3  10  188.98   23.26
 -14   3  10  202.18   24.15
  14   3  10  210.59   25.47
  15  -3  10   28.45    9.76
  15  -3 -10   23.73    8.32
  15   3  10   19.59    6.58
 -15  -3  10   29.67    7.73
 -15   3  10   21.31    7.46
  16   3  10  388.03   27.15
  16   3 -10  326.94   24.48
  16  -3  10  355.67   27.88
  16  -3 -10  285.16   24.00
 -16  -3  10  314.51   23.53
   0  -4 -10  581.44   49.94
   0  -4 -10  545.37   36.85
   0   4 -10  555.24   36.77
   1  -4 -10  207.25   31.81
  -1  -4 -10  234.89   30.16
  -1  -4 -10  227.90   23.32
   1  -4 -10  271.14   22.18
   1  -4 -10  276.21   37.70
   1   4 -10  208.37   22.13
  -1   4 -10  227.07   23.85
   1  -4  10  242.70   23.76
  -2  -4 -10  431.07   39.62
  -2  -4 -10  472.88   34.44
   2  -4 -10  476.26   30.51
  -2  -4  10  406.55   28.88
   2  -4 -10  451.80   52.50
   2  -4 -10  482.59   48.43
   2   4 -10  456.91   32.23
   2  -4  10  441.96   32.91
   3  -4  10  143.92   18.12
  -3  -4 -10  137.05   18.71
   3  -4 -10  126.63   16.62
  -3  -4  10  119.24   16.67
   3  -4 -10  148.93   25.83
   3   4 -10  112.92   16.23
   3  -4  10  118.22   17.53
  -3  -4 -10   94.74   18.16
   4  -4  10   10.20    6.19
  -4  -4 -10   16.01    6.95
   4  -4 -10   13.70    6.84
  -4  -4  10   14.45    5.39
  -4  -4  10   19.87    8.57
  -4  -4 -10   14.35    7.94
   4  -4 -10   18.11    8.29
   4   4 -10   16.53    6.87
   4  -4  10    1.33    5.10
   5  -4  10   31.11   10.85
   5  -4 -10   25.84    8.50
  -5  -4  10   31.72    9.69
  -5  -4  10   35.16   13.56
   5  -4 -10   21.70    9.11
   5   4 -10   24.17    8.10
  -5  -4 -10   30.42   11.01
   5  -4  10   34.47   10.13
   6  -4  10    1.81    3.76
   6  -4 -10    0.55    4.59
  -6  -4  10    5.45    4.47
  -6  -4  10   -2.42    6.02
   6  -4 -10   13.27    8.84
   6   4 -10    7.77    3.57
   6  -4  10    0.61    5.54
  -6  -4 -10    2.63    4.59
   7  -4  10   16.05    9.08
  -7  -4 -10   15.65    7.38
   7  -4 -10   16.96    8.27
  -7  -4  10   17.30    7.06
  -7  -4  10   21.41    9.59
   7  -4 -10   14.93    5.57
   7   4 -10   15.09    7.28
   8   4  10   10.66    8.63
   8  -4  10    7.83    7.06
  -8  -4 -10    5.09    4.06
   8  -4 -10    4.74    7.18
  -8  -4  10   10.15    3.40
  -8  -4  10    9.75    7.22
   8  -4 -10    8.66    6.75
   9   4  10   69.88   17.49
   9  -4  10   56.29   17.68
  -9  -4 -10   50.29   12.82
   9  -4 -10   51.58   17.67
  -9  -4  10   59.92   17.18
   9  -4  10   63.15   17.03
  -9  -4  10   53.47   14.67
   9   4  10   60.10   15.93
   9  -4 -10   56.07   16.56
  10   4  10  107.91   19.88
  10  -4  10  118.64   25.47
  10  -4 -10  112.68   24.97
 -10  -4  10  103.93   22.05
  10  -4  10  110.94   22.16
 -10  -4  10   85.48   21.51
  10  -4  10   92.60   20.22
  10   4  10  105.63   21.38
  10  -4 -10  110.72   23.78
  10  -4 -10   91.22   18.42
  11  -4  10    0.74    7.03
 -11  -4  10    1.58    5.79
  11  -4  10    3.86    3.35
  11   4  10    5.24    6.47
  11  -4 -10    0.44    5.75
  12  -4  10  159.89   26.18
 -12  -4  10  136.87   23.48
  12   4  10  163.69   24.92
  12  -4 -10  163.60   26.90
  12  -4  10  171.81   26.50
  13  -4  10   27.49   10.81
 -13  -4  10   16.84    8.87
  13  -4  10   27.47    9.46
  13  -4 -10   10.14    9.00
  13   4  10   17.93    7.93
 -13  -4  10   21.56   10.70
  14  -4  10  101.51   17.26
  14  -4 -10  112.09   19.10
  14   4  10  111.20   18.24
 -14  -4  10  103.53   17.68
  15  -4  10    6.91    4.52
  15  -4 -10    1.17    3.56
  15   4  10   -1.65    3.54
 -15  -4  10   -5.92    4.96
  16   4 -10    9.11    4.50
  16  -4  10    1.90    2.20
  16  -4 -10    3.21    4.10
  16   4  10    3.48    2.77
 -16  -4  10    3.35    2.49
   0  -5 -10    5.58    2.97
   0   5 -10    3.42    3.92
   0  -5  10    2.11    2.06
   0  -5 -10    4.42    4.05
   1  -5 -10   24.28   12.14
  -1  -5 -10   36.65   12.69
   1  -5 -10   25.50    8.95
  -1  -5 -10   29.40    8.68
  -1  -5  10   25.41    6.69
   1   5 -10   36.13    8.72
  -1   5 -10   35.65    9.29
   1  -5  10   23.33    7.54
  -2  -5 -10  511.49   46.07
   2  -5 -10  491.15   40.41
  -2  -5 -10  517.38   37.09
   2  -5 -10  544.09   34.40
  -2  -5  10  511.41   32.89
   2   5 -10  574.52   36.68
   2  -5  10  515.86   36.10
   3  -5  10    3.99    3.36
   3  -5 -10    2.07    4.30
   3  -5 -10    2.41    1.96
  -3  -5  10   -1.84    4.10
   3  -5 -10   13.90   13.12
   3   5 -10    0.87    2.79
   3  -5  10   -0.79    3.60
  -3  -5 -10   -0.54    1.99
  -3  -5 -10   11.67    8.45
   4  -5  10 1173.00   59.42
  -4  -5 -10  975.28   61.96
   4  -5 -10 1044.47   71.24
  -4  -5 -10 1234.27   58.19
   4  -5 -10 1017.27   51.22
  -4  -5  10 1024.19   51.78
   4  -5 -10 1241.38   82.27
   4   5 -10 1109.36   52.07
   4  -5  10  999.33   53.34
   5  -5  10   -1.66    5.19
  -5  -5 -10    3.97    6.66
   5  -5 -10   -2.32    4.15
   5  -5 -10    0.87    2.18
  -5  -5  10    5.25    2.93
  -5  -5  10    1.49    8.21
   5  -5 -10    5.91    5.27
   5   5 -10    7.82    3.82
   5  -5  10    2.98    4.13
   6  -5  10 1737.09   92.35
  -6  -5 -10 1634.41   82.60
   6  -5 -10 1471.23   99.66
   6  -5 -10 1617.28   77.82
  -6  -5  10 1748.50   73.91
  -6  -5  10 1988.35   96.95
   6  -5 -10 1855.80   92.17
   6   5 -10 1741.99   70.42
   6  -5  10 1662.84   74.08
   7  -5 -10    8.23    9.17
   7  -5  10   10.11   11.34
  -7  -5 -10    3.31    6.18
   7  -5 -10    3.13    4.88
  -7  -5  10   13.88    8.44
  -7  -5  10    0.23    4.45
   7  -5 -10    4.53    6.06
   7  -5  10    0.03    4.04
   8   5  10 1205.89   76.21
   8  -5  10 1204.61   88.83
  -8  -5 -10 1482.55   80.22
   8  -5 -10 1209.90   80.95
  -8  -5  10 1246.93   67.23
  -8  -5  10 1556.93   81.29
   9   5  10   -1.59    6.00
   9  -5  10    8.17    8.68
  -9  -5 -10    2.86    5.50
  -9  -5 -10   -1.61    3.17
   9  -5 -10    2.41    2.74
  -9  -5  10    5.05    6.69
   9  -5  10    4.35    5.31
  -9  -5  10   -1.06    4.40
   9  -5  10    0.02    4.75
   9   5  10    4.96    6.98
   9  -5 -10   -2.20    6.63
   9  -5 -10   -5.66    6.50
 -10  -5 -10  146.50   26.15
  10  -5  10  107.21   23.99
 -10  -5  10   84.93   20.23
  10  -5  10  110.91   24.28
  10   5  10   81.04   18.28
  10  -5 -10  123.43   23.82
  10  -5 -10   86.93   18.38
  11  -5  10    5.77    8.86
 -11  -5  10    0.80    4.96
  11  -5  10   -1.11    4.93
  11   5  10   -1.05    3.31
  11  -5 -10    0.65    3.91
  12  -5  10   34.12   12.29
 -12  -5  10   38.61   13.25
  12  -5  10   28.22   10.61
  12   5  10   26.68   10.21
  12  -5 -10   22.90    7.83
  13  -5  10   13.96    6.63
 -13  -5  10    8.27    4.04
  13  -5  10    0.71    2.22
  13   5  10    2.65    4.02
  13  -5 -10   10.52    8.13
 -13  -5  10   14.08    9.20
  14   5  10  227.90   25.57
 -14  -5  10  210.86   23.23
  14  -5  10  246.19   28.32
  14  -5 -10  277.74   29.44
  14  -5  10  259.95   25.95
 -14  -5  10  276.80   27.32
  15  -5  10   -4.02    2.13
  15   5  10   -0.34    2.54
  15  -5 -10   -8.63    4.77
 -15  -5  10    0.19    2.83
  16   5  10  568.62   30.65
  16  -5  10  566.32   31.88
  16  -5 -10  566.67   32.11
 -16  -5  10  565.61   28.59
   0   6 -10   16.24    6.93
   0  -6 -10   16.96   13.38
   0  -6 -10    6.43    3.95
   0  -6  10    3.94    3.89
  -1  -6 -10   11.88   10.52
   1  -6 -10    5.75    5.43
  -1  -6 -10   10.84    5.85
  -1  -6  10   11.78    5.96
   1  -6 -10   -4.53   13.82
   1   6 -10    8.73    5.13
  -1   6 -10    7.10    2.14
   1  -6  10   16.18    6.08
  -2  -6 -10   13.04    7.09
   2  -6 -10    9.57    7.61
  -2  -6 -10   12.81    6.75
  -2  -6  10   11.49    4.58
   2   6 -10   17.81    7.02
   2  -6  10   13.09    6.83
  -3  -6 -10   23.39    8.50
   3  -6 -10    7.72    3.70
  -3  -6  10   12.07    5.71
   3  -6 -10   22.54   15.41
   3   6 -10   18.60    6.28
   3  -6 -10   28.36   12.59
   3  -6  10   18.36    7.36
  -3  -6 -10    9.60    6.38
  -4  -6 -10    5.58    3.64
   4  -6 -10    3.79    3.56
   4  -6 -10    4.12    4.26
  -4  -6  10   -2.99    5.01
   4  -6 -10   -1.60   11.79
   4   6 -10    0.35    1.86
   4  -6  10    2.64    4.30
  -5  -6 -10   -0.21    4.70
   5  -6 -10   -1.93    6.80
   5  -6 -10    1.64    2.49
  -5  -6  10   -6.13    5.87
   5  -6 -10    5.77    4.67
   5  -6  10    0.48    2.11
  -6  -6 -10   10.99    7.11
   6  -6 -10    5.92    5.25
  -6  -6  10    6.34    4.03
  -6  -6  10   11.64    7.65
   6  -6 -10   14.36    8.72
   6  -6  10    9.93    2.27
   6  -6 -10   14.43    9.19
  -7  -6 -10   17.32    8.21
  -7  -6  10   18.54    9.33
  -7  -6  10   -0.77    4.00
   7  -6  10   14.64    7.62
   7  -6 -10   19.52   10.83
  -8  -6 -10   43.78   13.79
  -8  -6 -10   40.86   12.39
  -8  -6 -10   40.72   12.89
   8  -6 -10   29.01   12.09
  -8  -6  10   50.83   14.39
  -8  -6  10   43.78   12.93
   8  -6  10   29.70   11.87
  -8  -6  10   50.61   17.69
   8  -6  10   54.88   13.19
  -8  -6  10   15.74    9.21
   8  -6  10   50.29   15.41
   8   6  10   47.27   14.33
   8  -6 -10   57.70   15.70
   8  -6 -10   50.98   13.17
   9   6  10   83.93   20.88
  -9  -6 -10   72.69   18.29
  -9  -6 -10   65.58   15.45
  -9  -6 -10   69.70   16.17
   9  -6 -10   66.50   19.34
  -9  -6  10   47.73   12.57
  -9  -6  10   67.64   16.41
   9  -6  10   62.99   16.56
  -9  -6  10   68.12   18.96
   9  -6  10   70.41   17.46
   9   6  10   63.59   16.66
   9  -6 -10   77.35   19.57
   9  -6 -10   78.64   17.21
 -10  -6 -10   70.39   17.46
  10  -6  10   88.97   19.46
 -10  -6  10   43.41   15.80
  10  -6  10   73.21   18.70
  10   6  10   52.25   15.72
  10  -6 -10   49.26   15.44
  10  -6 -10   42.21   13.36
 -11  -6 -10   49.99   13.80
  11  -6  10   37.94   13.13
 -11  -6  10   44.12   14.45
  11  -6  10   24.16   10.62
  11   6  10   16.67    9.09
  11  -6 -10   36.97   13.74
  11  -6 -10   30.59   10.61
 -12  -6 -10   14.48    7.83
  12  -6  10   17.09    8.44
 -12  -6  10   17.42    9.46
  12  -6  10   19.47    9.61
  12   6  10   10.83    7.59
  12  -6 -10   12.46    8.67
  12  -6 -10   15.84    6.62
 -12  -6  10   20.50    8.46
  13  -6  10   41.39   12.00
 -13  -6  10   43.06   12.10
  13  -6  10   22.72    7.56
  13   6  10   28.99    8.47
  13  -6 -10   18.34    8.45
 -13  -6  10   37.71   11.67
 -14  -6  10   10.47    5.60
  14  -6  10   19.44    7.13
  14   6  10   18.00    7.33
  14  -6  10   11.97    4.58
  14  -6 -10   18.32    8.40
 -14  -6  10   18.31    6.94
 -15  -6  10    1.47    2.31
  15  -6  10    3.12    2.52
  15   6  10   -3.96    1.97
  15  -6 -10   -2.72    2.27
  15  -6  10    4.49    4.16
 -15  -6  10    5.83    3.51
  16  -6  10    1.09    2.84
  16  -6  10   -3.83    3.26
  16   6  10   -1.29    1.46
  16  -6 -10   -0.47    1.50
   0   7 -10    0.14    4.25
   0  -7 -10    9.41    4.98
   0  -7  10   -1.83    3.29
   0  -7 -10   -3.42    7.32
  -1  -7 -10   10.11    8.55
   1  -7 -10    4.44    5.11
  -1  -7 -10   15.78    6.47
  -1  -7  10   20.36    6.96
   1   7 -10   15.48    5.44
  -1   7 -10   13.74    7.17
   1  -7  10   16.85    8.25
  -2  -7 -10  105.29   31.38
   2  -7 -10  125.62   22.62
  -2  -7 -10  111.28   18.73
  -2  -7  10  117.52   16.82
   2   7 -10  134.09   18.41
   2  -7  10  132.04   19.11
  -2  -7 -10  142.60   29.70
  -3  -7 -10    4.07    5.34
  -3  -7 -10   -1.35   10.57
   3  -7 -10    2.28    7.72
  -3  -7  10    1.89    2.85
   3   7 -10    5.42    3.54
   3  -7  10    0.23    2.57
  -4  -7 -10  503.27   47.96
  -4  -7 -10  994.41   92.30
   4  -7 -10  468.36   53.83
  -4  -7  10  571.76   41.38
   4  -7 -10  882.06   91.34
   4  -7  10  533.60   40.57
  -4   7  10  652.73   38.27
  -5  -7 -10   10.83    8.92
  -5  -7 -10   -6.43    7.81
   5  -7 -10    9.03    7.50
   5  -7 -10   -0.57    6.08
  -5  -7  10    1.98    5.58
   5  -7  10    6.06    6.12
  -6  -7 -10  897.09   62.56
   6  -7 -10  860.69   58.23
  -6  -7  10  949.29   59.36
   6  -7  10  814.00   54.27
  -7  -7 -10   37.99   12.45
  -7  -7 -10   47.42   15.00
  -7  -7 -10   40.30   12.71
   7  -7 -10   34.37   12.89
  -7  -7  10   25.35   10.63
  -7  -7  10   56.02   15.58
  -7  -7  10   42.16   14.56
   7  -7  10   19.43    8.11
   7  -7  10   54.76   15.98
   7  -7 -10   47.26   13.54
  -8  -7  10  749.95   60.51
  -8  -7 -10  886.70   64.94
   8   7  10  849.95   61.56
  -8  -7 -10  934.47   63.64
  -8  -7 -10  943.92   62.11
   8  -7 -10  668.76   61.05
   8  -7 -10  762.67   51.86
  -8  -7  10  732.37   53.71
  -8  -7  10 1053.44   65.35
  -8  -7  10  981.76   75.38
   8  -7  10  713.83   56.61
   8  -7  10  880.72   65.68
   8  -7 -10  854.82   57.60
  -9  -7 -10   10.99   10.51
   9  -7  10   23.00    9.34
  -9  -7  10   19.95   10.00
   9   7  10    7.99    4.67
   9  -7  10   15.85   10.85
   9  -7 -10   18.42   12.21
   9  -7 -10    8.25    7.32
 -10  -7 -10   49.70   15.17
  10  -7  10   46.55   15.76
 -10  -7  10   37.82   15.73
  10   7  10   57.38   15.47
  10  -7  10   44.33   15.81
  10  -7 -10   41.74   15.13
  10  -7 -10   38.76   11.77
 -11  -7 -10   11.32    9.35
  11  -7  10   34.21   12.76
 -11  -7  10   25.47   10.18
  11   7  10   15.01    7.37
  11  -7  10   38.19   13.65
  11  -7 -10   23.17   10.92
  11  -7 -10   26.66   11.18
 -12  -7 -10    4.70    3.12
  12  -7  10    2.30    2.99
 -12  -7  10    6.62    5.15
  12   7  10   -1.45    5.16
  12  -7  10    6.52    5.95
  12  -7 -10    3.19    4.00
  12  -7 -10   11.48    7.98
 -13  -7 -10    8.76    7.46
 -13  -7  10   10.47    6.63
  13  -7  10   25.80   10.09
 -13  -7  10   11.94    7.34
  13   7  10    3.15    3.38
  13  -7  10   12.04    6.34
  13  -7 -10   11.65    6.53
 -13  -7  10    7.52    6.26
  13  -7 -10    7.19    4.98
  14   7  10   93.83   17.05
 -14  -7  10  140.32   17.51
  14  -7  10  127.81   18.45
  14  -7 -10  150.84   18.92
  14  -7  10  105.87   16.18
 -14  -7  10  130.88   15.88
 -15  -7  10   11.92    4.51
  15  -7  10   14.83    6.60
  15   7  10   10.03    4.79
  15  -7 -10   15.33    5.50
  15  -7  10    8.66    4.06
 -15  -7  10   23.47    6.00
   0  -8 -10  612.91   46.78
   0   8 -10  740.10   45.87
   0  -8  10  700.75   45.97
  -1  -8 -10    8.43    8.13
   1  -8 -10    8.33    7.53
  -1  -8 -10    2.06    3.64
  -1  -8  10   -0.72    4.05
   1   8 -10    4.38    3.77
  -1   8 -10    2.54    3.91
   1  -8  10    1.48    2.41
  -2  -8 -10  484.21   61.55
   2  -8 -10  549.79   49.94
  -2  -8  10  542.71   37.84
   2   8 -10  586.55   39.33
   2  -8  10  575.58   41.93
  -3  -8 -10   12.52   11.00
  -3  -8 -10    5.92    7.23
   3  -8 -10   20.89   13.74
  -3  -8  10    1.87    2.49
   3  -8  10   -0.22    2.63
  -4  -8 -10  231.51   33.39
  -4  -8 -10  299.21   51.78
   4  -8 -10  208.64   38.22
  -4  -8  10  184.16   24.39
   4  -8 -10  277.84   41.42
   4  -8  10  182.06   24.84
  -4   8  10  234.50   23.63
  -5  -8 -10    1.72    2.81
  -5  -8 -10    9.34   12.86
   5  -8 -10   -0.76   11.48
  -5  -8  10    7.64    8.17
  -5  -8 -10   -2.61    4.41
   5  -8  10    2.18    4.91
  -5   8  10   -5.07    5.88
  -6  -8  10    2.13    3.03
   6  -8  10   17.82   11.81
  -6  -8 -10    9.47    6.10
  -6  -8 -10   15.89    9.45
  -6  -8 -10   15.07    8.58
  -6  -8  10    5.33    4.20
   6  -8 -10    9.94    3.15
  -6  -8  10   -5.31    6.89
   6  -8  10   10.76    8.68
   6  -8  10    6.96    5.93
   6  -8 -10    4.29    3.74
  -7  -8  10    2.74    6.91
   7  -8  10    5.28    4.58
  -7  -8 -10   -0.35    4.27
  -7  -8 -10    3.77    3.26
  -7  -8 -10    1.32    3.61
   7  -8 -10   -5.76    5.72
  -7  -8  10   -3.53    7.04
  -7  -8  10   -2.46    5.20
   7  -8  10   10.93    6.19
   7   8  10   -2.33    4.89
   7  -8  10    3.26    4.39
   7  -8 -10    5.86    6.87
  -8  -8  10  281.78   34.68
  -8  -8 -10  276.95   36.10
   8   8  10  241.12   32.39
   8  -8 -10  237.09   29.68
  -8  -8  10  220.40   35.86
   8  -8  10  253.43   34.98
   8  -8 -10  268.27   32.64
  -9  -8 -10   28.71   10.80
  -9  -8  10   28.25   12.03
   9   8  10   10.40    6.40
   9  -8  10   12.68    8.82
   9  -8 -10   20.91    9.78
 -10  -8 -10  543.96   48.00
  10   8  10  340.79   42.85
  10  -8  10  464.81   45.83
 -10  -8  10  535.92   50.95
  10  -8  10  401.90   45.81
  10  -8 -10  459.83   45.88
  10  -8 -10  444.68   44.39
 -11  -8 -10   41.42   14.54
  11  -8  10   52.74   13.54
 -11  -8  10   40.61   12.62
  11   8  10   40.61   12.51
  11  -8  10   22.31    9.83
  11  -8 -10   39.51   12.83
  11  -8 -10   46.66   14.37
  12   8  10  263.98   28.75
  12  -8  10  292.66   33.97
 -12  -8  10  328.35   33.90
  12  -8 -10  321.60   31.18
  12  -8  10  204.92   30.66
  12  -8 -10  277.33   31.80
 -12  -8 -10  332.46   32.28
 -13  -8 -10    8.55    5.10
 -13  -8  10   15.26    7.11
  13  -8  10   11.32    7.43
  13   8  10    7.03    6.01
  13  -8 -10   12.41    5.94
  13  -8  10   16.94    6.96
  13  -8 -10   13.72    7.78
  14   8  10  182.23   19.57
 -14  -8  10  237.29   21.83
  14  -8  10  203.44   23.69
  14  -8 -10  238.94   22.53
  14  -8  10  158.34   18.74
  14  -8 -10  234.44   21.46
  15  -8  10    6.83    2.33
   0   9 -10   -1.42    2.81
   0  -9 -10    2.52   20.45
   0  -9  10    9.09    5.34
  -1  -9 -10  -11.90   16.13
  -1  -9  10    0.23    4.24
  -1   9 -10   -6.19    4.94
   1  -9 -10   -3.91   16.22
  -1  -9 -10    9.99   23.26
   1  -9  10    6.32    4.67
  -2  -9 -10  156.24   35.36
   2  -9 -10   94.12   21.92
  -2  -9  10   74.18   14.77
   2  -9 -10  113.45   40.61
  -2  -9 -10  113.03   28.09
   2  -9  10   80.91   15.94
  -3  -9 -10    7.25    4.25
  -3  -9 -10    1.82   12.60
   3  -9 -10    0.44   10.61
  -3  -9  10   15.29    8.03
   3  -9 -10   20.88   15.72
  -3  -9 -10   15.18    9.21
   3  -9  10   12.13    5.57
  -4  -9  10  160.15   32.90
   4  -9  10  226.03   43.93
  -4  -9 -10  215.67   29.31
  -4  -9 -10  199.23   32.78
  -4  -9 -10  201.14   42.29
   4  -9 -10  136.72   31.36
  -4  -9  10  159.18   23.47
   4  -9 -10  239.16   38.73
  -4  -9 -10  207.77   30.16
   4  -9  10  150.10   23.00
  -4   9  10  206.61   23.55
   4  -9 -10  194.17   26.00
  -5  -9  10    1.55    2.41
   5  -9  10  -12.42   13.20
  -5  -9 -10   -2.19    5.83
  -5  -9 -10    9.29    7.28
  -5  -9 -10    8.66    3.63
   5  -9 -10  -11.50   10.47
  -5  -9  10   -0.72    3.94
   5  -9 -10    7.49    6.91
  -5  -9 -10    3.49    3.41
   5  -9  10    9.00    5.29
   5  -9  10    1.76    3.78
  -5   9  10    3.85    1.59
   5  -9 -10    3.96    4.49
  -6  -9  10  162.32   27.10
   6  -9  10  216.88   44.30
  -6  -9 -10   95.22   24.79
  -6  -9 -10  211.75   31.49
  -6  -9 -10  265.92   40.70
   6  -9 -10  186.89   24.89
  -6  -9  10  166.19   25.28
  -6  -9  10  193.02   31.99
   6  -9  10  117.08   21.95
  -6   9  10  188.96   23.89
   6  -9  10  192.44   28.60
   6  -9 -10  220.64   29.45
  -7  -9  10   78.67   18.11
   7  -9  10   91.44   28.31
  -7  -9 -10   71.25   17.42
   7  -9 -10   77.81   16.55
  -7  -9  10   60.92   17.70
   7  -9  10   79.17   18.88
   7  -9 -10   71.40   17.32
  -8  -9  10  228.76   32.01
  -8  -9 -10  261.38   34.60
   8  -9 -10  199.07   26.94
  -8  -9  10  253.40   35.77
   8  -9  10  229.34   33.51
   8  -9 -10  269.41   33.66
   8  -9  10  304.71   44.23
  -9  -9  10   -3.74    4.41
  -9  -9 -10    5.41    6.41
  -9  -9  10    2.32    4.17
   9  -9  10   13.68    9.54
   9  -9 -10    2.19    4.83
 -10  -9 -10   31.73   11.37
 -10  -9  10   20.72    9.07
  10  -9  10   28.49   12.19
  10  -9 -10   28.62   11.78
  10  -9 -10   18.11   10.81
 -11  -9 -10    4.57    6.61
 -11  -9  10   -5.12    7.36
  11  -9  10   12.92    6.79
  11  -9 -10   -0.77    5.73
 -12  -9 -10    2.98    4.61
 -12  -9  10   -0.73    5.51
  12  -9  10   -0.69    4.82
  12  -9 -10    5.30    6.56
 -13  -9 -10    7.49    6.75
 -13  -9  10   17.52    5.98
  13  -9  10    4.60    5.41
  13  -9  10    7.58    5.02
  13  -9 -10   24.93    8.40
 -14  -9  10   26.06    6.70
  14  -9  10    2.52    2.07
 -14  -9  10   39.98    7.36
 -14  -9 -10   17.84    5.44
  14  -9  10   23.95    7.09
  14  -9  10   15.61    6.41
  14  -9 -10   33.17    7.53
   0 -10  10 1013.51  127.28
   0 -10  10 1330.98  124.21
   0 -10 -10 1296.98   63.90
   0 -10  10 1186.17   62.41
   0 -10  10 1024.33   79.46
  -1 -10  10   15.37   12.04
  -1 -10  10   11.34    8.88
   1 -10  10   21.67   13.35
   1 -10  10   31.50   22.49
   1 -10 -10   27.19    9.07
  -1 -10 -10   33.01   10.79
  -1  10 -10   25.64    7.97
   1 -10 -10   12.72   17.16
  -1 -10 -10   23.48   19.11
   1 -10  10   18.48    7.06
   1 -10 -10   16.35    7.72
  -2 -10  10 1179.85  110.56
  -2 -10 -10  952.23   59.52
   2 -10 -10 1004.91   56.30
  -2 -10 -10  938.46   55.20
  -2 -10  10  864.30   49.91
  -2  10 -10  895.04   53.78
   2 -10 -10 1250.56  129.95
  -2 -10 -10 1119.28   91.20
   2 -10  10  871.42   53.54
   2 -10 -10  942.09   55.93
  -2 -10  10  794.44   65.54
   2 -10  10  829.64   79.87
  -3 -10  10    6.06    7.81
   3 -10  10   44.82   20.25
  -3 -10 -10   15.58    8.21
  -3 -10 -10   24.20   12.73
  -3 -10 -10   19.90   11.11
   3 -10 -10   24.30    8.53
  -3 -10 -10   22.68   10.26
  -3 -10  10   13.74    7.19
   3 -10 -10   -3.85   10.89
  -3 -10 -10   30.56   16.15
   3 -10  10   18.40   10.12
   3 -10 -10   12.63    3.71
  -4 -10  10  143.42   29.09
   4 -10  10  168.95   41.60
  -4 -10 -10  123.35   23.09
  -4 -10 -10  199.43   34.06
  -4 -10 -10  116.37   32.55
   4 -10 -10  148.44   21.58
  -4 -10  10  135.59   22.03
  -4 -10 -10  128.16   21.82
   4 -10 -10  189.18   35.34
  -4 -10 -10  136.60   24.69
   4 -10  10  135.03   21.23
   4 -10  10  152.31   22.69
  -4  10  10  136.21   19.83
   4 -10 -10  154.81   23.14
  -5 -10  10   48.91   15.69
   5 -10  10   75.88   27.97
  -5 -10 -10   50.50   15.75
   5 -10 -10   37.61   11.43
   5 -10  10   35.60   10.22
   5 -10 -10   54.14   14.13
  -6 -10  10    4.52    3.97
   6 -10  10   -3.81    8.19
  -6 -10 -10    9.68    6.92
  -6 -10  10   13.82   12.59
   6 -10 -10    5.13    4.69
   6 -10  10    6.73    4.71
   6 -10 -10    6.00    3.98
  -7 -10  10    3.16    2.31
   7 -10  10   14.24   12.40
  -7 -10 -10    1.43    5.17
   7 -10 -10   -0.16    4.39
  -7 -10  10    0.21    9.79
   7 -10  10   -8.98    7.86
   7 -10 -10    2.78    3.20
  -8 -10  10  312.75   36.00
  -8 -10 -10  278.42   40.51
  -8 -10  10  431.36   44.67
   8 -10  10  321.03   38.84
   8 -10 -10  358.79   38.83
   8 -10  10  473.23   55.99
  -9 -10  10   -9.25    9.08
  -9 -10 -10   -4.34    4.24
  -9 -10  10  -12.25    9.22
   9 -10  10  -10.60   11.10
   9 -10 -10    3.76    4.45
 -10 -10 -10 1007.69   62.14
  10 -10  10  694.77   52.50
 -10 -10  10  960.47   59.66
  10 -10  10  791.65   60.25
  10 -10 -10  857.51   60.38
 -11 -10 -10   -3.50    5.99
 -11 -10  10   11.41    7.92
  11 -10  10   -4.87    6.47
 -11 -10  10   10.91    6.46
  11 -10  10   14.23    9.22
  11 -10 -10   13.19    7.61
 -12 -10 -10  765.31   48.75
 -12 -10  10  882.32   47.23
  12 -10  10  721.88   47.30
  12 -10  10  725.96   47.06
  12 -10 -10  870.31   52.86
 -13 -10 -10    4.41    3.39
 -13 -10  10   12.16    5.61
  13 -10  10    0.05    2.57
  13 -10  10   10.50    6.61
  13 -10 -10   -1.53    2.24
   0 -11  10  -16.74   12.05
   0 -11  10  -18.65   21.25
   0 -11 -10    2.88    5.39
   0 -11 -10   -0.74    2.36
  -1 -11  10   -1.22   10.86
  -1 -11  10    4.91    6.95
   1 -11  10   -6.49    4.91
   1 -11  10   -7.08   25.69
   1 -11 -10    4.81    5.09
  -1 -11 -10    4.26    6.28
   1 -11 -10   -0.12    2.88
  -2 -11  10    6.77    9.04
  -2 -11  10  -16.89   18.49
   2 -11  10   -6.78   15.28
   2 -11 -10   -4.40    4.01
  -2 -11 -10   -1.22    2.56
   2 -11 -10    0.79    4.13
  -3 -11  10   11.75   14.40
   3 -11  10   21.55   17.88
  -3 -11 -10   23.41    8.67
   3 -11 -10   28.43   10.15
  -3 -11 -10   22.11    8.47
   3 -11 -10   21.20    8.69
  -4 -11  10   -0.98    7.58
   4 -11  10  -13.15   14.75
  -4 -11 -10   -5.69    8.62
   4 -11 -10    8.51    6.19
  -4 -11 -10    8.78    6.18
   4 -11 -10    4.66    5.65
  -5 -11  10   -0.31    5.47
   5 -11  10   23.04   19.60
  -5 -11  10   14.49   10.17
  -5 -11 -10    2.03    5.24
   5 -11 -10   -0.17    2.19
  -5 -11 -10    7.10    6.89
   5 -11  10    0.81    2.21
   5 -11 -10   14.63    7.12
  -6 -11  10    2.37    2.77
   6 -11  10   -9.47   14.94
  -6 -11  10   -2.26    6.05
  -6 -11 -10    1.59    6.20
   6 -11 -10    5.32    2.00
   6 -11  10    1.33    3.91
   6 -11 -10    5.12    5.76
  -7 -11  10   28.47   13.46
   7 -11  10   80.65   25.33
  -7 -11  10   58.95   16.95
  -7 -11 -10   36.48   14.73
   7 -11 -10   55.18   14.26
   7 -11  10   56.17   16.12
   7 -11 -10   59.54   16.07
  -8 -11  10   -0.74    4.19
   8 -11  10    4.26    7.66
  -8 -11 -10    0.36    4.04
  -8 -11  10    7.91    4.79
   8 -11  10    1.20    6.00
   8 -11 -10    4.71    2.66
  -9 -11  10   20.78    9.11
   9 -11  10    5.09    9.31
  -9 -11 -10   15.17    4.75
  -9 -11  10    4.44    4.10
  -9 -11  10    9.64    5.25
   9 -11  10    8.23    5.51
   9 -11 -10   14.05    8.61
   9 -11 -10   22.77    9.07
 -10 -11 -10    4.33    3.65
 -10 -11  10   -4.73    5.09
  10 -11  10   -2.23    5.20
  10 -11 -10   -0.18    4.68
 -11 -11 -10    7.18    6.10
 -11 -11  10    1.82    2.48
  11 -11  10    3.94    5.21
  11 -11 -10   -1.63    2.94
 -12 -11 -10   -0.77    2.65
 -12 -11  10   -1.50    1.98
  12 -11  10    4.89    3.72
  12 -11 -10    5.55    4.46
 -13 -11 -10    2.99    3.38
 -13 -11  10   -0.32    2.14
 -13 -11 -10    0.85    1.92
  13 -11  10    4.54    1.71
   0 -12  10 1010.76  113.09
   0 -12 -10  879.38   53.83
   0 -12 -10  881.51   56.23
   0 -12  10  829.35   70.54
  -1 -12  10   75.12   30.66
  -1 -12  10   65.66   18.56
   1 -12  10   52.11   17.79
  -1 -12  10   70.00   30.39
   1 -12 -10   70.47   14.91
  -1 -12 -10   48.17   12.48
   1 -12 -10   59.70   13.70
  -1 -12 -10   77.65   17.57
  -2 -12  10  803.25   93.08
   2 -12 -10  705.22   47.35
  -2 -12 -10  709.29   51.30
   2 -12 -10  709.01   48.95
   2 -12  10  665.97   73.94
  -3 -12  10   16.10   11.19
   3 -12  10  -14.40   15.30
   3 -12 -10   15.96    6.89
  -3 -12 -10   13.40    8.20
   3 -12 -10   19.61    8.11
  -4 -12  10  128.53   28.36
   4 -12  10  108.08   31.57
  -4 -12 -10  152.47   27.31
   4 -12 -10  140.01   21.17
  -4 -12 -10  113.55   22.30
  -4 -12  10  103.56   23.80
   4 -12 -10  117.76   19.78
  -5 -12  10    8.83    8.09
   5 -12  10    3.91   11.06
  -5 -12  10   -8.26    6.39
   5 -12 -10    1.15    5.34
  -5 -12 -10    5.42    8.05
  -5 -12 -10    5.47    5.40
   5 -12 -10    3.86    3.31
  -6 -12  10   -6.88    7.39
   6 -12  10   18.97   11.58
  -6 -12  10   -3.78    9.86
  -6 -12 -10   -4.26    7.87
   6 -12 -10   -2.19    4.25
  -6 -12 -10   11.71   10.42
   6 -12  10   -1.36    2.46
   6 -12 -10   -1.47    5.58
  -7 -12  10    2.14    3.33
   7 -12  10    3.82    9.43
  -7 -12  10    8.64    8.13
  -7 -12 -10   11.40    8.46
   7 -12 -10   17.15    9.14
  -7 -12 -10   -3.30    8.08
   7 -12  10    5.54    4.59
   7 -12 -10   10.52    7.70
   8 -12  10  108.26   26.74
  -8 -12 -10   72.95   17.21
  -8 -12  10   79.72   17.09
  -8 -12 -10   68.42   18.47
   8 -12  10   75.93   18.10
   8 -12 -10   79.73   18.23
   8 -12 -10   80.08   17.26
  -8 -12  10   95.29   17.90
  -9 -12  10   16.49    7.54
   9 -12  10    2.92    5.53
  -9 -12 -10   14.00    7.80
  -9 -12  10   15.86    6.27
  -9 -12 -10    7.78    3.64
   9 -12  10    9.72    5.17
   9 -12 -10   18.08    9.28
 -10 -12 -10  404.14   34.12
 -10 -12  10  359.79   28.70
 -10 -12 -10  367.85   33.60
  10 -12  10  320.11   33.73
  10 -12 -10  337.40   33.46
 -11 -12 -10    2.76    3.69
  11 -12 -10   -2.07    3.16
 -11 -12  10    8.03    4.39
 -11 -12 -10    4.00    2.48
  11 -12  10   -0.40    2.62
  11 -12 -10   -1.06    4.34
 -12 -12 -10  391.21   28.57
 -12 -12 -10  471.25   27.68
 -12 -12  10  399.07   24.76
  12 -12  10  408.73   29.00
  12 -12 -10  433.16   29.64
   0 -13  10    4.06   14.82
   0 -13  10    0.09    6.65
   0 -13 -10   -6.05    6.88
  -1 -13  10    1.90   10.82
  -1 -13  10   10.43    7.64
   1 -13  10   14.18   11.76
   1 -13 -10    4.19    4.84
  -1 -13 -10   13.62    6.17
  -2 -13  10   46.53   27.05
   2 -13  10   64.65   21.15
  -2 -13  10   50.78   16.45
   2 -13 -10   46.54   12.02
  -2 -13 -10   54.81   14.41
  -3 -13  10   53.95   21.70
   3 -13  10   78.23   24.75
  -3 -13  10   56.84   18.29
   3 -13 -10   67.62   14.70
  -3 -13 -10   70.66   16.80
   3 -13 -10   71.46   15.21
  -4 -13  10  176.02   31.31
   4 -13  10  228.62   47.63
  -4 -13  10  151.28   27.20
   4 -13 -10  171.20   23.02
  -4 -13 -10  179.58   28.34
   4 -13 -10  174.67   24.43
  -5 -13  10    3.50    8.74
   5 -13  10    3.20   11.24
  -5 -13  10    1.54    3.86
  -5 -13 -10    1.46    2.87
   5 -13 -10    4.10    4.32
  -5 -13 -10    7.35    3.99
   5 -13 -10   -6.08    6.77
  -6 -13 -10  100.39   24.50
   6 -13  10  181.16   39.37
  -6 -13  10  130.85   24.68
   6 -13 -10  116.42   20.37
  -6 -13 -10  123.39   25.40
   6 -13 -10  142.47   22.62
  -6 -13  10  153.78   23.89
  -7 -13  10    6.20    3.34
   7 -13  10   -4.47   11.30
  -7 -13  10    8.92    6.26
  -7 -13 -10   17.40    9.35
  -7 -13 -10   15.44   10.48
   7 -13 -10   12.78    7.38
   7 -13 -10   13.08    7.36
  -8 -13  10  156.38   23.10
  -8 -13 -10  189.98   26.62
  -8 -13 -10  159.57   25.47
   8 -13  10  191.24   25.50
   8 -13 -10  167.85   24.56
   8 -13  10  216.35   35.08
  -8 -13  10  168.10   20.93
  -9 -13  10   17.74    6.94
   9 -13  10    6.83    6.40
  -9 -13 -10   19.47    7.74
  -9 -13  10   20.24    6.52
  -9 -13 -10   18.68    8.59
   9 -13  10    6.76    2.94
   9 -13 -10   14.96    6.95
 -10 -13 -10   31.22   11.94
  10 -13 -10   58.19   11.36
 -10 -13  10   49.63    9.49
 -10 -13 -10   58.38   11.84
  10 -13  10   50.59   14.03
  10 -13 -10   67.54   13.70
 -11 -13 -10    8.42    5.13
 -11 -13 -10   -0.29    2.60
  11 -13 -10    7.19    6.20
   0 -14  10  144.74   39.22
   0 -14  10  122.97   27.38
   0 -14  10  196.26   39.51
   0 -14 -10  176.53   23.93
  -1 -14  10    3.13    7.48
  -1 -14  10    0.64    4.21
   1 -14  10   22.64   10.34
   1 -14  10    3.56   13.42
   1 -14 -10   24.28    8.34
  -1 -14 -10   14.38    7.63
  -1 -14  10   11.68    5.81
   2 -14  10  227.96   39.62
  -2 -14  10  205.31   33.19
   2 -14  10  282.73   66.09
   2 -14 -10  202.91   24.59
  -2 -14 -10  228.48   29.58
  -2 -14  10  281.42   52.01
  -3 -14  10    9.85    7.77
   3 -14  10   30.60   17.14
  -3 -14  10   17.84    9.42
   3 -14  10   15.88   11.68
   3 -14 -10    4.95    3.44
  -3 -14 -10    4.48    3.57
  -4 -14  10   46.86   14.81
   4 -14  10   29.89   15.68
  -4 -14  10   37.21   12.67
   4 -14 -10   29.37   10.08
  -4 -14 -10   49.55   15.59
  -5 -14  10    9.70    6.26
   5 -14  10   22.62   17.41
  -5 -14  10    8.16    6.60
   5 -14 -10    3.14    5.40
  -5 -14 -10    1.09    4.69
  -6 -14  10   14.29    7.07
   6 -14  10   28.67   18.51
  -6 -14  10   12.38    6.81
  -6 -14 -10   17.92    8.71
   6 -14 -10    3.91    3.77
  -6 -14 -10   -4.53    5.79
   6 -14 -10    8.88    7.21
  -7 -14  10    8.97    5.44
   7 -14  10  -16.22   12.59
  -7 -14  10   -0.23    3.36
  -7 -14 -10   -6.87    6.45
  -7 -14 -10    3.68    5.64
   7 -14 -10   17.19   10.84
  -8 -14  10   40.84    9.89
   8 -14  10   11.31    9.00
  -8 -14 -10   26.70   12.39
   8 -14 -10   69.40   15.99
  -8 -14 -10   54.57   13.43
   8 -14 -10   43.84   12.44
  -9 -14  10   17.24    5.56
  -9 -14 -10   15.55    7.62
   9 -14 -10   31.48    8.62
  -9 -14 -10   31.53    8.24
   9 -14 -10   29.71    9.79
   0 -15  10   -6.34    8.97
   0 -15  10   -5.94    3.27
   0 -15  10    8.42   12.70
   0 -15 -10   -1.16    4.98
  -1 -15  10   22.48   14.13
   1 -15  10    3.31    5.95
  -1 -15  10    5.10    7.95
   1 -15  10    1.97    8.12
   1 -15 -10    2.75    3.34
  -1 -15 -10   -0.59    2.86
  -2 -15  10  155.98   33.75
   2 -15  10   78.74   28.40
  -2 -15  10  124.51   27.00
   2 -15 -10  141.38   28.15
  -2 -15 -10  125.88   21.74
   2 -15 -10   91.28   16.86
   2 -15  10  197.00   57.83
  -3 -15  10   -0.10    9.99
   3 -15  10  -19.16   15.68
  -3 -15  10   -1.09    4.48
   3 -15  10  -18.16   22.07
   3 -15 -10    8.45    4.28
  -3 -15 -10    3.69    7.04
  -4 -15  10  380.74   39.65
   4 -15 -10  470.72   36.56
  -4 -15 -10  451.33   43.99
  -5 -15  10    5.45    4.31
   5 -15  10   -4.48   14.68
  -5 -15  10    7.77    5.19
   5 -15 -10    2.82    7.64
   5 -15 -10   11.96    5.99
  -5 -15 -10   -1.07    4.63
  -6 -15  10  467.72   37.84
  -6 -15 -10  552.20   46.28
   6 -15 -10  906.99   68.92
   6 -15  10  483.00   67.31
   6 -15 -10  985.93   86.98
  -6 -15  10  595.33   39.67
  -7 -15  10    0.68    3.01
   7 -15  10   -4.65    5.59
   7 -15 -10    1.58    3.62
  -7 -15 -10    4.14    3.20
   7 -15 -10   11.27    6.53
  -8 -15 -10  452.76   32.05
   8 -15 -10  478.67   39.13
   0 -16  10   -0.35    3.28
   0 -16  10   -0.56   10.08
   0 -16 -10    4.60    4.49
   0 -16 -10   -6.95    8.69
  -1 -16  10   30.77   14.14
   1 -16  10   -9.22    9.52
  -1 -16  10   39.77   17.34
   1 -16  10   20.57   12.55
   1 -16 -10   19.41    6.68
  -1 -16 -10   22.65    7.34
   1 -16 -10   27.41    8.59
  -1 -16 -10   39.83   14.86
  -2 -16  10   -9.50   11.52
   2 -16  10    1.40    6.31
  -2 -16  10    3.76    2.94
   2 -16  10   13.36   16.18
   2 -16 -10   -2.73    4.56
  -2 -16 -10    8.71    7.94
  -3 -16  10   -7.15    9.46
   3 -16  10   -6.65    6.59
  -3 -16  10    1.15    2.48
   3 -16 -10   -0.72    4.86
   3 -16 -10    1.86    2.43
  -3 -16 -10    0.78    2.97
  -4 -16  10    8.50    7.03
   4 -16  10    1.55    9.51
  -4 -16  10    4.97    5.77
   4 -16 -10   28.16    9.70
  -4 -16 -10    6.95    4.11
  -5 -16  10   14.36    6.46
  -5 -16 -10   17.19    7.25
  -6 -16  10    2.13    2.10
   6 -16  10   -1.56    4.47
   6 -16 -10   10.88    8.35
  -6 -16 -10    4.63    3.76
  -6 -16 -10   10.25    4.85
   0 -17  10   -0.03    5.65
   0 -17 -10    3.04    6.60
  -1 -17  10    9.34    8.08
   1 -17 -10   -3.10    4.81
  -1 -17 -10   -5.26    4.82
  -1 -17 -10   -5.44    7.81
  -2 -17 -10  116.19   21.12
   0   0 -11    1.68    2.04
   1   0 -11    8.93    5.24
  -1   0 -11   -0.62    2.53
   2   0 -11   49.87   11.49
  -2   0 -11   54.22   12.43
   3   0 -11    7.64    5.38
  -3   0 -11    0.60    2.41
   4   0  11   29.93   11.66
   4   0 -11   32.49    9.47
   4   0 -11   36.47   10.21
  -4   0 -11   49.15   14.19
   5   0  11   -0.83    4.41
  -5   0 -11   -2.07    5.83
   5   0 -11   -8.38    6.64
   5   0 -11    1.55    4.05
  -6   0 -11  180.77   26.16
   6   0 -11  164.70   25.14
   6   0 -11  167.60   24.93
   6   0  11  205.34   31.98
   7   0  11   -1.36    2.78
  -7   0 -11    0.20    4.21
   7   0 -11    8.80    8.16
   7   0 -11    3.10    3.88
   8   0  11  348.81   39.71
   8   0 -11  294.24   37.91
   8   0 -11  279.26   34.28
   9   0  11   -1.86    5.15
   9   0 -11   -2.72    3.31
  -9   0  11   -8.54    7.59
   9   0  11    3.09    3.73
   9   0 -11   -5.35    7.05
   9   0  11    7.65    5.89
   9   0 -11   -3.08    6.08
  10   0  11   98.08   19.82
  10   0 -11  108.10   22.29
 -10   0  11   72.12   19.89
  10   0  11   80.33   20.49
  10   0 -11   78.60   17.62
  10   0  11   60.06   15.04
  10   0 -11   71.80   19.23
  11   0  11   11.19    9.01
  11   0  11   10.13   16.69
  11   0 -11   -3.04    4.51
  12   0  11   14.70    6.41
  12   0 -11    7.00    4.37
  13   0  11   -5.45    3.63
  13   0  11    2.67    4.17
  13   0 -11   -1.32    3.26
  14   0  11   -0.88    4.91
  14   0  11   -1.01    3.00
  14   0 -11    0.79    3.01
 -14   0  11   11.80    5.72
  15   0  11    6.30    4.45
  15   0 -11   -6.63    4.04
 -15   0  11    3.14    4.48
  16   0  11   35.25    9.17
  16   0 -11   41.30    8.12
 -16   0  11   51.79    9.33
   0  -1 -11   47.69   12.01
   0   1 -11   42.61   10.06
   1  -1 -11 1428.34   62.85
  -1  -1 -11 1507.92   67.34
   1   1 -11 1361.31   59.08
  -1   1 -11 1493.43   63.23
   2  -1 -11   20.55    7.62
   2   1 -11   22.47    7.20
  -2  -1 -11   20.32    8.23
  -2   1 -11   17.97    7.63
   3   1  11  659.04   52.74
   3  -1 -11  636.18   37.75
   3  -1 -11  542.30   40.23
   3   1 -11  621.29   41.20
  -3  -1 -11  597.46   46.56
  -3   1 -11  589.34   43.84
   4   1  11   12.48    5.31
   4  -1  11   15.89    7.92
   4  -1 -11    4.89    4.58
   4  -1 -11    9.07    4.58
   4   1 -11   10.14    6.37
  -4   1 -11    8.86    4.36
  -4  -1 -11    8.97    6.41
   5   1  11   48.63   17.17
   5  -1  11   25.19   10.29
   5  -1 -11   33.73   10.89
   5  -1 -11   30.95   10.21
   5   1 -11   41.93   12.55
  -5   1 -11   20.94    8.62
  -5  -1 -11   48.27   13.71
   6   1  11   12.18    9.03
   6  -1  11   29.13   12.46
  -6  -1 -11   23.47   10.33
   6  -1 -11   16.53    7.86
   6  -1 -11   17.90    8.03
   6   1 -11   15.68    8.01
  -6   1 -11   23.71    9.26
   7   1  11  175.79   28.38
  -7  -1 -11  129.83   23.81
   7  -1 -11  143.10   25.26
   7  -1 -11  128.15   22.31
   7   1 -11  139.22   23.11
  -7   1 -11  153.37   23.64
   7  -1  11  146.25   26.92
   8   1  11    7.21    8.09
   8  -1  11   10.73    8.68
  -8  -1 -11    9.84    5.72
   8  -1 -11   16.05    8.75
  -8  -1  11    7.06    5.37
   8  -1 -11    3.55    4.32
   8   1 -11    9.91    6.45
   9  -1  11  402.73   39.12
   9   1  11  516.32   45.87
   9  -1  11  520.59   49.28
   9  -1 -11  501.75   50.02
  -9  -1  11  405.16   46.73
  -9   1  11  427.30   46.32
   9   1  11  502.86   50.07
   9  -1  11  481.81   47.94
   9  -1 -11  402.20   42.32
   9   1 -11  426.24   42.00
   9   1  11  467.48   42.84
  -9  -1  11  305.38   42.97
   9  -1 -11  478.89   46.12
   9   1 -11  480.48   44.11
  10   1  11    0.55    6.37
  10  -1  11    6.56    5.54
  10   1 -11   11.71    7.44
  10  -1 -11    5.68    3.18
 -10  -1  11    3.29    4.39
 -10   1  11   -1.35    5.71
  10   1  11   -2.69    5.14
  10  -1  11    0.12    4.63
  10  -1 -11   -4.68    6.09
  10   1 -11   -4.44    4.84
 -10  -1  11   -0.83    3.51
  10  -1  11    5.61    4.08
  10   1  11    2.69    5.47
  10  -1 -11    4.88    7.42
  10   1 -11    3.50    5.50
  11  -1  11  736.02   55.24
  11   1  11  719.05   55.08
  11   1  11  845.09   62.09
  11  -1  11  835.67   62.71
 -11  -1  11  626.82   52.42
  11   1 -11  737.66   53.75
  11  -1 -11  740.04   57.46
  12   1  11   -4.25    7.15
  12  -1  11    0.82    2.63
  12  -1  11    3.53    7.13
  12   1  11   -3.35    6.26
  12   1 -11   -0.28    3.79
  12  -1 -11   -0.28    4.04
  13  -1  11  640.91   47.34
  13   1  11  663.80   48.02
  13  -1  11  720.91   52.52
  13   1 -11  617.72   43.54
  13  -1 -11  617.12   45.61
  13   1  11  671.05   49.25
  14  -1  11    2.06    3.05
  14  -1  11    7.91    6.02
  14   1  11   -0.70    3.68
  14   1 -11    1.45    3.04
  14  -1 -11    3.68    2.59
 -14  -1  11    0.88    3.75
 -14   1  11    5.18    5.56
  15  -1  11  305.27   26.75
  15   1  11  330.42   28.28
  15   1 -11  263.61   23.60
  15  -1 -11  241.43   24.82
 -15  -1  11  273.21   24.02
 -15   1  11  271.14   24.10
  16   1  11   -0.09    2.11
  16   1  11    5.03    4.41
  16  -1 -11    5.23    2.55
 -16   1  11    6.67    3.48
 -16  -1  11    7.56    3.40
   0  -2 -11   -4.37    4.28
   0   2 -11   -2.28    3.95
   1  -2 -11   20.99    9.50
  -1  -2 -11   28.16   10.64
   1   2 -11   33.54    8.59
  -1   2 -11   33.79    9.38
   2  -2 -11  150.02   21.83
  -2  -2 -11  166.53   25.04
   2   2 -11  147.62   19.56
  -2   2 -11  167.80   21.70
   3   2  11  225.32   33.69
  -3  -2 -11  216.30   27.72
  -3  -2 -11  234.86   24.03
   3  -2 -11  210.53   21.49
   3  -2 -11  181.01   24.67
   3   2 -11  196.65   22.79
  -3   2 -11  191.73   24.09
   4  -2  11  113.28   19.90
  -4  -2 -11  139.61   22.21
   4  -2 -11  121.98   17.65
  -4  -2  11  126.11   16.73
   4  -2 -11  100.14   18.87
   4   2 -11  106.97   17.36
  -4   2 -11  112.90   20.86
   5   2  11  471.35   50.50
   5  -2  11  364.38   40.51
  -5  -2 -11  411.33   39.56
   5  -2 -11  344.18   32.89
  -5  -2  11  321.48   27.94
   5  -2 -11  317.14   33.42
   5   2 -11  360.63   33.68
  -5   2 -11  290.41   34.34
   6   2  11  485.26   48.73
   6  -2  11  351.60   43.05
  -6  -2 -11  380.19   41.00
   6  -2 -11  351.67   36.72
   6  -2 -11  356.97   36.63
   6   2 -11  336.47   34.52
   7   2  11  293.45   36.87
   7  -2  11  285.90   39.49
  -7  -2 -11  304.28   35.88
   7  -2 -11  259.53   34.37
  -7  -2  11  213.32   32.28
   7  -2 -11  260.27   32.62
   7   2 -11  260.83   31.44
   8   2  11  614.79   50.79
   8  -2  11  643.26   58.42
  -8  -2 -11  526.85   47.44
   8  -2 -11  478.88   49.41
  -8  -2  11  465.98   48.28
   8  -2 -11  470.88   44.79
   8   2 -11  535.47   45.34
   9   2  11   38.59   12.33
   9  -2  11   34.11   13.73
   9  -2 -11   24.18   10.13
  -9  -2  11   37.77   15.77
   9   2  11   20.41   11.20
   9  -2  11   26.90   12.26
   9  -2 -11   25.64   10.63
   9   2 -11   19.48    6.94
  -9  -2  11   23.57    6.84
  -9  -2  11   -1.33    5.17
   9  -2  11   37.69   13.68
   9   2  11   21.21    8.47
   9  -2 -11   32.55   11.99
   9   2 -11   32.13   12.64
  10   2  11   15.30    8.29
  10  -2  11    8.32    6.07
  10  -2 -11    1.90    4.49
  10   2  11   -1.29    5.65
  10  -2  11    9.79    7.45
 -10  -2  11   -0.90    4.60
  10   2  11    5.67    7.00
  10  -2 -11   -3.89    7.37
  10   2 -11    8.26    6.02
  11   2  11   15.74    9.38
  11  -2  11   13.46    9.33
 -11  -2  11    4.23    8.02
  11   2  11   16.70    8.44
  11   2 -11    6.36    5.47
  11  -2 -11    9.99    7.01
  12  -2  11   -4.03    9.03
 -12  -2  11   -3.51    5.17
  12   2  11   -2.80    5.60
  12   2 -11    0.22    2.59
  12  -2 -11    6.34    9.27
  13  -2  11   71.06   16.71
 -13  -2  11   89.59   16.39
  13   2  11   75.38   16.55
  13   2 -11   54.40   12.67
  13  -2 -11   59.45   15.97
  14  -2  11    3.31    4.27
  14   2  11    4.02    3.55
  14  -2 -11    6.70    4.80
 -14  -2  11    2.68    3.52
 -14   2  11   12.50    6.65
  15   2  11  149.13   20.41
  15  -2  11  120.86   18.79
  15  -2 -11  140.15   20.62
 -15  -2  11  136.83   16.74
 -15   2  11  167.07   18.48
  16  -2  11   40.64    8.85
  16   2  11   47.42   10.50
  16  -2 -11   30.95    7.31
 -16   2  11   57.56    9.58
 -16  -2  11   51.10    9.09
   0  -3 -11  256.88   32.39
   0  -3 -11  299.02   36.49
   0   3 -11  266.16   26.00
  -1  -3 -11  489.27   42.82
  -1  -3 -11  561.20   38.42
   1  -3 -11  585.68   48.98
   1   3 -11  528.77   36.70
  -1   3 -11  507.20   36.68
  -2  -3 -11  143.75   22.81
  -2  -3 -11  164.14   20.66
   2  -3 -11  153.30   17.50
   2  -3 -11  137.13   23.11
   2   3 -11  132.40   18.20
  -2   3 -11  126.95   18.56
  -3  -3 -11   97.64   18.84
  -3  -3 -11  120.13   17.72
   3  -3 -11  106.83   15.45
  -3  -3  11   98.05   15.15
   3   3 -11  103.94   16.54
   3  -3 -11   91.98   18.91
  -3   3 -11   88.79   17.67
   3  -3  11  103.15   17.40
  -4  -3 -11    5.39    4.55
   4  -3  11    8.62    3.68
   4  -3 -11   18.57    7.38
  -4  -3  11    9.19    4.33
   4  -3 -11    9.62    7.71
   4   3 -11   15.92    6.92
   4  -3  11   18.21    7.02
   5   3  11    4.38   13.72
   5  -3  11   17.77    8.65
   5  -3 -11   12.69    5.46
  -5  -3  11   26.84    7.79
  -5  -3  11    5.58    3.88
   5  -3 -11   13.49    8.79
   5   3 -11   17.47    8.64
  -5  -3 -11   19.64    9.57
   6   3  11   10.25    6.52
   6  -3  11    8.52    8.66
  -6  -3 -11    6.25    6.10
   6  -3 -11    4.98    3.45
  -6  -3  11    2.36    3.25
  -6  -3  11    3.87    7.51
   6  -3 -11    3.43    2.73
   6   3 -11   10.21    4.44
   7   3  11  178.76   27.63
   7  -3  11  119.52   25.21
   7  -3 -11  146.36   25.96
  -7  -3  11  137.82   25.16
   7  -3 -11  131.01   23.01
   7   3 -11  139.89   21.79
  -7  -3 -11  123.27   23.49
   8   3  11  278.94   34.54
   8  -3  11  250.18   37.87
  -8  -3 -11  234.17   32.68
   8  -3 -11  246.72   35.56
  -8  -3  11  264.76   34.44
   8  -3 -11  236.31   31.83
   8   3 -11  268.62   31.02
   9   3  11  245.45   33.07
   9   3  11  341.72   35.85
   9  -3  11  394.09   46.83
   9  -3 -11  285.85   38.73
  -9  -3  11  290.40   36.65
   9  -3  11  314.24   37.91
   9  -3 -11  266.62   34.41
  -9  -3  11  286.70   35.91
   9  -3 -11  326.24   40.36
   9  -3  11  304.13   37.73
   9  -3 -11  247.68   30.23
  10   3  11  131.07   24.06
  10  -3  11  172.20   27.87
 -10  -3  11   94.69   23.29
  10  -3  11  176.18   28.75
  10  -3 -11  169.10   28.04
  11  -3  11  637.50   53.75
 -11  -3  11  454.50   46.07
  11  -3 -11  511.98   48.96
  11  -3  11  594.22   49.50
  11   3  11  531.75   48.46
  12  -3  11  138.53   25.38
 -12  -3  11  134.81   22.01
  12   3  11  140.46   23.11
  12  -3 -11  145.45   24.29
  13   3  11  314.93   33.85
  13  -3  11  332.86   34.69
 -13  -3  11  356.64   33.55
  13  -3 -11  287.49   32.22
  14   3  11  140.51   19.97
  14  -3  11  133.41   22.70
  14  -3 -11  141.50   20.48
 -14  -3  11  115.03   17.59
 -14   3  11  129.08   17.82
  15  -3  11   55.98   12.27
  15   3  11   53.77   12.43
  15  -3 -11   68.78   14.28
 -15  -3  11   51.80   10.36
 -15   3  11   66.78   11.20
  16   3 -11   26.68    6.48
  16  -3  11   17.68    4.97
  16   3  11   25.53    7.14
  16  -3 -11   31.76    7.31
 -16  -3  11   30.90    6.61
   0  -4 -11   -3.95    5.51
   0   4 -11    2.73    1.96
   0  -4 -11    0.67    3.84
   1  -4 -11  237.16   36.60
  -1  -4 -11  207.04   29.92
   1  -4 -11  209.18   25.51
  -1  -4 -11  245.35   25.72
   1  -4 -11  320.15   43.66
   1   4 -11  236.64   24.69
  -1   4 -11  229.56   24.82
  -2  -4 -11   26.27    8.66
   2  -4 -11   18.03    6.00
   2  -4 -11   19.22   13.13
   2  -4 -11   26.36   12.68
   2   4 -11   26.29    7.67
  -2   4 -11   27.02    9.79
   2  -4  11   26.70    9.56
  -2  -4 -11   17.13    7.02
  -3  -4 -11  906.11   60.14
  -3  -4 -11 1139.26   56.98
   3  -4 -11 1097.53   50.76
  -3  -4  11  861.91   45.60
   3  -4 -11 1076.05   73.24
   3   4 -11 1057.84   53.41
  -3   4 -11  876.30   52.77
   3  -4  11  978.54   54.03
   4  -4  11   12.87    6.72
  -4  -4 -11   14.74    7.08
   4  -4 -11    7.01    3.69
  -4  -4  11   16.24    6.91
   4  -4 -11   13.13    8.91
   4   4 -11   18.57    7.97
   4  -4  11    6.64    6.43
   5  -4  11 1233.33   70.25
  -5  -4 -11 1051.03   67.29
   5  -4 -11 1126.32   59.53
  -5  -4  11 1054.97   55.43
  -5  -4  11 1338.52   81.50
   5  -4 -11 1205.26   73.43
   5   4 -11 1168.37   59.03
   5  -4  11 1145.75   61.86
   6   4  11   76.39   20.31
   6  -4  11   69.52   18.67
  -6  -4 -11   67.10   18.03
   6  -4 -11   56.04   13.99
  -6  -4  11   57.11   13.49
  -6  -4  11   65.30   17.02
   6  -4 -11   69.32   17.05
   6   4 -11   64.42   14.02
   7   4  11 1279.22   78.87
   7  -4  11 1117.29   80.71
  -7  -4 -11 1139.46   73.59
   7  -4 -11 1135.68   72.01
  -7  -4  11 1105.72   60.14
  -7  -4  11 1270.15   74.82
   7  -4 -11 1253.83   72.41
   7   4 -11 1224.06   63.82
  -8   4  11   98.75   21.07
   8   4  11  139.84   23.91
   8  -4  11  136.28   29.22
  -8  -4 -11  120.23   23.47
   8   4  11  123.36   22.67
   8  -4 -11  101.32   22.25
  -8  -4  11  141.20   25.59
   8  -4  11  133.88   23.81
   8  -4 -11  112.58   21.61
  -8  -4  11   87.42   22.30
   8  -4 -11  141.20   27.32
   9   4  11  414.67   40.67
   9   4  11  300.83   35.87
  -9  -4 -11  233.99   44.05
  -9  -4 -11  400.57   41.75
   9  -4 -11  409.89   47.95
  -9  -4  11  364.97   39.80
   9  -4  11  410.39   43.22
  -9  -4  11  361.20   42.62
   9  -4 -11  469.63   48.75
   9  -4  11  415.97   45.11
   9  -4  11  451.93   52.23
   9  -4 -11  311.87   33.52
  10  -4  11   -3.85    6.90
 -10  -4  11    0.55    6.44
  10  -4  11   -6.88    7.41
  10   4  11    6.87    8.73
  10  -4 -11    7.74    7.07
  10  -4 -11    5.01    4.34
  11  -4  11   17.55    8.46
 -11  -4  11   -1.44    3.82
  11  -4  11    7.88    5.77
  11   4  11    5.97    3.32
  11  -4 -11   -0.04    5.47
  12  -4  11   47.72   14.06
 -12  -4  11   27.92   10.70
  12  -4  11   40.30   12.54
  12   4  11   36.38   13.86
  12  -4 -11   43.95   14.68
  13   4  11  146.31   22.24
  13  -4  11  153.41   23.73
 -13  -4  11  136.14   20.63
  13  -4 -11  136.20   22.85
 -13  -4  11  129.40   20.47
  14  -4  11    7.52    4.64
  14  -4 -11    3.96    2.50
 -14  -4  11   12.40    4.65
  15   4  11  311.20   26.09
  15  -4  11  257.68   28.61
  15  -4 -11  327.76   26.80
 -15  -4  11  354.11   26.23
  16  -4  11   24.83    6.92
  16   4  11   22.66    7.02
  16  -4 -11   15.46    6.36
 -16  -4  11   30.14    6.60
   0  -5 -11  188.34   34.37
   0  -5 -11  170.22   22.06
   0   5 -11  164.34   21.08
  -1  -5 -11  155.91   27.94
   1  -5 -11  203.91   39.61
   1  -5 -11  159.53   22.48
  -1  -5 -11  147.71   21.23
   1   5 -11  146.00   19.88
  -1   5 -11  149.12   20.97
   1  -5  11  156.97   21.71
  -2  -5 -11  204.15   30.80
   2  -5 -11  205.42   27.07
  -2  -5 -11  273.78   28.38
   2  -5 -11  263.63   24.50
  -2  -5  11  243.51   24.15
   2   5 -11  262.88   26.04
  -2   5 -11  239.28   26.50
   2  -5  11  233.70   25.50
  -3  -5 -11  133.87   24.26
  -3  -5 -11  156.08   21.59
   3  -5 -11  117.77   22.53
   3  -5 -11  129.69   18.18
  -3  -5  11  127.64   17.98
   3  -5 -11  211.59   37.34
   3   5 -11  141.55   19.49
   3  -5  11  128.17   19.18
  -4  -5 -11   10.82    9.19
   4  -5 -11   -6.76    8.50
  -4  -5 -11    5.07    3.28
   4  -5 -11   10.91    5.01
  -4  -5  11   10.42    6.58
   4  -5 -11    9.04    7.18
   4   5 -11    9.29    6.09
   4  -5  11    9.92    5.11
   5  -5  11   69.48   16.47
  -5  -5 -11   60.59   16.92
   5  -5 -11   55.34   18.96
   5  -5 -11   62.12   13.94
  -5  -5  11   66.46   15.10
   5  -5 -11   64.85   18.39
   5   5 -11   63.65   13.35
   5  -5  11   66.88   15.17
   6  -5  11    3.69    4.25
  -6  -5 -11    0.75    6.45
   6  -5 -11    7.80   10.55
   6  -5 -11    6.89    6.10
  -6  -5  11    2.36    5.42
  -6  -5  11    8.79    5.12
   6  -5 -11   -1.39    5.06
   6   5 -11    5.39    3.87
   6  -5  11    4.01    4.33
   7   5  11   16.02   11.12
   7  -5  11    4.56    4.83
  -7  -5 -11    4.26    5.00
   7  -5 -11    4.28    5.13
   7  -5 -11    1.33    2.82
  -7  -5  11    4.72    4.56
  -7  -5  11   14.98    9.92
   7  -5 -11    4.84    4.74
   8   5  11  122.49   24.35
   8  -5  11  132.61   28.84
   8   5  11  139.03   24.70
  -8  -5 -11  138.75   24.19
  -8  -5 -11  112.11   26.94
   8  -5 -11  125.78   25.55
  -8  -5  11  151.75   23.09
  -8  -5  11  110.95   21.69
   8  -5  11  132.91   22.83
  -8  -5  11  173.03   29.77
  -8  -5  11  121.82   22.79
   8  -5 -11  159.97   28.32
   8  -5  11  137.53   25.41
   8  -5 -11  134.97   21.33
  -9  -5 -11  -10.04    9.91
   9  -5  11   -4.63    7.34
  -9  -5  11   -6.48    8.22
   9  -5  11   -2.44    7.88
   9   5  11    1.66    5.67
   9  -5 -11   -6.25    2.82
   9  -5 -11   -0.47    3.67
 -10  -5 -11  194.42   30.41
  10   5  11  142.36   25.66
  10  -5  11  137.52   25.54
 -10  -5  11  127.84   24.93
  10  -5 -11  203.12   30.44
  10  -5  11  169.20   29.94
  10  -5 -11  125.97   21.72
  11  -5  11    2.56    6.45
 -11  -5  11    1.44    6.97
  11  -5  11    7.77    3.83
  11   5  11   17.37    9.38
  11  -5 -11   14.00    9.88
  12   5  11  146.89   23.93
  12  -5  11  188.54   28.05
 -12  -5  11  158.18   23.77
  12  -5 -11  182.03   27.34
  12  -5  11  169.28   25.59
  13  -5  11    3.32    3.36
 -13  -5  11    3.83    4.27
  13   5  11    4.79    4.62
  13  -5  11   -3.16    2.57
  13  -5 -11    3.14    3.83
 -13  -5  11   -0.08    3.29
  14   5  11   91.45   16.24
 -14  -5  11   80.32   13.68
  14  -5  11   77.26   16.45
  14  -5 -11  115.35   17.52
  14  -5  11   67.80   12.36
 -14  -5  11   98.81   14.83
  15  -5  11   -0.85    2.31
  15   5  11   -2.22    2.36
  15  -5 -11    3.09    3.98
 -15  -5  11    0.66    3.36
   0  -6 -11   -4.11   12.09
   0  -6 -11    0.65    1.89
   0   6 -11    4.13    5.90
   1  -6 -11   95.18   30.37
   1  -6 -11   84.17   16.71
  -1  -6 -11   59.95   14.27
   1   6 -11   76.53   14.02
  -1   6 -11   76.95   15.24
   1  -6  11   72.68   14.41
  -1  -6 -11   81.26   23.43
  -2  -6 -11    8.57    8.97
   2  -6 -11    1.14    4.31
  -2  -6 -11    6.07    5.02
  -2  -6  11   -1.73    3.51
   2   6 -11    7.59    5.52
  -2   6 -11    8.04    5.78
   2  -6  11    1.41    3.49
  -3  -6 -11  359.43   41.72
   3  -6 -11  382.83   42.32
  -3  -6 -11  425.48   38.01
  -3  -6  11  409.70   32.88
   3   6 -11  414.63   34.03
   3  -6  11  415.62   36.11
  -4  -6 -11    1.61    3.67
   4  -6 -11    4.73    6.29
   4  -6 -11    1.14    2.54
  -4  -6  11    1.02    4.04
   4  -6 -11   15.22   10.46
   4   6 -11    7.34    6.41
   4  -6  11    1.96    2.82
  -5  -6 -11  718.77   57.69
   5  -6 -11  653.98   68.44
   5  -6 -11  786.95   50.88
  -5  -6  11  775.72   50.61
   5  -6  11  782.81   53.49
  -6  -6 -11   14.19    8.52
   6  -6 -11    6.20    3.86
   6  -6 -11   18.35    9.18
  -6  -6  11   13.08    7.20
   6  -6 -11   15.07    7.15
   6  -6  11   13.95    8.91
  -7   6  11 1112.12   70.44
  -7  -6 -11 1001.28   74.92
   7   6  11 1182.05   69.84
  -7  -6 -11 1231.05   75.54
   7  -6 -11 1111.87   71.62
  -7  -6  11 1041.22   62.82
  -7  -6  11 1248.00   77.65
   7  -6  11 1127.69   67.54
  -7  -6  11 1089.60   70.60
   7  -6 -11 1445.21   83.11
   7  -6  11 1196.03   74.58
   7  -6 -11 1234.08   64.82
  -8  -6  11   -9.34    6.21
   8   6  11   21.06   12.72
  -8  -6 -11   13.21   10.19
  -8  -6 -11   13.22    7.99
  -8  -6 -11    5.81    3.34
   8  -6 -11   13.96    8.90
  -8  -6  11    6.65    7.56
  -8  -6  11   10.84    5.00
   8  -6  11   14.04    5.74
  -8  -6  11   19.02   11.70
  -8  -6  11    8.41    3.68
   8   6  11    9.54    9.10
   8  -6  11    1.79    4.24
   8  -6 -11   13.30    8.47
   8  -6 -11   11.82    7.68
  -9  -6 -11  508.79   49.43
   9   6  11  218.21   38.28
   9  -6  11  400.46   42.55
  -9  -6  11  329.35   42.74
   9  -6 -11  388.36   42.85
   9  -6  11  375.58   43.74
   9  -6 -11  331.29   35.21
 -10  -6 -11    6.26    7.69
  10  -6  11    5.39    4.55
 -10  -6  11    4.24    6.06
  10   6  11   -1.11    4.50
  10  -6  11    2.03    3.96
  10  -6 -11    4.42    2.63
  10  -6 -11    4.28    3.83
  11  -6  11    0.42    6.60
 -11  -6  11    1.74    4.77
  11   6  11    6.21    5.59
  11  -6  11    0.94    4.14
  11  -6 -11    7.91    6.39
  11  -6 -11   -0.65    4.37
 -11  -6 -11   16.10    8.21
  12  -6  11    4.72    6.49
 -12  -6  11   -0.06    6.25
  12   6  11   -1.50    3.69
  12  -6  11   -6.72    5.27
  12  -6 -11    0.92    2.67
 -12  -6  11    2.14    3.35
  13  -6  11   68.07   15.43
 -13  -6  11   68.39   14.35
  13   6  11   48.79   13.58
  13  -6  11   76.24   14.24
  13  -6 -11   82.01   16.04
 -13  -6  11   68.60   13.52
 -14  -6  11    6.38    4.09
  14  -6  11    7.15    4.58
  14   6  11   12.93    5.19
  14  -6  11   11.01    4.98
  14  -6 -11    3.56    2.35
 -14  -6  11   14.77    5.41
  15   6  11  198.25   19.74
 -15  -6  11  194.49   15.42
  15  -6  11  226.42   21.18
  15  -6 -11  168.15   19.06
 -15  -6  11  228.26   18.29
   0  -7 -11   91.36   17.72
   0   7 -11  128.19   19.17
  -1  -7 -11  198.39   39.85
   1  -7 -11  136.29   23.39
  -1  -7 -11  144.02   22.08
   1   7 -11  155.34   21.66
  -1   7 -11  167.57   22.58
   1  -7  11  157.21   22.28
  -2  -7 -11  246.97   40.81
  -2  -7 -11  210.81   45.08
   2  -7 -11  207.61   30.13
  -2  -7 -11  222.13   27.55
  -2  -7  11  217.75   23.84
   2   7 -11  217.13   24.82
  -2   7 -11  221.39   26.41
   2  -7  11  200.16   24.81
  -3  -7 -11   93.73   22.97
  -3  -7 -11  139.63   36.65
   3  -7 -11   98.65   23.77
  -3  -7  11  108.15   17.25
   3   7 -11   98.40   16.71
   3  -7  11   92.73   17.95
  -4  -7 -11   28.64   12.72
  -4  -7 -11   54.47   22.03
   4  -7 -11   42.50   17.29
  -4  -7  11   33.13   10.49
   4  -7  11   26.09    8.58
  -5  -7 -11   12.52    6.94
  -5  -7 -11   29.06   14.89
   5  -7 -11   15.62    7.64
  -5  -7  11   21.03    8.99
   5  -7  11   25.45    9.86
   6  -7  11   29.22   16.91
  -6  -7  11   19.45   10.66
  -6  -7 -11    8.82   13.56
  -6  -7 -11   35.13   14.39
  -6  -7 -11   57.94   18.21
   6  -7 -11   28.20    7.85
  -6  -7  11   28.54    9.90
   6  -7 -11   37.76   10.85
   6  -7  11   30.37   10.88
   6   7  11   24.72    9.17
   6  -7  11   31.25   10.81
   6  -7 -11   33.14    8.50
  -7  -7  11   17.10    8.96
  -7  -7 -11   48.27   16.09
  -7  -7 -11   41.92   13.80
  -7  -7 -11   48.12   14.72
   7  -7 -11   37.99   13.22
   7  -7 -11   51.87   13.88
  -7  -7  11   50.06   13.55
  -7  -7  11   56.69   18.71
   7  -7  11   33.56   10.32
   7   7  11   36.11   11.91
   7  -7  11   32.38   13.64
   7  -7 -11   41.21   13.08
  -8  -7  11   22.77    9.28
  -8  -7 -11   25.27   12.06
  -8  -7  11   19.96    5.50
   8   7  11    4.26    7.54
   8  -7  11   21.61   11.54
   8  -7 -11   47.49   13.44
   8  -7 -11   13.61    3.09
  -9  -7 -11   83.47   22.68
   9  -7  11   85.87   20.12
  -9  -7  11  102.82   23.20
   9   7  11   56.29   20.12
   9  -7  11   99.01   21.89
   9  -7 -11   96.36   21.28
   9  -7 -11   81.81   17.28
 -10  -7 -11  136.59   24.41
  10  -7  11  104.65   21.78
 -10  -7  11   98.23   21.52
  10   7  11   85.71   21.45
  10  -7  11   89.38   23.84
  10  -7 -11  101.11   21.86
  10  -7 -11   95.79   19.75
 -11  -7 -11  108.54   22.52
  11  -7  11  119.52   23.27
 -11  -7  11  139.51   24.59
  11  -7 -11  111.11   22.05
  11   7  11   51.26   19.68
  11  -7  11  109.46   21.90
  11  -7 -11  125.75   22.18
 -12  -7 -11   65.97   20.36
  12  -7  11   87.13   18.46
 -12  -7  11  120.18   20.38
  12  -7 -11  119.95   20.51
  12   7  11   71.40   18.49
  12  -7  11  100.01   18.78
  12  -7 -11  109.84   18.62
 -13  -7  11   61.22   13.74
  13  -7  11   69.44   16.89
 -13  -7  11   89.87   15.90
  13   7  11   75.72   13.88
  13  -7  11   80.00   16.39
  13  -7 -11   92.00   15.79
 -14  -7  11   67.53   11.35
  14  -7  11   39.67   11.86
  14  -7  11   64.68   12.72
  14   7  11   46.54   10.94
  14  -7 -11   63.63   12.15
  14  -7  11   49.24    9.65
  15  -7  11   38.46    8.36
   0  -8 -11   -1.70    2.52
   0   8 -11   -3.95    6.19
  -1  -8 -11   70.87   26.80
   1  -8 -11   54.07   14.73
  -1  -8 -11   53.40   14.33
   1   8 -11   60.94   12.93
  -1   8 -11   49.35   12.73
   1  -8  11   64.49   13.84
  -2  -8 -11    4.59    7.86
   2  -8 -11    1.37    4.39
  -2  -8  11    3.73    2.82
   2   8 -11    3.15    3.37
  -2   8 -11    9.75    6.22
   2  -8  11    7.54    5.98
  -3  -8 -11  263.30   39.99
  -3  -8 -11  202.63   44.33
   3  -8 -11  218.30   35.80
  -3  -8  11  209.80   25.47
   3  -8  11  216.18   26.90
  -4  -8  11   73.53   23.42
  -4  -8 -11   54.12   17.67
  -4  -8 -11   88.51   21.60
  -4  -8 -11  144.61   36.68
   4  -8 -11   97.06   26.81
  -4  -8  11   71.20   15.52
   4  -8 -11  110.27   25.25
   4  -8  11   75.48   17.12
   4  -8  11   85.17   17.37
   4  -8 -11  100.52   18.09
  -5  -8  11  410.64   47.81
  -5  -8 -11  464.23   45.00
  -5  -8 -11  546.26   51.51
  -5  -8 -11  869.79   81.10
   5  -8 -11  402.91   57.77
   5  -8 -11  573.03   41.80
  -5  -8  11  517.42   43.20
   5  -8  11  433.88   41.57
  -5  -8 -11  556.28   47.44
   5  -8  11  506.19   43.73
   5  -8  11  573.29   48.09
   5  -8 -11  590.66   45.20
   5  -8  11  752.27   84.36
  -6  -8  11  183.56   29.41
  -6  -8 -11  174.38   28.68
   6   8  11  225.15   30.36
  -6  -8 -11  203.16   30.31
  -6  -8 -11  293.61   41.68
   6  -8 -11  211.81   26.35
  -6  -8  11  194.20   27.79
   6  -8  11  209.46   27.79
  -6  -8  11  230.51   34.61
   6  -8  11  174.18   27.96
   6  -8  11  214.26   30.59
   6  -8 -11  228.31   29.09
   6  -8  11  256.47   47.48
  -7  -8  11  642.24   53.19
  -7  -8 -11  698.66   59.06
   7   8  11  737.91   59.10
   7  -8 -11  749.93   50.44
  -7  -8  11  746.09   63.59
   7  -8  11  680.66   56.64
   7  -8 -11  713.65   53.12
  -8  -8  11  137.34   24.59
  -8  -8 -11  158.20   28.73
   8   8  11  123.13   25.21
  -8  -8  11  135.09   29.29
   8  -8  11  120.99   26.82
   8  -8 -11  153.44   24.82
  -9  -8 -11  210.14   31.26
   9   8  11  167.92   29.17
  -9  -8  11  176.17   29.92
   9  -8  11  174.85   29.94
   9  -8 -11  172.30   26.40
 -10  -8 -11    4.28    5.14
 -10  -8  11    7.43    7.49
  10   8  11    1.24    5.72
  10  -8  11    4.86    3.73
  10  -8 -11    4.53    6.16
  10  -8 -11    4.10    5.79
 -11  -8 -11   12.89    6.74
  11  -8  11   13.92    8.20
 -11  -8  11    2.26    6.86
  11   8  11   -1.34    4.97
  11  -8  11    0.94    5.00
  11  -8 -11    2.69    3.47
  11  -8 -11    5.35    5.81
 -12  -8 -11    1.79    2.80
  12  -8  11   -2.15    5.62
 -12  -8  11   -0.35    2.71
  12   8  11    4.92    4.37
  12  -8  11   -1.21    3.41
  12  -8 -11   -2.85    4.60
  12  -8 -11    6.87    5.26
 -13  -8 -11   38.78    9.89
 -13  -8  11   42.28   11.25
  13  -8  11   21.52   11.18
  13  -8  11   36.48   11.61
  13   8  11   54.90   11.81
  13  -8  11   24.84    6.97
  13  -8 -11   57.49   11.12
  13  -8  11   23.91    8.73
  13  -8 -11   59.06   11.99
 -14  -8  11   32.71    7.72
 -14  -8  11   40.06    8.06
  14  -8  11   27.60    8.99
  14   8  11   28.45    6.64
  14  -8 -11   39.81    8.43
  14  -8  11   16.21    4.84
   0  -9  11   60.84   20.18
   0  -9  11   66.33   38.46
   0  -9 -11   95.71   17.02
   0   9 -11   64.42   14.97
   0  -9 -11  123.47   42.90
   1  -9  11  643.76  104.19
  -1  -9  11  636.96  102.47
  -1  -9 -11 1161.09  120.20
   1  -9 -11  804.01   49.53
  -1  -9 -11  771.61   49.25
  -1   9 -11  643.68   46.42
  -1  -9 -11  588.62   50.45
   1  -9 -11  864.34  126.43
  -1  -9 -11 1043.87  108.05
   1  -9  11  694.43   48.58
  -1  -9  11  607.53   61.15
   1  -9 -11  754.37   49.56
   1  -9  11  674.62   69.97
  -2  -9  11   29.48   17.83
   2  -9  11   95.86   29.44
  -2  -9  11   86.98   30.14
  -2  -9 -11   91.09   18.81
  -2  -9 -11  137.20   35.74
   2  -9 -11   75.35   20.79
   2  -9 -11  111.54   18.59
  -2  -9 -11   94.82   17.39
  -2   9 -11   73.83   15.05
   2  -9 -11  198.48   58.02
  -2  -9 -11  119.33   29.20
   2  -9  11   83.73   16.98
   2  -9 -11   79.63   16.48
  -3  -9  11  369.58   55.45
  -3  -9 -11  381.32   39.96
  -3  -9 -11  494.90   59.21
   3  -9 -11  353.99   48.22
   3  -9 -11  430.21   36.72
  -3  -9 -11  402.79   36.99
  -3  -9  11  362.29   34.11
  -3   9 -11  361.03   35.38
   3  -9 -11  509.38   71.95
  -3  -9 -11  465.77   51.09
   3  -9  11  355.64   35.77
   3  -9  11  406.45   36.98
   3  -9 -11  410.40   37.55
   3  -9  11  460.70   64.38
  -4  -9  11   -0.56    5.03
   4  -9  11  -21.60   19.82
  -4  -9 -11    3.89    5.46
  -4  -9 -11    0.61    4.09
  -4  -9 -11  -10.88   15.82
   4  -9 -11    8.40   11.53
  -4  -9  11   -0.47    8.24
   4  -9 -11   -2.03    4.54
  -4  -9 -11   -0.21    2.37
   4  -9 -11   -4.99    7.45
  -4  -9 -11   19.99   10.83
   4  -9  11   17.55    8.90
   4  -9  11   -3.63    5.95
   4  -9 -11   10.69    6.36
  -5  -9  11   30.51   13.03
   5  -9  11   43.06   21.12
  -5  -9 -11   12.54   11.61
  -5  -9 -11   64.37   17.66
  -5  -9 -11   54.58   19.16
   5  -9 -11   32.32   13.82
   5  -9 -11   33.67   11.13
  -5  -9  11   35.73   11.86
   5  -9  11   38.39   12.61
   5  -9 -11   33.07   10.66
  -6  -9  11   -4.40    5.06
   6  -9  11   15.86    4.97
  -6  -9 -11   -2.46    6.75
   6  -9 -11    1.57    2.14
  -6  -9  11   -2.86    9.28
   6  -9  11   -7.97    9.69
   6  -9 -11    0.93    4.04
  -7  -9  11  209.10   29.67
  -7  -9 -11  220.73   31.91
   7  -9 -11  173.62   24.91
   7  -9  11  196.95   28.05
  -7  -9  11  199.54   33.37
   7  -9  11  215.83   30.41
   7  -9 -11  185.03   27.22
   7  -9  11  305.59   48.29
   8  -9  11    9.98   10.72
  -8  -9  11   32.13   12.25
  -8  -9 -11   38.68   12.26
   8  -9  11   15.99    7.91
  -8  -9  11   21.42    9.29
   8  -9  11   14.78    3.99
   8  -9 -11   26.87   10.54
  -9  -9  11  593.06   48.24
  -9  -9 -11  543.62   54.01
   9  -9  11  521.43   48.59
  -9  -9  11  718.11   56.66
   9  -9  11  618.11   54.37
   9  -9 -11  590.84   49.57
 -10  -9 -11    7.07    6.63
  10  -9  11    1.08    4.20
 -10  -9  11    5.93    9.20
  10  -9  11   -3.78    5.05
  10  -9 -11    9.15    7.51
 -11  -9 -11  532.17   44.58
  11   9  11  544.61   40.34
  11  -9  11  554.04   46.55
 -11  -9  11  451.41   44.41
  11  -9  11  576.89   46.64
  11  -9 -11  591.15   46.73
 -12  -9 -11   38.30   12.29
 -12  -9  11   29.92    9.50
  12  -9  11   35.55   12.54
  12  -9  11   34.33   10.31
  12  -9 -11   37.10   10.55
 -13  -9  11  350.13   26.51
  13  -9  11  294.75   28.35
  13  -9  11  308.68   26.55
  13  -9 -11  347.29   27.84
 -14  -9  11   15.34    4.54
   0 -10  11    3.08    6.23
   0 -10  11  -18.48    6.96
   0 -10 -11   -6.03    6.28
  -1 -10  11   19.77   13.76
   1 -10  11   21.94   26.05
   1 -10  11    2.89    9.31
  -1 -10  11   27.91   19.20
   1 -10 -11   13.92    5.86
  -1 -10 -11    2.79    2.72
  -1  10 -11    5.84    2.38
   1 -10 -11   -4.78   14.79
  -1 -10 -11   27.98   21.28
   1 -10  11    2.09    2.84
   1 -10 -11    7.14    3.73
  -2 -10  11   -3.02    5.22
  -2 -10  11    6.14   10.53
   2 -10  11   17.26   14.30
  -2 -10 -11    5.06    7.91
  -2 -10 -11   18.66   18.30
   2 -10 -11    1.59    2.26
  -2 -10 -11    5.31    5.26
   2 -10 -11   10.58    5.41
  -3 -10  11   -6.63    9.58
   3 -10  11    7.66    5.61
  -3 -10 -11    5.96    8.42
   3 -10 -11    2.19    4.04
  -3 -10 -11    2.78    2.89
   3 -10 -11    0.07    3.33
  -4 -10  11  104.12   24.24
   4 -10  11   83.81   28.41
   4 -10 -11   98.62   17.89
  -4 -10 -11  111.77   20.05
  -4 -10 -11   41.17   21.53
   4 -10  11  109.92   20.38
   4 -10 -11  102.54   18.98
  -5 -10  11   -2.49    4.51
   5 -10  11    3.13   11.12
  -5 -10 -11    0.38    3.17
   5 -10 -11    8.26    5.49
  -5 -10 -11    2.57    4.62
   5 -10  11    7.60    7.18
   5 -10 -11    9.72    6.16
  -6 -10  11   99.55   20.91
   6 -10  11  161.56   36.23
  -6 -10  11  133.40   26.02
  -6 -10 -11  118.50   24.30
   6 -10 -11  111.86   19.48
   6 -10  11  129.21   23.38
   6 -10 -11  110.60   20.26
  -7 -10  11    4.95    8.10
   7 -10  11    2.14    9.50
  -7 -10 -11   15.50   11.61
   7 -10 -11   -1.13    6.19
  -7 -10  11   11.46    7.50
   7 -10  11    7.86    6.95
   7 -10 -11   12.84    7.15
  -8 -10  11  124.52   22.76
   8 -10  11  123.78   31.78
  -8 -10 -11  131.01   30.09
  -8 -10  11  173.79   26.60
   8 -10  11  123.73   24.02
   8 -10 -11  115.09   21.47
  -9 -10  11   -4.37    3.48
  -9 -10  11    5.11    6.64
   9 -10  11    3.34    6.55
   9 -10 -11    5.65    6.37
 -10 -10 -11   20.14    9.72
  10 -10  11   20.13    8.46
 -10 -10  11    4.72    5.29
  10 -10  11   16.14    7.19
  10 -10 -11    7.32    5.12
 -11 -10 -11   -7.89    6.39
 -11 -10  11    0.02    2.62
  11 -10  11   -1.15    4.43
 -11 -10  11   12.43    7.06
  11 -10  11    1.10    3.42
  11 -10 -11   -0.27    4.69
 -12 -10 -11   10.12    5.22
 -12 -10  11    4.28    2.22
  12 -10  11   -1.92    2.81
  12 -10  11    4.74    4.32
  12 -10 -11   11.94    5.51
 -13 -10  11    9.88    4.56
 -13 -10 -11    4.31    2.21
  13 -10  11    4.66    3.17
  13 -10 -11    4.53    3.31
   0 -11  11   32.26   19.66
   0 -11  11   59.32   19.20
   0 -11 -11   74.25   15.31
   0 -11 -11   58.48   14.12
  -1 -11  11 1296.19  138.51
   1 -11 -11 1357.58   66.03
  -1 -11 -11 1423.61   69.61
   1 -11 -11 1294.24   66.57
  -1 -11  11 1124.09   82.62
   1 -11  11 1365.96   98.19
  -2 -11  11   27.55   12.14
  -2 -11  11   47.39   22.23
   2 -11  11   31.53   14.94
   2 -11 -11   60.37   13.80
  -2 -11 -11   58.04   14.55
   2 -11 -11   32.11    8.78
  -3 -11  11  614.15   70.51
  -3 -11 -11  440.00   48.89
   3 -11 -11  577.19   42.67
  -3 -11 -11  563.80   46.54
   3 -11 -11  535.11   42.89
   3 -11  11  671.26   77.44
  -4 -11  11   -6.16   10.71
   4 -11  11    5.00   11.89
  -4 -11 -11    5.32    4.18
   4 -11 -11   -0.01    3.24
  -4 -11 -11    4.89    3.96
   4 -11 -11    7.71    7.19
  -5 -11  11   70.70   18.44
   5 -11  11  142.70   38.80
  -5 -11  11   97.35   21.11
  -5 -11 -11  102.08   22.94
   5 -11 -11   78.22   15.48
  -5 -11 -11   83.54   19.86
   5 -11  11  118.78   20.57
   5 -11 -11   99.09   19.15
  -6 -11  11   13.35    8.86
   6 -11  11    6.80    9.76
  -6 -11  11   28.59   11.03
  -6 -11 -11   -0.04    3.85
   6 -11 -11   25.40    9.84
  -6 -11 -11   11.75    8.25
   6 -11  11   25.73   10.27
   6 -11 -11   33.43   12.67
  -7 -11  11   24.61    9.70
   7 -11  11   50.58   17.80
  -7 -11  11   32.47   10.97
  -7 -11 -11   31.39   13.89
   7 -11 -11   31.27   10.41
  -7 -11 -11   25.71   11.56
   7 -11  11   27.21   11.04
   7 -11 -11   30.55    9.90
  -8 -11  11    8.62    4.38
   8 -11  11   -2.08    4.67
  -8 -11 -11   19.01   11.08
  -8 -11 -11   16.28    8.66
  -8 -11  11   21.56    9.27
   8 -11  11   11.89    4.93
   8 -11 -11    6.73    4.46
  -9 -11  11  287.62   29.52
  -9 -11 -11  354.98   36.33
  -9 -11  11  211.65   26.89
  -9 -11 -11  264.74   31.87
  -9 -11  11  314.70   31.78
   9 -11  11  195.76   30.95
   9 -11 -11  260.71   32.34
   9 -11 -11  251.74   30.78
 -10 -11 -11   -8.21    6.02
 -10 -11  11    5.91    2.50
 -10 -11 -11   -4.76    5.10
  10 -11  11    8.88    7.39
  10 -11 -11   -2.31    4.50
 -11 -11 -11  425.40   40.83
 -11 -11  11  546.63   33.76
 -11 -11 -11  556.65   36.53
  11 -11  11  532.37   39.68
  11 -11 -11  559.09   39.71
 -12 -11 -11    6.90    4.92
 -12 -11  11    4.05    3.42
 -12 -11 -11    3.78    2.46
  12 -11  11    0.25    1.99
  12 -11 -11    5.37    4.23
   0 -12  11   -3.97   11.26
   0 -12  11   -2.49    4.80
   0 -12 -11   -3.78    2.58
   0 -12 -11    5.98    3.69
  -1 -12  11   -4.96    7.94
  -1 -12  11   -2.88   16.41
   1 -12  11    1.62    7.34
   1 -12 -11   -4.32    6.04
  -1 -12 -11    4.68    4.96
   1 -12 -11   -0.52    2.50
  -1 -12 -11    6.19    4.69
  -2 -12  11    5.30    8.22
  -2 -12  11   21.63   15.66
   2 -12  11   47.33   19.15
   2 -12 -11   22.96    9.18
  -2 -12 -11   21.14    8.39
   2 -12 -11   20.85    8.51
  -2 -12 -11   27.93   10.60
  -3 -12  11   37.09   19.78
   3 -12  11   27.79   11.89
  -3 -12 -11   31.58   12.43
   3 -12 -11   36.73   11.82
  -3 -12 -11   39.52   12.56
   3 -12 -11   35.06   11.04
  -4 -12  11  117.98   30.59
   4 -12  11  189.04   42.90
  -4 -12  11  120.55   23.80
  -4 -12 -11  164.54   27.07
   4 -12 -11  160.44   22.64
  -4 -12 -11  125.10   22.57
   4 -12 -11  127.48   20.92
  -5 -12  11   59.78   17.68
   5 -12  11  110.94   35.68
  -5 -12  11   72.67   18.84
  -5 -12 -11   55.90   18.49
   5 -12 -11   71.58   15.46
  -5 -12 -11   63.20   16.77
   5 -12 -11   58.10   13.82
  -6 -12  11   65.64   16.83
   6 -12  11  100.78   30.42
  -6 -12  11   61.26   15.97
   6 -12 -11   74.29   15.56
  -6 -12 -11   43.03   14.05
   6 -12  11   73.64   15.94
   6 -12 -11   69.47   15.98
  -6 -12 -11   61.58   18.33
  -7 -12  11   40.87   10.85
   7 -12  11   66.04   23.79
  -7 -12  11   47.98   13.65
  -7 -12 -11   29.54   11.78
  -7 -12 -11   31.99   13.32
   7 -12  11   60.01   15.51
   7 -12 -11   41.01   11.43
  -8 -12  11   84.22   15.38
   8 -12  11   38.76   16.98
  -8 -12 -11   99.85   19.26
  -8 -12  11   63.91   15.57
  -8 -12 -11   81.73   17.75
   8 -12  11   79.48   17.57
   8 -12 -11   73.57   16.33
   8 -12 -11   67.60   14.35
  -9 -12  11   14.38    5.54
   9 -12  11   -4.92    7.91
  -9 -12 -11   10.22    9.35
  -9 -12 -11   14.13    7.61
   9 -12  11   26.01   10.38
   9 -12 -11   26.23    8.52
  -9 -12  11   26.42    8.61
 -10 -12 -11   28.40    9.33
 -10 -12  11   14.06    5.39
 -10 -12 -11   14.87    6.39
  10 -12  11   16.79    7.19
  10 -12 -11   35.07   11.17
 -11 -12  11   -3.74    3.36
 -11 -12 -11    0.82    2.69
 -11 -12 -11   -2.26    3.25
  11 -12  11   -1.57    3.67
  11 -12 -11    0.45    2.14
   0 -13  11    2.41   11.91
   0 -13  11   11.12    7.49
   0 -13 -11   17.87    9.09
   0 -13 -11   20.62    7.73
  -1 -13  11  340.18   69.35
   1 -13 -11  353.74   33.02
  -1 -13 -11  364.96   35.47
   1 -13 -11  363.94   35.59
  -1 -13 -11  366.87   37.74
   1 -13  11  290.63   48.71
  -2 -13  11   47.88   22.62
   2 -13  11   35.39   18.03
  -2 -13  11   37.50   13.63
   2 -13 -11   48.32   12.54
  -2 -13 -11   50.08   13.91
   2 -13 -11   75.71   17.12
  -2 -13 -11   58.91   15.78
  -3 -13  11  198.50   37.74
   3 -13  11  119.00   34.69
  -3 -13  11  136.23   24.81
   3 -13 -11  132.35   19.94
  -3 -13 -11  129.29   22.11
   3 -13 -11  141.21   21.41
  -4 -13  11   14.52    8.49
   4 -13  11   18.27   14.16
  -4 -13  11   21.48    9.05
   4 -13 -11   19.07    8.14
  -4 -13 -11   14.86    8.80
   4 -13 -11   28.41    8.83
  -5 -13  11   23.43   10.07
   5 -13  11   -3.59    9.46
  -5 -13  11    9.47    6.52
  -5 -13 -11   10.56    8.62
   5 -13 -11   12.99    6.03
  -5 -13 -11   11.40    8.12
   5 -13 -11    8.90    5.40
  -6 -13  11   38.90   11.52
   6 -13  11   13.66   14.50
  -6 -13  11   38.05   11.60
  -6 -13 -11   16.41   12.89
   6 -13 -11   33.33   10.50
  -6 -13 -11   34.58   12.25
   6 -13 -11   45.08   13.40
  -7 -13  11   18.63    7.36
   7 -13  11   16.37   15.69
  -7 -13  11   31.55   10.53
  -7 -13 -11   34.52   10.80
  -7 -13 -11   35.36   12.92
   7 -13 -11   26.95    8.99
   7 -13 -11   30.53    9.41
  -8 -13 -11    4.87    6.12
  -8 -13  11    7.95    4.12
   8 -13  11   16.27    9.67
  -8 -13 -11   -3.60    5.52
   8 -13  11    1.94    2.94
   8 -13 -11   -0.37    4.57
  -9 -13 -11   96.81   17.43
  -9 -13  11   94.28   13.23
  -9 -13 -11  103.80   17.60
   9 -13  11   79.35   14.80
   9 -13 -11   91.36   16.55
  -9 -13  11   67.43   11.60
  10 -13 -11   17.62    5.36
 -10 -13 -11   21.02    6.16
  10 -13  11   22.25    8.05
  10 -13 -11   22.59    7.32
   0 -14  11   -3.11    9.89
   0 -14  11   -7.40    7.80
   0 -14  11    8.77   11.04
   0 -14 -11    3.89    2.61
  -1 -14  11  -15.16    8.26
  -1 -14  11   71.38   28.42
   1 -14  11   -7.13    3.92
  -1 -14  11   28.12   11.43
   1 -14  11   64.25   24.65
   1 -14 -11   30.89   10.48
  -1 -14 -11   24.01    8.27
  -2 -14  11   33.55   17.00
   2 -14  11   28.71   17.02
  -2 -14  11   23.22   11.69
   2 -14  11   44.88   32.12
   2 -14 -11   22.20    7.85
  -2 -14 -11   19.43    7.61
   3 -14  11  192.66   45.45
  -3 -14  11  198.80   29.74
   3 -14 -11  232.55   25.68
  -3 -14 -11  227.57   29.80
   4 -14  11  166.51   39.46
  -4 -14  11  109.47   20.47
   4 -14 -11   76.92   15.06
  -4 -14 -11   87.57   19.13
  -4 -14  11  174.47   28.28
  -5 -14  11  320.83   34.54
   5 -14 -11  341.10   31.21
  -5 -14 -11  345.51   38.19
   5 -14  11  267.63   57.24
  -5 -14  11  427.81   39.36
  -6 -14  11   51.16   11.85
   6 -14  11   35.21   21.34
  -6 -14  11   30.34    9.51
  -6 -14 -11   41.44   15.08
   6 -14 -11   39.10   12.33
   6 -14 -11   46.54   12.36
  -7 -14  11  292.01   28.04
  -7 -14 -11  330.61   34.18
   7 -14 -11  361.43   35.99
  -7 -14  11  337.34   27.46
  -8 -14  11   34.17    7.91
   8 -14 -11   44.50   12.34
  -8 -14 -11   40.96   10.27
   8 -14 -11   27.33    8.99
  -9 -14 -11  148.29   16.98
   9 -14 -11  152.96   18.63
   9 -14 -11  160.67   18.43
   0 -15  11   78.66   21.62
   0 -15  11   98.35   29.70
   0 -15 -11   93.69   16.42
  -1 -15  11    2.48    8.15
   1 -15  11   -0.64    5.35
  -1 -15  11    6.82    5.04
   1 -15  11   22.42   19.42
   1 -15 -11    4.17    4.69
  -1 -15 -11    9.03    3.16
   1 -15 -11    3.12    4.84
   2 -15  11    1.13   10.26
  -2 -15  11  134.55   25.10
   2 -15  11  249.57   61.80
   2 -15 -11  127.65   25.90
   2 -15 -11  120.68   18.37
  -2 -15 -11  117.30   20.59
  -2 -15  11  210.65   37.74
  -3 -15  11   12.20    6.44
   3 -15  11   20.65   15.02
  -3 -15  11   -1.36    4.99
   3 -15  11  -17.21   24.19
   3 -15 -11  -13.27   14.55
   3 -15 -11    2.76    4.54
  -3 -15 -11    2.25    2.81
  -4 -15  11   16.19    9.72
   4 -15  11   -3.61    7.87
  -4 -15  11    3.21    2.39
   4 -15 -11    0.77    7.83
   4 -15 -11    8.73    5.66
  -4 -15 -11   13.14    5.57
  -5 -15  11    7.60    6.03
   5 -15  11  -11.73   14.59
  -5 -15  11    6.23    4.19
   5 -15 -11   -8.75   16.04
  -5 -15 -11    1.51    2.99
   5 -15 -11    4.97    4.65
  -6 -15  11    2.24    3.58
   6 -15  11   -1.83    6.08
   6 -15 -11   -7.20   11.83
  -6 -15 -11    1.53    2.19
   6 -15 -11    8.27    8.90
  -7 -15  11    5.89    2.92
   7 -15 -11   19.34    7.85
  -7 -15 -11   11.85    5.88
   0 -16 -11    1.76    4.45
   0 -16 -11   -0.60    3.59
  -1 -16  11   39.82   13.53
  -1 -16  11   51.23   17.60
   1 -16  11   79.38   27.43
   1 -16 -11   45.07   11.93
  -1 -16 -11   37.47   10.12
  -1 -16 -11   34.93   11.41
  -2 -16  11    3.40    7.10
   2 -16  11    3.53    3.86
  -2 -16  11    0.43    7.18
   2 -16 -11   -2.87    3.21
  -2 -16 -11    3.90    4.35
  -2 -16 -11    3.52    5.66
  -3 -16  11  221.85   27.18
  -3 -16 -11  365.96   39.73
   3 -16 -11  257.02   26.36
  -3 -16 -11  198.90   25.63
  -3 -16  11  412.38   38.32
  -4 -16  11    2.74    4.68
   4 -16  11  -12.06   10.21
  -4 -16  11   -4.56    4.93
  -4 -16 -11    2.83    3.89
  -4 -16 -11   -2.80    4.22
   0   0 -12  840.74   50.61
   1   0 -12    2.37    3.44
  -1   0 -12   -1.06    2.61
   2   0 -12  543.71   40.91
  -2   0 -12  600.11   46.24
   3   0 -12   -0.94    2.28
  -3   0 -12   -1.93    5.98
   4   0 -12  375.31   35.66
  -4   0 -12  413.94   41.39
   5   0  12    2.15    4.61
  -5   0 -12   -0.38    2.90
   5   0 -12    1.85    1.65
   5   0 -12   -7.63    6.32
   6   0  12   -4.24    6.38
  -6   0 -12   -0.24    3.82
   6   0 -12    4.23    2.86
   6   0 -12    5.75    6.27
   7   0  12   -0.02    3.55
  -7   0 -12    3.30    5.45
   7   0 -12   -5.43    5.24
   7   0 -12    0.63    3.30
   8   0  12   28.25   11.88
   8   0 -12   29.85   11.32
  -8   0  12   30.96   14.47
   8   0  12   32.83   12.99
   8   0 -12   28.22   11.18
  -8   0  12    3.84   10.38
   8   0  12   31.06   10.89
   8   0 -12   17.88   12.75
   9   0  12   -2.80    6.92
   9   0 -12    4.06    3.58
  -9   0  12    6.41    7.18
   9   0  12  -16.80   12.47
   9   0 -12    4.34    6.47
   9   0  12    7.72    6.55
   9   0 -12   -2.76    4.61
  10   0  12  200.73   29.09
  10   0  12  190.43   32.18
  10   0 -12  230.77   30.58
  11   0  12  -12.68    9.31
  11   0  12    3.88    4.10
  11   0 -12   -4.94    5.02
  12   0  12  370.92   38.15
  12   0  12  268.42   34.07
  12   0 -12  275.72   31.58
  13   0  12   -9.17    6.27
  13   0 -12   -4.97    4.36
  14   0  12  116.36   22.89
  14   0 -12  175.84   20.77
 -14   0  12  131.98   18.79
  15   0  12    0.61    1.87
  15   0  12    2.62    2.15
  15   0 -12    0.56    1.89
 -15   0  12    1.96    4.38
 -16   0  12   24.08    5.62
   0  -1 -12    4.37    4.51
   0   1 -12    0.43    3.40
   1  -1 -12  241.93   28.10
  -1  -1 -12  257.82   30.58
   1   1 -12  238.19   26.70
  -1   1 -12  240.81   27.70
   2  -1 -12   -1.30    2.11
   2   1 -12    4.76    4.68
  -2  -1 -12    2.59    4.92
  -2   1 -12    6.88    6.87
   3  -1 -12  341.36   33.76
   3   1 -12  345.45   32.80
  -3  -1 -12  380.48   39.67
  -3   1 -12  330.61   34.79
   4   1  12    8.05    5.84
  -4  -1 -12    8.89    6.09
   4  -1 -12    7.77    5.00
   4  -1 -12    7.46    6.39
   4   1 -12   23.98    8.99
  -4   1 -12   17.14    9.67
   5   1  12 1060.52   72.90
   5  -1  12  932.66   64.89
  -5  -1 -12 1037.69   66.05
   5   1 -12  943.30   57.00
   5  -1 -12  907.47   55.38
   5  -1 -12  824.02   55.54
   5   1 -12  876.78   55.00
  -5   1 -12  885.59   62.25
   6   1  12   45.72   15.45
   6  -1  12   45.87   15.43
  -6   1 -12   30.27   11.52
  -6  -1 -12   26.06    8.82
   6  -1 -12   41.67   12.86
   6  -1 -12   44.26   13.47
   6   1 -12   36.76   11.80
   7   1  12 1613.19   88.48
   7  -1  12 1485.58   88.26
  -7  -1 -12 1530.96   83.93
   7   1 -12 1424.36   80.51
   7  -1 -12 1379.96   79.49
  -7  -1  12 1322.72   80.58
   7  -1 -12 1363.49   75.22
   7   1 -12 1388.00   74.99
   8   1 -12    3.37    2.77
   8   1  12   16.11    9.26
   8  -1  12   23.94   11.06
   8   1 -12   22.03   10.14
   8  -1 -12   11.05    5.58
  -8  -1  12   11.17    8.81
   8  -1  12   34.08   12.56
   8  -1 -12   10.49    7.95
   8   1 -12   12.31    7.00
  -8   1  12   18.58    9.82
  -8  -1  12   -6.57    5.87
   8  -1  12   16.44    8.14
   8   1  12   12.19    6.65
   8  -1 -12   18.96    8.38
   9   1  12  753.53   55.93
   9  -1  12  793.93   61.67
   9  -1  12  597.43   48.54
   9   1  12  550.53   47.54
   9   1 -12  721.86   58.35
   9  -1 -12  647.95   57.53
  -9  -1  12  557.32   53.60
  -9   1  12  551.53   53.86
   9  -1  12  566.75   52.81
   9  -1 -12  614.25   52.99
   9   1 -12  651.49   52.68
  -9  -1  12  390.39   44.26
   9  -1 -12  594.29   52.40
   9   1 -12  611.27   49.57
  10  -1  12   10.58    9.74
 -10  -1  12   -0.22    6.32
  10  -1  12    1.01    5.19
  10   1  12    3.81    2.76
  10  -1 -12   -2.46    4.13
  10   1 -12   -9.10    6.28
  11  -1  12   -6.30    6.77
 -11  -1  12   17.02    9.40
  11  -1  12   13.95    9.55
  11   1  12    5.57    3.91
  11   1 -12    7.63    2.55
  11  -1 -12    0.93    5.38
  12  -1  12   -6.97    8.78
  12  -1  12   -2.24    5.75
  12   1  12    8.12    5.79
  12   1 -12   -2.69    6.80
  12  -1 -12    3.76    4.35
  13  -1  12   78.44   17.39
  13  -1  12   56.29   16.59
  13   1  12   62.36   15.88
  13   1 -12   69.55   13.93
  13  -1 -12   53.79   13.78
  14  -1  12    6.28    5.10
  14  -1  12   11.67    6.14
  14   1  12    7.95    4.04
  14   1 -12    3.61    3.44
  14  -1 -12    9.93    3.95
 -14  -1  12    6.95    5.35
 -14   1  12    7.73    4.59
  15   1  12  156.57   19.70
  15  -1  12  152.11   17.43
  15   1 -12  176.83   17.84
  15  -1 -12  162.15   18.25
  15   1  12  160.50   16.98
 -15  -1  12  174.56   17.71
 -15   1  12  177.73   17.99
 -16  -1  12   15.81    4.61
   0  -2 -12  503.42   45.01
   0   2 -12  476.42   37.18
   1  -2 -12  365.33   37.79
  -1  -2 -12  344.27   38.69
   1   2 -12  336.50   31.03
  -1   2 -12  341.70   32.00
  -2  -2 -12  152.67   24.07
  -2  -2 -12  176.52   22.20
   2  -2 -12  172.36   25.24
   2   2 -12  167.79   21.75
  -2   2 -12  168.52   23.96
  -3  -2 -12  196.25   27.83
   3  -2 -12  188.71   26.86
   3   2 -12  206.39   25.05
  -3   2 -12  200.26   26.54
  -4  -2 -12   31.30   12.74
   4   2  12   20.63   10.31
   4  -2 -12   23.97    7.61
   4  -2 -12   27.71   10.73
   4   2 -12   16.95    7.86
  -4   2 -12   23.23    9.20
   5   2  12    5.60    4.00
   5  -2  12   10.09    8.42
   5  -2 -12    4.09    4.32
   5  -2 -12    4.93    3.20
   5   2 -12   -2.24    4.72
  -5   2 -12    4.69    3.91
  -5  -2 -12    0.83    3.26
   6   2  12   94.12   22.19
   6  -2  12   57.36   15.07
  -6   2 -12   71.28   16.37
  -6  -2 -12   88.15   19.85
   6  -2 -12   73.72   17.09
  -6  -2  12   75.09   19.25
   6  -2 -12   60.78   15.89
   6   2 -12   90.12   18.69
  -6   2 -12   58.50   16.69
   7   2  12  134.93   25.11
   7  -2  12  140.31   28.21
  -7  -2 -12  137.74   25.54
   7  -2 -12  113.36   22.47
  -7  -2  12  121.88   23.79
   7  -2 -12  122.16   22.82
   7   2 -12  122.14   22.16
  -8   2  12   67.90   16.70
   8   2  12  114.28   22.50
   8  -2  12   82.45   20.06
  -8  -2 -12   89.94   19.91
   8  -2 -12  105.23   23.68
  -8  -2  12  102.57   22.03
   8  -2  12   92.23   20.16
   8  -2 -12   97.07   20.45
   8   2 -12   88.51   18.52
  -8   2  12   31.08   12.67
  -8  -2  12   66.70   16.72
   8   2  12  113.69   21.62
   8  -2  12   95.48   20.89
   8  -2 -12  112.98   23.39
   8   2 -12   99.33   18.21
   9   2  12  385.57   39.53
   9  -2  12  394.80   44.75
   9   2  12  269.54   33.15
   9  -2 -12  310.60   39.70
   9  -2  12  272.48   39.58
  -9  -2  12  291.54   35.28
  -9  -2  12  209.27   34.38
   9  -2 -12  332.05   40.15
   9   2 -12  282.11   33.06
   9  -2  12  374.59   41.92
  10   2  12  283.33   35.62
  10  -2  12  259.76   38.31
 -10  -2  12  272.32   34.60
  10  -2 -12  328.13   38.86
  10   2 -12  259.96   33.20
  11   2  12  443.28   42.24
  11  -2  12  470.94   46.20
 -11  -2  12  328.13   37.10
  11   2 -12  357.28   36.25
  11  -2 -12  446.97   43.71
  12   2  12  328.50   36.91
  12  -2  12  406.70   41.32
 -12  -2  12  388.60   36.66
  12   2 -12  369.46   34.13
  12  -2 -12  343.29   36.14
  13   2  12  158.40   22.05
  13  -2  12  179.81   25.17
 -13  -2  12  173.51   22.17
  13   2 -12  161.54   20.93
  13  -2 -12  166.11   22.92
  14   2  12  114.42   17.71
  14  -2  12  112.97   18.74
  14  -2 -12  112.99   18.02
  14   2  12  125.12   16.88
 -14  -2  12  103.14   15.69
 -14   2  12  118.69   16.91
  15   2  12   85.98   14.73
  15  -2  12   92.08   13.05
  15  -2 -12   83.51   15.15
 -15  -2  12   88.51   12.48
 -15   2  12   80.22   11.75
 -16  -2  12    9.88    3.70
   0  -3 -12   -0.38    4.93
   0  -3 -12    3.81    8.33
   0   3 -12    1.80    3.08
   1  -3 -12  203.61   32.98
  -1  -3 -12  143.82   24.59
  -1  -3 -12  161.99   21.39
   1  -3 -12  210.24   32.20
   1   3 -12  163.74   21.67
  -1   3 -12  156.59   21.85
  -2  -3 -12  172.67   25.65
  -2  -3 -12  197.73   24.07
   2  -3 -12  181.19   29.14
   2   3 -12  154.63   21.14
  -2   3 -12  169.92   23.89
  -3  -3 -12  229.87   30.50
  -3  -3 -12  284.65   28.84
   3  -3 -12  227.02   32.18
   3   3 -12  235.75   26.55
  -3   3 -12  220.45   27.63
   4   3  12  421.33   51.57
  -4  -3 -12  296.74   35.95
   4  -3 -12  303.61   28.60
   4  -3 -12  282.43   34.87
   4   3 -12  305.88   30.94
  -4   3 -12  292.91   33.11
   5   3  12  339.35   43.69
   5  -3  12  271.07   33.74
  -5  -3 -12  261.92   34.54
   5  -3 -12  238.30   27.72
  -5  -3  12  233.15   25.60
  -5  -3  12  279.04   36.39
   5  -3 -12  218.60   30.53
   5   3 -12  255.66   29.25
  -5   3 -12  229.90   31.27
   6   3  12  499.90   50.26
   6  -3  12  387.88   44.36
  -6  -3 -12  339.51   40.27
   6  -3 -12  342.02   35.98
  -6  -3  12  380.44   42.98
   6  -3 -12  340.22   38.40
   6   3 -12  349.69   35.73
  -6   3 -12  339.52   38.51
   7   3  12  505.56   48.47
   7  -3  12  376.47   45.64
  -7  -3 -12  421.81   45.12
   7  -3 -12  357.77   39.65
  -7  -3  12  380.85   42.16
   7  -3 -12  388.36   41.06
   7   3 -12  394.99   38.42
  -7   3 -12  396.28   43.18
  -8   3  12  199.90   28.94
   8   3  12  270.48   33.77
   8  -3  12  275.48   39.44
   8   3  12  165.53   30.86
  -8  -3 -12  256.29   35.72
   8  -3 -12  216.74   32.93
  -8  -3  12  233.22   32.95
   8  -3  12  209.28   30.45
   8  -3 -12  214.50   30.44
   8   3 -12  214.80   28.36
  -8  -3  12  100.51   27.33
   8  -3 -12  319.81   39.41
   8   3 -12  242.82   30.16
   8  -3  12  259.82   35.77
   8  -3 -12  219.90   26.97
   9   3  12  136.87   25.44
   9  -3  12  140.68   26.68
  -9  -3  12  156.54   26.90
  -9  -3  12  124.37   24.92
   9  -3 -12  170.97   28.75
   9  -3  12  178.54   29.72
   9  -3 -12  176.71   25.48
  10  -3  12   96.53   21.48
 -10  -3  12   42.81   16.39
  10   3  12   76.69   19.27
  10  -3  12   84.09   19.72
  10  -3 -12  114.26   23.49
  11  -3  12   18.30   10.22
 -11  -3  12    2.85    5.96
  11   3  12   -4.31    6.66
  11  -3  12   10.38    4.55
  11  -3 -12   13.72    7.31
  12  -3  12   -6.95    7.07
 -12  -3  12    4.67    4.66
  12   3  12    4.26    3.87
  12  -3 -12    5.32    6.22
  13  -3  12   44.22   13.18
 -13  -3  12   27.05    7.69
  13   3  12   31.97    9.22
  13  -3 -12   39.92   10.84
  14  -3  12   64.41   13.23
  14   3  12   46.91   11.41
  14  -3 -12   62.80   13.51
 -14  -3  12   68.18   12.60
 -14   3  12   69.44   12.66
  15   3  12   89.13   15.06
  15  -3  12   90.84   14.02
  15  -3 -12   61.77   13.50
 -15   3  12  103.34   12.68
 -15  -3  12   88.23   12.63
   0  -4 -12  147.33   29.08
   0  -4 -12  109.01   17.84
   0   4 -12  138.17   20.74
   1  -4 -12 1025.43   82.64
  -1  -4 -12  980.70   68.94
   1  -4 -12  936.07   55.38
  -1  -4 -12  982.39   54.99
   1   4 -12  994.90   53.90
  -1   4 -12  977.14   54.88
  -2  -4 -12   55.96   15.50
  -2  -4 -12   56.33   13.03
   2  -4 -12   94.62   25.49
   2   4 -12   55.79   13.25
  -2   4 -12   47.22   13.80
   2  -4 -12   67.95   23.90
  -3  -4 -12  265.15   35.00
  -3  -4 -12  289.00   29.77
   3  -4 -12  280.81   26.29
   3  -4 -12  324.81   41.83
   3   4 -12  251.35   27.24
  -3   4 -12  254.56   30.04
   3  -4  12  285.96   31.67
   4   4  12   19.42   16.51
  -4  -4 -12    3.53    2.63
   4  -4 -12    5.03    2.93
  -4  -4  12    7.06    5.21
   4  -4 -12    5.44    5.98
   4   4 -12    4.71    4.99
  -4   4 -12    6.95    6.23
   4  -4  12    2.25    2.96
   5   4  12   15.05    8.45
  -5  -4 -12   13.06    6.88
   5  -4 -12    5.95    4.98
  -5  -4  12    1.68    4.11
   5  -4 -12    0.26    5.53
   5   4 -12    7.97    4.49
  -5   4 -12    4.72    3.56
   6   4  12   10.39   10.69
   6  -4  12    9.36    8.60
  -6  -4 -12    3.47    3.44
   6  -4 -12    5.96    3.01
  -6  -4  12    1.76    3.79
  -6  -4  12   16.15    6.20
   6  -4 -12    9.04    5.98
   6   4 -12    4.77    4.72
  -7   4  12  127.87   23.12
   7   4  12  221.94   31.79
   7  -4  12  134.92   28.74
   7   4  12   82.82   23.58
  -7  -4 -12  159.73   27.93
  -7  -4 -12  130.20   25.87
   7  -4 -12  145.03   24.96
  -7  -4  12  159.24   27.32
   7  -4  12  160.70   25.30
   7  -4 -12  147.66   25.68
   7   4 -12  152.97   23.22
  -7  -4  12  123.55   25.71
   7  -4 -12  155.37   26.70
   7  -4  12  189.48   29.54
   7  -4 -12  134.66   21.02
  -8   4  12   -0.14    2.34
   8   4  12   -0.39    9.39
   8  -4  12   -1.77    4.10
  -8  -4 -12  -10.92   12.24
  -8  -4 -12   10.16    5.02
   8  -4 -12   -5.59    2.81
  -8  -4  12   10.60   10.67
   8  -4  12   -3.73    7.51
   8  -4 -12    5.09    5.64
  -8  -4  12    5.46    6.65
   8   4  12   -5.13    7.88
   8  -4  12   16.43   11.57
   8  -4 -12    6.16    4.61
   8  -4 -12    2.09    6.99
  -9  -4 -12  439.66   47.02
   9   4  12  398.30   41.60
   9  -4  12  357.94   42.71
  -9  -4  12  426.05   45.06
   9  -4 -12  529.58   51.03
   9  -4  12  460.79   48.62
   9  -4 -12  389.95   37.76
  10  -4  12   14.87   10.67
 -10  -4  12   -0.66    4.52
  10   4  12    1.01    6.65
  10  -4  12   -7.47    8.13
  10  -4 -12    8.96    6.83
  10  -4 -12   -6.41    8.98
  11   4  12  988.99   63.04
  11  -4  12 1048.82   68.60
 -11  -4  12  829.11   57.72
  11  -4 -12  930.68   67.07
  11  -4  12 1161.41   68.91
  12  -4  12    5.03    6.58
 -12  -4  12    0.71    4.19
  12   4  12   -0.66    4.07
  12  -4  12    6.17    5.94
  12  -4 -12   11.82    6.21
  13   4  12  491.47   39.63
  13  -4  12  557.40   44.90
 -13  -4  12  454.91   36.55
  13  -4 -12  539.05   42.00
 -13  -4  12  476.72   36.69
 -14  -4  12    0.46    1.96
  14  -4  12    6.45    3.25
  14   4  12    3.62    4.09
  14  -4 -12    8.33    6.07
 -14  -4  12    4.20    4.18
  15   4  12  244.80   22.86
  15  -4  12  304.12   24.10
  15  -4 -12  220.19   21.15
  15  -4  12  253.29   21.36
 -15  -4  12  253.00   19.86
   0  -5 -12   -4.38   10.76
   0  -5 -12    1.56    3.31
   0   5 -12   -4.99    5.55
   1  -5 -12   28.49   10.86
  -1  -5 -12   45.80   16.07
   1  -5 -12   33.46   11.03
  -1  -5 -12   46.78   12.48
   1   5 -12   32.91    9.82
  -1   5 -12   35.15   11.04
  -2  -5 -12  268.16   37.17
   2  -5 -12  241.74   30.88
  -2  -5 -12  296.41   30.70
   2   5 -12  258.11   27.73
  -2   5 -12  260.44   29.38
  -3  -5 -12   17.72    9.44
   3  -5 -12   21.75   10.02
  -3  -5 -12   24.63    8.86
   3  -5 -12   27.81    8.98
   3  -5 -12   32.14   12.40
   3   5 -12   25.18    9.12
  -3   5 -12   16.50    8.56
   3  -5  12   29.82   10.02
  -4  -5 -12  332.69   39.32
   4  -5 -12  311.76   41.18
   4  -5 -12  343.92   31.65
  -4  -5  12  353.92   32.35
   4  -5 -12  478.33   54.94
   4   5 -12  415.93   35.67
  -4   5 -12  340.71   35.46
   4  -5  12  345.92   35.46
  -5  -5 -12   10.62    5.18
   5  -5 -12   22.41   12.60
   5  -5 -12   23.68    8.04
  -5  -5  12    9.92    4.80
   5  -5 -12   10.91    7.10
   5   5 -12   15.92    6.39
   5  -5  12   20.71    9.01
  -6   5  12  322.83   34.17
   6   5  12  367.47   47.15
  -6  -5 -12  273.55   36.04
   6  -5  12  321.90   39.19
   6   5  12  354.52   37.07
  -6  -5 -12  326.48   39.64
   6  -5 -12  290.90   45.73
   6  -5 -12  301.65   33.72
  -6  -5  12  314.19   32.92
   6  -5  12  320.41   33.94
   6  -5 -12  411.74   45.52
   6   5 -12  326.32   32.70
   6  -5  12  347.97   36.23
  -6  -5  12  262.38   33.83
   6  -5  12  419.30   42.84
   7   5  12   93.58   22.90
   7   5  12  104.57   21.79
   7  -5  12   99.90   23.76
  -7  -5 -12   28.73   21.25
  -7  -5 -12  105.63   22.59
   7  -5 -12  113.39   28.49
   7  -5 -12   87.24   19.68
  -7  -5  12   87.83   17.81
  -7   5  12   83.45   19.16
  -7  -5  12  102.71   21.57
   7  -5  12   76.36   19.20
   7  -5 -12  111.38   23.20
  -7  -5  12   79.59   19.83
   7  -5  12   84.72   19.03
   7  -5 -12   88.90   16.15
   7  -5 -12   94.62   20.05
   8   5  12  148.64   27.01
   8  -5  12  184.72   29.06
  -8  -5  12  245.19   35.39
  -8  -5  12  147.58   27.31
   8  -5 -12  260.97   35.17
   8  -5  12  217.22   32.75
   8  -5 -12  207.46   26.72
  -9  -5 -12   14.85    9.06
   9  -5  12  -15.42    7.58
  -9  -5  12   17.19   10.08
   9   5  12   -5.43    3.07
   9  -5  12    3.79    4.33
   9  -5 -12    5.61    5.27
   9  -5 -12    6.69    5.71
 -10  -5 -12   40.78   24.39
  10  -5  12   98.98   22.20
 -10  -5  12  100.50   21.89
  10   5  12   54.07   22.47
  10  -5  12  129.20   24.80
  10  -5 -12  102.91   22.50
  10  -5 -12   98.35   19.38
  11  -5  12   13.08    8.07
 -11  -5  12    0.14    4.34
  11   5  12    0.72    3.44
  11  -5  12    8.95    8.51
  11  -5 -12    7.59    9.40
  12  -5  12    4.36    5.54
 -12  -5  12   -3.66    3.70
  12   5  12    3.50    4.00
  12  -5  12   -2.04    4.09
  12  -5 -12    4.64    5.69
  13  -5  12    1.39    2.86
 -13  -5  12    3.12    3.42
  13   5  12    7.94    4.67
  13  -5  12   -4.77    4.00
  13  -5 -12   -1.83    3.84
 -13  -5  12    7.91    5.72
 -14  -5  12   65.24   11.19
  14  -5  12   98.26   16.75
  14  -5 -12  127.16   17.45
  14   5  12   45.21   14.32
 -14  -5  12   89.03   13.08
  15  -5  12    5.72    3.89
  15   5  12   -4.00    3.27
  15  -5  12    3.19    2.76
  15  -5 -12    7.66    4.65
 -15  -5  12    2.54    2.46
   0  -6 -12  123.58   32.61
   0  -6 -12   83.86   17.32
   0   6 -12  100.56   18.32
  -1  -6 -12 1401.64  100.23
   1  -6 -12 1240.97   68.59
  -1  -6 -12 1311.06   67.38
   1   6 -12 1383.77   64.89
  -1   6 -12 1294.72   64.76
  -2  -6 -12    4.49    2.92
   2  -6 -12    8.80    4.68
  -2  -6 -12   11.11    7.02
   2   6 -12   15.06    6.59
  -2   6 -12   18.51    8.49
   2  -6  12    4.71    2.95
  -3  -6 -12  472.42   49.66
   3  -6 -12  456.10   48.22
  -3  -6 -12  513.08   42.41
   3   6 -12  535.13   40.44
  -3   6 -12  495.64   41.59
   3  -6  12  508.65   41.69
  -4  -6 -12    7.39    8.68
   4  -6 -12    0.70    5.27
  -4  -6  12   -0.09    3.00
   4  -6 -12    9.07   15.13
   4   6 -12   -4.04    4.78
  -4   6 -12    3.99    4.77
   4  -6  12    7.83    5.13
   5   6  12  109.14   20.20
  -5  -6 -12  112.63   22.28
  -5  -6 -12  104.07   22.11
   5  -6 -12   99.45   26.98
   5  -6 -12  104.72   18.97
  -5  -6  12  107.53   19.46
   5   6 -12   95.54   17.16
   5  -6 -12  126.14   28.79
   5  -6  12  115.40   20.51
   5  -6  12   81.32   18.00
  -5  -6  12  114.46   19.39
   5  -6  12  115.37   22.18
   5  -6 -12  111.24   17.97
   6  -6  12    8.10    9.04
  -6  -6 -12    5.76    4.18
  -6  -6 -12   -7.96    6.74
   6  -6 -12    2.32   12.63
   6  -6 -12   -5.98    7.82
  -6  -6  12    0.75    4.54
  -6   6  12   -1.16    6.30
   6  -6 -12    6.02    8.47
   6  -6  12    1.83    3.65
   6  -6  12   -3.93    5.71
   6   6  12    0.34    4.99
  -6  -6  12    7.52    6.21
   6  -6  12  -11.69    6.83
   6  -6  12    3.33    5.52
   6  -6 -12   -4.98    6.74
   6  -6 -12   11.13    6.60
   7   6  12   55.29   16.24
  -7  -6 -12   44.12   19.10
  -7  -6 -12   49.47   15.83
   7  -6 -12   57.27   16.61
  -7   6  12   41.62   14.48
  -7  -6  12   40.58   11.36
   7  -6  12   25.28   12.99
   7  -6  12   47.05   14.99
   7   6  12   23.20   16.14
  -7  -6  12   23.84   13.06
   7  -6  12   53.73   16.15
   7  -6 -12   54.74   13.53
   7  -6 -12   52.17   15.61
  -8  -6  12   -5.85    4.21
  -8  -6 -12    1.05    6.01
   8  -6  12    0.90    5.92
  -8  -6  12   -3.67    3.14
   8   6  12   11.80    9.04
   8  -6  12    1.12    6.38
   8  -6 -12   -4.70    6.65
   8  -6 -12   15.35    9.96
  -9  -6 -12  195.37   33.76
   9   6  12  158.09   27.70
   9  -6  12   90.58   24.20
  -9  -6  12  148.76   28.65
   9  -6 -12  167.01   28.11
   9  -6  12  151.52   27.48
   9  -6 -12  140.83   22.82
 -10  -6 -12   13.40   15.55
  10  -6  12   39.14   15.62
 -10  -6  12   20.39   11.21
  10   6  12   26.63   11.44
  10  -6  12   20.33   11.15
  10  -6 -12   26.53   10.99
  10  -6 -12   27.24   10.63
  11   6  12  431.02   41.82
  11  -6  12  472.80   46.01
 -11  -6  12  456.39   41.91
  11  -6 -12  501.85   44.21
  11  -6  12  516.19   46.09
  12  -6  12   16.97   12.38
 -12  -6  12   46.39   11.31
  12   6  12   38.75   11.36
  12  -6  12   51.49   12.85
  12  -6 -12   49.49   11.99
 -12  -6  12   59.82   12.61
  13   6  12  350.19   30.70
  13  -6  12  356.11   34.51
 -13  -6  12  358.91   29.65
  13  -6 -12  398.14   32.07
  13  -6  12  384.20   31.10
 -13  -6  12  437.68   31.25
 -14  -6  12   13.69    5.13
  14  -6  12   22.34    6.93
  14   6  12   11.30    5.62
  14  -6  12   22.75    6.58
  14  -6  12   16.69    5.07
  14  -6 -12   12.30    5.40
 -14  -6  12   19.52    6.22
  15  -6  12  224.76   18.54
   0  -7 -12   -5.26    7.66
   0  -7 -12   -0.36    2.90
   0   7 -12    1.24    4.83
  -1  -7 -12   -2.03    7.30
   1  -7 -12    3.95    5.22
  -1  -7 -12    2.63    3.84
   1   7 -12    4.36    4.28
  -1   7 -12    0.76    3.17
  -2  -7 -12  133.34   29.40
   2  -7 -12  116.83   23.31
  -2  -7 -12  117.19   21.06
   2   7 -12  115.08   18.30
  -2   7 -12   93.76   18.23
   2  -7  12  112.59   19.41
  -3  -7 -12  119.73   27.01
  -3  -7 -12  134.39   38.71
   3  -7 -12   71.11   19.62
   3   7 -12   73.38   15.29
  -3   7 -12   73.05   16.36
   3  -7  12   64.11   14.26
  -4   7  12  242.73   28.45
   4   7  12  226.33   28.48
  -4  -7 -12  244.02   32.01
  -4  -7 -12  200.75   32.69
  -4  -7 -12  365.05   57.77
   4  -7 -12  206.82   36.85
  -4  -7  12  214.02   26.95
  -4   7 -12  197.39   27.49
   4  -7  12  237.17   27.55
   4  -7  12  219.89   28.56
  -4  -7  12  279.85   31.66
   4  -7  12  236.69   29.50
   4  -7 -12  237.76   27.42
   4  -7  12  358.09   60.81
  -5   7  12  209.00   27.67
  -5  -7 -12   39.55   27.02
   5   7  12  223.05   29.65
  -5  -7 -12  166.29   28.01
  -5  -7 -12  342.51   49.69
   5  -7 -12  190.77   37.73
   5  -7 -12  210.54   25.17
  -5  -7  12  157.62   24.39
   5  -7  12  227.52   28.02
   5  -7  12  155.08   26.37
  -5  -7  12  191.43   28.74
   5  -7  12  252.29   32.32
   5  -7 -12  212.80   26.19
   5  -7  12  246.40   49.10
  -6  -7  12  132.43   28.36
  -6   7  12  262.61   32.10
  -6  -7 -12   93.15   30.72
   6   7  12  223.24   32.30
  -6  -7 -12  256.40   35.28
  -6  -7 -12  326.43   43.88
   6  -7 -12  253.05   45.91
   6  -7 -12  244.18   27.89
  -6  -7  12  212.45   27.57
   6  -7  12  253.74   30.78
  -6  -7  12  265.78   34.41
   6  -7  12  240.43   32.56
   6  -7 -12  297.50   32.59
   6  -7  12  276.11   51.90
  -7   7  12   53.17   15.04
   7  -7  12   37.77   22.03
  -7  -7  12   26.17   13.37
  -7  -7 -12   66.31   18.24
   7  -7 -12   54.86   13.22
   7  -7  12   57.31   14.88
  -7  -7  12   69.91   19.06
   7   7  12   30.52   15.39
  -7  -7  12   56.92   17.71
   7  -7  12   55.97   16.34
   7  -7 -12   59.55   15.49
  -8  -7  12   75.32   18.67
  -8  -7 -12   88.07   22.09
   8  -7  12   76.32   18.77
  -8  -7  12  104.25   26.55
   8   7  12   92.25   20.64
   8  -7  12   70.71   18.51
   8  -7 -12   92.50   21.13
   8  -7 -12   92.04   18.63
  -9  -7 -12  108.58   22.58
   9  -7  12   64.63   17.68
   9  -7  12   84.13   21.09
  -9  -7  12   82.61   21.94
   9   7  12   55.72   15.74
   9  -7  12   90.23   21.73
   9  -7 -12   82.37   18.90
   9  -7 -12   65.44   15.67
 -10  -7 -12    9.11    5.94
  10  -7  12   17.16    8.54
  10  -7  12    8.67    5.46
 -10  -7  12   22.59   10.33
  10   7  12   15.79    7.10
  10  -7  12   23.80   10.90
  10  -7 -12   11.43    8.29
  10  -7 -12   20.53    8.35
 -11  -7 -12    4.46    5.01
  11  -7  12    1.17    4.68
  11  -7  12   13.05    6.26
 -11  -7  12   11.87    7.21
  11   7  12    4.90    4.99
  11  -7  12   15.32    8.48
  11  -7 -12   -3.22    4.81
  11  -7 -12    7.87    5.90
 -12  -7 -12    5.18    4.97
  12  -7  12    4.33    6.79
  12  -7  12    4.79    7.56
 -12  -7  12    3.64    6.18
  12   7  12   -2.91    4.79
  12  -7  12   -2.70    5.15
  12  -7  12    0.33    4.97
  12  -7 -12    1.15    2.13
  12  -7 -12    0.32    2.79
 -13  -7  12   14.33    7.36
  13  -7  12    9.88    5.67
  13   7  12   14.75    7.05
  13  -7  12   15.55    6.55
  13  -7  12   21.55    7.56
  13  -7 -12   16.02    7.56
 -14  -7  12   26.18    6.41
  14  -7  12   25.81    7.53
  14   7  12   22.20    6.62
  14  -7  12   14.38    4.98
  14  -7 -12   32.31    7.83
  14  -7  12   16.11    5.67
   0  -8 -12  262.05   32.32
   0  -8 -12  289.50   29.94
   0   8 -12  316.44   31.84
   0  -8  12  284.24   45.57
  -1  -8 -12  845.89   94.79
   1  -8 -12  541.18   49.11
   1  -8 -12  667.14   45.18
  -1  -8 -12  648.30   45.21
   1   8 -12  581.56   43.05
  -1   8 -12  525.83   42.91
  -1  -8  12  298.58   55.18
   1  -8  12  565.90   69.16
   2  -8  12  130.71   36.51
  -2  -8 -12   95.58   28.82
   2  -8 -12   93.35   21.93
   2  -8 -12  139.09   20.56
  -2  -8 -12  137.43   20.63
   2   8 -12  135.38   20.37
  -2   8 -12   98.33   18.20
   2  -8  12  126.26   21.51
   2  -8  12  131.71   21.00
   2  -8 -12  135.95   20.64
  -3  -8  12   99.25   26.87
   3   8  12  213.11   27.22
  -3  -8 -12  181.27   28.45
  -3  -8 -12  188.51   33.84
   3  -8 -12  171.33   31.62
   3  -8 -12  204.29   24.85
  -3  -8 -12  193.26   25.37
  -3   8 -12  160.37   23.90
   3  -8  12  176.02   25.26
   3  -8  12  213.80   27.85
   3  -8 -12  194.38   25.27
   3  -8  12  256.27   51.76
   4  -8  12   25.06   10.86
  -4  -8  12   13.31   12.18
  -4  -8 -12   14.02    6.88
  -4  -8 -12    8.87    6.63
  -4  -8 -12   33.70   14.54
   4  -8 -12   19.48   10.36
  -4  -8  12   14.70    6.69
   4  -8 -12   21.55    8.28
  -4  -8 -12   26.02    9.75
  -4   8 -12   27.04   10.57
   4  -8  12   15.41    5.75
   4   8  12   10.74    6.36
   4  -8 -12   24.99   15.59
   4  -8  12   28.85   11.45
   4  -8  12   32.33   11.29
   4  -8 -12   19.57    6.15
   5  -8  12   21.39   15.66
  -5  -8  12    0.35    4.10
  -5  -8 -12    9.65    7.91
   5  -8 -12   11.20    6.24
   5  -8  12    8.41    6.03
   5   8  12   12.37    6.89
   5  -8  12    8.40    7.30
   5  -8 -12    5.18    3.04
   6  -8  12   45.69   22.19
  -6  -8  12   17.56    9.98
  -6  -8 -12   27.92   14.53
   6  -8 -12   23.86    8.50
   6  -8  12   22.26    8.98
   6   8  12   27.61   11.90
  -6  -8  12   28.57   15.18
   6  -8  12   30.29   11.52
   6  -8 -12   27.89   10.16
   7  -8  12   47.59   22.48
  -7  -8  12   55.54   16.01
  -7  -8 -12   50.55   18.92
   7  -8 -12   80.22   18.01
   7  -8  12   70.11   16.64
  -7  -8  12   85.62   21.67
   7   8  12   89.26   21.40
   7  -8  12   58.45   16.70
   7  -8 -12   58.18   15.50
  -8  -8  12   29.51   10.58
  -8  -8 -12   25.05   14.34
   8  -8  12   29.88   11.67
  -8  -8  12   24.40   12.65
   8   8  12   28.89   12.43
   8  -8  12   24.21   12.08
   8  -8 -12   30.11   11.70
  -9  -8  12  143.24   22.65
  -9  -8 -12  189.09   29.32
   9   8  12  142.68   24.15
   9  -8  12  128.28   23.16
  -9  -8  12  147.21   26.12
   9  -8  12  135.19   26.03
   9  -8 -12  147.92   24.21
 -10  -8 -12   46.04   19.52
  10  -8  12   73.35   17.73
 -10  -8  12   78.07   17.53
  10   8  12   89.91   17.89
  10  -8  12   48.18   14.92
  10  -8 -12   70.34   16.01
 -11  -8 -12  217.07   33.64
  11   8  12  255.49   28.70
  11  -8  12  230.54   31.28
 -11  -8  12  295.85   31.90
  11  -8 -12  319.63   30.04
  11  -8  12  236.52   29.31
  11  -8 -12  232.02   27.87
  12   8  12  112.74   16.64
  12  -8  12  135.68   21.08
 -12  -8  12  110.59   18.00
  12  -8 -12  148.02   18.25
  12  -8  12  114.96   18.11
  12  -8 -12  107.18   16.90
  13   8  12  217.13   20.38
 -13  -8  12  220.84   21.34
  13  -8  12  279.28   26.10
  13  -8 -12  256.39   21.96
  13  -8  12  230.64   22.09
   0  -9  12  -13.24   12.07
   0  -9  12   -4.19   11.32
   0  -9 -12   -3.59    3.62
   0   9 -12    2.97    2.13
   0  -9 -12   11.10    8.82
  -1  -9  12   39.15   20.48
   1  -9  12   86.68   24.39
   1  -9  12  134.59   41.11
  -1  -9  12  128.13   46.25
   1  -9 -12  109.37   18.61
  -1  -9 -12   96.80   17.86
   1   9 -12  110.70   18.81
  -1   9 -12   94.43   17.87
   1  -9 -12  111.89   39.89
  -1  -9 -12  150.81   41.16
   1  -9 -12   91.87   17.09
  -2  -9  12   -0.05    2.58
   2  -9  12    0.24    7.18
  -2  -9  12    3.85   14.13
  -2  -9 -12    9.90    7.37
   2  -9 -12    9.88    6.19
   2  -9 -12    9.26    5.00
  -2  -9 -12    7.05    3.46
   2  -9 -12    0.41    3.94
  -3  -9  12  364.65   53.40
  -3  -9 -12  310.97   37.18
   3  -9 -12  352.05   33.29
  -3  -9 -12  315.08   33.10
   3  -9  12  370.40   36.26
   3  -9 -12  331.29   33.36
   3  -9  12  439.68   65.33
  -4  -9  12   24.91   12.70
  -4  -9 -12   22.45   10.75
   4  -9 -12    9.91    6.21
  -4  -9 -12    5.76    5.16
   4  -9  12    7.17    6.12
   4  -9 -12    6.38    5.40
  -5  -9  12  764.65   61.71
  -5  -9 -12  408.97   57.22
   5  -9 -12  791.45   50.80
  -5  -9 -12  673.56   52.26
  -5  -9  12  751.84   63.68
   5  -9  12  728.89   55.07
   5  -9 -12  790.22   52.80
   5  -9  12 1093.00  106.69
   6  -9  12   25.97   19.88
  -6  -9  12   22.33    9.56
  -6  -9 -12   23.74   15.96
   6  -9 -12   31.92   10.49
   6  -9  12   39.60   10.71
  -6  -9  12   31.35   13.12
   6  -9  12   43.15   15.38
   6  -9 -12   29.52   10.99
  -7  -9  12  386.64   40.44
  -7  -9 -12  360.71   41.86
   7  -9 -12  352.31   35.41
   7  -9  12  387.41   37.39
  -7  -9  12  391.49   44.70
   7  -9  12  392.57   41.73
   7  -9 -12  353.88   36.77
   7  -9  12  316.79   54.31
   8  -9  12   -5.68    7.51
  -8  -9  12    6.34    5.34
  -8  -9 -12   15.97   10.78
   8  -9  12   24.55   10.73
  -8  -9  12    8.92    4.89
   8  -9  12   11.89    6.33
   8  -9 -12   13.29    6.48
  -9  -9  12  107.29   20.14
  -9  -9 -12  125.20   23.10
   9  -9  12  121.66   22.13
  -9  -9  12  117.89   20.82
   9   9  12  119.94   21.47
   9  -9  12  136.10   25.06
   9  -9 -12  121.49   21.70
 -10  -9 -12   -0.81    5.36
  10  -9  12    6.54    6.50
 -10  -9  12    3.87    3.00
  10   9  12   -8.25    7.78
  10  -9  12    3.75    8.03
  10  -9 -12   -0.33    3.31
 -11  -9 -12    8.73    3.55
  11  -9  12    3.71    3.08
 -11  -9  12   -0.97    2.73
  11   9  12    2.01    1.70
  11  -9  12   -1.30    6.02
  11  -9 -12   -2.09    4.97
 -12  -9  12    1.07    3.62
  12  -9  12    4.92    4.31
  12  -9  12    5.79    2.31
  12  -9 -12   10.58    4.91
 -13  -9  12   74.52   11.36
 -13  -9 -12   99.50   12.20
  13  -9  12   96.30   13.65
  13  -9  12   79.71   12.33
   0 -10  12  547.43   90.37
   0 -10 -12  527.50   41.69
   0 -10  12  341.19   53.47
   0 -10 -12  518.41   42.26
  -1 -10  12   33.73   17.85
   1 -10  12  103.35   28.43
   1 -10  12  110.34   36.45
  -1 -10  12  133.59   39.65
   1 -10 -12   88.68   16.03
  -1 -10 -12   92.98   17.57
   1 -10 -12   87.02   17.33
  -2 -10  12  374.35   61.44
   2 -10 -12  262.58   28.74
  -2 -10 -12  250.53   29.66
   2 -10 -12  272.64   30.37
   2 -10  12  261.14   49.77
   3 -10  12   13.10   11.17
  -3 -10 -12   -3.00    3.90
   3 -10 -12   19.38    8.44
  -3 -10 -12   11.01    5.53
   3 -10 -12   14.65    7.88
   4 -10  12   48.42   18.87
  -4 -10  12   68.41   20.45
  -4 -10 -12   49.00   17.28
   4 -10 -12   57.09   13.32
  -4 -10 -12   67.70   16.50
   4 -10  12   78.02   16.55
   4 -10 -12   57.58   13.97
   5 -10  12   -7.46   10.69
  -5 -10  12    4.85    5.71
  -5 -10 -12    8.83    6.22
   5 -10 -12   -1.26    3.95
  -5 -10 -12    8.89    7.09
   5 -10  12    2.72    4.48
   5 -10 -12   12.55    9.25
   6 -10  12   38.65   19.83
  -6 -10  12   35.96   13.52
  -6 -10  12   58.49   15.76
  -6 -10 -12   27.12   11.99
   6 -10 -12   31.81   10.74
  -6 -10 -12   39.23   13.05
  -6 -10  12   24.01    8.39
   6 -10  12   36.98   13.18
   6 -10 -12   37.64   12.27
   7 -10  12   -1.13    5.40
  -7 -10  12    9.64    6.89
  -7 -10 -12    1.08    7.26
   7 -10 -12    8.07    6.50
  -7 -10 -12    6.23    7.05
  -7 -10  12    8.87    7.90
   7 -10  12    4.95    6.58
   7 -10 -12   -4.14    6.39
   8 -10  12    9.70   13.44
  -8 -10  12   13.28    7.54
  -8 -10 -12   24.77   16.49
  -8 -10 -12   27.14   10.10
  -8 -10  12   54.55   14.73
   8 -10  12   37.43   12.51
   8 -10 -12   22.18    8.51
  -9 -10  12    8.09    6.35
  -9 -10 -12    7.60    7.63
   9 -10  12   12.85    7.29
  -9 -10  12   -3.10    6.57
   9 -10  12   -2.03    5.58
   9 -10 -12    3.36    2.59
   9 -10 -12    1.47    5.36
 -10 -10 -12   91.39   20.45
  10 -10  12   81.59   16.33
 -10 -10  12  113.05   18.15
  10 -10  12   96.21   18.83
  10 -10 -12  104.89   18.69
 -11 -10 -12   10.97    5.90
 -11 -10  12   15.80    6.86
 -11 -10 -12   25.31    8.20
  11 -10  12   10.42    2.22
  11 -10  12   18.00    8.82
  11 -10 -12   12.08    5.39
 -12 -10  12  108.88   14.38
 -12 -10 -12  157.05   16.50
  12 -10  12  139.84   16.93
  12 -10  12  122.89   16.34
  12 -10 -12  147.10   17.31
   0 -11  12   -8.36    8.45
   0 -11  12  -15.88   18.56
   0 -11 -12   -0.79    3.51
   0 -11 -12    0.86    3.03
   1 -11  12  121.62   31.38
  -1 -11  12  163.75   46.21
   1 -11 -12  127.87   20.21
  -1 -11 -12  128.97   20.63
   1 -11 -12  134.74   21.62
  -1 -11 -12  146.66   22.97
  -2 -11  12  -12.58   11.60
   2 -11  12   33.18   17.07
  -2 -11  12   36.64   19.42
   2 -11 -12   34.57   10.65
  -2 -11 -12   30.20   10.71
   2 -11 -12   18.50    6.46
  -3 -11  12  439.20   58.25
   3 -11 -12  422.27   35.71
  -3 -11 -12  416.20   39.46
   3 -11 -12  419.23   37.50
   3 -11  12  467.70   70.05
   4 -11  12   43.79   20.07
  -4 -11  12   23.57   11.82
  -4 -11 -12   37.50   14.62
   4 -11 -12   42.37   11.32
  -4 -11 -12   34.90   11.69
   4 -11 -12   32.98   10.28
  -5 -11  12  808.37   63.28
  -5 -11  12  911.12   64.49
   5 -11 -12  876.58   52.89
  -5 -11 -12  831.29   59.44
   5 -11  12  978.84   58.71
   5 -11 -12  827.85   53.14
   6 -11  12   16.72   13.53
  -6 -11  12    2.28    4.70
  -6 -11  12   10.24    7.88
  -6 -11 -12    6.88   10.82
   6 -11 -12    3.25    4.92
  -6 -11 -12    0.02    4.55
   6 -11  12    0.84    4.34
   6 -11 -12    8.24    7.79
  -7 -11  12  567.57   45.59
  -7 -11 -12  599.97   54.86
  -7 -11 -12  546.59   48.23
   7 -11  12  638.33   49.81
   7 -11 -12  572.88   44.59
   8 -11  12   -9.90    8.10
  -8 -11  12   -2.86    2.86
  -8 -11 -12    2.68    5.66
  -8 -11 -12  -12.93    8.23
  -8 -11  12   -0.95    2.88
   8 -11  12   10.28    7.93
   8 -11 -12    2.99    4.64
  -9 -11 -12  305.76   34.84
  -9 -11  12  216.81   24.65
  -9 -11 -12  292.23   31.05
  -9 -11  12  329.21   28.94
   9 -11  12  261.42   31.46
   9 -11 -12  279.49   30.63
  -9 -11  12  292.61   26.86
 -10 -11 -12    1.73    2.40
 -10 -11  12    7.24    4.80
  10 -11  12   13.22    6.49
  10 -11 -12   10.58    5.53
  11 -11 -12   35.97    7.59
 -11 -11  12   31.29    8.03
 -11 -11 -12   44.33    9.32
  11 -11  12   25.98    7.21
  11 -11 -12   39.15    9.05
   0 -12  12   12.09   17.89
   0 -12  12   72.97   40.67
   0 -12 -12  160.82   22.75
   0 -12 -12  170.29   24.47
  -1 -12  12   10.90   10.16
   1 -12  12   45.28   22.25
  -1 -12  12   44.27   29.44
   1 -12 -12   69.87   14.23
  -1 -12 -12   84.55   16.70
   1 -12 -12   69.04   15.56
  -1 -12 -12   83.14   18.14
   2 -12  12   68.72   28.87
  -2 -12  12  144.75   41.20
   2 -12 -12  110.41   18.40
  -2 -12 -12  120.93   20.80
   2 -12 -12  112.11   18.96
  -2 -12 -12  116.74   22.07
  -3 -12  12   13.86   10.57
   3 -12  12    6.57   14.03
   3 -12 -12   10.39    5.12
  -3 -12 -12    6.14    2.45
   3 -12 -12    8.80    6.20
  -3 -12 -12   17.40    8.80
  -4 -12  12   80.63   20.49
   4 -12  12   79.34   33.78
  -4 -12  12   95.31   20.65
   4 -12 -12   94.81   16.76
  -4 -12 -12  111.93   21.44
   4 -12 -12   93.96   16.86
  -5 -12  12   -0.07    4.32
   5 -12  12    6.05   11.28
  -5 -12  12    3.97    2.64
   5 -12 -12    4.91    3.68
  -5 -12 -12   -7.48    9.12
   5 -12 -12    6.06    6.73
  -6 -12  12    1.01    4.40
   6 -12  12   -1.79    7.57
  -6 -12  12   -5.39    6.70
  -6 -12 -12   -9.05    7.01
   6 -12 -12    5.27    5.87
  -6 -12 -12    3.80    4.61
   6 -12  12    1.84    2.42
   6 -12 -12    4.06    5.96
  -7 -12  12    9.64    5.15
  -7 -12  12    3.75    6.21
  -7 -12 -12   15.01    7.55
  -7 -12 -12   14.25    7.63
   7 -12  12   17.19    4.67
   7 -12 -12   11.66    6.42
   8 -12  12   -5.38    7.38
  -8 -12  12   13.81    6.82
  -8 -12 -12   18.76    9.13
  -8 -12  12    9.38    6.59
  -8 -12 -12   19.72    8.99
   8 -12  12   20.37    7.26
   8 -12 -12   22.02    7.64
   8 -12 -12   24.26    9.48
  -9 -12  12   50.26   10.05
  -9 -12  12   45.43   10.28
  -9 -12 -12   59.66   12.84
   9 -12  12   34.15   11.03
   9 -12 -12   46.30   11.65
 -10 -12  12   33.35    7.25
 -10 -12 -12   71.59   12.21
  10 -12  12   63.77   12.65
  10 -12 -12   60.23   11.63
  10 -12 -12   72.74   11.52
   0 -13  12   -5.40    6.19
   0 -13  12   -6.04   10.42
   0 -13 -12    1.25    5.58
   0 -13 -12   -2.55    5.93
  -1 -13  12   -3.07    5.14
   1 -13  12   -8.39    9.23
  -1 -13  12   32.31   16.38
   1 -13 -12   23.59    8.95
  -1 -13 -12   13.03    6.17
   1 -13 -12   20.49    8.14
  -1 -13 -12   15.20    3.79
  -2 -13  12   62.38   22.62
   2 -13  12    1.79    7.20
  -2 -13  12   22.66   10.71
   2 -13 -12   31.05    9.92
  -2 -13 -12   27.09    9.62
   2 -13 -12   36.36   11.75
  -2 -13 -12   32.51   12.11
  -3 -13  12   67.83   20.26
   3 -13  12   11.81   17.71
  -3 -13  12   63.50   16.49
   3 -13 -12   51.69   11.86
  -3 -13 -12   52.68   15.23
   3 -13 -12   56.04   12.95
  -3 -13 -12   44.44   13.97
  -4 -13  12  115.33   24.36
   4 -13  12   29.27   19.65
  -4 -13  12   87.77   19.34
   4 -13 -12   77.16   15.34
  -4 -13 -12   72.01   15.86
   4 -13 -12   75.23   15.24
  -4 -13 -12   61.94   16.30
  -5 -13  12  300.62   33.89
  -5 -13  12  214.60   28.08
   5 -13 -12  221.26   25.12
  -5 -13 -12  221.03   30.33
   5 -13 -12  240.29   27.50
  -5 -13 -12  209.88   31.64
  -6 -13  12   35.11    9.96
  -6 -13  12   18.23    7.57
  -6 -13 -12   32.26   11.20
   6 -13 -12   21.48    7.34
  -7 -13  12  225.78   24.91
  -7 -13 -12  246.98   29.27
   7 -13 -12  250.57   28.61
   7 -13 -12  217.65   25.21
  -7 -13  12  249.36   24.61
   8 -13  12   -3.00    4.54
  -8 -13  12   15.68    5.91
  -8 -13 -12   17.16    8.10
   8 -13  12   12.05    4.14
   8 -13 -12    1.47    2.98
  -9 -13 -12  116.53   15.94
   9 -13 -12   94.18   14.87
   9 -13 -12   98.51   14.73
   0 -14  12  -10.87    4.93
   0 -14  12   -0.43    5.58
   0 -14  12    3.21    7.63
   0 -14 -12    5.30    4.41
  -1 -14  12  335.37   41.70
   1 -14  12  443.38   61.28
   1 -14 -12  320.79   29.97
  -1 -14 -12  334.51   32.61
   1 -14 -12  345.97   35.52
  -1 -14  12  390.47   54.17
  -2 -14  12   41.16   18.32
   2 -14  12    6.31    9.65
  -2 -14  12   12.42    7.43
   2 -14  12   32.85   18.13
   2 -14 -12    8.95    4.65
  -2 -14 -12   13.63    6.71
   2 -14 -12   17.25    8.27
   3 -14  12   30.34   19.72
  -3 -14  12  103.13   19.74
   3 -14  12  251.76   61.79
   3 -14 -12  108.49   17.72
  -3 -14 -12  100.56   19.35
   3 -14 -12  124.95   19.73
  -3 -14  12  189.77   30.98
  -4 -14  12   49.59   13.52
   4 -14  12   24.14   14.76
  -4 -14  12   41.58   12.49
   4 -14 -12   23.12    8.37
  -4 -14 -12   41.66   12.33
   4 -14 -12   32.49    9.08
  -5 -14  12   50.01   12.19
  -5 -14  12   46.26   12.13
   5 -14 -12   57.13   12.28
  -5 -14 -12   44.65   12.58
   5 -14 -12   88.90   20.52
   5 -14 -12   64.13   14.37
  -6 -14  12    2.72    3.76
   6 -14  12   -5.09    5.87
  -6 -14  12   -1.51    2.95
  -6 -14 -12   -2.49    5.38
   6 -14 -12    4.17    5.23
   6 -14 -12    4.76    3.29
  -7 -14  12   21.81    6.58
   7 -14  12  -14.20   10.04
   7 -14 -12   44.68   12.97
  -7 -14 -12    7.61    4.69
   7 -14 -12   14.33    7.70
   8 -14 -12   75.20   13.45
  -8 -14 -12   62.14   11.11
   0 -15  12    0.74    2.36
   0 -15  12    3.54    6.10
   0 -15 -12   -2.31    4.58
   1 -15  12    4.34    3.84
  -1 -15  12   -9.20   10.84
  -1 -15  12   15.32    8.71
   1 -15  12    2.19    9.25
   1 -15 -12    1.34    4.38
  -1 -15 -12   11.69    6.26
   2 -15  12   -5.04    3.33
  -2 -15  12   36.58   15.22
  -2 -15  12   17.94    9.20
   2 -15  12   47.09   26.25
   2 -15 -12   15.82    6.42
  -2 -15 -12   25.02    9.32
  -3 -15  12   10.02    7.34
   3 -15  12    4.36    5.13
  -3 -15  12   -2.73    4.67
   3 -15 -12    7.63    9.24
   3 -15 -12    5.20    3.92
  -3 -15 -12    9.97    5.99
  -4 -15  12  137.77   19.82
   4 -15 -12  148.68   19.62
  -4 -15 -12  110.67   19.27
   4 -15 -12  212.39   39.15
  -4 -15  12  209.75   25.32
  -5 -15  12   47.40   11.12
  -5 -15  12   36.94    8.93
   5 -15 -12   68.96   19.95
  -5 -15 -12   33.92    9.71
  -6 -15 -12  239.82   23.18
  -6 -15  12  229.62   20.13
   0 -16  12   48.91   14.81
   0 -16 -12   25.13    7.04
   1 -16 -12  375.83   31.91
  -1 -16 -12  369.63   31.94
  -2 -16  12    1.79    4.43
   2 -16 -12    1.18    3.17
  -2 -16 -12    5.62    4.77
   0   0 -13   -1.98    3.19
   1   0 -13   -1.10    3.83
  -1   0 -13   -2.24    4.57
   2   0 -13  432.47   38.84
  -2   0 -13  458.43   43.74
   3   0 -13   -4.90    6.79
  -3   0 -13   -2.34    4.21
  -4   0 -13  710.88   54.32
   4   0 -13  630.81   48.11
  -5   0 -13    3.66    7.06
   5   0 -13    9.32    7.94
   6   0  13 1350.06   82.87
  -6   0 -13 1260.24   76.94
   6   0 -13 1116.13   66.95
   6   0 -13 1153.17   69.08
   7   0  13    2.63    7.24
  -7   0 -13    2.73    4.92
   7   0 -13    0.85    5.53
  -7   0  13    2.98    3.06
   7   0 -13   -0.59    6.54
   7   0  13    2.39    7.99
   7   0  13    5.94    3.27
  -7   0  13    6.23    7.58
   8   0  13 1223.20   77.68
   8   0  13  981.61   70.01
   8   0 -13 1070.88   71.30
   8   0  13 1043.00   67.85
   8   0 -13  944.72   64.09
   9   0  13    0.37    3.00
  -9   0  13    4.13    5.88
   9   0  13   -5.88    5.55
   9   0 -13   -3.45    4.54
  10   0  13  116.46   22.92
  10   0  13   90.29   19.12
  10   0 -13   93.12   17.98
  11   0  13    0.83    2.12
  11   0  13    0.89    5.01
  11   0 -13    3.81    6.10
  12   0  13    9.30    6.67
  12   0  13    9.35    8.10
  12   0 -13   -0.32    4.04
  13   0  13   -2.84    4.70
  13   0  13   -2.37    3.47
  13   0 -13   -0.50    3.39
  14   0  13  145.71   18.70
  14   0 -13  140.50   17.27
  14   0  13  144.50   17.83
 -14   0  13  117.11   16.02
  15   0  13    0.03    2.75
  15   0  13    3.69    2.03
  15   0 -13   -2.00    2.44
 -15   0  13    2.39    3.23
   0  -1 -13  136.24   24.08
   0   1 -13  136.85   21.89
   1  -1 -13    3.33    5.23
  -1  -1 -13    8.21    3.30
   1   1 -13    6.34    6.14
  -1   1 -13   14.71    8.55
   2  -1 -13   99.99   19.46
   2   1 -13   97.90   18.16
  -2  -1 -13   98.68   21.00
  -2   1 -13   69.62   16.19
  -3  -1 -13   11.22    6.10
   3  -1 -13    1.87    3.52
   3   1 -13    2.04    4.19
  -3   1 -13    4.77    4.41
  -4  -1 -13   20.53   10.01
   4  -1 -13   16.72    8.77
   4   1 -13   18.42    8.44
  -4   1 -13    9.84    4.12
  -5   1 -13   57.75   15.44
  -5  -1 -13   60.39   15.89
   5  -1 -13   45.24   14.34
   5   1 -13   56.67   14.87
   6   1  13    0.95    6.90
   6  -1  13    6.36    5.68
  -6   1 -13   14.67    9.58
  -6  -1 -13    1.37    4.27
   6   1 -13   -8.04    7.42
   6  -1 -13   -1.62    5.28
   6  -1 -13    0.74    3.20
   6   1 -13    1.49    3.72
   7   1  13   14.99    5.93
   7  -1  13   32.14   14.16
  -7  -1 -13   23.12   10.00
   7   1 -13    6.41    4.34
   7  -1 -13   12.94    7.93
  -7  -1  13   17.74    8.94
  -7   1  13    4.82    6.05
  -7  -1  13    9.34    4.03
   7  -1 -13    8.09    5.90
   7   1 -13   16.50    8.29
   7  -1  13   18.03    7.78
   7  -1  13   24.46   11.43
  -7   1  13    4.40    7.25
   7   1  13   13.21   10.00
  -7  -1  13   14.14    9.59
   7   1  13    9.59    5.10
   7  -1  13   12.97    7.56
   8   1  13   44.48   14.07
   8  -1  13   41.38   14.76
   8   1 -13   29.63   10.68
   8  -1 -13   32.26   11.38
   8  -1  13   34.80   12.73
  -8   1  13   15.76   10.09
  -8  -1  13   -1.91    3.68
   8  -1  13   41.54   12.72
   8   1  13   31.30   11.17
   8  -1 -13   40.58   12.88
   8   1 -13   25.92    8.36
   9  -1  13    2.78    5.59
  -9  -1  13    2.45    3.05
   9  -1  13   -3.59    7.40
   9   1  13   -3.12    7.79
   9  -1 -13   -1.71    7.63
   9   1 -13    3.36    4.12
  10  -1  13   40.06   15.01
 -10  -1  13   23.08    9.53
  10  -1  13   27.50   11.13
  10   1  13    6.25    4.53
  10  -1 -13   28.98   12.10
  10   1 -13   31.88   10.97
  11  -1  13    1.91    4.29
 -11  -1  13    8.12    2.57
  11  -1  13    1.96    3.88
  11   1  13    4.77    6.60
  11   1 -13   -3.72    5.87
  11  -1 -13    0.17    2.72
  12  -1  13   26.86    9.90
  12  -1  13   47.12   13.68
  12   1  13   42.54   12.42
  12   1  13   41.69   11.86
  12   1 -13   15.95    7.96
  12  -1 -13   36.44   10.17
  13  -1  13   10.00    6.53
  13  -1  13   -0.14    4.75
  13   1  13    4.11    5.89
  13   1  13   18.46    8.17
  13   1 -13    9.41    5.52
  13  -1 -13    5.60    4.45
  14  -1  13   33.09    9.28
  14   1  13   24.75    9.62
  14   1  13   32.19    7.23
  14  -1  13   43.68    9.50
  14   1 -13   38.75    8.59
  14  -1 -13   30.75    8.53
 -14  -1  13   33.45    8.56
 -14   1  13   37.95    9.13
  15   1  13    5.40    2.74
  15  -1  13    0.75    2.05
  15  -1 -13    3.26    2.79
 -15  -1  13    3.88    3.00
   0  -2 -13   -4.28    8.31
   0   2 -13   -0.54    4.90
  -1  -2 -13   29.80   15.39
   1  -2 -13   13.22    8.51
  -1  -2 -13   18.82    5.63
   1   2 -13   22.81    9.04
  -1   2 -13   15.61    7.90
  -2  -2 -13  679.99   53.69
  -2  -2 -13  887.12   52.03
   2  -2 -13  714.25   55.69
   2   2 -13  713.26   47.94
  -2   2 -13  732.58   52.15
  -3  -2 -13   12.71    6.77
   3  -2 -13    6.46    5.72
   3   2 -13    5.38    4.38
  -3   2 -13   18.17    8.19
  -4  -2 -13  929.70   64.66
   4  -2 -13  893.09   62.02
   4   2 -13  863.26   55.85
  -4   2 -13  873.30   62.44
  -5  -2 -13    3.41    3.01
   5  -2 -13    3.90    4.62
  -5  -2  13   -1.94    6.86
   5  -2 -13    0.90    5.56
   5   2 -13    6.32    5.56
  -5   2 -13   -7.02    7.34
  -6  -2  13 1029.87   65.19
  -6   2  13 1161.73   63.36
   6   2  13 1565.54   89.05
   6  -2  13 1292.58   80.23
  -6   2 -13 1331.55   74.76
  -6  -2 -13 1347.00   81.76
   6  -2 -13 1214.02   68.42
  -6  -2  13 1271.06   80.74
   6  -2 -13 1252.41   72.93
   6   2 -13 1273.88   71.85
   6  -2  13 1222.73   68.67
  -6  -2  13 1209.14   68.02
   6  -2  13 1230.65   64.94
   7   2  13   19.39   10.08
   7  -2  13   17.55    7.88
  -7  -2 -13   22.28   10.86
   7   2 -13   33.32   12.83
   7  -2 -13   23.04    8.95
  -7   2  13   26.47   11.41
  -7  -2  13   29.09   11.49
   7  -2 -13   17.67    9.26
   7   2 -13   22.95    9.62
   7  -2  13   15.06    7.09
  -7   2  13    2.37    4.99
   7   2  13   12.18   10.28
  -7  -2  13   13.36    9.99
   7   2  13   32.88   11.84
   7  -2  13   26.08   12.09
   8   2  13 1068.49   65.89
   8  -2  13 1019.19   66.14
  -8   2  13  890.51   68.80
  -8  -2  13 1005.38   66.71
   8   2  13 1043.98   66.73
   8  -2 -13 1230.42   76.60
   8   2 -13  859.80   59.72
   8  -2  13 1186.02   76.39
   9  -2  13   16.87   11.80
   9  -2  13   33.25   11.62
  -9  -2  13   26.16   11.72
   9   2  13   25.87    8.95
   9   2  13   12.63    3.62
   9  -2  13   26.34    9.42
   9  -2 -13   48.29   15.66
   9   2 -13   31.47    9.27
  10  -2  13   66.45   24.34
  10  -2  13  138.83   24.83
 -10  -2  13  115.19   21.82
  10   2 -13  127.19   21.06
  10   2  13  145.96   24.11
  10   2  13  124.36   22.76
  10  -2 -13  150.65   25.28
  11  -2  13    9.54    6.95
 -11  -2  13   -3.26    3.48
  11   2  13    7.84    6.31
  11   2  13    1.40    3.25
  11   2 -13   -0.77    4.68
  11  -2 -13    3.71    7.18
  12  -2  13   10.92    7.46
 -12  -2  13    2.27    4.99
  12   2  13   16.39    9.00
  12   2  13   10.27    6.85
  12   2 -13    7.72    4.49
  12  -2 -13   16.03    9.14
  13  -2  13    3.28    2.45
  13   2  13    6.70    4.94
  13   2  13   -0.75    4.15
  13   2 -13   12.04    5.71
  13  -2 -13   10.09    7.05
  14   2  13  183.00   22.12
  14  -2  13  191.26   20.97
  14  -2 -13  206.98   21.38
  14  -2  13  182.87   20.48
 -14  -2  13  184.17   19.24
 -14   2  13  171.49   19.08
  15   2  13   -0.06    1.81
  15  -2  13    2.80    3.16
  15  -2 -13    1.29    2.36
 -15  -2  13    0.11    2.81
   0  -3 -13 1510.70   88.44
   0  -3 -13 1552.92   71.08
   0   3 -13 1511.88   70.96
   1  -3 -13   20.56    8.73
  -1  -3 -13   18.78   11.07
  -1  -3 -13   28.18    9.74
   1  -3 -13   28.67   13.42
   1   3 -13   15.95    6.56
  -1   3 -13   23.84    9.54
   2  -3 -13  812.28   75.82
  -2  -3 -13  755.47   58.64
  -2  -3 -13  808.24   51.39
   2  -3 -13  818.60   66.55
   2   3 -13  713.14   48.44
  -2   3 -13  740.17   51.95
  -3  -3 -13    5.87    5.92
   3  -3 -13    3.01    3.15
   3   3 -13   -0.55    2.59
  -3   3 -13   12.03    7.68
  -4  -3 -13   72.40   17.98
   4  -3 -13   80.46   19.48
   4   3 -13   64.15   14.13
  -4   3 -13   55.01   16.28
   5   3  13    2.38    5.62
  -5  -3 -13    0.21    3.18
   5  -3 -13   -0.39    2.99
   5  -3 -13   -0.72    5.50
   5   3 -13    6.82    7.06
  -5   3 -13    0.33    5.16
   6   3  13   27.60   11.28
  -6  -3 -13   40.36   14.70
   6  -3 -13   32.27   10.92
  -6   3  13   18.37    9.33
  -6  -3  13   37.96   13.76
   6  -3 -13   18.18    8.86
   6   3 -13   25.96   10.86
  -6   3 -13   36.81   13.58
   6  -3  13   25.16   10.10
   6   3  13   27.37   10.21
   6   3  13   22.57    9.76
  -6  -3  13   12.24    9.19
   6  -3  13   30.81   10.47
   6  -3  13   30.48   11.41
   7  -3 -13    5.65    7.50
   7   3  13   25.90   11.17
   7  -3  13    9.85    7.52
  -7  -3 -13   14.44    9.40
   7  -3 -13    7.84    4.28
  -7   3  13    9.51    5.65
  -7  -3  13   -2.86    8.63
   7  -3 -13   13.85    5.91
   7   3 -13    8.07    4.39
   7  -3  13   12.69    7.91
   7   3  13   14.90    8.33
  -7  -3  13    3.50    4.37
   7   3  13   16.96    9.06
   7  -3  13   11.21    7.80
   8   3  13  236.33   33.88
   8  -3  13  224.92   33.05
   8  -3  13  267.34   34.89
  -8  -3  13  226.47   32.66
   8   3  13  264.73   32.95
   8  -3 -13  269.05   37.55
   8   3 -13  224.18   30.39
   8  -3  13  285.18   37.43
   9  -3  13   -0.88    5.55
   9  -3  13   -3.67    7.94
  -9  -3  13   -1.85    5.97
   9   3  13   -1.56    4.48
   9   3  13   -5.28    7.07
   9  -3  13   -0.88    7.29
   9  -3 -13    9.88    5.18
   9   3 -13    8.25    6.14
  10  -3  13  515.71   50.03
  10  -3  13  485.27   45.81
 -10  -3  13  438.22   42.00
  10  -3 -13  539.65   49.46
  10  -3  13  612.91   51.19
  11  -3  13    9.58    6.68
  11  -3  13   -4.73    5.88
 -11  -3  13    3.71    3.49
  11   3  13    6.90    8.00
  11  -3  13   -2.41    4.27
  11  -3 -13   11.68    9.13
  12   3  13  724.08   53.02
  12  -3  13  805.63   55.62
 -12  -3  13  805.64   49.13
  12  -3 -13  823.99   53.73
  13  -3  13    5.32    4.00
 -13  -3  13    4.98    4.69
  13   3  13   -2.83    3.36
  13  -3 -13    2.04    6.27
  14   3  13  406.29   29.73
  14  -3  13  465.07   31.90
  14  -3 -13  416.68   30.67
  14  -3  13  419.02   30.50
 -14  -3  13  389.33   27.32
 -14   3  13  392.18   27.12
  15   3  13   23.82    5.91
  15  -3  13   25.31    6.58
  15  -3 -13    4.47    4.42
 -15  -3  13   14.66    4.75
   0  -4 -13    7.95    8.32
   0  -4 -13    2.08    2.10
   0   4 -13   -1.12    5.53
   1  -4 -13   21.44   11.44
  -1  -4 -13   24.47   13.56
   1  -4 -13   16.23    6.74
  -1  -4 -13   27.95    8.23
   1   4 -13   19.97    8.27
  -1   4 -13   23.66    9.08
  -2  -4 -13   70.03   18.64
   2  -4 -13   84.23   18.79
  -2  -4 -13   87.76   17.21
   2  -4 -13  117.13   27.31
   2   4 -13   77.55   16.03
  -2   4 -13   64.50   15.27
  -3  -4 -13   19.31    9.40
   3  -4 -13    2.21    3.10
  -3  -4 -13   12.09    6.04
   3  -4 -13   22.33   11.18
   3   4 -13   20.86    9.74
  -3   4 -13    7.30    7.15
  -4  -4 -13   82.98   19.80
   4   4 -13  103.90   18.99
   4  -4 -13  119.94   25.89
  -4   4 -13   77.47   18.29
   5   4  13   -7.70    6.69
  -5  -4 -13   -5.33    4.74
   5  -4 -13    3.25    3.00
  -5   4  13    3.24    3.35
   5  -4 -13    1.20    6.27
   5   4 -13   -0.13    3.46
  -5   4 -13   11.21    7.24
   5  -4  13   13.43    7.41
   5   4  13   -3.41    6.47
   5  -4  13   -1.82    3.33
  -5  -4  13    4.22    4.24
   5  -4  13    4.50    3.17
  -6   4  13  181.98   25.07
   6   4  13  252.33   36.44
   6   4  13  210.30   28.57
  -6  -4 -13  188.54   30.51
   6  -4 -13  179.97   26.05
   6  -4 -13  211.87   32.06
   6   4 -13  206.36   27.31
  -6   4 -13  164.53   28.89
   6  -4  13  149.91   24.88
  -6  -4  13  186.21   27.15
   6  -4  13  180.23   24.63
   6  -4  13  182.14   29.22
   6  -4 -13  178.78   24.00
   7   4  13    3.21    4.93
   7  -4  13    5.51    8.27
  -7  -4 -13    9.62    8.60
   7  -4 -13    2.01    2.95
   7  -4 -13    6.39    5.69
  -7   4  13   18.26   10.46
   7  -4  13   -1.44    2.32
   7   4  13    8.73    6.06
  -7  -4  13   11.19    7.29
   7  -4  13    3.26    5.40
   7  -4 -13    1.30    4.21
   7  -4 -13    5.08    4.65
   8   4  13  146.11   24.40
   8  -4  13  146.22   24.28
   8  -4  13  188.05   28.08
  -8  -4  13  163.39   26.08
   8  -4 -13  175.53   29.15
   8  -4  13  169.90   28.65
   8  -4 -13  157.23   23.74
   9  -4  13    8.23    9.64
   9  -4  13   18.19    9.21
  -9  -4  13   21.04   12.05
   9   4  13    5.80    3.34
   9  -4  13   16.48   10.45
   9  -4 -13   20.15    9.34
   9  -4 -13   18.34    8.65
  10  -4  13    8.39   10.11
  10  -4  13    7.00    9.15
 -10  -4  13   -4.82    6.69
  10   4  13    9.77    7.84
  10  -4  13    4.36    4.98
  10  -4 -13   14.89    8.86
  11  -4  13   -9.10    8.62
  11  -4  13   14.34    7.86
 -11  -4  13    3.95    5.40
  11   4  13    8.60    7.09
  11  -4  13   15.99    8.50
  11  -4 -13   12.78    7.78
  12  -4  13   20.38    8.56
 -12  -4  13   29.09    8.59
  12   4  13   33.44   11.40
  12  -4  13   41.55    9.72
  12  -4 -13   36.00   10.22
  13  -4  13    8.94    6.48
 -13  -4  13    8.67    4.85
  13   4  13    3.12    2.50
  13  -4  13    0.67    4.77
  13  -4 -13   -3.96    3.22
 -13  -4  13    3.19    3.12
  14  -4  13   23.10    7.09
  14   4  13   28.71    8.28
  14  -4  13   18.21    5.64
  14  -4 -13   30.83    7.88
 -14  -4  13   21.58    6.75
  15  -4 -13    1.51    1.56
   0  -5 -13 2162.05  128.52
   0  -5 -13 1914.92   83.08
   0   5 -13 1986.95   81.85
   1  -5 -13   57.92   26.99
  -1  -5 -13   46.26   16.91
   1  -5 -13   33.78   10.17
  -1  -5 -13   48.46   13.48
   1   5 -13   46.32   12.01
  -1   5 -13   35.92   11.08
  -2  -5 -13 1346.04   86.92
   2  -5 -13 1256.60   73.26
  -2  -5 -13 1554.48   73.96
   2   5 -13 1377.47   67.04
  -2   5 -13 1322.09   69.34
  -3  -5 -13    0.02    2.61
   3  -5 -13   -2.07    4.38
  -3  -5 -13    1.27    4.58
   3  -5 -13    8.70    8.85
   3   5 -13    2.10    3.63
  -3   5 -13   -1.24    2.42
  -4   5  13  145.75   22.06
   4   5  13  161.87   23.78
  -4  -5 -13  138.29   26.37
   4  -5 -13  139.57   29.21
   4  -5 -13  150.39   21.40
   4  -5 -13  203.66   36.72
   4   5 -13  159.83   23.37
  -4   5 -13  138.42   23.55
   4  -5  13  163.13   23.30
  -4  -5  13  164.82   23.35
   4  -5  13  130.29   21.86
   4  -5  13  154.95   24.45
  -4  -5  13  146.76   27.47
   5  -5  13   23.18   19.60
   5   5  13   54.43   21.69
  -5  -5 -13   33.19   13.76
   5  -5 -13   23.56   12.66
   5  -5 -13   25.99    9.27
  -5   5  13   26.68    8.82
   5  -5 -13   44.96   16.51
   5   5 -13   35.50   11.86
  -5   5 -13   28.67   10.15
   5  -5  13   37.69   12.90
   5   5  13   13.86    7.77
   5  -5  13   22.56    9.17
  -5  -5  13   28.54   10.84
   5  -5  13   27.29    8.81
   5  -5 -13   24.70    8.21
   6  -5 -13   32.86   12.85
   6  -5  13  -18.29   14.45
  -6  -5 -13   29.60   12.42
   6   5  13   34.87   11.69
  -6  -5 -13   21.32    9.29
   6  -5 -13   26.45   16.22
   6  -5 -13   21.77    9.03
  -6   5  13   21.95    9.18
   6  -5 -13    9.45    7.55
   6   5 -13   19.38    8.73
  -6   5 -13   13.25    7.02
   6  -5  13   17.25    8.20
   6   5  13   25.24   11.23
  -6  -5  13    9.27    8.45
   6  -5  13   17.95    6.60
   6  -5  13   11.51    7.42
   6  -5 -13   13.35    6.54
  -7  -5 -13    4.44   11.91
  -7   5  13   29.55   10.43
   7  -5  13   48.78   13.51
   7   5  13   52.27   15.80
  -7  -5  13   13.30   11.91
   7  -5  13   45.52   12.69
   7  -5  13   47.18   15.15
   7  -5 -13   33.94    9.63
   7  -5 -13   43.40   13.86
  -8  -5 -13  155.38   27.45
   8   5  13  171.64   36.75
   8  -5  13  264.49   34.73
  -8  -5  13  325.61   40.22
  -8  -5  13  285.24   35.63
   8  -5 -13  341.83   40.01
   8  -5  13  290.03   37.91
   8  -5 -13  280.15   31.35
   9  -5  13    2.20    4.60
   9  -5  13    6.13    6.10
  -9  -5  13   12.96    9.29
   9   5  13    7.74    8.23
   9  -5  13   11.26    9.43
   9  -5 -13    7.45    6.21
   9  -5 -13   15.18    7.35
  10  -5  13  686.31   56.01
  10  -5  13  721.15   56.33
 -10  -5  13  680.32   55.71
  10  -5 -13  815.50   59.53
  11  -5  13    3.99    6.22
 -11  -5  13    2.41    4.31
  11   5  13   16.65    9.22
  11  -5  13    2.01    5.32
  11  -5 -13    2.76    6.59
  12   5  13 1072.30   58.48
  12  -5  13 1061.26   62.17
 -12  -5  13 1063.66   56.70
  12  -5 -13 1184.56   61.35
  12  -5  13 1044.04   59.04
  12  -5  13 1193.41   59.60
 -12  -5  13 1057.40   56.09
  13  -5  13   12.73    6.46
 -13  -5  13    9.30    6.03
  13   5  13    9.51    6.30
  13  -5  13   17.64    5.81
  13  -5  13   23.29    7.30
  13  -5 -13   25.31    8.80
 -13  -5  13   18.87    6.55
  14   5  13  606.39   33.79
  14  -5  13  609.57   35.18
  14  -5 -13  550.50   32.83
  14  -5  13  591.46   33.19
 -14  -5  13  626.25   31.00
   0  -6 -13   -0.62    3.12
   0   6 -13   -4.31    3.58
  -1  -6 -13   39.95   16.41
   1  -6 -13   44.57   13.55
  -1  -6 -13   41.14   11.60
   1   6 -13   40.03   11.78
  -1   6 -13   36.25   12.21
  -2  -6  13   70.62   20.55
  -2  -6 -13   44.71   16.21
   2  -6 -13   50.34   15.20
  -2  -6 -13   42.61   13.06
   2   6 -13   66.96   14.71
  -2   6 -13   44.47   13.62
   2  -6  13   57.65   13.17
  -2  -6  13   68.21   14.08
  -3  -6  13   -0.97    3.06
   3  -6  13   -5.66   14.51
  -3  -6 -13   -5.68    8.74
   3  -6 -13    0.40    5.86
  -3  -6 -13   -1.17    3.49
  -3   6  13    4.91    2.15
   3   6 -13    8.60    5.74
  -3   6 -13   -5.68    5.12
   3  -6  13    0.43    3.34
   3   6  13    4.46    3.70
  -3  -6  13    5.20    5.25
   3  -6  13   -0.75    4.11
   3  -6 -13    0.80    2.05
  -4  -6  13   63.83   17.36
   4  -6  13   32.71   21.04
  -4  -6 -13   42.72   14.10
   4  -6 -13   49.01   18.27
  -4   6  13   46.09   12.28
   4   6 -13   44.54   13.17
  -4   6 -13   33.24   10.84
   4  -6  13   66.58   14.74
   4   6  13   50.60   13.03
   4  -6  13   42.78   11.99
  -4  -6  13   56.71   14.01
   4  -6  13   56.56   14.32
   4  -6 -13   57.41   14.03
   5  -6  13  -11.85    5.09
   5   6  13    3.65   10.09
  -5  -6 -13   14.31   10.49
  -5  -6 -13    4.97    4.79
   5  -6 -13    6.98    7.05
  -5   6  13    0.89    6.25
   5  -6 -13    5.59    3.79
   5   6 -13   14.96    8.62
  -5   6 -13    6.19    2.43
   5  -6  13    5.88    6.80
   5   6  13    2.87    2.17
   5  -6  13   14.20    6.98
   5  -6  13    5.21    4.19
  -5  -6  13   14.85    8.83
   5  -6  13   -4.47    7.39
   5  -6 -13    2.00    2.92
   6  -6  13   -3.43    4.90
  -6  -6 -13   20.13   11.07
  -6   6  13   13.49    8.57
   6  -6  13   17.71    8.38
   6   6  13   15.90    8.30
  -6  -6  13   14.69    8.51
   6  -6  13   24.06    8.58
   6  -6  13   25.74   10.88
   6  -6 -13   27.34   10.65
   6  -6 -13   24.37   11.89
  -7  -6 -13    4.44    7.61
  -7   6  13    0.10    4.33
   7  -6  13   -0.09    4.16
   7   6  13    9.65    7.99
  -7  -6  13    5.40    4.32
   7  -6  13    3.95    2.55
   7  -6  13   15.81   11.13
   7  -6 -13    8.07    7.02
   7  -6 -13    2.83    3.06
  -8  -6  13   12.34    7.92
  -8  -6 -13   -0.44    2.99
   8  -6  13   -0.22    4.88
  -8  -6  13   -9.24    8.81
  -8  -6  13    6.22    5.71
   8   6  13    0.21    7.01
   8  -6  13   13.34    9.90
   8  -6  13   -4.75    7.82
   8  -6 -13   11.39    9.23
   8  -6 -13   11.42    7.51
  -9  -6 -13    2.05    3.51
   9  -6  13   -5.78    5.78
  -9  -6  13    5.12    5.95
   9   6  13    0.91    2.56
   9  -6  13   -4.03    5.74
   9  -6  13   14.52    9.63
   9  -6 -13   -3.82    5.03
   9  -6 -13    5.71    5.37
  10  -6  13   39.73   14.67
 -10  -6  13   26.48   11.11
  10   6  13   30.45   11.96
  10  -6  13   30.46   10.14
  10  -6  13   29.67   11.64
  10  -6 -13   27.45   11.82
  10  -6 -13   31.16   10.43
  11  -6  13    2.40    5.86
 -11  -6  13    2.04    5.62
  11   6  13   -2.64    3.18
  11  -6  13   -1.52    4.60
  11  -6  13    8.89    6.31
  11  -6 -13    2.83    3.39
  12  -6  13   10.05    6.67
 -12  -6  13    6.77    5.98
  12   6  13    7.30    6.88
  12  -6  13    1.35    5.83
  12  -6  13    5.33    2.57
  12  -6 -13    0.04    2.58
 -12  -6  13    6.05    2.66
  13  -6  13   -0.69    2.61
 -13  -6  13   -0.88    1.80
  13   6  13   -5.04    3.18
  13  -6  13   -5.53    3.70
  13  -6  13    8.19    4.84
  13  -6 -13   -4.60    4.28
 -13  -6  13    4.73    3.56
  14  -6  13   62.95   10.67
  14   6  13   50.05    9.20
  14  -6 -13   70.60   11.04
  14  -6  13   75.45   10.80
   0   7  13 1117.76   59.23
   0  -7 -13 1026.63   63.71
   0   7 -13 1118.89   61.95
   0  -7  13 1216.21   60.18
   0  -7  13 1276.06   63.08
  -1  -7  13   10.54    8.64
   1  -7  13    3.43   12.02
  -1  -7 -13    6.87    5.95
   1  -7 -13    7.13    5.88
  -1  -7 -13    9.49    4.88
  -1   7  13   20.19    8.45
   1   7 -13   10.96    6.04
  -1   7 -13   17.77    7.94
   1   7  13   13.76    6.48
   1  -7  13    6.46    3.33
   1  -7  13    9.62    7.40
  -1  -7  13   10.24    6.57
   1  -7  13    1.24    3.98
  -2   7  13 1036.14   57.80
   2   7  13 1089.71   60.70
  -2  -7 -13 1079.50   90.67
   2  -7 -13  922.39   66.55
  -2  -7 -13 1081.08   63.71
   2   7 -13 1059.31   59.29
  -2   7 -13  957.24   59.91
   2  -7  13 1195.72   60.26
  -2  -7  13 1136.34   61.57
   2  -7  13  914.30   61.46
  -2  -7  13 1001.69   79.17
   2  -7  13  840.02  101.28
   2  -7 -13 1089.40   61.11
  -3  -7  13   16.29    8.43
   3  -7  13    1.33    5.17
  -3  -7 -13    1.60    6.86
   3  -7 -13   12.08    9.90
  -3   7  13    3.59    2.31
   3   7 -13   12.94    7.17
  -3   7 -13   13.87    8.77
   3  -7  13    5.66    3.32
   3   7  13    7.49    4.73
  -3  -7  13    9.79    5.48
   3  -7  13    4.90    2.62
   3  -7 -13    5.96    5.84
  -4   7  13  353.90   34.89
   4   7  13  334.01   36.13
  -4  -7 -13  322.66   41.48
   4  -7 -13  322.12   46.00
   4  -7  13  371.45   35.18
  -4  -7  13  383.24   38.54
   4  -7  13  355.97   37.87
   4  -7 -13  379.23   35.31
   4  -7  13  294.43   60.38
   5  -7  13    3.44   13.10
  -5  -7 -13   -1.70    7.97
  -5   7  13    0.20    4.30
  -5  -7 -13   -3.22    5.05
   5  -7  13   -3.36    4.08
   5   7  13    0.46    3.20
  -5  -7  13   -0.92    5.02
   5  -7  13   -0.15    2.80
   5  -7 -13    3.87    4.58
   6  -7  13   -4.27   10.25
  -6  -7  13   -4.43    6.91
  -6  -7 -13   -9.46    9.30
  -6   7  13   -4.02    6.71
   6  -7  13    0.82    6.10
   6   7  13   -0.68    3.99
  -6  -7  13   -1.37    8.02
   6  -7  13    5.86    8.22
   6  -7 -13   -5.41    5.57
   7  -7  13    5.63    7.81
  -7  -7  13   -2.56    5.94
  -7  -7 -13    6.68    6.18
   7  -7  13   20.23    7.22
  -7  -7  13   -1.07    6.18
   7   7  13    3.43    5.83
  -7  -7  13   -1.15    6.02
   7  -7  13   -0.59    7.43
   7  -7 -13   -0.92    3.78
  -8  -7  13  104.41   20.99
  -8  -7 -13   66.39   26.76
   8  -7  13  133.20   22.93
  -8  -7  13  130.73   24.79
   8   7  13  116.82   22.51
   8  -7  13  136.15   22.12
   8  -7  13  118.86   22.32
   8  -7 -13  152.64   23.92
   8  -7 -13  134.32   23.92
  -9  -7  13   -6.35    4.09
  -9  -7 -13    3.25    5.44
   9  -7  13    5.35    7.13
  -9  -7  13   -0.86    5.14
   9   7  13   -0.35    4.74
   9  -7  13    5.13    4.96
   9  -7  13   -4.62    6.10
   9  -7 -13   -1.04    2.94
   9  -7 -13    3.62    4.85
  10   7  13  422.47   40.04
  10  -7  13  375.37   39.31
 -10  -7  13  391.04   39.42
  10  -7 -13  435.27   39.05
  10  -7  13  363.76   36.22
  10  -7  13  403.53   40.57
  10  -7 -13  384.55   36.48
  11  -7  13    1.44    3.00
 -11  -7  13   16.42    9.25
  11   7  13   16.61    8.51
  11  -7  13    8.31    7.05
  11  -7  13    1.81    2.98
  11  -7 -13    5.85    3.89
  11  -7 -13    2.54    3.46
  12   7  13  591.76   38.37
  12  -7  13  644.30   44.49
  12  -7 -13  623.73   38.42
  12  -7  13  602.24   39.45
  12  -7  13  543.88   38.34
 -13  -7  13    5.24    3.21
  13  -7  13   10.65    5.11
  13   7  13    4.91    3.50
  13  -7  13    2.61    3.16
  13  -7  13    9.59    5.46
  13  -7 -13   -2.87    4.00
   0  -8  13    6.52    8.60
   0  -8 -13    1.06    3.62
   0  -8 -13   -0.67    3.68
   0   8  13    0.72    1.79
  -1  -8  13   -3.67    5.63
   1  -8  13   -2.91   10.80
   1  -8  13   41.38   24.49
  -1  -8 -13   19.40   17.00
   1  -8 -13   11.42    7.57
   1  -8 -13   16.18    6.70
  -1  -8 -13   16.11    8.18
  -1   8  13   16.40    8.37
   1   8  13   12.92    6.26
   1  -8  13   20.64    8.21
   1  -8 -13   19.20    6.97
  -2  -8  13   94.38   26.29
   2  -8  13  194.14   43.34
   2   8  13  219.32   27.14
  -2  -8 -13  217.14   40.93
   2  -8 -13  209.19   25.46
  -2  -8 -13  189.65   24.99
   2  -8  13  197.35   26.97
   2  -8 -13  209.87   26.59
  -3  -8  13   -2.33    3.49
   3  -8  13   -3.56   14.02
  -3  -8  13   -7.41    9.60
   3  -8 -13    2.16    2.63
  -3  -8 -13    1.66    5.29
   3  -8  13   -3.06    2.40
   3   8  13    4.16    5.20
   3  -8  13    2.85    3.32
   3  -8 -13    2.34    3.38
  -4  -8  13  554.16   58.73
   4   8  13  656.91   51.16
   4  -8 -13  689.80   46.52
  -4  -8 -13  645.08   47.58
   4  -8  13  640.79   45.23
   4  -8  13  687.91   51.77
   4  -8 -13  758.99   51.06
   4  -8  13  564.23   81.75
   5  -8  13    7.46    7.99
  -5  -8  13   20.98   10.46
  -5  -8 -13   -0.90    3.11
   5  -8 -13    6.35    4.63
  -5  -8 -13    5.86    5.20
   5  -8  13    0.93    2.13
   5   8  13   11.55    9.87
   5  -8  13    5.71    6.36
   5  -8 -13    6.74    4.28
  -6  -8  13  535.54   49.54
   6   8  13  666.03   53.93
  -6  -8 -13  400.44   44.62
   6  -8 -13  667.58   47.29
  -6  -8 -13  592.77   48.24
   6  -8  13  684.55   49.11
  -6  -8  13  750.64   62.38
   6  -8  13  717.89   56.07
   6  -8 -13  690.07   49.47
   6  -8  13  276.66   56.41
   7  -8  13   -5.08    8.31
  -7  -8  13    0.21    6.03
  -7  -8 -13    5.04    7.37
   7  -8  13    3.35    2.37
   7   8  13   13.47    8.11
  -7  -8  13    4.57    3.54
   7  -8  13   -1.52    4.43
   7  -8 -13    1.73    5.23
  -8  -8  13  323.14   34.43
   8   8  13  280.59   34.66
   8  -8  13  339.21   36.45
  -8  -8  13  329.12   39.56
   8  -8  13  279.32   37.68
   8  -8 -13  307.90   33.54
  -9  -8  13    0.67    4.26
  -9  -8 -13    2.71    7.26
   9  -8  13    5.56    6.42
  -9  -8  13   -0.52    7.63
   9   8  13   -7.00    7.44
   9  -8  13    6.55    7.31
   9  -8 -13   10.24    5.23
  10  -8  13  101.67   19.44
 -10  -8  13  114.97   19.78
  10   8  13   79.91   17.10
  10  -8  13  100.19   20.35
  10  -8 -13   96.83   18.24
  11  -8  13    8.27    7.10
 -11  -8  13   -0.09    4.25
  11   8  13   15.32    7.01
  11  -8  13   14.12    6.79
  11  -8 -13   12.33    7.08
  11  -8 -13    5.01    2.48
 -12  -8  13   -2.67    1.97
  12  -8  13   -1.26    2.93
 -12  -8  13    5.85    3.63
  12   8  13    0.38    3.46
  12  -8  13    9.62    5.60
  12  -8 -13    4.25    3.11
  12  -8 -13    1.11    2.68
 -13  -8  13    2.66    2.47
  13  -8  13   -4.05    4.37
  13  -8  13   -0.16    2.04
   0  -9  13  108.36   39.31
   0  -9 -13   93.34   16.80
   0  -9 -13   97.97   17.69
  -1  -9  13   -0.57    7.57
   1  -9  13    0.85   11.67
   1  -9  13   38.83   23.32
  -1  -9  13   16.09   15.87
   1  -9 -13   24.35    9.45
  -1  -9 -13   26.01    9.42
   1  -9 -13   19.44    7.15
  -2  -9  13   76.55   22.21
   2  -9  13   79.72   33.41
  -2  -9  13  235.70   47.87
   2  -9 -13  165.35   22.58
  -2  -9 -13  153.12   22.98
   2  -9  13  168.27   24.00
   2  -9 -13  143.96   21.67
  -3  -9  13    2.54    5.12
   3  -9  13  -10.15   18.04
  -3  -9  13   14.28   11.53
   3  -9 -13   10.20    6.28
  -3  -9 -13   11.07    6.46
   3  -9  13   11.93    7.04
   3  -9 -13   14.30    5.49
   4  -9  13   24.16   21.68
  -4  -9  13   35.81   15.75
   4  -9 -13   32.43    9.36
  -4  -9 -13   28.92   11.50
   4  -9  13   33.34   10.55
   4  -9 -13   26.56   10.17
   5  -9  13   -6.84   12.66
  -5  -9  13    8.48    7.21
  -5  -9 -13    6.32    6.42
   5  -9 -13   -1.38    2.99
  -5  -9 -13    0.64    2.92
   5  -9  13    2.89    3.96
  -5  -9  13   -9.20   11.41
   5  -9  13    9.79    8.16
   5  -9 -13    8.47    3.78
   6  -9  13   -6.11   14.00
  -6  -9  13   11.94    7.12
  -6  -9 -13   -7.92    4.75
   6  -9 -13   13.10    6.76
  -6  -9 -13   13.21    6.85
   6  -9  13   19.44    8.56
  -6  -9  13   16.83    8.10
   6  -9  13   26.08   12.36
   6  -9 -13   15.16    6.54
   7  -9  13  -11.51   12.88
  -7  -9  13    9.19    6.60
  -7  -9 -13    1.40    6.36
  -7  -9 -13    2.47    2.79
   7  -9  13    1.74    4.88
   7   9  13   -4.64    2.51
  -7  -9  13  -14.69   10.91
   7  -9  13   -3.06    8.09
   7  -9 -13   -5.55    6.43
   8  -9  13    0.51    6.72
  -8  -9  13   21.93    9.30
  -8  -9 -13    8.73    9.50
  -8  -9 -13   21.31    8.73
   8  -9  13   20.60    8.14
   8   9  13   13.18    7.12
  -8  -9  13   30.35   10.93
   8  -9  13    6.30    4.48
   8  -9 -13   19.82    8.90
  -9  -9  13    0.70    1.96
  -9  -9 -13    2.69    2.96
  -9  -9 -13    1.09    2.08
   9  -9  13   -4.35    5.58
   9   9  13   -8.20    6.22
  -9  -9  13   10.50    7.53
   9  -9  13   -4.83    4.56
   9  -9 -13    2.41    4.17
 -10  -9 -13  100.85   16.77
  10  -9  13   91.30   16.88
 -10  -9  13  124.85   20.09
  10   9  13   90.21   16.27
  10  -9  13  104.99   19.66
  10  -9 -13   88.31   16.90
 -11  -9  13    0.05    3.07
 -11  -9 -13   -0.04    4.15
  11  -9  13    6.92    5.38
  11   9  13   -2.67    2.67
 -11  -9  13    3.58    3.69
  11  -9  13   -1.33    3.95
  11  -9 -13    1.52    4.29
 -12  -9  13  136.44   15.59
 -12  -9 -13  168.30   16.49
  12  -9  13  159.07   18.48
  12  -9 -13  150.12   16.58
   0 -10  13   17.92   11.08
   0 -10  13  -24.05   28.09
   0 -10 -13   -3.81    5.49
   0 -10 -13   -4.90    6.73
  -1 -10  13    2.66    8.62
   1 -10  13   -6.72    8.61
   1 -10  13    1.53   15.11
  -1 -10  13   10.45    9.41
   1 -10 -13    4.01    6.05
  -1 -10 -13    3.65    3.51
   1 -10 -13    4.19    5.62
  -1 -10 -13    1.19    4.07
  -2 -10  13  355.94   57.80
  -2 -10  13   64.91   25.94
   2 -10  13   82.86   34.81
   2 -10 -13  234.30   26.87
  -2 -10 -13  249.47   28.94
   2 -10 -13  197.94   25.81
   3 -10  13    5.25    9.03
  -3 -10  13   -5.90    6.62
   3 -10 -13   -2.66    2.05
  -3 -10 -13    7.19    6.87
   3 -10  13   -5.02    4.49
   3 -10 -13    2.52    4.97
  -4 -10  13  949.96   72.78
   4 -10 -13  902.86   53.24
  -4 -10 -13  949.44   60.44
   4 -10  13 1004.23   59.84
   4 -10 -13  887.45   54.44
   4 -10  13  753.15   90.43
   5 -10  13    0.04    8.20
  -5 -10  13   32.24   13.28
   5 -10 -13   41.58   11.63
  -5 -10 -13   40.37   12.57
   5 -10  13   30.02   10.83
   5 -10 -13   42.83   12.57
  -6 -10  13  787.39   56.45
   6 -10 -13  786.05   51.15
  -6 -10 -13  761.50   55.59
  -6 -10  13  882.54   60.41
   6 -10  13  907.96   59.39
   6 -10 -13  820.38   53.37
  -7 -10  13   12.40    6.27
  -7 -10 -13   14.88    8.06
  -7 -10  13    9.34    3.28
   7 -10  13   15.32    8.65
   7 -10 -13    3.78    3.09
  -8 -10  13  420.01   37.06
  -8 -10 -13  472.15   40.94
   8 -10  13  459.80   38.49
  -8 -10  13  589.40   43.48
   8 -10  13  481.38   43.88
   8 -10 -13  479.55   41.00
  -9 -10  13    2.49    2.10
  -9 -10 -13    3.42    3.73
   9 -10  13   -3.13    5.67
  -9 -10  13    2.65    5.52
   9 -10  13    9.82    7.43
   9 -10 -13   -1.42    4.56
   9 -10 -13    7.33    6.36
 -10 -10  13  106.45   16.58
 -10 -10 -13  186.72   21.54
  10 -10  13  160.02   21.37
 -10 -10  13  146.02   18.31
  10 -10  13  143.00   21.84
  10 -10 -13  156.63   21.06
 -11 -10  13    2.59    3.93
 -11 -10 -13    2.26    2.87
  11 -10  13    9.13    3.86
  11 -10  13    0.97    3.40
  11 -10 -13    1.53    4.52
   0 -11  13   -3.77    8.44
   0 -11  13  -18.65   19.63
   0 -11 -13   30.25   10.16
   0 -11 -13   28.21   10.01
  -1 -11  13    5.40    7.54
   1 -11  13  -13.56   10.49
  -1 -11  13   11.92   15.59
   1 -11 -13   -0.59    2.71
  -1 -11 -13    6.61    6.51
   1 -11 -13   12.72    7.85
  -1 -11 -13   20.14    9.42
  -2 -11  13    1.83    7.72
   2 -11  13   -4.67    6.16
  -2 -11  13    5.66   10.11
   2 -11 -13    0.55    2.98
  -2 -11 -13    3.86    4.39
   2 -11 -13   -3.98    5.18
  -2 -11 -13    6.92    4.16
   3 -11  13   14.97   15.82
  -3 -11  13  -12.36   11.13
   3 -11 -13   -1.50    3.97
  -3 -11 -13    7.71    5.81
   3 -11 -13   -1.40    3.45
   4 -11  13    6.89    8.53
  -4 -11  13   12.25    8.79
   4 -11 -13    1.27    2.07
  -4 -11 -13    1.10    3.23
   4 -11 -13    2.37    6.33
   5 -11  13    5.31    8.25
  -5 -11  13    2.82    5.25
  -5 -11  13   -8.12    6.31
   5 -11 -13   -0.01    3.48
  -5 -11 -13   -0.06    4.06
   5 -11  13    5.00    4.00
   5 -11 -13    4.70    5.44
   6 -11  13    4.25   11.32
  -6 -11  13   12.29    4.00
  -6 -11  13    1.73    2.10
   6 -11 -13   -3.51    4.15
  -6 -11 -13   -1.53    6.07
   6 -11  13   -2.06    5.64
   6 -11 -13   -3.52    4.61
  -7 -11  13   15.86    7.59
  -7 -11 -13   23.35   10.06
   7 -11  13   23.03    7.74
   7 -11 -13   26.50    8.85
  -8 -11  13    9.38    5.69
  -8 -11  13   -1.21    3.10
  -8 -11 -13    2.87    4.00
  -8 -11  13   11.37    4.81
   8 -11  13   11.00    6.70
   8 -11 -13   13.20    6.75
   8 -11 -13    9.38    7.77
  -9 -11  13    6.07    1.94
  -9 -11  13   -3.54    2.80
  -9 -11 -13    3.43    2.94
  -9 -11  13    4.12    4.80
   9 -11  13   11.21    5.73
   9 -11 -13   -3.95    4.63
 -10 -11  13    8.51    3.16
 -10 -11 -13   10.30    4.85
  10 -11  13   18.80    8.06
  10 -11 -13   17.06    6.96
   0 -12  13  -13.83    9.55
   0 -12  13   -4.87   11.04
   0 -12 -13   -2.60    3.48
   0 -12 -13    1.71    4.18
  -1 -12  13    2.54    3.64
   1 -12  13   -6.20   10.24
  -1 -12  13    7.60    5.41
   1 -12 -13   20.09    8.23
  -1 -12 -13   16.81    7.78
   1 -12 -13   22.84    9.83
  -1 -12 -13   20.95    9.13
  -2 -12  13   63.13   18.89
  -2 -12  13  110.92   31.30
   2 -12 -13   77.94   15.04
  -2 -12 -13   87.34   17.50
   2 -12 -13   74.73   16.06
  -2 -12 -13   65.63   16.41
   3 -12  13   10.15    9.97
  -3 -12  13    4.37    4.00
  -3 -12  13   -9.47    7.40
   3 -12 -13    0.83    3.09
  -3 -12 -13   -8.15    4.94
   3 -12 -13    3.24    4.33
  -3 -12 -13    2.40    4.04
  -4 -12  13  626.23   55.79
  -4 -12  13  534.53   45.69
   4 -12 -13  493.94   37.91
  -4 -12 -13  551.84   45.78
   4 -12 -13  492.16   39.23
  -4 -12 -13  537.76   49.67
   5 -12  13   11.87    6.24
  -5 -12  13   19.62    9.51
  -5 -12  13   14.54    7.65
   5 -12 -13   18.92    8.01
  -5 -12 -13   19.52    9.96
   5 -12 -13   11.18    4.31
  -6 -12  13  570.07   42.18
  -6 -12  13  544.26   42.27
  -6 -12 -13  546.56   45.01
   6 -12  13  626.10   43.23
   6 -12 -13  515.05   39.11
   7 -12  13   -4.15    3.57
  -7 -12  13   12.14    6.41
  -7 -12 -13   15.69    8.55
   7 -12  13   20.23    7.48
   7 -12 -13    9.90    6.60
  -8 -12 -13  375.22   33.36
   8 -12  13  358.46   32.44
   8 -12 -13  337.59   31.17
  -8 -12  13  344.06   26.63
  -9 -12  13   -0.44    1.07
  -9 -12 -13    1.08    2.39
   9 -12  13   -1.66    4.39
   9 -12 -13    3.52    1.65
   0 -13  13  458.04   59.91
   0 -13 -13  376.99   33.42
   0 -13 -13  389.25   37.63
  -1 -13  13  -10.42    6.38
   1 -13  13    7.88    9.82
  -1 -13  13   -5.31    5.22
  -1 -13  13    7.69    7.09
   1 -13 -13   10.29    5.28
  -1 -13 -13    2.63    2.74
   1 -13 -13    7.24    6.84
  -1 -13 -13   -1.75    3.68
  -2 -13  13  365.99   50.10
  -2 -13  13  249.56   32.69
   2 -13 -13  243.83   25.80
  -2 -13 -13  265.80   29.46
   2 -13 -13  250.01   28.42
  -2 -13 -13  257.40   31.93
   3 -13  13   26.60   14.70
  -3 -13  13   11.48    8.02
  -3 -13  13   11.95    9.64
   3 -13 -13    2.40    3.74
  -3 -13 -13    5.52    4.44
   3 -13 -13    0.45    4.49
  -3 -13 -13   12.61    9.81
  -4 -13  13   79.85   18.74
  -4 -13  13   69.88   16.05
   4 -13 -13   51.85   11.65
  -4 -13 -13   71.04   15.86
   4 -13 -13   71.79   14.42
  -4 -13 -13   74.35   19.15
  -5 -13  13   16.90    8.41
  -5 -13  13   17.43    8.16
   5 -13 -13   11.15    5.22
  -5 -13 -13    5.45    2.90
   5 -13 -13    5.62    3.15
  -5 -13 -13   19.14    9.81
   6 -13  13   -6.38    8.30
  -6 -13  13    6.86    5.22
  -6 -13  13    8.50    4.57
  -6 -13 -13   -1.03    5.61
   6 -13 -13   -2.50    5.46
   6 -13 -13    7.97    3.58
  -6 -13 -13   12.51    8.40
   7 -13  13  -11.76    9.41
  -7 -13  13    5.98    3.44
  -7 -13 -13   -6.48    5.27
   7 -13 -13    3.40    2.53
  -8 -13  13   36.72    7.52
  -8 -13 -13   42.46    9.28
   8 -13 -13   44.28   10.47
   0 -14  13    2.68    3.09
   0 -14  13    7.38    8.85
   0 -14  13   -5.41    9.36
   0 -14 -13   -3.73    5.22
   0 -14 -13    2.55    7.03
  -1 -14  13    8.32    4.70
   1 -14  13    1.63    3.54
  -1 -14  13   14.42   11.57
  -1 -14  13   11.56    8.30
   1 -14  13   23.31   14.22
   1 -14 -13    6.97    3.39
  -1 -14 -13   14.68    7.43
   1 -14 -13   15.58    8.59
  -1 -14 -13   21.66    9.60
   2 -14  13   -3.42    5.03
  -2 -14  13   16.49   10.83
  -2 -14  13    7.03    5.00
   2 -14  13    6.69   14.92
   2 -14 -13    7.35    3.38
  -2 -14 -13    8.75    5.05
   2 -14 -13    3.73    5.06
   3 -14  13   -3.43    8.24
  -3 -14  13   -0.70    6.78
  -3 -14  13   -1.70    5.02
   3 -14  13   -5.63   10.51
   3 -14 -13   -4.75    4.24
  -3 -14 -13   -1.93    4.00
   3 -14 -13   -0.82    2.69
  -4 -14  13  139.45   20.22
   4 -14 -13  148.38   19.76
  -4 -14 -13  130.01   20.54
   4 -14 -13  168.55   22.48
   5 -14  13    3.30    5.07
  -5 -14  13   -3.31    4.65
  -5 -14  13   12.47    6.15
  -5 -14 -13    4.76    4.55
   5 -14 -13    4.94    8.62
   5 -14 -13    0.76    5.56
  -6 -14 -13  268.60   25.52
  -6 -14  13  275.66   22.89
   0 -15 -13  476.18   35.60
   0 -15  13  520.35   37.32
   1 -15  13   -4.18    1.99
  -1 -15  13    7.55    5.48
   1 -15  13   11.32   13.21
   1 -15 -13    1.51    2.64
  -1 -15 -13    0.44    2.77
  -2 -15  13  482.19   39.57
   2 -15 -13  451.21   33.83
  -2 -15 -13  423.54   34.20
   2 -15  13  464.60   50.79
  -3 -15  13    5.41    4.58
  -3 -15  13    5.55    4.64
   3 -15 -13   10.63    5.40
  -3 -15 -13   -7.92    6.00
   0   0 -14 1230.85   72.18
   1   0 -14   -4.95    7.76
  -1   0 -14    0.19    3.06
   2   0 -14  778.31   55.85
  -2   0 -14  766.68   61.12
   3   0 -14    0.70    3.02
  -3   0 -14   -1.27    4.94
  -4   0 -14   21.63   10.92
   4   0 -14   25.02   10.11
  -5   0 -14    5.41    6.01
  -5   0  14   -0.38    4.47
   5   0 -14    0.42    2.57
   5   0  14    0.17    5.70
   5   0  14   -7.25    5.58
   5   0  14   -3.20    6.20
  -5   0  14   -1.13    7.03
  -6   0 -14    5.42    6.99
  -6   0  14   -0.89    6.18
   6   0 -14    5.06    4.98
   6   0  14    3.27    9.40
   6   0  14    2.55    2.11
  -6   0  14   -0.48    2.66
   6   0  14   -6.49    7.36
  -7   0  14    7.65    4.56
   7   0  14   -6.76    7.48
   7   0  14   -5.40    7.87
  -7   0  14   -1.93    4.32
   7   0  14    0.52    4.89
   8   0  14   54.18   15.47
   8   0  14   58.38   14.53
  -8   0  14    9.47   17.21
   8   0  14   58.23   16.71
   8   0 -14   65.78   17.68
   9   0  14    2.62    4.30
  -9   0  14   -0.58    5.84
   9   0  14    4.52    7.62
   9   0  14   -8.31    5.92
   9   0 -14   18.74    8.33
  10   0  14  147.79   24.14
  10   0  14  164.14   25.50
  10   0 -14  150.54   23.06
  10   0  14  133.27   22.66
  11   0  14   -0.99    2.33
  11   0  14    0.68    4.17
  11   0  14   -1.52    4.15
  11   0 -14   -1.90    4.61
  12   0  14  327.77   33.73
  12   0 -14  316.85   30.55
  12   0  14  320.09   31.21
  13   0  14   -4.94    4.75
  13   0  14    7.01    5.41
  13   0 -14   -1.25    2.92
  14   0  14  225.15   20.04
  14   0 -14  212.38   18.76
  14   0  14  214.14   19.46
 -14   0  14  210.62   18.89
   0  -1 -14    8.78    6.85
   0   1 -14   -0.84    3.60
   1  -1 -14   45.38   14.89
  -1  -1 -14   52.50   16.26
   1   1 -14   45.97   13.53
  -1   1 -14   34.68   11.24
  -2  -1 -14  100.96   21.20
   2  -1 -14  126.90   24.49
   2   1 -14  103.45   19.92
  -2  -1 -14  103.90   23.16
  -2   1 -14  115.34   22.12
  -3  -1 -14  643.96   53.69
   3  -1 -14  640.42   52.76
   3   1 -14  619.36   49.04
  -3   1 -14  633.69   54.55
  -4  -1  14  175.32   23.63
  -4   1  14  177.28   23.47
   4   1  14  153.30   21.98
  -4  -1 -14  196.06   30.46
   4  -1 -14  154.94   26.14
   4   1 -14  178.37   26.55
  -4   1 -14  188.18   30.14
   4  -1  14  179.20   24.60
  -5  -1  14 1252.42   66.67
  -5   1  14 1284.38   64.91
   5  -1  14 1247.46   64.57
   5   1  14 1378.30   68.97
  -5   1 -14 1389.34   79.70
  -5  -1 -14 1348.85   80.44
   5  -1 -14 1142.08   70.28
   5   1 -14 1199.20   69.91
   5   1  14 1305.61   71.52
   5  -1  14 1227.71   67.70
  -5   1  14 1361.30   74.00
  -5  -1  14 1305.20   70.06
   5   1  14 1208.73   65.65
   5  -1  14 1234.21   65.49
   5  -1  14 1097.00   74.04
   6  -1  14  105.92   20.55
  -6   1 -14   96.10   20.63
  -6  -1 -14  115.82   23.82
  -6  -1  14   75.36   17.55
  -6   1  14   93.69   19.27
  -6  -1  14  120.53   25.34
   6  -1 -14   96.95   21.17
   6   1 -14  106.81   21.14
   6  -1  14  130.37   22.53
   6   1  14  105.09   21.11
   6   1  14   83.51   18.96
   6  -1  14  114.07   20.72
  -6   1  14   42.61   22.71
  -6  -1  14  114.21   21.49
   6   1  14   98.97   19.03
   6  -1  14  102.65   22.02
  -7  -1  14 1042.70   62.76
  -7   1  14  992.55   60.28
   7  -1  14 1164.47   65.90
   7   1  14 1059.30   65.75
   7  -1  14 1055.84   66.90
  -7   1  14 1084.49   73.68
  -7  -1  14  941.26   65.72
   7   1  14 1104.49   66.76
   7  -1  14  989.73   62.43
   7  -1  14 1138.67   76.86
   8  -1  14   66.21   16.05
  -8   1  14   46.25   15.70
   8  -1  14   61.08   16.07
   8   1  14   56.89   17.21
  -8  -1  14   17.90   13.05
   8   1  14   57.25   16.51
   8  -1  14   41.30   11.72
   8  -1  14   64.97   15.87
   8  -1 -14   71.86   18.08
   8   1 -14   54.57   14.91
   9  -1  14  265.51   37.10
   9   1  14  243.21   39.39
   9  -1  14  377.68   40.86
  -9  -1  14  362.47   38.83
   9  -1 -14  411.62   43.26
   9   1 -14  303.82   34.90
   9   1  14  317.15   35.82
   9  -1  14  327.21   36.71
  10  -1  14   26.47   11.21
 -10  -1  14   18.51    8.78
  10  -1  14   27.55   11.80
  10   1  14    7.15    7.51
  10   1  14   21.19   10.62
  10  -1  14   25.61   10.13
  10  -1 -14    4.56    5.83
  10   1 -14   15.85    7.46
  11  -1  14   11.87    6.84
 -11  -1  14    8.82    7.21
  11  -1  14    4.98    3.60
  11   1  14   14.54    8.01
  11   1  14    2.56    3.40
  11  -1  14    2.63    3.27
  11   1 -14   11.04    6.73
  11  -1 -14    3.71    4.23
  12  -1  14    2.10    5.55
  12  -1  14    7.47    5.22
  12   1  14   -2.32    3.87
  12   1  14    1.96    2.91
  12  -1  14   -3.01    5.90
  12   1 -14   -1.15    2.59
  13  -1  14   23.29    7.67
  13   1  14   19.19    6.39
  13   1  14   20.69    6.50
  13  -1  14   24.17    8.36
  13   1 -14   33.77    9.06
  13  -1 -14   29.94    8.76
  14   1  14   14.18    5.27
  14   1  14   15.95    5.44
  14  -1  14   11.79    4.58
  14   1 -14   12.65    4.51
  14  -1 -14   10.67    3.92
 -14  -1  14   14.98    5.20
 -14   1  14   14.76    5.37
   0  -2 -14  634.06   57.49
   0  -2 -14  705.74   63.68
   0   2 -14  607.71   48.30
   1  -2 -14  295.44   40.75
  -1  -2 -14  287.77   36.77
  -1  -2 -14  317.51   32.34
   1  -2 -14  309.52   40.32
   1   2 -14  292.75   32.98
  -1   2 -14  263.56   32.69
  -2  -2 -14  504.40   48.18
   2  -2 -14  529.21   51.87
   2   2 -14  485.38   42.05
  -2   2 -14  505.11   46.22
  -3  -2 -14  362.48   40.95
   3  -2 -14  367.20   42.01
   3   2 -14  390.08   38.07
  -3   2 -14  364.32   40.80
  -4  -2 -14   28.90   10.50
  -4   2  14   36.41   10.60
   4  -2 -14   37.13   13.33
   4   2 -14   28.76    9.31
  -4   2 -14   36.94   13.07
   4  -2  14   28.07    8.24
   4   2  14   44.39   12.69
   4   2  14   39.67   10.88
   4  -2  14   41.02   10.84
  -4  -2  14   27.37    8.84
  -5   2 -14    7.94    3.73
  -5  -2 -14    5.63    6.11
  -5  -2  14    1.91    3.55
  -5   2  14    3.23    5.28
   5  -2 -14   -6.59    8.58
   5   2 -14   -4.57    5.84
  -5   2 -14    2.06    3.47
   5  -2  14   -1.90    3.60
   5   2  14   -6.88    4.43
   5   2  14    5.15    5.21
  -5   2  14   -3.88    5.18
   5  -2  14   -0.86    6.83
  -5  -2  14    2.93    2.57
   5  -2  14    3.49    5.90
  -6   2 -14    6.07    4.22
  -6  -2 -14    1.82    5.60
  -6  -2  14   -1.90    5.41
  -6   2  14    0.36    2.67
  -6  -2  14    3.07    7.70
   6  -2 -14    7.11    8.75
   6   2 -14    4.64    3.91
   6  -2  14   11.42    8.98
   6   2  14    5.63    6.60
  -6   2  14    3.00    2.45
   6   2  14   14.40    9.59
  -6  -2  14   -2.99    5.69
   6  -2  14    4.70    5.97
   6  -2  14    6.80    7.84
  -7   2  14   36.47   12.44
   7  -2  14   59.76   14.56
   7   2  14   41.76   14.80
  -7   2  14   56.19   17.55
  -7  -2  14   70.95   16.70
   7   2  14   54.62   13.48
   7  -2  14   55.73   15.09
   7  -2  14   71.55   19.50
   8  -2  14   48.67   14.89
   8   2  14   45.19   15.30
  -8  -2  14   24.01   11.35
   8   2  14   44.42   13.65
   8  -2  14   43.91   13.81
   8  -2  14   46.90   15.00
   8  -2 -14   42.86   12.70
   8   2 -14   30.31   12.87
   9  -2  14  124.85   22.81
  -9  -2  14  108.83   20.91
   9   2  14   69.93   23.66
   9   2 -14  127.96   21.57
   9   2  14  120.70   22.25
   9  -2  14  114.46   21.26
   9  -2  14  135.25   24.02
   9  -2 -14  128.84   24.00
  10  -2  14  117.86   22.42
 -10  -2  14   92.26   18.93
  10   2  14   76.73   20.24
  10   2 -14  124.48   21.61
  10   2  14  109.78   20.86
  10  -2  14  114.55   20.57
  10  -2 -14  130.74   23.07
  11   2  14  200.53   29.25
  11  -2  14  180.26   26.03
 -11  -2  14  124.31   22.10
  11   2 -14  141.79   22.79
  11  -2 -14  194.25   25.77
  11   2  14  173.29   23.96
  11  -2  14  207.79   27.42
  12   2  14  320.80   31.96
  12  -2  14  279.59   29.76
 -12  -2  14  326.48   29.24
  12   2 -14  276.65   26.88
  12  -2 -14  284.40   29.42
  12   2  14  278.69   27.29
  12  -2  14  299.19   30.43
  13   2  14  171.17   21.00
  13  -2  14  156.78   19.31
  13  -2 -14  142.68   18.81
  13   2  14  135.06   16.19
  13  -2  14  134.34   18.23
  14   2  14  249.95   22.25
  14  -2  14  241.17   19.82
  14  -2 -14  255.84   21.44
  14  -2  14  240.81   20.75
 -14  -2  14  222.90   19.01
 -14   2  14  231.50   19.05
   0  -3 -14   -3.34    7.74
   0  -3 -14    0.38    4.27
   0   3 -14   -0.96    4.85
   1  -3 -14   22.58   10.73
  -1  -3 -14   27.04   11.97
   1  -3 -14   32.59    9.91
  -1  -3 -14   34.92   11.70
   1  -3 -14   27.90   11.24
   1   3 -14   19.22    8.95
  -1   3 -14   36.56   12.24
   2  -3 -14  257.30   45.75
  -2  -3 -14  212.39   33.07
  -2  -3 -14  239.54   28.49
   2  -3 -14  265.47   40.87
   2   3 -14  229.59   28.26
  -2   3 -14  217.48   29.19
  -3   3  14  150.97   21.69
   3   3  14  153.06   22.71
  -3  -3 -14  154.25   27.34
   3   3 -14  143.74   22.61
  -3   3 -14  139.51   24.45
   3  -3 -14  153.20   29.32
   3  -3  14  163.65   23.07
  -3  -3  14  150.63   22.34
   3  -3  14  157.65   22.32
  -3  -3  14   64.40   23.75
  -4   3  14  480.34   39.25
   4   3  14  420.21   38.21
  -4  -3 -14  446.61   47.06
   4  -3 -14  469.14   50.01
   4   3 -14  457.31   41.78
  -4   3 -14  440.91   45.07
   4  -3  14  443.40   39.31
  -4  -3  14  477.87   40.87
   4   3  14  452.75   39.75
   4  -3  14  440.84   38.23
   4  -3  14  386.69   42.48
  -4  -3  14  274.70   41.35
  -5   3  14  153.54   23.36
   5   3  14  141.45   22.75
  -5  -3 -14  158.95   28.06
   5  -3 -14  160.27   29.59
   5   3 -14  155.59   24.83
  -5   3 -14  124.17   24.69
   5  -3  14  137.14   22.79
  -5  -3  14  182.13   25.44
   5   3  14  148.62   23.67
   5  -3  14  141.50   21.84
   5  -3  14  120.80   24.89
   5  -3  14  203.59   39.69
  -6   3  14  215.74   27.85
   6   3  14  202.50   27.53
   6  -3  14  196.90   27.73
  -6  -3  14  212.74   28.09
   6   3  14  192.44   27.85
   6  -3  14  237.07   28.95
   6  -3  14  186.65   31.63
  -7   3  14  216.80   28.70
   7   3  14  261.25   32.53
   7  -3  14  221.02   30.50
  -7  -3  14  276.12   34.16
   7   3  14  264.16   33.32
   7  -3  14  225.85   29.88
   7  -3 -14  148.24   34.57
   7  -3  14  226.03   35.28
   8   3  14  166.79   25.37
   8  -3  14  168.57   26.85
  -8  -3  14  104.53   22.85
   8   3  14  184.64   28.00
   8  -3  14  167.10   25.41
   8  -3 -14  223.05   32.05
   8   3 -14  178.72   27.14
   8  -3  14  172.43   29.36
   9  -3  14   81.89   18.77
  -9  -3  14  105.63   20.77
   9   3  14   78.03   18.51
   9   3  14  107.40   20.13
   9  -3  14   92.63   20.01
   9  -3  14  105.81   22.34
   9  -3 -14   97.11   21.00
   9   3 -14   78.29   18.61
  10  -3  14   25.83   10.87
 -10  -3  14   29.98   11.01
  10   3  14   16.60    6.45
  10   3  14   31.40   11.18
  10  -3  14   25.67   12.20
  10  -3  14   40.10   14.06
  10  -3 -14   41.50   13.59
  11  -3  14    1.67    4.36
 -11  -3  14    7.06    5.47
  11   3  14    0.50    4.92
  11  -3  14  -12.42    9.88
  11  -3  14   -0.53    4.34
  11  -3 -14   12.09    7.82
  12  -3  14    3.87    4.62
 -12  -3  14   -4.12    4.73
  12   3  14   -3.00    4.58
  12  -3  14   -2.39    2.95
  12  -3 -14    2.41    3.05
  13  -3  14   29.08    7.96
 -13  -3  14   30.33    8.25
  13   3  14   21.86    8.01
  13  -3  14   24.15    7.58
  13  -3 -14   33.42    9.06
 -13  -3  14   22.70    6.23
  14   3  14   73.21   11.59
  14  -3  14   80.21   12.02
  14  -3 -14   92.29   12.66
  14  -3  14   74.97   11.24
 -14  -3  14   71.80   10.62
   0  -4 -14   65.37   20.06
   0  -4 -14   55.41   13.97
   0   4 -14   54.23   14.89
   0  -4  14   66.90   14.13
  -1   4  14  856.12   52.23
   1   4  14  735.96   50.72
   1  -4 -14  760.61   79.71
  -1  -4 -14  717.40   65.71
   1  -4 -14  683.92   51.30
  -1  -4 -14  761.29   52.28
   1   4 -14  713.90   50.34
  -1   4 -14  747.65   53.35
  -1  -4  14  844.86   52.37
   1  -4  14  736.33   46.38
  -2  -4  14   78.14   26.21
   2  -4  14  200.07   49.55
  -2   4  14  116.86   18.82
   2   4  14  124.59   20.02
  -2  -4 -14  109.10   25.44
  -2  -4 -14  136.25   22.67
   2  -4 -14  100.76   20.95
   2   4 -14  103.56   19.24
  -2   4 -14  122.99   21.75
   2  -4 -14  194.23   39.05
   2  -4  14  135.28   20.66
  -2  -4  14  118.47   18.97
   2  -4  14  118.38   18.98
  -3   4  14  674.91   46.73
   3   4  14  581.88   45.02
  -3  -4 -14  529.54   53.06
   3  -4 -14  551.05   51.58
   3  -4 -14  733.82   73.11
   3   4 -14  574.94   45.65
  -3   4 -14  510.92   46.39
   3  -4  14  556.52   43.04
  -3  -4  14  580.40   44.72
   3  -4  14  577.95   42.33
   3  -4  14  521.24   46.69
  -3  -4  14  405.95   51.25
   3  -4 -14  595.12   43.18
   4  -4  14   64.08   27.28
  -4  -4 -14   17.12    8.69
   4  -4 -14   19.27    9.89
  -4   4  14   20.34    7.46
   4  -4 -14   74.03   21.92
   4   4 -14   24.27    9.73
  -4   4 -14   17.75    7.99
   4  -4  14   32.22   11.13
   4   4  14   25.90   10.09
   4  -4  14    5.42    5.89
  -4  -4  14   27.73    9.28
   4  -4  14   25.76   10.99
   4  -4 -14   20.90    8.32
  -4  -4  14   15.89    9.89
   5  -4  14   10.92   13.64
  -5  -4 -14    5.73    5.36
   5  -4 -14    8.47   11.63
  -5   4  14    1.87    3.85
   5  -4 -14   10.25    8.33
   5  -4  14    1.96    6.08
   5   4  14    1.84    3.17
   5  -4  14    4.01    4.30
  -5  -4  14    4.86    4.88
   5  -4  14   24.49    9.55
  -5  -4  14   -4.11    4.97
   5  -4 -14    8.15    6.09
  -6   4  14    0.80    3.24
   6  -4  14   -1.07    2.64
   6   4  14    8.83    6.30
  -6  -4  14    1.28    3.00
   6  -4  14   -1.10    3.99
   6  -4  14   -1.74    6.32
   6  -4 -14   -1.00    4.98
  -7   4  14   99.09   19.89
   7  -4  14  127.45   23.20
   7   4  14  110.48   21.34
  -7  -4  14   97.51   19.92
   7  -4  14   91.51   18.43
   7  -4  14  104.45   22.90
   7  -4 -14  118.67   20.08
   7  -4 -14  129.08   24.40
   8  -4  14   50.55   14.54
   8   4  14   40.67   13.32
  -8  -4  14   42.17   13.39
   8  -4  14   43.95   12.76
   8  -4  14   38.23   14.56
   8  -4 -14   38.27   12.17
   8  -4 -14   58.96   16.68
   9   4  14  249.17   32.67
   9  -4  14  242.03   32.57
  -9  -4  14  258.38   33.35
   9  -4 -14  280.41   35.31
   9  -4  14  232.54   30.33
   9  -4  14  297.29   36.97
   9  -4 -14  262.37   30.52
  10  -4  14   74.88   18.07
 -10  -4  14   70.05   16.14
  10   4  14   64.03   16.38
  10  -4  14   74.64   17.87
  10  -4  14   59.99   14.62
  10  -4 -14   65.28   15.71
  11   4  14  488.06   44.43
  11  -4  14  606.55   47.48
 -11  -4  14  553.30   43.02
  11  -4 -14  623.58   46.33
  11  -4  14  573.95   45.34
  11  -4  14  686.27   46.92
  12  -4  14   89.91   17.22
 -12  -4  14   74.39   14.53
  12   4  14   60.36   15.02
  12  -4  14   63.70   13.62
  12  -4  14   86.07   14.52
  12  -4 -14   81.88   15.37
  13   4  14  566.96   36.07
  13  -4  14  584.87   37.41
 -13  -4  14  468.43   31.95
  13  -4 -14  558.24   35.93
  13  -4  14  499.77   34.26
 -13  -4  14  533.86   32.49
  14   4  14   63.26   10.46
  14  -4  14   68.06   10.30
  14  -4  14   67.42   10.44
  14  -4 -14   61.16    9.96
 -14  -4  14   55.99    8.62
   0  -5  14    9.27    6.57
   0  -5 -14   -4.81    7.43
   0  -5 -14   -1.40    3.40
   0   5  14    2.81    3.84
   0   5 -14   -5.27    6.10
   0  -5  14   -4.90    3.93
   0  -5  14   -2.52    4.08
  -1  -5  14    6.89   10.12
   1  -5  14   20.19   14.21
  -1  -5 -14   -1.38    5.72
   1  -5 -14    5.78    4.81
  -1  -5 -14   11.91    7.34
  -1   5  14    7.92    5.30
   1   5 -14   14.59    8.02
  -1   5 -14    9.41    8.13
   1  -5  14    4.85    2.85
   1   5  14   19.45    8.29
  -1  -5  14    9.57    5.26
   1  -5  14    0.91    4.86
   1  -5 -14    2.24    1.75
  -2  -5  14  155.40   32.86
   2  -5  14  143.91   44.11
  -2   5  14  139.12   21.38
   2   5  14  152.36   22.57
  -2  -5 -14  124.52   27.11
   2  -5 -14  109.15   21.97
  -2  -5 -14  143.65   23.11
   2   5 -14  120.66   21.13
  -2   5 -14  125.08   21.69
   2  -5  14  140.18   21.08
  -2  -5  14  144.93   21.85
   2  -5  14  154.61   20.95
   2  -5  14  124.62   22.82
   2  -5 -14  146.15   21.16
   3  -5  14   10.58    8.92
  -3  -5 -14   18.28   10.11
   3  -5 -14   29.02   13.34
  -3   5  14   17.35    8.49
   3   5 -14   24.19    8.37
  -3   5 -14   15.35    7.95
   3  -5  14   17.32    8.45
   3   5  14   15.65    7.26
   3  -5  14   17.91    6.78
  -3  -5  14   15.96    6.95
   3  -5  14   21.30    7.65
   3  -5 -14   19.72    6.68
  -3  -5  14   14.13    8.67
  -4   5  14  433.76   38.04
   4   5  14  433.49   39.97
  -4  -5 -14  389.95   45.41
   4  -5 -14  414.11   49.32
   4  -5 -14  612.07   67.32
   4  -5  14  438.68   38.48
  -4  -5  14  440.80   39.86
   4  -5  14  476.73   38.57
   4  -5  14  408.58   41.74
  -4  -5  14  275.17   43.05
   4  -5 -14  406.18   36.15
   4  -5  14  665.06   84.33
   5  -5  14   68.14   25.68
  -5   5  14   51.80   13.56
   5  -5  14   58.95   13.44
   5   5  14   45.43   12.68
   5  -5  14   58.61   13.10
  -5  -5  14   57.70   14.08
   5  -5  14   53.85   16.17
   5  -5 -14   51.79   13.03
  -6   5  14  407.75   40.60
   6   5  14  463.10   42.69
   6  -5  14  418.68   39.67
  -6  -5  14  435.17   42.87
   6  -5  14  458.65   39.64
   6  -5 -14  529.25   48.87
   6  -5  14  466.87   46.82
   6  -5 -14  498.98   40.45
  -7   5  14    7.69    6.65
   7  -5  14    6.22    3.35
   7   5  14    3.46    3.43
  -7  -5  14    6.30    5.65
   7  -5  14    8.59    4.14
   7  -5  14    8.67    8.59
   7  -5 -14    9.51    6.38
   7  -5 -14    2.39    2.99
   8   5  14  322.12   37.23
   8  -5  14  342.01   37.49
  -8  -5  14  395.06   43.05
  -8  -5  14  276.36   37.32
   8  -5 -14  433.29   43.58
   8  -5  14  351.01   36.06
   8  -5  14  449.16   46.42
   8  -5 -14  358.17   35.34
   9  -5  14    9.93    8.83
  -9  -5  14   -2.94    4.23
   9   5  14    8.56    6.02
   9  -5  14   13.85    9.39
   9  -5  14    0.30    5.60
   9  -5 -14   -1.43    3.22
   9  -5 -14    8.16    5.81
  10  -5  14   74.09   18.33
 -10  -5  14   71.07   16.46
  10   5  14   80.74   17.45
  10  -5  14   73.09   16.24
  10  -5  14   82.42   17.48
  10  -5 -14   78.73   18.53
  11  -5  14   26.17    8.03
 -11  -5  14   35.97   11.64
  11   5  14   24.06    7.86
  11  -5  14   27.43    9.56
  11  -5  14   47.79   12.74
  11  -5 -14   37.87   11.00
  12  -5  14    8.80    6.93
 -12  -5  14    7.77    5.60
  12   5  14   -8.44    7.24
  12  -5  14    3.96    5.41
  12  -5  14    8.57    5.39
  12  -5 -14   -0.09    4.01
 -12  -5  14    5.13    5.08
  13  -5  14   -0.07    3.97
 -13  -5  14    8.62    4.25
  13   5  14   -6.69    4.46
  13  -5  14   -5.78    5.19
  13  -5 -14   -8.08    4.63
 -13  -5  14   -3.26    3.92
   0  -6  14   69.94   27.33
   0  -6 -14   55.93   22.92
   0  -6 -14   51.88   14.10
   0   6  14   43.35   11.49
   0   6 -14   44.35   12.24
   0  -6  14   40.46   12.38
   0  -6  14   52.98   12.52
  -1   6  14  687.94   47.15
   1   6  14  671.93   48.16
  -1  -6 -14  691.36   74.65
   1  -6 -14  600.30   49.89
  -1  -6 -14  645.05   49.71
   1   6 -14  637.17   47.87
  -1   6 -14  627.78   47.88
   1  -6  14  702.47   47.88
  -1  -6  14  712.55   48.22
   1  -6  14  788.33   52.28
  -1  -6  14  693.10   71.11
   1  -6 -14  730.99   48.67
  -2  -6  14   39.56   14.79
   2  -6  14   19.28   20.43
  -2  -6 -14   55.14   20.32
   2  -6 -14   30.16   12.55
  -2  -6 -14   41.49   12.95
  -2   6  14   51.49   13.39
   2  -6  14   39.11   10.78
   2   6  14   30.06   11.54
   2  -6  14   27.99   10.63
  -2  -6  14   34.17   11.25
   2  -6  14   39.80   11.38
   2  -6 -14   49.97   13.22
  -3   6  14  630.61   45.69
   3   6  14  612.04   47.16
   3  -6  14  629.83   45.51
  -3  -6  14  704.78   49.93
   3  -6  14  605.05   48.74
  -3  -6  14  562.26   56.55
   3  -6  14  796.51   94.91
   3  -6 -14  643.62   46.85
   4  -6  14    7.63    6.45
  -4   6  14    6.86    5.63
   4  -6  14    3.26    4.52
   4   6  14   -0.03    5.21
   4  -6  14   -1.05    4.85
  -4  -6  14  -10.38    6.38
   4  -6  14   -0.73    4.55
   4  -6 -14    3.15    4.37
  -4  -6  14    5.12    7.04
   5  -6 -14   50.39   14.39
   5  -6  14    2.71   11.96
  -5   6  14   44.51   12.16
   5  -6  14   38.39   12.31
   5   6  14   38.78   11.59
   5  -6  14   25.59    8.83
  -5  -6  14   20.39   11.64
   5  -6  14   28.10   11.06
   5  -6 -14   36.06   11.21
   6  -6  14   -1.86    8.57
  -6   6  14   -4.57    2.84
   6  -6  14   -3.05    4.76
   6   6  14    5.62    3.29
  -6  -6  14   12.41   10.53
   6  -6  14   -1.48    5.08
   6  -6  14   -6.63    6.10
   6  -6 -14   -3.37    6.73
   6  -6 -14    7.90    9.26
  -7   6  14   19.69    9.48
  -7  -6  14    5.16    4.15
   7  -6  14   36.05   12.32
   7   6  14   37.75   12.23
  -7  -6  14   36.76   14.77
  -7  -6  14   29.22   12.30
   7  -6  14   38.95   11.82
   7  -6  14   45.82   17.17
   7  -6 -14   34.01   10.25
   7  -6 -14   51.93   15.59
  -8  -6  14   -5.38    5.93
   8  -6  14   -6.81    7.07
  -8  -6  14   -3.42    9.65
   8   6  14   -0.73    7.07
   8  -6  14    4.36    5.15
   8  -6  14    0.96    3.15
   8  -6 -14   -0.25    4.28
   8  -6 -14    9.58    7.43
   9   6  14  184.11   27.61
   9  -6  14  180.09   27.58
  -9  -6  14  175.62   28.31
   9  -6 -14  215.85   29.89
   9  -6  14  184.79   26.55
   9  -6  14  234.22   32.51
   9  -6 -14  181.43   24.78
  10  -6  14   -3.11    5.64
 -10  -6  14    7.01    5.66
  10   6  14    5.53    8.43
  10  -6  14   -2.22    4.38
  10  -6  14   -3.59    4.24
  10  -6 -14   -0.51    6.28
  11   6  14  398.14   35.05
  11  -6  14  447.42   39.60
 -11  -6  14  425.00   35.60
  11  -6 -14  470.55   36.97
  11  -6  14  450.63   37.50
  11  -6  14  463.57   37.81
 -11  -6  14  474.86   33.33
  12  -6  14    7.21    4.03
 -12  -6  14    3.13    2.16
  12   6  14    3.64    3.49
  12  -6  14    5.46    5.34
  12  -6  14   -1.66    3.78
  12  -6 -14    6.97    4.60
 -12  -6  14    0.08    2.70
  13   6  14  466.64   29.17
  13  -6  14  538.28   32.55
  13  -6 -14  510.73   29.33
  13  -6  14  494.47   29.53
   0  -7  14    3.87    6.96
   0   7  14    2.23    2.74
   0  -7  14   -1.70    2.42
   0  -7  14   -2.26    6.20
  -1  -7  14   30.30   14.33
   1  -7  14   42.38   20.05
  -1   7  14   13.70    4.21
   1   7  14   23.12    8.23
   1  -7  14   18.77    7.71
  -1  -7  14   15.22    4.49
   1  -7  14   19.79    8.40
   1  -7 -14   17.60    7.95
  -2  -7  14    4.55    6.63
   2  -7  14   12.34    8.75
  -2   7  14   21.31    8.72
   2  -7  14   18.63    7.58
   2   7  14    6.64    2.94
   2  -7  14   24.77    7.49
  -2  -7  14   20.33    7.55
   2  -7  14   15.73    8.14
   2  -7 -14   18.96    7.33
  -3  -7  14   81.33   20.30
   3  -7  14   23.17   17.04
  -3   7  14  105.47   18.39
   3  -7  14   87.24   17.04
   3   7  14   86.66   17.55
  -3  -7  14   97.56   18.46
   3  -7  14   66.54   15.49
   3  -7 -14  106.98   19.42
  -4   7  14  216.24   27.08
   4   7  14  217.38   28.65
   4  -7  14  233.97   27.57
  -4  -7  14  218.67   29.16
   4  -7  14  206.10   29.30
  -4  -7  14  197.44   31.68
   4  -7 -14  222.23   26.82
  -5   7  14  289.46   32.18
   5   7  14  328.37   36.73
   5  -7  14  311.66   32.93
  -5  -7  14  368.08   38.37
   5  -7  14  295.45   35.99
   5  -7 -14  336.80   33.95
  -6  -7  14  187.31   28.22
  -6   7  14  249.24   30.98
   6  -7  14  196.77   42.74
   6   7  14  314.57   36.98
   6  -7  14  334.61   34.76
  -6  -7  14  318.61   38.68
   6  -7  14  304.79   36.26
   6  -7 -14  297.39   31.96
   7  -7  14   92.35   27.58
  -7  -7  14   50.10   13.92
   7  -7  14   84.03   18.32
   7   7  14   68.27   17.20
  -7  -7  14   80.24   20.20
  -7  -7  14   68.16   20.91
   7  -7  14   79.68   15.16
   7  -7  14   69.89   16.64
   7  -7 -14  103.57   21.42
   7  -7 -14   63.19   14.43
  -8  -7  14  295.10   32.81
   8   7  14  332.73   37.20
   8  -7  14  272.35   32.60
  -8  -7  14  300.14   37.73
   8  -7 -14  331.72   35.96
   8  -7  14  345.30   34.17
   8  -7  14  328.03   38.95
   8  -7 -14  305.26   32.66
  -9  -7  14   43.57   10.98
   9  -7  14   61.26   14.89
   9   7  14   57.85   15.22
  -9  -7  14   75.08   18.28
   9  -7  14   54.78   13.60
   9  -7  14   59.63   14.68
   9  -7 -14   75.96   16.32
   9  -7 -14   62.77   14.44
  10  -7  14   44.25   12.25
 -10  -7  14   34.38   11.69
  10   7  14   38.95   11.69
  10  -7  14   37.75   11.92
  10  -7  14   37.31   10.98
  10  -7 -14   40.50   11.14
  10  -7 -14   43.58   11.42
  11  -7  14   45.22   11.60
 -11  -7  14   34.86    9.35
  11   7  14   31.50    9.63
  11  -7  14   28.36    8.92
  11  -7  14   33.29    8.24
  11  -7 -14   63.41   12.79
  12  -7  14   -1.92    3.18
 -12  -7  14   -3.08    4.88
  12   7  14   -1.66    3.40
  12  -7  14   -0.39    3.37
  12  -7  14   -2.75    3.25
  12  -7 -14    6.86    4.67
   0  -8  14  367.86   79.86
   0   8  14  295.05   31.29
   0  -8  14  255.07   44.44
   0  -8 -14  326.87   33.58
   1  -8  14  439.08   88.12
  -1  -8  14  366.38   70.07
  -1   8  14  323.02   31.83
   1   8  14  284.59   30.66
   1  -8  14  351.44   31.81
  -1  -8  14  303.84   44.62
   1  -8  14  189.87   44.60
   1  -8 -14  294.79   31.69
  -2  -8  14  235.25   57.77
  -2   8  14  316.75   31.54
   2   8  14  341.13   34.65
   2  -8  14  324.20   31.57
   2  -8  14  388.00   35.15
  -2  -8  14  300.45   41.38
   2  -8 -14  343.19   33.78
  -3  -8  14  117.83   24.99
  -3   8  14  149.04   22.29
  -3  -8  14  103.60   28.94
   3   8  14  159.57   24.33
  -3  -8 -14  154.18   22.77
   3  -8  14  166.95   22.57
   3  -8  14  165.84   22.25
   3  -8  14  141.35   23.83
   3  -8 -14  147.13   22.17
  -4  -8  14   43.91   17.65
  -4   8  14   63.81   14.45
  -4  -8 -14   62.52   15.25
   4  -8  14   72.83   15.39
   4   8  14   37.64   12.98
   4  -8  14   47.70   14.25
   4  -8  14   56.38   14.33
   4  -8 -14   59.40   14.39
   5  -8  14  -14.22   15.58
  -5  -8  14    8.63    5.98
  -5   8  14    4.94    7.05
  -5  -8 -14    5.70    4.76
   5  -8  14    5.90    4.78
   5   8  14   -0.38    4.30
  -5  -8  14   22.11   13.79
   5  -8  14    1.94    3.27
   5  -8 -14    2.58    2.93
  -6   8  14   14.19    7.78
   6  -8  14   -4.56    8.22
  -6  -8  14   31.33   12.21
  -6  -8 -14   20.98    9.58
   6  -8  14   34.70   11.08
   6   8  14   29.95   11.19
  -6  -8  14   23.19    9.33
  -6  -8  14   24.53   10.87
   6  -8  14   12.22    8.38
   6  -8 -14   25.00    9.52
   7  -8  14   -4.09    9.04
  -7  -8  14   53.52   13.66
  -7  -8 -14   38.48   12.37
   7  -8  14   46.18   12.35
   7   8  14   21.98    9.81
  -7  -8  14   30.37   12.54
   7  -8  14   43.18   14.19
   7  -8 -14   38.48   10.92
  -8  -8  14   18.71    8.52
  -8  -8 -14   19.86    9.20
   8  -8  14   32.09   11.53
   8   8  14   14.92    7.25
  -8  -8  14   28.63   11.47
   8  -8  14   18.19    9.73
   8  -8 -14   23.58    8.60
  -9  -8  14  103.06   18.36
  -9  -8 -14  138.52   20.11
   9  -8  14  127.76   21.18
   9   8  14  106.34   19.85
  -9  -8  14  138.87   21.95
   9  -8  14  139.18   22.18
   9  -8 -14  110.92   18.95
 -10  -8 -14  108.81   16.13
  10  -8  14  126.14   20.82
  10   8  14   84.31   16.31
 -10  -8  14   97.48   17.53
  10  -8  14  109.75   19.36
  10  -8 -14  102.23   17.29
  11   8  14  176.39   19.68
 -11  -8 -14  206.01   19.98
  11  -8  14  233.18   25.16
  11  -8  14  177.70   21.54
  11  -8 -14  183.88   20.71
 -12  -8  14   82.85   12.42
  12  -8  14  112.19   14.68
   0  -9  14  -13.24   11.77
   0  -9  14   -3.13   10.08
   0  -9 -14    2.04    3.17
   0  -9 -14   -6.51    5.53
  -1  -9  14    5.20    3.91
   1  -9  14   19.93   12.75
   1  -9  14   39.38   25.79
  -1  -9  14  -22.80   21.62
   1  -9 -14   13.94    7.56
  -1  -9 -14    3.54    3.73
   1  -9 -14    5.56    5.61
  -2  -9  14   -7.75    8.62
   2  -9  14   11.37   13.30
  -2  -9  14   -7.08   13.36
   2  -9 -14   10.31    7.45
  -2  -9 -14    1.81    3.05
   2  -9 -14   12.27    6.82
  -3  -9  14  223.63   40.26
   3  -9 -14  232.16   26.26
  -3  -9 -14  228.20   27.68
   3  -9  14  227.72   29.48
  -3  -9  14  207.77   31.14
   3  -9 -14  232.25   28.07
   4  -9  14   24.35   12.65
  -4  -9  14   93.97   21.85
   4  -9 -14   87.82   16.06
  -4  -9 -14   99.43   18.82
   4   9  14   82.01   18.55
   4  -9  14   90.26   16.25
  -4  -9  14   77.62   19.01
   4  -9  14   68.78   15.54
   4  -9 -14   89.62   17.42
  -5  -9  14  596.26   51.95
   5   9  14  634.69   51.00
   5  -9 -14  612.91   43.83
  -5  -9 -14  594.08   46.61
   5  -9  14  623.29   43.98
  -5  -9  14  621.00   52.68
   5  -9  14  622.19   49.53
   5  -9 -14  603.18   44.62
   6  -9  14   51.09   22.21
  -6  -9  14  130.02   21.94
   6   9  14  136.37   23.47
   6  -9 -14  147.99   21.63
  -6  -9 -14  135.12   22.56
   6  -9  14  133.35   20.98
  -6  -9  14  130.11   22.03
   6  -9  14  142.43   25.19
   6  -9 -14  143.30   21.68
  -7  -9  14  299.45   31.95
   7   9  14  328.02   36.09
  -7  -9 -14  291.20   32.67
   7  -9  14  340.70   33.02
  -7  -9  14  358.87   38.00
   7  -9  14  321.25   35.49
   7  -9 -14  288.08   30.80
  -8  -9  14  100.32   18.04
  -8  -9 -14  101.05   18.36
   8  -9  14   83.66   16.91
   8   9  14  111.53   20.20
  -8  -9  14  112.89   19.80
   8  -9  14   98.93   20.10
   8  -9 -14  109.25   19.26
  -9  -9  14   75.81   13.75
  -9  -9 -14   94.46   16.02
   9  -9  14   79.11   16.31
   9   9  14   86.10   15.85
  -9  -9  14   99.21   17.89
   9  -9  14   88.69   18.72
   9  -9 -14   75.56   15.03
   9  -9 -14   77.39   15.36
 -10  -9 -14   20.13    7.28
  10  -9  14   23.51    9.24
  10   9  14   23.83    7.81
 -10  -9  14    3.25    3.36
  10  -9  14   13.63    7.52
  10  -9 -14   16.73    7.36
 -11  -9  14    0.33    1.47
 -11  -9 -14   10.09    4.55
  11  -9  14   16.08    6.90
 -11  -9  14    1.33    2.57
  11  -9  14   16.89    7.12
  11  -9 -14    3.86    3.02
   0 -10 -14  277.30   29.01
   0 -10 -14  244.94   28.93
  -1 -10  14   16.99   10.96
   1 -10  14  -11.12   10.12
   1 -10  14    4.29    7.50
  -1 -10  14   40.05   18.63
   1 -10 -14   17.43    7.51
  -1 -10 -14   14.03    6.18
   1 -10 -14   22.79    8.87
  -1 -10 -14    9.02    5.01
  -2 -10  14  412.23   60.26
   2 -10 -14  292.29   29.59
  -2 -10 -14  303.94   31.53
  -2 -10  14  280.57   37.46
   2 -10 -14  282.18   30.67
  -2 -10 -14  279.32   32.43
  -3 -10  14    4.77    3.30
   3 -10  14   -1.68    8.46
  -3 -10  14   27.52   14.81
   3 -10 -14    1.41    4.30
  -3 -10 -14   11.77    6.40
   3 -10 -14   16.65    7.70
  -4 -10  14   35.29   11.75
   4 -10 -14   18.42    6.95
  -4 -10 -14   15.88    5.75
   4 -10  14   25.99    9.04
   4 -10 -14   24.62    9.06
   5 -10  14   24.71   19.31
  -5 -10  14    6.74    6.99
  -5 -10  14   14.26    8.69
   5 -10 -14    9.66    6.25
  -5 -10 -14    8.14    5.49
   5 -10  14    5.04    6.30
   5 -10 -14   -6.09    6.27
  -6 -10  14    1.47    3.91
  -6 -10 -14    1.31    4.95
  -6 -10  14   -4.04    3.88
   6 -10  14   -1.18    3.49
   6 -10 -14    0.30    4.39
   7 -10  14  -10.89   10.36
  -7 -10  14   -3.95    5.48
  -7 -10 -14   -0.37    3.87
  -7 -10  14   -1.01    4.00
   7 -10  14    4.37    6.22
   7 -10 -14    3.39    3.75
  -8 -10  14  127.22   20.09
  -8 -10 -14  154.65   21.91
   8 -10  14  164.76   21.43
  -8 -10  14  197.31   23.82
   8 -10  14  181.43   25.22
   8 -10 -14  142.57   20.54
   8 -10  14  184.91   29.09
  -9 -10  14    0.42    1.27
  -9 -10 -14    0.17    2.01
   9 -10  14   -3.08    4.34
  -9 -10  14    3.91    1.78
   9 -10  14    2.62    3.42
 -10 -10 -14  333.09   25.31
  10 -10  14  289.65   24.74
 -10 -10  14  264.54   22.28
  10 -10  14  300.67   27.95
  10 -10 -14  278.04   25.01
   0 -11  14   -4.61    6.63
   0 -11  14    5.35   10.29
   0 -11 -14    0.96    3.06
   0 -11 -14   -1.67    4.73
  -1 -11  14   36.01   14.55
   1 -11  14   12.61   10.51
  -1 -11  14   14.38   13.14
   1 -11 -14   29.89    9.07
  -1 -11 -14   22.36    7.73
   1 -11 -14   19.49    7.68
  -1 -11 -14   24.68    9.89
  -2 -11  14    0.44    6.55
   2 -11  14  -12.01   13.16
  -2 -11  14    8.91   14.89
   2 -11 -14    1.57    3.46
  -2 -11 -14   -1.53    4.00
   2 -11 -14    3.56    3.81
  -2 -11 -14    1.18    4.26
  -3 -11  14  259.74   42.91
   3 -11 -14  250.96   26.52
  -3 -11 -14  267.60   30.35
   3 -11 -14  257.78   28.16
  -3 -11 -14  294.14   34.13
   4 -11  14    4.98   12.29
  -4 -11  14    7.17    5.10
  -4 -11  14   -3.32    5.46
   4 -11 -14   13.84    6.77
  -4 -11 -14    3.39    2.99
   4 -11 -14   -0.59    4.25
  -5 -11  14  467.10   42.29
  -5 -11  14  546.72   43.73
   5 -11 -14  430.04   36.17
  -5 -11 -14  506.70   42.19
   5 -11 -14  426.51   36.47
  -6 -11  14    4.03    3.69
  -6 -11 -14    3.11    4.08
   6 -11  14    3.23    4.02
   6 -11 -14    4.39    2.71
  -7 -11  14  335.90   30.67
  -7 -11 -14  406.32   35.89
   7 -11  14  397.23   35.87
   7 -11 -14  408.54   34.42
   7 -11  14  402.33   49.79
   8 -11  14    7.80    6.56
  -8 -11  14   -0.79    3.69
  -8 -11  14   -2.63    3.16
  -8 -11 -14    3.17    3.12
   8 -11  14   -3.15    5.30
   8 -11 -14   -1.38    3.21
   8 -11 -14    3.58    3.37
  -9 -11 -14  194.25   19.96
   9 -11  14  192.38   22.11
   9 -11 -14  135.39   17.72
  -9 -11  14  152.89   15.56
   0 -12  14  154.35   36.59
   0 -12 -14  167.52   22.29
   0 -12  14  155.99   29.44
   0 -12 -14  160.71   23.34
  -1 -12  14   91.49   20.66
   1 -12  14    7.68   10.98
  -1 -12  14   83.79   23.92
   1 -12 -14   66.87   13.81
  -1 -12 -14   75.55   14.83
   1 -12 -14   75.65   15.90
  -1 -12 -14   76.71   16.15
  -2 -12  14  276.56   42.62
   2 -12 -14  201.60   23.36
  -2 -12 -14  202.77   25.19
  -2 -12  14  197.01   26.82
   2 -12 -14  231.83   26.72
  -2 -12 -14  220.74   29.03
  -3 -12  14   85.21   21.35
  -3 -12  14   65.57   16.84
   3 -12 -14   54.38   11.93
  -3 -12 -14   58.05   13.65
   3 -12 -14   48.72   11.53
  -3 -12 -14   67.71   16.87
   4 -12  14   -7.92   13.59
  -4 -12  14   21.59   10.69
  -4 -12  14   28.05    9.54
   4 -12 -14   21.20    7.60
  -4 -12 -14   33.00   11.42
   4 -12 -14   16.96    7.14
  -4 -12 -14   26.71   10.88
   5 -12  14    7.45   15.04
  -5 -12  14    4.76    6.24
  -5 -12  14   -0.81    2.51
   5 -12 -14    2.62    4.40
  -5 -12 -14    1.83    5.31
   5 -12 -14   -3.10    4.40
  -5 -12 -14    0.29    5.49
   6 -12  14    0.71    4.38
  -6 -12  14    6.94    4.48
  -6 -12  14    6.70    5.86
  -6 -12 -14   -5.71    6.04
   6 -12 -14    0.29    3.58
  -6 -12 -14   -2.11    7.46
   7 -12  14   24.37   12.47
  -7 -12  14   17.62    6.29
  -7 -12 -14    7.32    5.29
   7 -12 -14    8.19    5.45
   7 -12 -14    5.04    4.50
  -7 -12 -14    7.13    2.83
  -8 -12 -14   78.10   12.76
   8 -12 -14   94.54   15.36
  -8 -12 -14   80.07   13.48
  -8 -12  14   78.40   11.33
   0 -13  14    6.04    7.93
   0 -13  14  -13.51   10.06
   0 -13  14   -2.23    6.57
   0 -13 -14   -1.36    4.33
   0 -13 -14    2.53    3.31
  -1 -13  14   11.33    6.36
   1 -13  14    8.39    9.21
  -1 -13  14    5.45    5.45
  -1 -13  14    8.24    6.11
   1 -13 -14    5.97    4.38
  -1 -13 -14    2.42    2.47
   1 -13 -14   12.35    5.70
  -1 -13 -14    1.66    4.42
   2 -13  14   35.64   16.32
  -2 -13  14   45.75   17.18
  -2 -13  14   27.67   10.32
   2 -13 -14   35.46    9.65
  -2 -13 -14   36.35   10.99
   2 -13 -14   23.04    8.07
  -2 -13 -14   48.66   13.83
  -3 -13  14   86.58   20.73
  -3 -13  14   76.79   15.92
   3 -13 -14   77.71   14.45
  -3 -13 -14   69.95   14.50
   3 -13 -14   72.80   15.59
  -3 -13 -14   72.20   17.01
  -4 -13  14  117.83   19.82
  -4 -13  14   77.82   15.09
   4 -13  14  123.92   34.92
   4 -13 -14   83.06   14.97
  -4 -13 -14   78.82   16.48
   4 -13 -14   77.69   14.94
  -4 -13 -14   61.42   14.72
   5 -13  14  166.78   34.92
  -5 -13  14  124.74   17.23
  -5 -13 -14  102.80   16.75
   5 -13 -14  109.79   16.85
  -5 -13 -14  132.06   21.53
  -5 -13  14  130.90   18.64
  -6 -13 -14   89.39   14.67
   6 -13 -14  108.21   18.11
   6 -13 -14   91.77   15.12
  -6 -13  14   82.64   12.60
   0 -14  14   77.21   15.44
   0 -14  14   80.10   20.26
   0 -14 -14   64.98   12.43
   0 -14 -14   76.25   16.05
  -1 -14  14  267.40   32.11
   1 -14  14  333.96   45.61
   1 -14 -14  208.66   22.76
  -1 -14 -14  202.57   23.08
   1 -14 -14  240.69   28.61
  -1 -14 -14  220.90   27.89
   1 -14  14  271.07   31.89
  -1 -14  14  258.32   31.65
   2 -14  14  108.41   22.41
  -2 -14  14  118.55   21.50
  -2 -14  14   77.57   15.94
   2 -14 -14   61.71   12.31
  -2 -14 -14   66.05   13.30
   2 -14 -14   92.61   17.52
  -2 -14 -14   95.61   17.05
  -3 -14  14  116.18   17.96
   3 -14  14  285.06   48.18
   3 -14 -14  110.01   16.95
  -3 -14 -14  101.46   16.78
   3 -14 -14  143.05   20.69
   3 -14  14  221.26   35.19
  -3 -14  14  173.07   23.80
   4 -14  14   13.75   11.25
  -4 -14  14   24.01    7.42
  -4 -14  14    8.62    4.31
  -4 -14 -14    1.55    1.89
   0   0  15    3.68    2.06
   0   0 -15   -3.10    6.93
   0   0  15   -0.95    5.06
  -1   0  15   -0.52    2.07
   1   0 -15   -3.57    6.14
  -1   0 -15   -9.94   11.96
   1   0  15   -2.93    4.92
   1   0  15    2.18    1.96
  -1   0  15   -0.62    2.31
   1   0  15    4.42    4.68
  -2   0  15   18.40    7.68
   2   0 -15   21.06   10.94
  -2   0 -15   15.33    9.54
   2   0  15   22.40    8.43
   2   0  15   32.03    9.76
   2   0  15   15.07    7.45
  -2   0  15   28.55   10.70
   2   0  15   18.50   20.71
  -3   0 -15   -2.88    7.08
  -3   0  15    6.20    5.43
   3   0 -15    6.31    4.95
   3   0  15   -0.81    5.35
   3   0  15   22.79    9.53
   3   0  15    4.78    5.92
  -3   0  15    2.67    3.66
   3   0  15  -16.49   14.19
  -4   0 -15   -0.04    3.02
  -4   0  15   11.45    5.12
   4   0 -15    3.41    2.82
   4   0  15   14.93    9.38
   4   0  15   19.66    8.79
   4   0  15    7.80    5.37
  -4   0  15    6.63    3.83
  -5   0  15    9.16    6.43
   5   0  15   -3.28    4.28
   5   0  15   -1.82    3.54
   5   0  15   -1.64    5.81
  -5   0  15   -1.97    2.65
  -6   0  15  221.37   28.07
   6   0  15  207.08   27.65
   6   0  15  199.68   28.52
  -6   0  15  220.91   31.13
   6   0  15  225.33   29.28
  -7   0  15   -3.09    6.51
   7   0  15    1.12    3.90
   7   0  15   -7.97    6.69
  -7   0  15   -7.32    9.54
   7   0  15   -3.14    4.91
   8   0  15   85.01   18.73
   8   0  15   80.30   16.74
  -8   0  15   92.57   21.52
   8   0  15   79.68   18.08
   8   0 -15  112.07   21.86
   9   0  15   -4.67    7.55
   9   0  15    2.76    2.92
  -9   0  15    5.45    4.45
   9   0  15    1.45    5.10
   9   0 -15   10.17    8.82
  10   0  15   17.81    8.76
  10   0  15   -2.88    7.98
  10   0  15   14.64    7.51
  10   0 -15   -2.39    3.13
  11   0  15    6.10    5.81
  11   0  15   -6.96    6.94
  11   0 -15   -2.36    2.76
  12   0  15   -9.36    6.83
  12   0  15   -4.02    3.80
  12   0 -15    4.55    3.71
  13   0  15    5.19    4.05
  13   0  15    1.17    1.66
  13   0 -15   -2.63    3.31
   0  -1  15  183.76   23.69
   0   1  15  184.88   24.10
   0  -1 -15  207.80   33.89
   0   1 -15  168.69   26.89
   0   1  15  205.86   25.76
   0  -1  15  227.93   27.25
   0  -1  15  221.46   50.84
  -1  -1  15 1532.40   69.05
  -1   1  15 1474.96   68.61
   1  -1  15 1569.95   69.92
   1   1  15 1412.58   68.89
  -1  -1 -15 1289.74   80.33
  -1  -1 -15 1466.44   70.65
   1  -1 -15 1424.23   86.73
  -1  -1 -15 1450.62   93.42
   1   1 -15 1361.59   77.51
  -1   1 -15 1362.95   80.21
   1  -1  15 1332.09   67.20
  -1   1  15 1528.51   70.93
  -1  -1  15 1537.46   71.78
   1   1  15 1817.47   78.70
   1  -1  15 1274.55   74.54
  -1  -1  15 1191.26  118.44
   1  -1  15 1803.92  162.45
  -2  -1  15  141.61   20.99
  -2   1  15  131.44   20.14
   2  -1  15  161.92   23.37
   2   1  15  132.11   20.94
  -2  -1 -15  135.23   25.62
   2  -1 -15  147.96   26.85
   2   1 -15  123.94   23.03
  -2   1 -15  139.69   27.36
   2   1  15  129.77   20.57
   2  -1  15  137.62   21.58
  -2   1  15  135.01   21.66
  -2  -1  15  145.97   21.95
   2   1  15  126.84   20.25
   2  -1  15  134.83   20.94
   2  -1  15  182.76   47.75
  -3  -1  15 1215.38   63.15
  -3   1  15 1159.59   61.49
   3  -1  15 1193.19   62.55
   3   1  15 1158.06   62.40
  -3  -1 -15  970.79   68.39
   3  -1 -15 1130.35   73.89
   3   1 -15 1065.10   67.58
  -3   1 -15 1117.09   76.40
   3   1  15 1071.29   62.13
   3  -1  15 1058.36   61.39
  -3   1  15 1102.29   63.41
  -3  -1  15 1145.48   63.58
   3   1  15 1075.30   60.56
   3  -1  15 1037.41   58.80
   3  -1  15 1119.49  113.83
  -4   1 -15    3.42    6.06
  -4  -1 -15    5.40    3.87
  -4  -1  15    5.25    3.77
  -4   1  15    5.36    4.95
   4   1  15   -4.31    5.89
   4  -1  15    1.92    5.41
   4  -1  15    4.58    3.16
   4   1  15    6.83    5.38
   4   1  15    1.59    2.61
   4  -1  15    1.11    3.85
  -4   1  15    3.54    4.07
  -4  -1  15    6.88    7.99
   4  -1  15    3.02   11.38
  -5  -1  15  131.79   22.52
  -5   1  15  130.06   22.17
   5  -1  15  134.89   22.67
   5  -1  15  143.05   23.29
   5   1  15  118.52   21.51
   5   1  15  114.78   20.55
  -5   1  15  119.21   23.33
  -5  -1  15  142.81   23.67
   5   1  15  126.59   21.89
   5  -1  15  129.88   21.43
  -6  -1  15   -5.80    3.39
  -6   1  15    2.72    4.20
   6   1  15    0.17    6.44
   6  -1  15    3.05    4.62
   6  -1  15   26.79   10.71
   6   1  15   16.04    6.43
  -6   1  15   -1.07    5.47
  -6  -1  15    8.13    6.74
   6   1  15    6.69    5.33
   6  -1  15   -3.96    5.00
  -7   1  15   67.84   16.22
   7  -1  15   54.36   15.75
   7  -1  15   50.40   14.23
   7   1  15   43.45   12.54
  -7   1  15   22.49   16.67
  -7  -1  15   52.58   15.26
   7   1  15   45.00   14.35
   7  -1  15   58.34   15.28
   8  -1  15   17.19    9.61
   8  -1  15   17.17    9.30
   8   1  15    9.12    5.49
  -8  -1  15    7.99    3.11
   8   1  15    6.35    4.58
   8  -1  15    9.19    4.20
   8  -1 -15   10.69    7.20
   8   1 -15   20.26    9.50
   9  -1  15  285.98   33.13
   9   1  15  306.86   35.56
   9  -1  15  287.80   34.54
  -9  -1  15  279.42   32.90
   9  -1 -15  266.85   34.47
   9   1 -15  282.11   32.28
   9   1  15  279.08   33.29
   9  -1  15  262.63   31.97
  10  -1  15   -1.20    6.23
  10  -1  15   -3.62    3.85
 -10  -1  15    3.55    6.46
  10   1  15    1.59    3.98
  10   1  15   -1.27    3.21
  10  -1  15   -5.66    4.23
  10   1 -15    5.26    4.31
  10  -1 -15   -0.28    4.13
  11   1  15  694.03   47.96
  11  -1  15  695.82   46.26
  11   1 -15  665.06   43.56
  11  -1 -15  679.05   45.90
  11   1  15  686.35   45.84
  11  -1  15  675.63   47.12
  12  -1  15    4.21    1.77
  12   1  15   -2.40    5.20
  12   1  15    1.67    2.33
  12  -1  15    0.99    2.90
  12   1 -15    5.61    3.03
  12  -1 -15    4.45    4.06
  13   1  15  741.10   38.86
  13   1 -15  753.38   35.38
  13  -1 -15  704.91   36.77
  13   1  15  719.58   34.68
  13  -1  15  729.45   38.16
   0  -2 -15    3.53    4.49
   0  -2 -15   -5.50    5.39
   0  -2  15    0.29    2.55
   0  -2 -15   -0.70    7.45
   0   2  15   -6.25    6.70
   0   2 -15    4.10    3.82
   0  -2  15    5.12    7.18
   1  -2 -15    8.40   12.73
  -1  -2 -15    6.44    7.73
  -1  -2 -15    7.33    5.31
  -1   2  15    6.45    3.22
   1  -2 -15    1.29    2.87
   1   2 -15    5.57    3.27
  -1   2 -15    7.36    8.42
   1  -2  15   -3.64    6.15
   1   2  15    5.02    2.04
  -1  -2  15    0.04    3.48
   1  -2  15    5.36    6.61
  -1  -2  15   -3.30   12.13
   1  -2  15   -5.60    8.06
  -2   2  15  100.92   18.50
   2  -2 -15  101.86   26.17
  -2  -2 -15  103.32   23.62
   2  -2 -15  124.85   26.98
   2   2 -15   94.10   19.50
   2  -2  15  100.08   18.37
  -2   2 -15   97.54   21.46
   2   2  15   85.30   18.67
   2  -2  15  106.22   17.81
  -2   2  15  106.39   18.63
  -2  -2  15   99.70   18.63
  -2  -2  15   41.44   21.84
   2  -2  15  175.36   44.90
  -3   2  15  103.04   19.25
  -3  -2 -15   88.17   19.66
   3  -2 -15  107.72   23.34
   3   2 -15   86.67   18.36
  -3   2 -15   85.02   20.15
   3  -2  15   71.93   16.30
   3   2  15   82.36   17.09
   3   2  15   89.49   17.74
   3  -2  15   90.51   16.96
  -3   2  15   97.80   18.46
  -3  -2  15  103.50   19.36
   3  -2  15  135.20   39.98
  -4   2  15   16.60    6.48
   4  -2  15   29.78   11.01
   4   2  15   17.17    8.05
   4   2  15    7.95    4.27
   4  -2  15   13.47    8.23
  -4   2  15   18.48    8.96
  -4  -2  15   22.03    7.70
   4  -2  15   12.92   14.47
  -5  -2  15  505.57   43.56
  -5   2  15  492.69   41.20
   5   2  15  541.43   44.27
   5  -2  15  482.40   42.89
  -5   2  15  391.40   45.37
  -5  -2  15  472.79   44.35
   5   2  15  508.65   43.93
   5  -2  15  503.19   41.57
  -6  -2  15  117.69   22.02
  -6   2  15   77.73   16.55
   6  -2  15   95.50   20.02
   6   2  15  115.46   20.77
  -6   2  15   65.25   20.07
   6   2  15   96.39   19.52
  -6  -2  15   57.66   20.76
   6  -2  15   96.44   19.16
  -7   2  15  262.16   31.46
   7   2  15  289.07   33.71
   7  -2  15  333.54   37.09
  -7   2  15  288.40   38.22
  -7  -2  15  174.45   36.09
   7   2  15  313.16   35.67
   7  -2  15  331.59   35.83
   7  -2 -15  238.14   37.78
   8  -2  15   65.94   17.98
   8   2  15   40.25   12.95
  -8  -2  15   35.24   13.46
   8   2  15   41.73   12.92
   8  -2  15   45.83   14.22
   8  -2 -15   53.26   15.33
   8   2 -15   60.62   15.97
   9  -2  15   67.81   16.98
  -9  -2  15  108.34   20.89
   9   2  15  104.59   19.77
   9   2  15  101.02   19.25
   9  -2  15   80.77   17.49
   9  -2 -15   87.53   20.86
   9   2 -15  105.99   19.72
  10  -2  15   -0.27    4.13
 -10  -2  15    0.59    5.58
  10   2  15    4.69    6.03
  10   2  15    0.15    3.10
  10  -2  15    7.83    9.05
  10   2 -15   -1.70    3.39
  10  -2 -15    4.91    8.33
  11  -2  15    0.36    4.19
 -11  -2  15    0.41    2.74
  11   2  15    1.32    4.13
  11   2  15   -0.72    2.76
  11  -2  15   11.22    7.20
  11   2 -15    8.12    5.26
  11  -2 -15    6.26    5.93
  12  -2  15   37.54    9.94
 -12  -2  15   42.76   10.24
  12   2  15   26.71    8.14
  12   2  15   34.87    8.45
  12  -2  15   34.94    9.35
  12   2 -15   25.56    7.85
  12  -2 -15   21.87    7.75
  13  -2  15   20.95    5.16
  13   2  15   21.52    6.38
  13  -2  15   27.40    7.50
  13  -2 -15   35.27    8.63
 -13  -2  15   21.61    5.03
 -13   2  15   13.58    5.32
   0  -3 -15   38.50   18.27
   0  -3 -15   19.28    8.46
   0  -3  15   24.86    8.94
   0   3  15   28.48   10.48
   0   3 -15   25.30   10.15
   0  -3  15   41.10   11.48
   0  -3  15   18.52   14.48
  -1   3  15  559.75   42.72
   1   3  15  541.31   43.47
   1  -3 -15  610.75   67.97
  -1  -3 -15  517.49   54.82
   1  -3 -15  528.75   45.59
  -1  -3 -15  543.14   44.05
   1   3 -15  496.35   44.18
  -1   3 -15  558.93   47.57
   1  -3  15  558.47   43.29
  -1  -3  15  460.42   40.43
   1  -3  15  575.78   45.53
  -1  -3  15  577.01   70.86
   2  -3  15   17.07   12.22
  -2  -3 -15    7.32    8.19
   2  -3 -15   11.61    9.15
  -2   3  15    2.98    3.39
   2  -3 -15   10.69    5.97
   2   3 -15   13.07    8.81
  -2   3 -15    7.48    7.68
   2  -3  15    8.45    3.69
   2   3  15    9.74    5.87
   2  -3  15    5.26    2.21
  -2  -3  15    2.15    4.46
  -2  -3  15    5.49   10.22
  -3   3  15  216.59   27.40
   3   3  15  193.07   25.77
  -3  -3 -15  172.93   29.71
   3  -3 -15  165.49   28.03
   3  -3  15  185.23   25.04
  -3  -3  15  184.70   25.94
   3  -3  15  196.66   25.09
   3  -3  15  304.30   58.82
  -3  -3  15   87.60   26.32
   4  -3  15   90.43   29.77
  -4   3  15   70.96   16.23
   4  -3  15   58.68   15.00
   4   3  15   56.71   15.70
   4   3  15   72.70   17.04
   4  -3  15   60.39   14.98
  -4  -3  15   55.44   14.58
  -5   3  15    8.53    5.52
   5  -3  15    5.49    4.73
   5   3  15   -3.24    7.05
   5   3  15    9.49    6.24
   5  -3  15   -8.90    4.65
  -5  -3  15   -5.07    5.68
   5  -3  15    8.89    6.74
  -6   3  15   -1.68    2.77
   6  -3  15   10.49    7.29
   6   3  15    8.48    8.08
   6   3  15    5.61    4.20
  -6  -3  15    2.36    4.70
   6  -3  15    6.57    7.66
   6  -3  15   -6.09    4.45
   7   3 -15   63.21   16.73
  -7   3  15   81.53   17.61
   7  -3  15   84.72   18.37
   7   3  15  103.29   20.43
  -7  -3  15   88.90   19.50
   7   3  15   86.45   18.61
   7  -3  15   83.08   17.75
   7  -3  15   74.28   19.82
   7  -3 -15   88.22   19.60
   8  -3  15   40.41   14.06
   8   3  15   30.59   11.69
  -8  -3  15   25.48   11.52
   8   3  15   35.47   12.43
   8  -3  15   20.08    7.48
   8  -3  15   36.20   13.15
   8  -3 -15   32.32   11.06
   8   3 -15    5.27    4.73
   9   3  15  161.87   25.41
   9  -3  15  161.08   26.11
  -9  -3  15  159.66   25.44
   9  -3 -15  174.89   27.07
   9   3 -15  175.54   26.25
   9   3  15  165.79   24.29
   9  -3  15  154.55   24.83
   9  -3  15  192.77   28.85
  10  -3  15   56.86   14.79
 -10  -3  15   32.99   12.18
  10   3  15   53.38   14.79
  10  -3  15   48.13   12.78
  10  -3 -15   45.05   13.67
  11   3  15  374.97   35.44
  11  -3  15  388.70   35.43
 -11  -3  15  378.00   33.03
  11  -3 -15  371.83   34.29
  11  -3  15  357.03   34.69
  12  -3  15   63.37   12.72
 -12  -3  15   77.67   13.60
  12   3  15   82.19   14.59
  12  -3  15   54.71   12.27
  12  -3 -15   57.35   12.19
  13   3  15  318.76   25.14
  13  -3  15  380.40   26.21
  13  -3 -15  415.95   27.78
  13  -3  15  401.28   27.66
 -13  -3  15  399.97   26.12
 -13   3  15  309.08   22.38
   0  -4  15    0.30    9.81
   0  -4 -15   -0.82   12.29
   0  -4 -15    0.68    4.79
   0   4  15   -2.97    5.50
   0  -4  15    3.42    4.02
   0  -4  15   -1.04    3.21
   1  -4  15   59.86   26.50
   1  -4 -15   36.61   19.99
  -1  -4 -15   32.32   13.15
   1  -4 -15   28.47   10.52
  -1  -4 -15   27.93   10.45
  -1   4  15   34.68   11.73
   1   4  15   26.45   10.09
   1  -4  15   24.63    7.39
  -1  -4  15   27.30   11.49
   1  -4  15   32.35   12.22
   1  -4 -15   37.11   10.47
  -1  -4  15   20.50   16.91
   2  -4  15   21.85   16.10
  -2  -4 -15   30.37   13.19
  -2   4  15   27.69    9.37
   2  -4  15   30.46   10.14
   2   4  15   16.04    9.68
   2  -4  15   34.02    9.26
  -2  -4  15   46.76   12.11
   2  -4 -15   36.66   10.25
  -2  -4  15   13.30   15.56
  -3   4  15  482.92   40.00
   3   4  15  504.40   42.28
   3  -4  15  493.62   40.85
  -3  -4  15  497.02   41.81
   3  -4  15  470.61   38.42
   3  -4 -15  528.47   40.82
   4  -4  15   16.36   11.71
  -4   4  15    7.41    6.70
   4  -4  15    5.26    5.89
   4   4  15   -4.29    7.15
   4  -4  15    2.79    3.29
  -4  -4  15    3.17    6.32
   4  -4 -15   -5.70    6.42
  -4  -4  15    5.11    7.00
  -5   4  15 1498.07   73.44
   5   4  15 1621.70   78.61
   5  -4  15 1499.75   73.83
  -5  -4  15 1328.75   73.46
   5  -4  15 1533.34   72.51
   5  -4  15 1502.00   83.71
   5  -4 -15 1544.10   70.58
   6  -4 -15    2.10    4.48
  -6   4  15    9.72    7.35
   6  -4  15    4.85    6.15
   6   4  15    6.26    6.03
  -6  -4  15   -0.84    3.04
   6  -4  15    5.09    3.43
   6  -4  15    7.91    7.65
   6  -4 -15    2.42    3.35
  -7   4  15  795.20   56.27
   7   4  15  878.23   59.74
   7  -4  15  808.87   57.05
  -7  -4  15  710.06   60.64
   7  -4  15  892.50   57.07
   7  -4 -15  989.13   68.20
   7  -4  15  888.16   65.72
   7  -4 -15  919.56   55.69
   8  -4  15   -2.61    5.29
   8   4  15   -2.64    7.53
  -8  -4  15   17.62    8.89
  -8  -4  15    8.43    8.83
   8  -4  15    2.39    4.95
   8  -4  15    8.42    5.23
   8  -4 -15   -6.76    8.31
   9   4  15  351.22   36.33
   9  -4  15  365.17   37.88
  -9  -4  15  351.76   37.29
   9  -4 -15  412.77   40.52
   9  -4  15  383.19   37.60
   9  -4  15  469.71   43.73
  10  -4  15   -4.42    6.40
 -10  -4  15   -1.78    2.65
  10   4  15    3.50    5.81
  10  -4  15    1.17    3.35
  10  -4  15    7.15    4.97
  10  -4 -15   -6.04    8.47
  11  -4  15   28.88    9.75
 -11  -4  15   34.70    9.42
  11   4  15   28.84    9.90
  11  -4  15   33.14   11.42
  11  -4 -15   36.64   10.53
  12  -4  15    4.62    4.80
 -12  -4  15    3.99    2.43
  12   4  15    9.93    6.33
  12  -4  15    8.87    4.62
  12  -4 -15    3.55    3.60
 -12  -4  15    5.79    3.96
  13  -4  15   54.20    9.83
  13   4  15   63.87   10.66
  13  -4  15   55.51    9.86
  13  -4 -15   57.76   10.21
 -13  -4  15   57.69    8.96
   0  -5  15  125.77   37.23
   0   5  15  100.35   18.04
   0  -5  15  109.54   18.74
   0  -5  15  121.82   20.03
  -1  -5  15   30.19   18.39
   1  -5  15   44.07   24.17
  -1   5  15   35.41   10.49
   1   5  15   36.06   10.27
   1  -5  15   26.97    9.85
  -1  -5  15   35.99   10.37
   1  -5  15   33.06   10.44
   1  -5 -15   36.14   10.34
   2  -5  15   42.02   24.42
  -2   5  15   17.58    8.04
   2  -5  15   17.97    7.46
   2   5  15   14.69    7.65
  -2  -5  15   36.55   11.35
   2  -5  15   15.06    7.92
   2  -5 -15   23.38    8.36
  -2  -5  15   21.64   12.24
   3  -5  15   23.38   18.33
  -3   5  15    5.83    5.18
   3  -5  15    7.28    5.28
   3   5  15   -1.04    4.66
   3  -5  15   11.09    6.22
  -3  -5  15    6.62    6.42
   3  -5 -15    5.48    5.57
  -3  -5  15    0.02    6.78
   4  -5  15   73.51   28.09
  -4   5  15   45.72   12.47
   4  -5  15   51.55   13.69
   4   5  15   59.05   15.00
   4  -5  15   46.25   11.56
   4  -5  15   21.79   10.45
  -4  -5  15   51.27   14.02
   4  -5 -15   56.35   13.56
  -4  -5  15   -1.96    6.59
   5  -5  15   38.16   17.91
  -5   5  15    9.73    6.82
   5  -5  15    9.22    7.73
   5   5  15   22.67    8.97
   5  -5  15   10.61    6.79
  -5  -5  15    6.71    4.77
   5  -5  15   13.76    9.62
   5  -5 -15   17.19    7.71
   6  -5  15   17.04    7.54
  -6   5  15   23.82    9.19
   6  -5  15   16.54    7.70
   6   5  15   19.91   10.17
  -6  -5  15   14.08    8.11
   6  -5  15   27.49   10.10
   6  -5  15   14.63   10.78
   6  -5 -15    5.20    2.42
   6  -5 -15   13.98   10.26
  -7   5  15    2.71    3.89
   7  -5  15   13.64    9.37
   7   5  15    6.68    5.92
  -7  -5  15    5.98    4.29
   7  -5  15    2.87    2.71
   7  -5  15    1.33    6.41
   7  -5 -15    3.16    3.28
   7  -5 -15   11.41    5.00
  -8  -5  15   15.96    7.95
   8  -5  15   45.47   13.76
   8   5  15   42.21   13.87
  -8  -5  15   38.16   14.82
  -8  -5  15   51.20   15.02
   8  -5  15   32.36    9.85
   8  -5  15   55.11   17.61
   8  -5 -15   38.87   11.71
   8  -5 -15   49.14   14.45
   9  -5  15   -0.05    2.65
   9   5  15   -0.13    4.89
  -9  -5  15    7.18   10.57
   9  -5  15   -3.57    5.72
   9  -5  15    6.07    5.86
   9  -5 -15   11.46    7.54
   9  -5 -15   -5.07    3.75
  10  -5  15   76.46   15.56
 -10  -5  15   59.31   14.56
  10   5  15   66.47   15.18
  10  -5  15   65.68   14.56
  10  -5  15   61.44   14.14
  10  -5 -15   61.23   13.46
  11  -5  15   11.90    7.43
 -11  -5  15   -3.66    6.52
  11   5  15    3.72    3.70
  11  -5  15   13.43    6.47
  11  -5 -15   14.78    6.37
  12  -5  15   76.63   13.05
 -12  -5  15   47.43   10.37
  12   5  15   72.71   12.67
  12  -5 -15   97.22   14.29
  12  -5  15   80.99   13.44
 -12  -5  15   86.05   11.96
  13   5  15    1.33    1.40
   0  -6  15  -14.51   11.72
   0   6  15    1.81    4.29
   0  -6  15   -1.15    4.52
   0  -6 -15    0.82    5.58
  -1  -6  15   86.01   25.75
   1  -6  15   70.91   26.40
  -1   6  15   58.56   14.44
   1   6  15   55.99   13.67
   1  -6  15   74.28   15.84
  -1  -6  15   58.56   14.22
   1  -6  15   61.70   14.43
   1  -6 -15   69.52   15.62
  -2  -6  15   10.44    5.76
  -2   6  15    1.13    3.48
   2   6  15   13.99    8.60
   2  -6  15    6.15    4.75
  -2  -6  15   12.06    9.10
   2  -6  15   -2.76    6.09
   2  -6 -15    3.04    3.64
  -3   6  15  507.85   41.33
   3   6  15  402.33   41.74
   3  -6  15  487.69   40.30
  -3  -6  15  475.70   41.49
   3  -6  15  412.47   43.74
   3  -6  15  501.13   38.35
   3  -6 -15  519.51   42.00
   4  -6  15   23.00   17.55
  -4   6  15    5.38    4.04
   4  -6  15    8.17    6.15
   4   6  15    6.43    5.53
   4  -6  15    9.14    4.24
  -4  -6  15    7.65    2.67
   4  -6  15    8.46    7.77
   4  -6 -15   11.84    6.76
  -4  -6  15    0.26    6.64
  -5   6  15 1334.87   69.09
   5   6  15 1092.67   68.04
   5  -6  15 1227.17   65.45
  -5  -6  15 1244.29   74.81
   5  -6  15 1288.14   62.86
   5  -6 -15 1342.98   80.67
   5  -6  15 1340.18   76.10
   5  -6 -15 1228.38   64.57
   6  -6  15   43.62   17.67
  -6   6  15   29.63   11.07
   6  -6  15   34.99   12.74
   6   6  15   34.60   12.04
  -6  -6  15   19.37    9.40
   6  -6  15   27.16    9.03
   6  -6  15   34.99   12.07
   6  -6 -15   29.04    8.89
   6  -6 -15   32.92   12.70
   7   6  15  746.86   55.65
   7  -6  15  762.68   53.94
  -7  -6  15  837.26   62.74
  -7  -6  15  755.94   60.20
   7  -6 -15  871.70   60.75
   7  -6  15  859.88   54.06
   7  -6  15  799.20   60.53
   7  -6 -15  807.31   52.18
  -8  -6  15    3.06    5.53
   8  -6  15    1.79    5.48
   8   6  15   -4.62    6.31
  -8  -6  15   -8.18    5.06
   8  -6  15   -5.82    4.73
   8  -6  15   -2.51    6.35
   8  -6 -15    6.95    8.09
   8  -6 -15    6.37    6.64
  -9  -6  15  380.32   32.84
   9   6  15  361.93   36.28
   9  -6  15  338.04   35.22
  -9  -6  15  389.88   39.00
   9  -6 -15  427.77   37.89
   9  -6  15  382.91   35.80
   9  -6  15  431.36   41.07
   9  -6 -15  368.93   34.63
  10  -6  15    1.15    5.46
  10   6  15    0.98    4.50
 -10  -6  15   -3.71    6.09
  10  -6  15   -5.69    4.39
  10  -6  15    4.11    6.00
  10  -6 -15   -4.05    5.96
  11  -6  15   26.63    8.10
  11   6  15   23.49    7.13
 -11  -6  15   23.76    7.48
  11  -6  15   30.53    8.94
  11  -6 -15   40.71   10.22
  12  -6  15    6.13    4.05
  12   6  15    5.73    4.35
  12  -6  15    1.36    1.79
  12  -6 -15    2.20    1.68
   0  -7  15  164.16   37.24
   0   7  15  172.87   24.02
   0  -7  15  159.83   22.43
   0  -7 -15  171.53   24.50
  -1   7  15  321.79   32.34
   1   7  15  299.55   31.49
   1  -7  15  321.02   32.07
  -1  -7  15  287.30   31.52
   1  -7  15  356.53   33.59
  -1  -7  15  266.71   44.12
   1  -7  15  437.43   61.31
   1  -7 -15  306.27   32.32
  -2  -7  15  122.42   28.15
   2  -7  15  206.63   42.91
  -2   7  15  158.79   22.71
   2   7  15  127.98   21.28
   2  -7  15  101.33   17.65
   2  -7  15  153.29   21.99
  -2  -7  15  125.59   20.53
   2  -7 -15  137.76   21.46
  -3   7  15  306.04   32.23
   3   7  15  299.63   33.45
   3  -7  15  320.49   32.09
  -3  -7  15  335.11   34.97
   3  -7  15  362.99   34.76
  -3  -7  15  224.76   34.80
   3  -7 -15  291.10   31.03
   4  -7  15  166.64   40.45
  -4   7  15   85.07   17.30
   4  -7  15   89.54   16.77
   4   7  15   98.15   19.57
  -4  -7  15   84.86   16.95
   4  -7  15  109.01   21.71
   4  -7  15    7.91   16.99
   4  -7 -15  104.34   18.63
  -4  -7  15   37.99   16.33
   5  -7  15   57.21   18.03
  -5  -7  15   23.88   11.39
  -5   7  15   36.07   11.75
   5  -7  15   54.06   13.92
   5   7  15   46.62   14.54
  -5  -7  15   54.02   14.84
   5  -7  15   45.51   15.25
   5  -7 -15   50.36   12.77
   6  -7  15    1.54    3.76
  -6  -7  15    6.07    5.83
  -6   7  15    4.46    6.66
   6  -7  15   13.21    8.42
   6   7  15   17.94    9.71
  -6  -7  15   10.80    6.31
  -6  -7  15    7.50    8.38
   6  -7  15   12.74    9.23
   6  -7 -15    7.00    4.49
   7  -7  15   36.91   13.63
  -7  -7  15   22.71    9.92
   7  -7  15   21.38    9.08
   7   7  15   25.07   10.85
  -7  -7  15    6.20    5.36
  -7  -7  15   19.08    9.67
   7  -7  15   28.21    9.71
   7  -7  15   32.14   12.68
   7  -7 -15   26.03    9.85
   7  -7 -15   22.30    8.75
  -8  -7  15   13.53    5.66
   8  -7  15   22.36    9.74
   8   7  15   18.61    8.50
  -8  -7  15   27.58   11.15
   8  -7  15   21.13    7.67
   8  -7  15   22.07   11.77
   8  -7 -15   21.45    9.89
   8  -7 -15   14.95    6.34
  -9  -7  15   58.82   13.08
   9  -7  15   71.07   16.12
   9   7  15   72.16   15.90
  -9  -7  15   73.16   16.40
   9  -7  15   76.53   15.32
   9  -7  15   68.45   15.42
   9  -7 -15   69.69   14.76
   9  -7 -15   46.94   11.64
  10  -7  15   33.05    9.80
  10   7  15   25.93    8.83
 -10  -7  15   35.88   10.03
  10  -7  15   44.41   11.49
  10  -7  15   35.97    9.26
  10  -7 -15   44.58   10.50
  11   7  15  102.60   15.16
  11  -7  15  124.69   17.88
 -11  -7  15   75.53   13.70
  11  -7 -15  143.84   16.50
  11  -7  15  122.16   15.46
  12  -7  15   30.73    7.42
 -12  -7  15   20.17    5.40
   0  -8  15  -13.36    9.88
   0  -8  15   11.06   10.44
   0   8  15    0.87    3.73
   0  -8  15    3.09    3.76
   0  -8 -15   -0.31    4.19
  -1  -8  15   44.99   16.78
   1  -8  15   45.14   19.04
   1  -8  15   56.18   23.24
  -1  -8  15   38.31   18.83
  -1   8  15   42.00   11.23
   1   8  15   49.81   13.12
  -1  -8  15   50.50   12.35
   1  -8  15   30.44    5.94
   1  -8 -15   39.22   11.93
  -1  -8 -15   41.38   13.05
  -2  -8  15    4.69    4.58
   2  -8  15   -6.28    6.60
  -2  -8  15    7.16   10.11
  -2   8  15    6.70    5.65
   2   8  15   -0.21    5.85
   2  -8  15   -4.41    5.87
  -2  -8  15    2.09    4.85
   2  -8  15    0.50    2.78
   2  -8 -15    5.12    5.56
  -3  -8  15  155.34   35.03
  -3   8  15  179.09   24.53
   3   8  15  185.49   25.93
   3  -8  15  191.91   23.68
  -3  -8  15  192.66   26.61
   3  -8  15  183.37   23.16
  -3  -8  15  143.85   27.28
   3  -8 -15  185.98   24.43
   4  -8  15   52.57   19.20
  -4  -8  15   32.00   14.14
  -4   8  15   16.76    7.70
   4   8  15   32.45   11.72
   4  -8  15   37.36   10.59
  -4  -8  15   33.77   10.37
   4  -8  15   33.44   10.73
   4  -8 -15   40.31   10.34
  -4  -8  15    7.46    5.84
  -5  -8  15  356.88   39.85
  -5   8  15  354.92   35.16
   5   8  15  463.03   42.23
   5  -8  15  407.85   36.04
  -5  -8  15  424.90   43.39
  -5  -8  15  467.59   43.25
   5  -8  15  438.62   38.02
   5  -8  15  454.09   42.69
   5  -8 -15  350.86   34.53
   5  -8  15  536.46   72.64
   6  -8  15  144.11   32.11
  -6  -8  15   77.43   17.41
   6  -8  15   83.86   15.94
   6   8  15   63.33   17.19
  -6  -8  15   92.42   21.22
  -6  -8  15   94.11   20.14
   6  -8  15   91.88   19.09
   6  -8  15   78.01   16.99
   6  -8 -15   73.30   15.50
  -7  -8  15  336.75   33.51
   7   8  15  318.71   34.56
   7  -8  15  360.38   34.37
  -7  -8  15  348.45   37.63
   7  -8  15  329.53   36.52
   7  -8 -15  296.88   31.61
  -8  -8  15   10.87    6.67
   8  -8  15    9.35    6.93
   8   8  15    6.39    4.82
  -8  -8  15    6.99    6.78
   8  -8  15    1.13    6.53
   8  -8 -15    5.42    5.43
  -9  -8  15  167.90   19.71
   9   8  15  160.73   22.81
   9  -8  15  155.44   21.79
  -9  -8  15  208.67   24.64
   9  -8  15  200.77   26.34
   9  -8 -15  133.61   18.72
  10  -8  15   -1.21    4.05
  10   8  15    5.56    4.09
 -10  -8  15    2.14    2.60
  10  -8  15   -1.90    2.36
  10  -8 -15   -3.79    3.14
 -11  -8  15   -1.85    2.50
 -11  -8  15    4.50    2.91
   0  -9  15    1.44    3.54
   0  -9 -15    7.67    6.08
   1  -9  15 1080.98  101.82
  -1  -9  15 1024.37   99.68
   1   9  15  694.02   47.90
  -1  -9  15  638.23   60.19
   1  -9  15  824.55   78.62
   1  -9 -15  645.93   45.80
  -1  -9 -15  672.64   48.37
  -2  -9  15    6.00    7.31
   2  -9  15   11.93   11.44
  -2  -9  15    7.28    9.16
   2   9  15   -0.86    2.73
   2  -9 -15    5.68    6.90
  -2  -9 -15    2.74    2.38
  -3  -9  15  388.34   48.96
   3   9  15  407.03   38.16
   3  -9  15  386.41   32.81
  -3  -9  15  278.59   36.45
   3  -9 -15  352.62   33.64
   3  -9  15  372.19   71.03
   4  -9  15    5.76   10.05
  -4  -9  15    3.31    3.29
  -4  -9 -15    0.89    2.87
   4   9  15   -1.69    3.88
   4  -9  15    3.50    4.26
  -4  -9  15   -0.27    5.21
   4  -9 -15    7.60    5.44
   5  -9  15   23.08   12.33
  -5  -9  15    6.34    6.18
  -5  -9 -15   -8.18    7.22
   5   9  15   16.27    8.56
   5  -9  15   13.96    6.98
  -5  -9  15   -0.78    4.97
   5  -9 -15   12.20    6.27
   6  -9  15   32.46   18.81
  -6  -9  15   19.84    5.86
  -6  -9 -15   25.99    9.73
   6   9  15   16.56    8.62
   6  -9  15   24.96    9.33
  -6  -9  15   23.20    9.76
   6  -9  15   28.45   11.62
   6  -9 -15   23.50    9.21
  -7  -9  15   77.30   15.84
  -7  -9 -15   95.13   17.46
   7   9  15   68.95   16.66
   7  -9  15   87.86   16.05
  -7  -9  15   94.31   17.22
   7  -9  15  107.81   20.38
   7  -9 -15   81.49   15.84
  -8  -9  15    1.06    2.90
  -8  -9 -15   -6.33    5.89
   8  -9  15    7.16    6.97
   8   9  15   -5.91    5.59
  -8  -9  15   -1.79    4.42
   8  -9  15    1.55    6.02
   8  -9 -15   -0.84    2.91
  -9  -9  15  239.83   21.62
   9   9  15  232.18   23.31
  -9  -9 -15  297.04   25.25
   9  -9  15  248.10   25.79
  -9  -9  15  222.54   22.83
   9  -9 -15  225.46   23.94
 -10  -9  15    0.54    1.82
  10  -9  15    5.77    2.17
 -10  -9  15    7.61    4.20
  10  -9 -15    0.43    2.91
   0 -10  15   -0.72    3.51
   0 -10 -15   -2.36    2.63
   0 -10 -15    1.30    3.94
  -1 -10  15    2.77    4.63
   1 -10  15    0.40    4.20
   1 -10 -15    5.63    4.95
  -1 -10 -15   -3.07    3.55
   1 -10 -15   -3.55    2.67
  -1 -10 -15   -3.16    6.35
  -2 -10  15    6.03    4.84
   2 -10  15    5.11    8.15
  -2 -10  15   17.65   13.01
   2 -10 -15   14.16    7.52
  -2 -10 -15   11.20    6.23
   2 -10 -15    4.56    2.63
  -2 -10 -15    5.20    3.51
   3 -10  15    9.08   13.37
  -3 -10  15   -4.42    5.21
   3 -10 -15   -1.40    2.97
  -3 -10 -15   -2.34    4.34
   3 -10 -15    1.24    2.84
  -3 -10 -15   13.76    6.99
  -3 -10  15   -4.52    5.15
   4 -10  15   58.37   26.23
  -4 -10  15   78.09   18.35
   4 -10 -15   46.73   11.26
  -4 -10 -15   58.58   13.67
   4 -10 -15   48.88   12.38
   5 -10  15   -6.96   10.59
  -5 -10  15   10.03    5.13
  -5 -10  15    9.25    6.73
  -5 -10 -15    6.87    4.00
   5 -10 -15    0.48    5.67
  -6 -10  15   62.66   14.07
  -6 -10 -15   54.41   12.97
  -6 -10  15   80.17   17.14
   6 -10 -15   67.49   13.90
   7 -10  15   26.25   11.92
  -7 -10  15    8.81    6.05
  -7 -10 -15   22.42    7.23
  -7 -10  15   22.86    6.37
   7 -10 -15   13.51    6.34
  -8 -10  15    4.29    2.91
  -8 -10 -15   17.70    7.78
   8 -10  15    6.11    4.17
  -8 -10  15    8.62    5.13
   8 -10 -15   14.06    6.23
   8 -10 -15    8.97    5.77
  -9 -10  15    4.56    3.65
  -9 -10  15   15.69    5.59
   9 -10 -15    5.39    3.63
   0 -11  15   24.31    9.69
   0 -11  15    8.40    7.13
   0 -11 -15   21.01    6.89
   0 -11 -15   24.34    9.12
  -1 -11  15  867.77   81.83
   1 -11 -15  607.92   40.16
  -1 -11 -15  622.75   41.95
  -1 -11  15  653.24   54.52
   1 -11  15  799.13   69.48
   1 -11 -15  657.19   45.05
  -1 -11 -15  660.64   47.33
  -2 -11  15    1.99    6.36
   2 -11  15    8.54    5.04
  -2 -11  15    1.22    5.18
   2 -11 -15    5.25    4.26
  -2 -11 -15   -2.29    4.15
   2 -11 -15    9.82    5.93
  -2 -11 -15    9.21    5.65
  -3 -11  15  338.87   42.32
   3 -11 -15  245.55   25.32
  -3 -11 -15  254.37   27.73
   3 -11 -15  234.04   26.43
   3 -11  15  360.56   55.61
  -3 -11 -15  273.46   32.36
   4 -11  15   -0.86    8.66
  -4 -11  15   -8.19    7.47
  -4 -11  15    0.29    2.57
   4 -11 -15   -2.14    3.42
  -4 -11 -15   -3.36    4.53
   4 -11 -15    5.99    3.30
  -4 -11 -15    7.18    2.89
   5 -11  15    2.46    5.72
  -5 -11  15   11.47    7.23
  -5 -11  15   17.01    7.38
  -5 -11 -15    5.78    2.12
   5 -11 -15   10.88    5.87
  -5 -11 -15    2.97    2.63
   6 -11  15   -5.39    5.15
  -6 -11  15   -3.94    5.63
  -6 -11 -15    2.51    2.68
   6 -11 -15    1.56    2.84
  -6 -11 -15   -7.10    5.62
  -7 -11  15   94.50   14.44
  -7 -11 -15   93.50   14.72
   7 -11 -15   95.22   16.12
   7 -11  15  140.62   24.25
  -7 -11 -15   95.95   17.74
  -8 -11  15   19.33    5.62
   8 -11 -15   23.04    7.88
  -8 -11 -15   32.84    8.97
   0 -12  15  -10.69    8.80
   0 -12  15   12.93    9.61
   0 -12 -15   -4.81    5.06
   0 -12 -15    1.62    5.63
  -1 -12  15   12.93    6.73
   1 -12  15   10.02    6.21
  -1 -12  15   18.67   13.09
   1 -12 -15   13.19    6.42
  -1 -12 -15   -4.35    5.31
   1 -12 -15    6.15    2.53
  -1 -12 -15   15.66    7.08
   2 -12  15    1.71    6.56
  -2 -12  15    4.13    7.50
  -2 -12  15    3.12    2.30
   2 -12 -15   20.39    8.57
  -2 -12 -15    7.80    4.67
   2 -12 -15   17.47    8.38
  -2 -12 -15   11.20    7.12
  -2 -12  15    7.81    5.27
   3 -12  15   85.01   22.95
  -3 -12  15   52.58   15.70
  -3 -12  15   56.65   13.21
   3 -12 -15   32.33    8.77
  -3 -12 -15   58.32   12.87
   3 -12 -15   52.30   12.37
  -3 -12 -15   65.61   16.03
   4 -12  15   68.81   22.13
  -4 -12  15   37.80   11.40
  -4 -12  15   31.94    9.80
   4 -12 -15   23.37    7.48
  -4 -12 -15   42.10   11.09
   4 -12 -15   39.34   10.76
  -4 -12 -15   20.71    9.62
  -5 -12  15   94.79   16.81
  -5 -12  15   88.24   14.22
  -5 -12 -15   87.38   14.91
   5 -12 -15   98.11   16.00
  -5 -12 -15  102.29   18.66
   6 -12  15   45.26   13.71
  -6 -12  15   33.58    8.53
  -6 -12 -15   30.39    7.88
   6 -12 -15   17.33    5.86
  -6 -12 -15   32.17    9.44
   7 -12 -15   46.67   10.58
   0 -13  15   14.85    7.56
   0 -13  15   40.16   14.63
   0 -13 -15   40.18    9.74
   0 -13 -15   46.57   12.89
  -1 -13  15  335.62   34.56
   1 -13  15  348.12   44.15
   1 -13 -15  293.53   26.55
  -1 -13 -15  277.40   26.18
  -1 -13  15  256.28   27.22
   1 -13  15  370.92   40.59
   1 -13 -15  317.14   31.21
  -1 -13 -15  291.60   31.41
  -1 -13  15  396.66   41.60
   2 -13  15   20.44   11.19
  -2 -13  15   12.93    5.90
  -2 -13  15    7.03    6.22
   2 -13  15   15.76    6.76
   2 -13 -15    9.77    5.23
  -2 -13 -15    2.30    3.00
   2 -13 -15   11.69    6.53
  -2 -13 -15   14.94    9.13
  -3 -13  15  124.55   18.08
   3 -13  15  268.98   45.84
   3 -13 -15  106.62   15.68
  -3 -13 -15  116.48   16.66
   3 -13 -15  132.46   19.30
   3 -13  15  235.23   35.92
  -3 -13 -15  128.88   20.42
  -3 -13  15  191.05   25.22
   4 -13  15    6.71    6.16
  -4 -13  15   -5.35    4.36
  -4 -13  15   -6.73    5.14
  -4 -13 -15    7.20    4.77
   4 -13 -15    5.49    2.85
  -4 -13 -15  -10.60    7.37
  -5 -13  15   36.46    8.95
   0   0  16 2262.70   85.54
   0   0  16 2182.66   87.02
  -1   0  16   -4.48    3.27
   1   0  16    3.54    4.49
  -1   0  16  -11.19    6.59
  -2   0  16 1846.63   77.51
   2   0  16 1766.87   76.13
   2   0  16 1552.24   74.63
  -2   0  16 1540.89   74.84
   2   0  16 1542.76   84.52
  -3   0  16   -0.41    2.25
   3   0  16    2.10    3.30
   3   0  16   -5.27    3.16
   3   0  16    6.02    6.56
  -3   0  16   -8.07    7.20
  -4   0  16  731.14   50.93
   4   0  16  712.94   49.06
   4   0  16  668.62   50.89
  -4   0  16  660.24   52.07
   4   0  16  666.44   49.44
  -5   0  16   -5.77    4.67
   5   0  16   -1.27    5.19
   5   0  16   -3.43    6.19
   5   0  16   -3.46    6.47
  -5   0  16   -3.28    5.44
  -6   0  16    8.36    4.26
   6   0  16   17.43    9.02
   6   0  16   17.05    9.54
  -6   0  16   16.73    9.66
   6   0  16   18.95    9.31
   7   0  16    1.84    3.18
   7   0  16    0.26    4.82
  -7   0  16    0.23    3.50
   7   0  16   -2.66    5.94
   7   0 -16   -1.54    4.46
   8   0  16  191.28   27.54
   8   0  16  183.45   26.16
   8   0  16  187.70   26.88
   8   0 -16  198.44   28.99
   9   0  16   -5.64    5.28
   9   0  16   -6.19    4.95
  -9   0  16   -5.55    3.23
   9   0 -16   -2.44    4.87
  10   0  16  501.01   39.93
  10   0 -16  509.62   39.55
  10   0  16  506.17   39.77
  11   0  16    2.70    2.01
  11   0  16    3.22    2.85
  11   0 -16   -1.79    2.30
  12   0  16  970.72   43.49
  12   0 -16  900.02   41.67
  12   0  16  845.84   41.05
   0  -1  16    2.57    4.04
   0   1  16    2.83    5.89
   0  -1  16    4.64    4.24
  -1  -1  16   -0.85    5.22
  -1   1  16   -3.25    4.51
   1  -1  16    1.67    3.62
   1   1  16    0.17    5.10
  -1   1  16    4.98    5.06
  -1  -1  16    1.12    5.67
   1   1  16   -5.46    8.04
   1  -1  16    0.21    2.86
   1  -1  16   12.89   11.53
  -2  -1  16   14.77    7.41
  -2   1  16   19.74    9.21
   2  -1  16   22.83    8.73
   2   1  16   29.78   10.62
   2  -1  16    3.77    4.10
  -2   1  16   31.15   10.65
  -2  -1  16   16.85    8.86
   2   1  16   16.14    7.01
   2  -1  16   26.54    9.00
   2  -1  16    7.54   10.74
  -3  -1  16    2.19    5.33
  -3   1  16   14.11    7.92
   3   1  16   10.57    2.65
   3  -1  16   -0.81    3.37
   3  -1  16    9.39    4.97
   3   1  16   15.89    7.88
   3  -1  16    4.29    3.70
  -3   1  16   -1.40    2.96
  -3  -1  16    5.76    3.92
   3   1  16   -2.43    6.06
   3  -1  16  -12.44   11.44
  -4  -1  16   72.92   16.81
  -4   1  16   77.01   16.90
   4   1  16   88.52   18.10
   4  -1  16   80.55   17.92
   4  -1  16   95.83   18.13
   4   1  16   86.87   17.25
   4   1  16   89.06   18.73
   4  -1  16   60.88   14.32
  -4   1  16   87.98   18.42
  -4  -1  16   86.11   18.13
  -5  -1  16  273.37   31.91
  -5   1  16  310.44   33.26
   5  -1  16  230.78   29.03
   5   1  16  295.00   32.18
   5   1  16  310.64   34.80
   5  -1  16  283.02   33.22
  -5   1  16  287.96   36.02
  -5  -1  16  288.68   35.64
   5   1  16  266.50   32.53
   5  -1  16  285.64   31.80
  -6  -1  16  104.96   19.97
  -6   1  16   96.46   18.20
   6   1  16  108.03   20.50
   6  -1  16   95.72   19.67
   6  -1  16  117.31   20.14
   6   1  16  115.80   20.98
  -6   1  16  110.56   22.84
  -6  -1  16  100.74   21.63
   6   1  16   89.59   18.36
   6  -1  16  117.30   21.00
   7  -1  16   70.95   16.43
   7  -1  16   95.09   18.27
   7   1  16   85.26   17.62
  -7   1  16   57.22   16.03
  -7  -1  16   91.00   20.15
   7   1  16  100.14   20.13
   7  -1  16   88.54   18.04
   7  -1 -16   78.90   19.27
   7   1 -16   48.53   16.94
   8  -1  16   68.75   18.99
   8  -1  16   43.30   12.17
   8   1  16   41.23   13.75
   8   1  16   39.14   12.61
   8  -1  16   41.26   11.70
   8  -1 -16   49.69   15.29
   8   1 -16   41.08   13.07
   9  -1  16   47.61   12.80
   9   1  16   48.56   14.36
  -9  -1  16   45.08   14.58
   9   1  16   45.71   13.58
   9  -1  16   39.72   12.81
   9  -1 -16   34.46   13.28
   9   1 -16   38.60   11.49
  10  -1  16   -0.29    3.32
  10   1  16    5.23    6.32
 -10  -1  16    9.02    5.28
  10   1  16   17.15    8.23
  10  -1  16    4.62    4.49
  10   1 -16    9.20    5.60
  10  -1 -16    6.97    4.36
  11  -1  16   40.60    9.25
  11   1  16   62.66   13.01
  11   1  16   51.83   10.32
  11  -1  16   43.60    9.53
  11   1 -16   43.31   10.62
  11  -1 -16   62.28   13.00
  12   1  16   12.17    5.73
  12   1  16    9.67    4.72
  12  -1  16   12.54    4.31
  12   1 -16   12.10    5.00
  12  -1 -16   13.75    5.29
   0   2  16  737.65   49.11
   0  -2  16  681.81   48.96
  -1   2  16   69.66   15.29
   1  -2  16   45.53   12.59
   1   2  16   57.93   13.24
  -1   2  16   55.00   13.18
  -1  -2  16   58.20   14.82
   1  -2  16   67.65   16.97
  -1  -2  16   28.57   16.13
   1  -2  16    7.05   16.57
  -2   2  16  532.70   42.32
   2   2  16  467.76   40.93
   2  -2  16  510.53   41.87
  -2   2  16  531.14   44.12
  -2  -2  16  447.68   40.58
   2  -2  16  571.32   44.22
   2  -2  16  450.52   83.94
  -3   2  16   32.42   12.44
   3  -2  16   45.33   12.60
   3   2  16   33.68   12.10
   3  -2  16   40.46   12.69
  -3   2  16   27.46    9.84
  -3  -2  16   38.45   11.45
   3  -2  16   16.63    9.73
  -4   2  16  116.58   20.42
   4   2  16  116.92   20.51
   4  -2  16  122.71   21.32
  -4   2  16  152.02   24.02
   4   2  16   80.13   17.86
   4  -2  16  114.50   20.43
  -4  -2  16  113.01   19.91
  -5  -2  16   22.55   10.54
  -5   2  16   23.47    9.17
   5  -2  16   32.40   11.36
   5   2  16   31.10   10.53
   5   2  16   13.77    8.96
  -5   2  16   32.09   10.29
   5  -2  16   21.38    7.56
  -5  -2  16   43.37   13.83
  -6   2  16   17.14    6.21
   6  -2  16   34.87   13.36
   6   2  16   26.36   10.98
  -6   2  16    6.27    4.35
   6   2  16   16.51    6.92
  -6  -2  16   24.99   10.81
   6  -2  16   11.66    5.72
   7  -2  16    4.32    5.58
   7   2  16   -3.10    5.44
  -7  -2  16    9.25    9.72
   7   2  16    7.60    3.97
   7  -2  16    0.67    6.36
   7  -2 -16   -1.11    4.29
   7   2 -16    0.40    3.63
   8   2  16  209.72   28.31
   8  -2  16  249.40   30.44
  -8  -2  16  222.29   30.01
  -8  -2  16  252.37   32.28
   8   2  16  223.21   28.83
   8  -2 -16  263.56   32.35
   8  -2  16  212.53   28.40
   8   2 -16  220.56   29.88
   9  -2  16   14.49    6.74
   9   2  16   -1.36    5.36
  -9  -2  16    7.19    5.05
   9   2  16   14.36    6.66
   9  -2  16   -1.03    6.30
   9  -2 -16    1.85    4.37
   9   2 -16    2.33    4.90
  10   2  16  415.30   38.04
  10  -2  16  395.11   35.54
 -10  -2  16  388.20   35.22
  10   2 -16  394.91   34.26
  10  -2 -16  416.27   35.93
  10   2  16  449.12   35.40
  10  -2  16  451.40   38.07
  11  -2  16   15.87    6.82
  11   2  16   41.50   10.81
 -11  -2  16   11.16    5.22
  11   2  16   30.36    8.62
  11  -2  16   28.93    9.64
  11   2 -16   25.25    8.22
  11  -2 -16   32.80   10.06
  12   2  16  765.03   40.45
  12  -2  16  687.37   35.70
  12  -2 -16  679.91   38.00
  12  -2  16  674.39   37.73
   0   3  16    7.83    4.61
   0  -3  16    7.80    6.93
  -1   3  16    5.66    6.68
   1  -3  16   -1.52    3.21
   1   3  16    4.75    3.56
  -1  -3  16    4.01    5.10
   1  -3  16   15.26    7.44
  -1  -3  16    1.72    5.44
   1  -3  16   -1.84   10.26
  -2   3  16  153.00   22.97
   2   3  16  156.91   23.64
   2  -3  16  146.64   22.39
  -2  -3  16  147.19   22.81
   2  -3  16   68.00   24.79
  -2  -3  16   53.87   25.91
   2  -3  16  204.86   51.61
  -3   3  16   10.76    5.93
   3  -3  16    8.47    5.30
   3   3  16    9.17    7.53
   3  -3  16    6.78    2.80
  -3  -3  16   12.50    6.73
   3  -3  16   -5.32   12.44
  -4   3  16  419.66   38.36
   4   3  16  396.63   37.26
   4  -3  16  411.32   38.17
  -4  -3  16  381.42   38.30
   4  -3  16  435.79   37.89
   4  -3  16  530.42   71.74
  -5   3  16  212.77   27.51
   5   3  16  239.40   29.50
   5  -3  16  223.75   28.30
  -5  -3  16  234.22   30.90
   5  -3  16  214.46   26.69
   5  -3  16  122.81   33.72
  -6   3  16  536.98   44.88
   6   3  16  630.79   48.68
   6  -3  16  580.52   47.02
  -6  -3  16  669.39   52.09
   6   3  16  561.33   47.26
   6  -3  16  660.33   48.04
   7  -3  16   10.39    3.93
   7   3  16   40.19   13.05
  -7  -3  16   28.24    9.91
   7   3  16   31.72   12.26
   7  -3  16   38.16   11.32
   7  -3 -16   34.64   10.50
   7   3 -16   43.77   13.43
   8   3  16  313.19   34.67
   8  -3  16  277.06   32.19
  -8  -3  16  339.71   36.90
   8  -3 -16  356.06   38.35
   8   3  16  299.29   32.70
   8  -3  16  307.02   33.41
   9  -3  16    9.82    3.79
   9   3  16   16.88    8.62
  -9  -3  16   17.54    8.98
   9   3  16    9.92    4.50
   9  -3  16   13.87    6.28
   9   3 -16   17.84    7.70
   9  -3 -16    8.64    6.03
  10  -3  16   92.18   17.11
  10   3  16   86.44   16.48
 -10  -3  16  109.47   18.17
  10  -3  16  106.10   18.89
  10  -3 -16   93.10   18.14
  11  -3  16   12.41    4.87
  11   3  16   21.21    7.17
 -11  -3  16   16.23    7.28
  11  -3  16   11.96    6.56
  11  -3 -16   11.43    4.47
  12  -3  16   13.87    6.06
  12   3  16   17.48    5.46
 -12  -3  16   12.71    4.74
  12  -3  16   15.28    5.12
  12  -3 -16   13.54    4.94
 -12  -3  16   16.31    5.54
   0   4  16   62.76   14.13
   0  -4  16   59.98   15.15
   0  -4 -16   33.05   12.83
   0  -4  16   43.17   23.90
  -1   4  16  121.23   19.75
   1   4  16  120.65   19.68
   1  -4  16  109.90   19.14
  -1  -4  16  121.75   21.48
   1  -4  16  121.38   19.43
   1  -4 -16  146.93   21.39
  -1  -4  16   47.14   25.20
   1  -4  16  172.66   46.03
  -2   4  16   53.15   13.95
   2   4  16   63.43   14.99
   2  -4  16   53.68   13.41
  -2  -4  16   58.63   14.04
   2  -4  16   64.05   17.42
   2  -4 -16   47.93   13.83
  -2  -4  16   11.78   15.03
   2  -4  16   64.65   32.53
  -3   4  16   86.20   17.85
   3  -4  16   84.26   17.51
   3   4  16   79.22   17.83
   3  -4  16   68.88   15.10
  -3  -4  16   88.50   19.30
   3  -4  16   17.66   18.06
  -3  -4  16   10.43   11.64
   3  -4  16  119.84   35.13
  -4   4  16   23.51   10.25
   4  -4  16   13.30    8.05
   4   4  16   21.14    9.59
   4  -4  16   17.56    8.37
  -4  -4  16   14.26    9.02
   4  -4  16   14.68   13.60
  -5   4  16   36.80   11.20
   5  -4  16   48.37   12.57
   5   4  16   45.74   12.83
   5  -4  16   51.10   13.16
  -5  -4  16   34.44   11.76
   5  -4  16   37.61   20.40
  -6   4  16   10.97    7.36
   6  -4  16    6.04    4.22
   6   4  16    5.15    7.07
  -6  -4  16   -5.56    7.20
   6  -4  16    0.44    5.53
   6  -4 -16    7.01    6.72
   7  -4  16   42.24   12.50
   7   4  16   49.59   13.33
  -7  -4  16   39.93   16.06
   7  -4  16   47.16   12.88
   7  -4 -16   66.24   16.67
  -8  -4  16    8.20    3.06
   8  -4  16   23.81    9.81
   8   4  16   23.68   10.75
  -8  -4  16   28.55   10.77
   8  -4  16   15.89    8.36
   8  -4 -16   30.10   11.30
   9  -4  16   39.66   10.39
   9   4  16   34.79   10.50
  -9  -4  16   24.01   10.89
   9  -4  16   46.61   11.72
   9  -4 -16   52.56   14.18
  10  -4  16   46.47   11.39
  10   4  16   64.30   13.87
 -10  -4  16   54.41   14.12
  10  -4  16   59.65   13.96
  10  -4 -16   57.37   13.46
  11  -4  16   61.77   12.81
  11   4  16   74.46   13.98
 -11  -4  16   72.69   13.71
  11  -4  16   91.40   15.92
  11  -4 -16   62.60   13.89
  12   4  16   90.82   13.02
  12  -4  16   68.93   11.46
 -12  -4  16   69.71   10.75
  12  -4 -16   83.38   12.18
  12  -4  16   80.16   12.05
 -12  -4  16   83.84   10.98
   0   5  16    4.95    5.76
   0  -5  16   -7.52    8.14
   0  -5 -16    3.89    5.50
   0  -5  16   14.03    9.22
   1  -5  16    4.09    5.97
  -1   5  16    0.74    3.51
   1   5  16   -5.80    6.14
   1  -5  16   -2.49    4.26
  -1  -5  16   -2.14    5.40
   1  -5  16    1.93    5.04
   1  -5 -16    3.45    4.96
  -1  -5  16   -9.46   13.52
  -2   5  16  246.32   28.72
   2   5  16  227.22   28.38
   2  -5  16  185.98   25.14
  -2  -5  16  242.70   29.24
   2  -5  16  217.85   27.90
   2  -5  16  303.04   60.72
   2  -5 -16  227.10   27.88
  -3   5  16   42.42   12.16
   3  -5  16   48.93   13.07
   3   5  16   57.62   14.50
  -3  -5  16   46.43   12.34
   3  -5  16   47.87   13.49
   3  -5 -16   52.49   12.85
  -3  -5  16   25.61   14.90
  -4   5  16  678.11   48.17
   4   5  16  690.31   50.47
   4  -5  16  685.99   48.54
  -4  -5  16  643.34   50.07
   4  -5  16  647.85   45.98
   4  -5 -16  758.51   49.20
   5  -5 -16   42.81   15.47
  -5   5  16   45.91   13.61
   5  -5  16   33.22   11.00
   5   5  16   47.50   12.81
   5  -5  16   57.59   13.43
  -5  -5  16   38.33   12.98
   5  -5 -16   45.06   12.45
   5  -5  16   59.68   24.37
  -6   5  16  999.00   61.62
   6   5  16 1030.09   64.11
   6  -5  16  999.70   59.95
  -6  -5  16 1186.63   69.03
   6  -5  16 1108.33   60.29
   6  -5 -16 1076.43   68.60
   6  -5  16 1299.05   90.73
   6  -5 -16 1137.32   60.15
   7  -5  16    8.51    7.10
   7   5  16   -6.56    6.99
  -7  -5  16   -0.99    6.12
  -7  -5  16   -6.84    4.23
   7  -5  16    3.04    4.02
   7  -5 -16    0.45    4.48
   7  -5 -16    5.43    4.46
   8   5  16  537.54   45.12
   8  -5  16  454.53   41.04
  -8  -5  16  573.02   48.25
   8  -5 -16  614.20   47.46
   8  -5  16  558.48   43.03
   8  -5 -16  551.79   41.46
   9  -5  16    4.70    5.52
   9   5  16    0.50    4.94
  -9  -5  16  -10.51    6.56
   9  -5  16   -1.13    3.68
   9  -5 -16    4.10    6.26
  10   5  16  143.49   21.07
  10  -5  16  141.53   20.01
 -10  -5  16  175.63   22.37
  10  -5 -16  135.55   19.51
  10  -5  16  153.18   20.86
  11  -5  16   -6.90    5.89
  11   5  16   -2.03    1.78
 -11  -5  16   -6.42    5.23
  11  -5  16   -5.81    4.94
  11  -5 -16   -6.54    3.96
 -11  -5  16   -3.84    3.19
  12   5  16   21.45    5.77
   0  -6  16   69.02   25.39
   0   6  16   77.31   15.87
   0  -6  16   98.85   18.53
   0  -6 -16   74.17   15.63
  -1   6  16  212.09   26.08
   1   6  16  237.27   28.20
  -1  -6  16  243.21   28.46
   1  -6  16  245.51   28.29
   1  -6  16  284.75   52.80
   1  -6 -16  221.16   26.85
  -1  -6 -16  219.94   27.27
  -1  -6  16  174.53   36.24
   2  -6  16   64.75   22.76
  -2   6  16   65.92   15.24
   2   6  16   62.90   15.07
   2  -6  16   81.13   15.58
  -2  -6  16   50.64   12.59
   2  -6  16   65.36   15.11
   2  -6 -16   76.22   14.97
  -2  -6  16   29.90   15.25
   3  -6  16   85.68   28.07
  -3   6  16   72.00   15.50
   3   6  16   50.78   14.41
   3  -6  16   69.42   14.88
  -3  -6  16   75.45   16.52
   3  -6  16   46.58   16.51
   3  -6 -16   71.83   15.26
  -3  -6  16   11.00   10.21
   4  -6 -16   40.23   12.57
   4  -6  16   70.45   25.18
  -4   6  16   35.00   11.80
   4  -6  16   31.25    9.59
   4   6  16   43.01   12.86
  -4  -6  16   39.08   11.54
   4  -6  16   35.31    9.94
  -4  -6  16    8.00    6.27
   4  -6 -16   46.95   12.49
   5  -6  16    6.15    7.78
  -5   6  16   10.31    7.68
   5  -6  16    7.34    4.18
   5   6  16    5.69    3.12
   5  -6  16    0.99    4.39
  -5  -6  16   13.59    8.93
   5  -6 -16    5.90    3.33
   5  -6 -16    9.05    6.86
   6  -6  16   -5.85    9.21
  -6  -6  16    2.86    4.86
  -6   6  16   -0.19    4.15
   6  -6  16    4.49    5.43
   6   6  16    0.03    5.10
  -6  -6  16   -3.59    2.76
   6  -6  16    6.86    5.34
   6  -6 -16   18.13    9.20
   6  -6 -16   10.74    7.05
  -7  -6  16    4.76    4.62
   7  -6  16   12.81    6.34
   7   6  16   27.18   10.90
  -7  -6  16    6.24    6.78
  -7  -6  16   13.19    7.80
   7  -6  16   12.20    6.26
   7  -6 -16   14.61    8.48
   7  -6 -16    8.95    4.83
  -8  -6  16    3.01    4.22
   8  -6  16    0.78    4.99
   8   6  16   -7.18    5.26
  -8  -6  16    0.54    4.39
   8  -6  16    0.40    2.63
   8  -6 -16   10.43    9.03
   8  -6 -16    2.68    5.53
   9  -6  16    6.20    3.61
   9   6  16   13.32    6.99
  -9  -6  16   14.35    8.66
   9  -6  16    9.66    5.76
   9  -6 -16   14.82    6.35
  10  -6  16   16.27    6.96
  10   6  16   20.77    7.52
 -10  -6  16   15.48    6.21
  10  -6  16   23.14    7.27
  10  -6 -16   21.22    7.55
  11  -6  16   42.84    9.11
  11   6  16   47.31   10.33
 -11  -6  16   25.06    6.27
  11  -6 -16   59.76   10.91
  11  -6  16   53.16   10.13
   0  -7  16   -6.67    3.84
   0   7  16    2.09    2.82
   0  -7  16   -0.41    4.10
   0  -7 -16   -0.84    3.16
   1  -7  16   15.67    8.61
  -1   7  16   14.90    6.59
   1   7  16   17.78    6.04
  -1  -7  16   20.47    9.20
   1  -7  16   16.16    9.21
   1  -7 -16    0.06    2.31
  -1  -7 -16   16.96    7.83
  -1  -7  16    3.84    9.35
   2  -7  16  188.02   40.65
  -2   7  16  135.72   21.34
   2   7  16  126.91   20.44
   2  -7  16  122.24   19.26
   2  -7  16  134.82   21.27
  -2  -7  16  107.45   18.96
   2  -7 -16  116.00   19.70
  -2  -7  16   81.01   22.49
   3  -7  16   21.68    9.79
  -3   7  16   14.38    6.75
   3   7  16    6.44    5.03
   3  -7  16   15.75    8.09
  -3  -7  16    3.66    4.31
   3  -7  16   19.29    9.02
   3  -7 -16   11.43    4.95
  -3  -7  16    3.06    6.20
  -4  -7  16  335.26   44.31
  -4   7  16  467.79   39.08
   4   7  16  447.00   42.03
   4  -7  16  494.83   39.05
  -4  -7  16  557.82   45.53
   4  -7  16  521.72   40.14
  -4  -7  16   71.91   26.55
   4  -7  16  849.34   85.06
   4  -7 -16  485.58   39.35
   5  -7  16   73.75   24.86
  -5  -7  16   40.28   14.01
  -5   7  16   35.51   11.04
   5  -7  16   44.45   11.92
   5   7  16   35.77   12.26
  -5  -7  16   56.75   15.77
   5  -7  16   34.61   13.34
   5  -7 -16   41.94   12.07
  -6  -7  16  629.26   47.98
   6   7  16  792.13   54.59
   6  -7  16  712.05   48.36
  -6  -7  16  748.36   56.41
  -6  -7  16  744.45   55.47
   6  -7  16  736.82   50.70
   6  -7 -16  711.66   47.36
  -7  -7  16   51.36   12.26
   7  -7  16   39.05   11.58
   7   7  16   55.50   13.22
  -7  -7  16   41.04   12.73
   7  -7  16   51.21   12.39
   7  -7  16   36.77   12.31
   7  -7 -16   61.15   14.61
   7  -7 -16   44.75   11.54
  -8  -7  16  394.30   32.20
   8   7  16  414.35   36.69
   8  -7  16  367.09   34.07
  -8  -7  16  404.77   36.82
   8  -7 -16  475.22   37.26
   8  -7  16  384.89   31.60
   8  -7 -16  389.36   33.98
  -9  -7  16    3.59    1.47
   9  -7  16    3.72    4.12
   9   7  16   -0.08    4.23
  -9  -7  16    3.21    4.58
   9  -7  16    4.64    3.88
   9  -7 -16   13.42    6.30
  10   7  16   77.89   13.39
  10  -7  16   62.13   12.57
 -10  -7  16   37.48    9.06
  10  -7 -16   74.38   12.34
  10  -7  16   60.69   11.14
 -11  -7  16   -0.63    1.37
   0   8  16  286.68   30.62
   0  -8  16  321.41   30.94
   0  -8  16  357.42   48.00
   0  -8 -16  281.75   30.97
   1  -8  16   56.22   21.97
   1  -8  16  120.71   31.90
  -1  -8  16  114.81   31.76
  -1   8  16   65.61   14.95
   1   8  16   68.49   14.67
  -1  -8  16   57.46   13.07
   1  -8  16   68.12   14.34
   1  -8 -16   68.32   14.62
  -1  -8 -16   65.51   14.52
  -1  -8  16   67.05   20.41
  -2  -8  16  289.14   45.50
  -2   8  16  260.73   28.27
   2   8  16  242.10   28.66
  -2  -8  16  269.75   29.89
   2  -8  16  271.52   28.23
  -2  -8  16  146.64   30.92
   2  -8  16  376.92   57.83
   2  -8 -16  297.55   30.08
  -2  -8 -16  276.65   30.90
   3  -8  16   25.93   12.67
  -3  -8  16   22.52   10.47
  -3   8  16    4.15    2.22
   3   8  16    5.03    2.96
   3  -8  16   -0.85    3.80
  -3  -8  16   15.31    7.55
   3  -8  16   12.03    5.82
   3  -8 -16    7.51    3.53
  -3  -8  16    1.66    6.32
   4  -8  16  220.42   42.86
  -4   8  16  136.12   20.72
  -4  -8  16  111.98   22.84
   4   8  16  132.26   22.30
   4  -8  16  122.05   18.70
  -4  -8  16   71.60   20.14
  -4  -8  16  164.21   23.92
   4  -8  16  128.17   19.60
  -4  -8  16   57.58   15.75
   4  -8 -16  135.81   20.07
   5  -8  16    6.84    9.32
  -5   8  16   -7.65    6.69
  -5  -8  16   -1.31    3.68
   5   8  16    2.13    3.98
   5  -8  16   -0.24    5.41
  -5  -8  16    8.02    6.21
  -5  -8  16   -0.56    7.04
   5  -8  16    0.33    5.32
   5  -8 -16    1.08    3.25
   6  -8  16   11.36   11.62
  -6  -8  16    7.41    6.77
   6   8  16   -0.30    3.66
   6  -8  16    7.93    5.89
  -6  -8  16    4.72    7.40
   6  -8  16   -5.18    7.29
   6  -8 -16   -0.52    3.29
  -7  -8  16   -1.93    4.16
   7   8  16   -0.54    2.16
   7  -8  16    0.46    3.96
  -7  -8  16   -2.82    5.27
   7  -8  16   10.06    7.68
   7  -8 -16   -6.27    4.52
   7  -8  16   -0.40    3.60
  -8  -8  16  120.95   17.61
   8   8  16  174.83   21.93
   8  -8  16  133.46   19.51
  -8  -8  16  142.95   20.27
   8  -8  16  123.87   19.09
   8  -8 -16  142.27   19.58
  -9  -8  16    9.74    4.37
   9   8  16    8.56    3.99
   9  -8  16    5.39    4.84
  -9  -8  16   -6.31    7.12
   9  -8  16   -0.74    3.30
   9  -8 -16    0.53    1.28
  10  -8  16  271.25   23.28
 -10  -8  16  176.71   19.49
   0  -9  16   -7.18    6.14
   0  -9  16    3.31    7.50
   0   9  16    4.66    1.92
   0  -9 -16   -2.63    4.95
   1  -9  16   44.06   17.82
   1  -9  16   65.17   23.96
  -1  -9  16   40.41   19.22
  -1   9  16   43.57   11.59
   1   9  16   44.17   12.79
   1  -9 -16   26.60    9.62
  -1  -9 -16   20.73    8.41
  -1  -9  16   39.23   15.02
   2  -9  16   91.43   26.65
  -2  -9  16   61.83   21.40
   2   9  16   60.68   14.74
   2  -9 -16   51.78   13.13
  -2  -9 -16   52.68   14.26
  -2  -9  16   19.98    9.05
   3  -9  16   69.13   23.99
  -3  -9  16   56.59   17.33
   3   9  16   37.13   10.88
   3  -9 -16   42.56   11.28
  -3  -9 -16   36.75   11.93
  -3  -9  16   -2.43    6.89
  -4  -9  16  135.90   23.36
   4   9  16  139.50   22.15
  -4  -9  16   79.00   19.00
   4  -9 -16  112.90   18.86
  -5  -9  16   89.53   17.53
   5   9  16  102.85   18.11
   5  -9  16   99.82   16.14
  -5  -9  16   58.50   16.70
   5  -9 -16   82.57   15.61
  -6  -9  16  136.03   20.44
   6   9  16  119.37   19.55
   6  -9  16  150.59   19.88
  -6  -9  16  130.49   20.73
   6  -9 -16  132.47   19.54
   6  -9  16  154.81   33.63
  -7  -9  16   44.56   10.84
   7   9  16   43.34   10.93
   7  -9  16   44.62   10.29
  -7  -9  16   46.11   11.01
   7  -9 -16   47.82   12.02
   7  -9  16   42.79   14.08
  -8  -9  16   65.71   12.01
   8   9  16   88.34   12.99
   8  -9  16   77.42   13.59
  -8  -9  16  104.22   15.04
   8  -9 -16   75.78   13.29
  -9  -9  16   26.31    6.47
   0 -10  16  598.39   56.98
   0 -10 -16  521.59   40.41
   1 -10  16    0.50    5.31
  -1 -10  16    4.94    4.37
   1 -10 -16    8.85    4.57
  -1 -10 -16   -3.17    6.66
  -1 -10  16   11.50    8.96
  -2 -10  16  602.61   59.72
  -2 -10  16  178.32   32.25
   2 -10  16  628.09   65.99
   2 -10 -16  371.03   33.25
  -2 -10 -16  382.75   36.07
   3 -10  16   -7.82   11.53
  -3 -10  16   -3.39    3.81
   3 -10 -16   -0.86    2.05
  -3 -10 -16    0.31    2.48
  -3 -10  16   -2.09    3.79
  -4 -10  16  129.90   22.34
  -4 -10  16  102.27   18.27
   4 -10 -16  123.40   18.70
  -4 -10 -16  105.64   20.02
   5 -10  16   -9.15   13.35
  -5 -10  16    7.15    5.78
   5 -10 -16   -1.84    3.71
  -5 -10 -16   -6.59    4.30
   6 -10  16    9.51    7.35
  -6 -10  16    4.34    3.73
   6 -10 -16   10.18    5.03
  -6 -10 -16   21.17    9.66
  -7 -10  16    1.09    2.68
  -7 -10  16   -2.15    1.58
   7 -10 -16    1.55    1.71
  -8 -10 -16  302.47   25.02
   0 -11  16   -6.69    8.17
   0 -11  16  -10.88    9.78
   0 -11 -16   -0.24    2.17
   1 -11  16   34.23   14.61
  -1 -11  16   10.63    9.73
  -1 -11 -16   12.93    4.06
   1 -11 -16   15.74    6.24
  -1 -11 -16   18.16    8.44
  -1 -11  16   22.53    9.98
   2 -11  16    1.68    6.89
  -2 -11  16    1.73    5.52
  -2 -11 -16    2.27    3.23
   2 -11 -16    2.02    3.42
  -2 -11 -16    6.27    5.63
  -2 -11  16    8.04    5.17
   3 -11  16   35.48   19.29
  -3 -11  16   27.40   11.48
  -3 -11  16   23.85    8.94
  -3 -11 -16   30.54    8.30
   3 -11 -16   44.94   11.28
  -3 -11 -16   32.99   10.63
   4 -11  16   21.48   14.51
  -4 -11  16   26.86    9.78
  -4 -11  16   17.89    6.99
  -4 -11 -16   15.50    5.82
   4 -11 -16   22.24    7.89
  -4 -11 -16    9.12    5.24
  -5 -11  16   94.28   18.36
   5 -11  16  154.00   30.02
   5 -11 -16  105.67   16.90
  -5 -11 -16  100.06   17.71
  -6 -11  16   36.59    8.79
   6 -11 -16   36.17    9.88
  -6 -11 -16   38.79   10.48
   6 -11  16   50.23   16.07
   0 -12 -16  421.39   30.50
   0 -12 -16  460.92   37.10
  -1 -12  16    3.70    7.14
  -1 -12  16   -1.88    2.14
   1 -12 -16   -0.46    2.34
  -1 -12 -16   -4.71    3.04
   1 -12 -16    1.32    3.69
  -1 -12 -16    0.54    2.05
  -1 -12  16   -4.77    5.16
   1 -12  16   -9.59    6.75
  -2 -12  16  443.09   46.33
  -2 -12  16  327.63   31.23
   2 -12 -16  280.00   25.09
  -2 -12 -16  280.60   24.58
  -2 -12  16  125.97   17.85
   2 -12  16  408.50   49.90
   2 -12 -16  291.73   28.13
  -2 -12 -16  306.05   30.70
   3 -12  16    1.63    3.69
  -3 -12  16   14.43    6.91
  -3 -12  16   12.07    5.63
   3 -12 -16    6.29    2.72
  -3 -12 -16    8.41    5.21
  -4 -12  16  123.92   17.88
   4 -12  16  109.00   27.21
   4 -12 -16   75.74   13.62
  -4 -12 -16   83.45   14.81
  -5 -12  16    3.78    2.98
   0 -13  16   -5.02    4.14
   0   0  17   -5.35    5.60
   0   0  17    4.64    3.59
  -1   0  17   -4.13    4.48
   1   0  17   -4.23    6.50
  -1   0  17   -7.61    6.60
   1   0  17   -0.56    3.65
   2   0  17  136.62   21.08
  -2   0  17  116.30   19.20
  -2   0  17  118.05   20.18
   2   0  17   95.27   17.88
  -3   0  17   -8.45    6.86
   3   0  17    6.81    6.19
  -3   0  17   -2.76    4.16
   3   0  17    2.27    5.83
  -4   0  17  985.58   58.83
   4   0  17  956.37   56.36
   4   0  17  950.94   59.74
  -4   0  17  924.76   62.37
  -5   0  17    1.93    4.91
   5   0  17    5.01    6.17
   5   0  17    2.30    4.25
   5   0  17   -1.17    4.73
  -5   0  17   13.05    8.41
  -6   0  17  760.45   52.13
   6   0  17  856.29   54.88
   6   0  17  739.58   52.46
  -6   0  17  897.50   60.92
   6   0  17  721.14   51.78
   7   0  17    2.96    4.84
   7   0  17    6.40    7.70
  -7   0  17   -4.92    7.77
   7   0  17    4.86    3.79
   7   0 -17    4.84    7.38
   8   0  17  265.37   30.81
   8   0  17  450.44   38.24
  -8   0  17  325.89   34.79
   8   0  17  421.56   38.19
   8   0 -17  395.91   37.34
   9   0  17    1.85    2.79
   9   0  17   -5.54    6.28
   9   0  17   -1.44    4.60
   9   0 -17    5.28    4.96
  10   0  17  206.74   23.64
  10   0 -17  182.39   21.88
  10   0  17  184.61   21.78
  11   0  17   -2.24    3.48
  11   0  17    2.31    1.58
  11   0 -17   -1.32    2.58
   0  -1  17  246.83   28.54
   0   1  17  214.33   25.92
   0   1  17  223.61   28.70
   0  -1  17  217.51   27.43
  -1  -1  17  394.38   35.55
  -1   1  17  389.50   35.56
   1  -1  17  410.84   35.82
   1   1  17  442.37   38.16
  -1   1  17  398.35   38.15
  -1  -1  17  402.88   38.22
   1   1  17  416.03   38.01
   1  -1  17  390.97   36.57
  -2  -1  17  213.45   26.79
  -2   1  17  190.46   25.05
   2  -1  17  197.19   24.94
   2   1  17  214.96   26.38
  -2   1  17  200.66   27.52
  -2  -1  17  198.95   26.94
   2   1  17  191.85   27.00
   2  -1  17  197.27   26.24
  -3  -1  17  208.53   25.69
  -3   1  17  190.45   25.70
   3  -1  17  221.89   26.16
   3   1  17  184.53   25.50
   3  -1  17  189.50   25.85
  -3   1  17  184.11   28.34
  -3  -1  17  206.68   27.96
   3   1  17  192.75   27.72
   3  -1  17  211.88   28.51
  -4  -1  17   13.41    7.41
  -4   1  17   36.27   11.60
   4  -1  17   32.35   10.92
   4  -1  17   27.04   10.16
   4   1  17   47.62   13.61
  -4   1  17   35.39   12.37
  -4  -1  17   15.53    8.20
   4   1  17    6.47    7.49
   4  -1  17   24.01   11.76
  -5  -1  17   -1.11    5.65
  -5   1  17    9.48    5.41
   5   1  17    1.78    5.10
   5  -1  17    1.58    2.69
   5  -1  17    1.19    2.46
   5   1  17    6.98    7.13
   5  -1  17    1.31    4.59
  -5   1  17    5.40    3.86
  -5  -1  17   -6.56    6.89
   5   1  17   -3.50    4.27
  -6   1  17    2.31    3.96
   6  -1  17    3.11    6.70
   6  -1  17   -5.68    6.32
   6   1  17   -0.19    4.57
   6   1  17   -3.44    3.56
  -6   1  17    3.08    5.04
  -6  -1  17    1.57    6.62
   6  -1  17    0.95    3.65
   7  -1  17   14.90    6.12
   7   1  17   22.79    9.00
  -7  -1  17   10.59    5.31
   7   1  17   22.59    9.36
   7  -1  17   20.34    8.75
   7  -1 -17    8.61    4.29
   7   1 -17   13.37    7.47
   8  -1  17   16.46    6.51
   8   1  17    4.99    5.22
  -8  -1  17    4.49    3.41
   8   1  17    5.81    3.70
   8  -1  17   -0.16    4.06
   8  -1 -17   10.36    7.29
   8   1 -17   11.55    6.40
   9   1  17  179.95   24.93
   9  -1  17  166.20   21.90
  -9  -1  17  146.81   23.86
   9   1 -17  203.24   24.13
   9  -1 -17  182.10   23.36
   9   1  17  176.34   23.28
   9  -1  17  174.98   23.48
  10  -1  17   42.81    9.85
  10   1  17   64.37   12.98
 -10  -1  17   35.70    9.59
  10   1  17   42.90    9.82
  10  -1  17   61.00   12.38
  10   1 -17   37.90   10.42
  10  -1 -17   69.07   13.50
  11   1  17  205.54   21.06
  11   1 -17  191.88   19.64
  11  -1 -17  187.76   19.85
  11   1  17  150.73   16.78
  11  -1  17  173.50   19.76
   0   2  17   -2.07    4.34
   0  -2  17  -10.94    6.54
  -1   2  17   -6.31    6.78
   1   2  17    8.08    7.08
  -1  -2  17   -0.78    4.03
   1  -2  17   -5.31    4.75
  -2   2  17   37.95   11.83
   2   2  17   23.49   10.24
  -2   2  17   26.01    7.75
  -2  -2  17   38.52   12.29
   2  -2  17   50.38   13.36
  -3   2  17   24.17   10.40
   3   2  17   15.10    7.13
   3  -2  17   25.84   10.64
  -3   2  17   36.98   11.85
  -3  -2  17   33.99   10.93
   3  -2  17   12.26    8.15
  -4   2  17  414.39   38.62
   4   2  17  381.69   38.37
   4  -2  17  369.64   36.79
  -4   2  17  443.84   43.97
  -4  -2  17  493.03   43.78
   4  -2  17  348.89   39.70
  -5   2  17   33.72   11.96
   5  -2  17   22.54    7.69
   5   2  17   18.28    7.84
  -5   2  17   48.20   13.22
   5  -2  17   24.85    8.42
  -5  -2  17   49.40   15.51
  -6   2  17  426.36   38.75
   6   2  17  498.90   41.87
   6  -2  17  513.01   42.89
  -6   2  17  521.02   45.69
  -6  -2  17  366.13   44.04
   6  -2  17  437.83   39.72
   6  -2 -17  448.12   45.22
   7  -2  17   20.28    6.85
   7   2  17   22.46   10.53
  -7  -2  17   18.26   12.39
   7   2  17   26.37    9.96
   7  -2  17   48.17   12.89
   7  -2 -17   32.55   11.73
   7   2 -17   26.25   11.24
   8   2  17  218.91   27.02
   8  -2  17  229.29   27.89
  -8  -2  17  232.10   29.30
   8  -2 -17  233.23   29.31
   8   2 -17  207.84   26.20
   8   2  17  200.49   25.42
   8  -2  17  197.42   26.07
   9  -2  17   17.55    7.92
   9   2  17   15.33    7.11
  -9  -2  17   10.58    5.96
   9   2  17    5.12    1.95
   9  -2  17   22.35    8.64
   9   2 -17    3.61    2.37
   9  -2 -17   15.04    5.99
  10   2  17  136.37   19.07
  10  -2  17   94.41   14.95
 -10  -2  17  114.86   17.01
  10   2 -17   78.62   14.83
  10  -2 -17  114.63   16.95
  10  -2  17  111.36   16.73
  11  -2  17   15.41    4.59
  11   2  17   19.32    5.04
  11  -2  17   22.74    7.64
  11  -2 -17   22.96    6.78
   0   3  17  277.62   30.08
   0  -3  17  259.56   30.70
  -1   3  17  167.57   23.36
   1   3  17  149.68   22.28
  -1  -3  17  170.51   24.16
   1  -3  17  151.35   22.70
  -2   3  17  297.76   31.27
   2   3  17  316.81   32.36
  -2  -3  17  323.13   33.84
   2  -3  17  329.18   33.57
   2  -3  17  290.82   56.99
  -3   3  17   40.17   11.12
   3   3  17   51.02   13.04
   3  -3  17   41.70   12.18
  -3  -3  17   56.91   14.05
   3  -3  17   45.14   11.45
   3  -3  17   29.11   15.95
  -4   3  17   43.12   11.73
   4  -3  17   39.16   11.80
   4   3  17   29.16   11.11
  -4  -3  17   49.60   13.99
   4  -3  17    8.46   10.97
   4  -3  17   23.37   15.64
  -5   3  17    3.57    6.30
   5  -3  17    5.11    5.44
   5   3  17    3.92    4.84
   5  -3  17   -3.85    5.93
  -5  -3  17   -6.02    6.67
   5  -3  17    4.67    3.55
   6   3 -17   -9.49    6.37
  -6   3  17   10.50    5.22
   6  -3  17   18.84    8.43
   6   3  17   19.20    7.69
  -6  -3  17   14.46    7.37
   6  -3  17   16.66    7.35
   6  -3 -17   22.88    9.78
   7  -3  17   11.52    5.40
   7   3  17   20.51   10.51
  -7  -3  17   -1.90    5.45
   7  -3  17    7.78    3.73
   7  -3 -17   20.23   10.13
   7   3 -17   -5.55    6.78
   8  -3  17   93.79   17.63
   8   3  17   89.59   17.57
  -8  -3  17   97.11   19.41
   8  -3  17  112.55   19.29
   8  -3 -17   94.16   18.94
   8   3 -17   61.26   15.68
   9  -3  17   72.32   15.47
   9   3  17   87.54   16.62
  -9  -3  17   89.50   16.26
   9  -3  17   83.57   14.79
   9   3 -17   69.41   13.08
   9  -3 -17   95.13   17.08
  10   3  17  257.64   25.78
  10  -3  17  194.02   22.73
 -10  -3  17  236.87   23.87
  10  -3 -17  231.60   25.04
  10  -3  17  209.08   24.38
  11   3  17  153.36   18.26
  11  -3  17  121.64   14.77
  11  -3 -17  155.50   17.57
  11  -3  17  131.06   16.18
   0   4  17   -4.68    6.85
   0  -4  17    1.15    5.22
   0  -4  17   -1.35    4.73
  -1   4  17   36.81   11.95
   1   4  17   19.09    7.96
  -1  -4  17   28.63    9.21
   1  -4  17   25.84    8.60
  -1  -4  17   22.44   14.38
   1  -4  17   39.63   20.34
  -2   4  17    9.78    6.11
   2   4  17    3.74    4.26
  -2  -4  17    6.78    2.73
   2  -4  17    0.47    5.13
   2  -4  17   -9.10   10.33
  -3   4  17  217.11   27.17
   3   4  17  239.86   29.32
   3  -4  17  202.75   26.27
  -3  -4  17  224.38   28.68
   3  -4  17  219.81   26.82
   3  -4  17  155.21   38.90
  -4   4  17   93.38   17.38
   4  -4  17   85.24   16.05
   4   4  17   92.35   18.58
  -4  -4  17  104.73   19.59
   4  -4  17   62.30   20.54
   4  -4  17   23.25   25.25
  -5   4  17  168.17   25.66
   5   4  17  148.33   25.48
   5  -4  17  171.07   24.07
  -5  -4  17  182.63   29.50
   5  -4  17  104.91   25.71
   5  -4  17  141.77   21.50
   5  -4 -17  172.69   27.01
   5  -4  17  125.40   27.93
  -6   4  17  162.37   24.42
   6   4  17  186.39   25.57
   6  -4  17  177.42   24.85
  -6  -4  17  170.32   27.38
   6  -4  17  206.82   25.19
   6  -4 -17  208.92   29.38
   7   4  17  172.61   24.75
   7  -4  17  162.47   23.01
  -7  -4  17  200.16   29.21
  -7  -4  17  155.14   27.00
   7  -4  17  196.61   25.96
   7  -4 -17  190.49   26.68
  -8  -4  17   14.65    6.30
   8  -4  17   27.88   11.07
   8   4  17   70.77   15.17
  -8  -4  17   49.88   12.51
   8  -4  17   54.21   13.03
   8  -4 -17   46.62   12.84
   9  -4  17   69.18   14.78
   9   4  17   86.47   16.39
  -9  -4  17   73.87   15.78
   9  -4  17   98.14   16.37
   9  -4 -17   89.24   16.46
  10  -4  17   16.28    7.42
  10   4  17   29.14    7.83
 -10  -4  17   27.15    8.04
  10  -4  17   27.23    8.36
  10  -4 -17   10.81    1.82
  11  -4  17    0.63    2.03
  11   4  17    8.87    4.83
  11  -4  17    5.15    2.63
   0   5  17  570.12   42.72
   0  -5  17  624.16   45.75
   0  -5 -17  583.32   43.17
  -1   5  17   10.23    6.19
   1   5  17    8.27    6.77
  -1  -5  17   -2.89    6.04
   1  -5  17    1.09    4.55
   1  -5 -17   -3.32    4.67
  -1  -5  17   10.23    9.59
  -1  -5 -17    3.21    1.95
   1  -5  17   -2.89    5.34
  -2   5  17  668.17   46.09
   2   5  17  685.74   48.02
  -2  -5  17  726.20   50.13
   2  -5  17  671.28   47.68
   2  -5  17  739.74   89.34
   2  -5 -17  740.38   47.00
  -2  -5 -17  667.84   46.67
  -3   5  17   -0.27    3.51
   3   5  17    4.93    5.44
   3  -5  17    1.64    4.35
  -3  -5  17   -2.74    5.62
   3  -5  17   -3.99    3.82
   3  -5 -17    1.52    4.98
   3  -5  17   -8.01   11.95
  -4   5  17  173.43   24.10
   4   5  17  176.98   24.98
   4  -5  17  173.64   23.70
  -4  -5  17  186.92   27.19
   4  -5  17  184.12   24.70
   4  -5 -17  165.83   22.23
   4  -5  17   80.99   39.08
  -5   5  17    4.72    6.01
   5  -5  17    2.77    7.23
   5   5  17    8.13    8.06
  -5  -5  17    4.99    8.01
   5  -5  17    0.16    4.04
   5  -5 -17    4.86    4.03
   5  -5 -17    2.66    3.96
   5  -5  17    8.89   13.15
  -6   5  17   -3.02    4.74
   6  -5  17   -1.36    4.56
   6   5  17   -4.30    6.94
   6  -5  17   -3.93    3.39
  -6  -5  17   -4.09    5.98
   6  -5  17   -2.03    6.17
   6  -5 -17   -0.82    5.01
   6  -5  17    9.56    8.57
  -7  -5  17   -2.61    5.25
   7  -5  17    4.78    2.79
   7   5  17   -2.69    4.77
  -7  -5  17   -5.74    8.31
  -7  -5  17   10.64    7.94
   7  -5  17   -7.37    5.11
   7  -5 -17   -2.37    4.69
  -8  -5  17  124.50   18.84
   8   5  17  154.70   22.78
   8  -5  17  157.90   21.69
  -8  -5  17  118.11   21.49
   8  -5 -17  166.08   22.56
   8  -5  17  166.39   22.27
   9  -5  17   -0.43    3.29
   9   5  17    6.33    7.72
  -9  -5  17   -4.26    6.50
   9  -5  17    0.07    2.84
   9  -5 -17   -5.30    5.13
  10   5  17  311.56   28.02
 -10  -5  17  362.32   27.69
  10  -5 -17  376.85   27.67
  10  -5  17  353.73   28.65
   0   6  17   -3.37    3.67
   0  -6  17    0.36    5.60
   0  -6 -17    4.73    4.48
  -1   6  17   16.77    5.81
   1   6  17   29.91    8.66
  -1  -6  17   21.01    6.20
   1  -6  17   13.72    6.37
   1  -6 -17   24.40    8.71
  -1  -6 -17   11.32    5.97
  -1  -6  17   20.35   12.05
   1  -6  17   23.73   14.45
  -2   6  17   13.84    6.93
   2   6  17   11.76    7.25
  -2  -6  17    9.44    5.19
   2  -6  17   18.56    8.18
   2  -6 -17    7.26    4.67
  -2  -6  17   -1.51    5.80
  -2  -6 -17    6.56    6.14
   2  -6  17   16.41   10.29
  -3   6  17  235.79   27.89
   3   6  17  225.84   27.60
   3  -6  17  215.33   25.86
  -3  -6  17  236.34   28.58
   3  -6  17  244.59   27.73
   3  -6  17  292.73   51.80
   3  -6 -17  212.29   24.87
  -4   6  17   23.42    9.53
   4   6  17   26.94   11.55
   4  -6  17   11.96    5.01
  -4  -6  17   19.78    8.79
   4  -6  17    9.27    6.03
   4  -6 -17   17.34    7.52
   4  -6 -17    6.98    2.63
   4  -6  17   31.07   16.17
  -5  -6  17  154.01   25.46
  -5   6  17  219.33   27.64
   5   6  17  260.51   30.55
   5  -6  17  230.47   26.77
  -5  -6  17  289.36   33.08
   5  -6  17  186.17   28.51
   5  -6 -17  252.04   33.85
   5  -6  17  192.09   43.10
   5  -6 -17  245.87   27.23
  -6  -6  17    5.29    3.30
   6  -6  17    5.38    4.56
   6   6  17   15.56    6.80
  -6  -6  17   11.52    6.62
  -6  -6  17   14.71    7.34
   6  -6  17   18.98    8.30
   6  -6 -17   21.32    8.35
   6  -6 -17   18.86    9.65
   6  -6  17    6.38    7.06
  -7  -6  17  235.33   26.35
   7   6  17  283.70   31.33
   7  -6  17  300.86   30.40
  -7  -6  17  276.22   31.61
   7  -6 -17  338.72   33.28
   7  -6  17  317.94   33.54
   7  -6 -17  319.64   29.60
  -8  -6  17   27.10    8.24
   8  -6  17   30.34   10.56
   8   6  17   24.55    9.55
  -8  -6  17   27.87   10.93
   8  -6  17   -0.73    4.71
   8  -6 -17   25.90    9.19
   9   6  17  126.07   17.95
   9  -6  17  115.22   17.31
  -9  -6  17  121.78   17.54
   9  -6 -17  120.33   16.55
   9  -6  17   73.39   16.17
  10  -6  17    0.81    3.22
  10   6  17   12.07    4.78
 -10  -6  17    6.45    4.19
  10  -6  17    3.03    4.46
   0   7  17  434.81   37.05
   0  -7  17  428.82   36.75
   0  -7  17  321.79   47.62
   0  -7 -17  423.27   36.15
  -1  -7  17   92.57   27.83
  -1   7  17   96.10   16.97
   1   7  17   94.46   17.44
  -1  -7  17  105.07   18.55
   1  -7  17  116.24   18.51
   1  -7 -17   88.45   16.55
  -1  -7 -17   82.78   16.25
  -1  -7  17   46.97   16.91
   1  -7  17  105.54   27.01
  -2  -7  17  409.67   52.30
  -2   7  17  345.36   33.24
   2   7  17  345.91   33.73
  -2  -7  17  355.05   34.07
   2  -7  17  334.15   31.55
   2  -7  17  382.54   55.64
   2  -7 -17  378.80   33.59
  -2  -7 -17  347.97   33.54
  -3  -7  17   24.59   11.23
  -3   7  17   43.82   12.65
   3   7  17   47.56   13.04
  -3  -7  17   23.56    8.83
   3  -7  17   37.49   11.02
   3  -7 -17   34.79    9.19
  -3  -7 -17   32.18   11.25
   3  -7  17   60.68   24.59
  -4  -7  17   87.77   20.48
  -4   7  17   87.98   16.48
   4   7  17  101.33   18.67
   4  -7  17   80.21   15.39
  -4  -7  17  109.70   19.41
   4  -7  17   89.74   16.51
   4  -7 -17   77.16   15.14
   4  -7  17   84.29   27.04
  -5   7  17   -0.57    5.04
  -5  -7  17   -6.87    5.13
   5   7  17   -2.41    4.83
   5  -7  17   -0.51    2.65
  -5  -7  17    1.04    3.24
  -5  -7  17   -1.00    2.36
   5  -7  17    9.03    8.06
   5  -7 -17   -1.86    2.76
   5  -7  17  -11.20   10.03
  -6  -7  17    0.33    3.23
   6   7  17    0.80    4.89
   6  -7  17    2.61    3.76
  -6  -7  17   -4.83    7.20
  -6  -7  17   -4.56    5.37
   6  -7  17   -3.52    2.80
   6  -7 -17   -0.38    2.81
   6  -7  17  -11.20   10.51
  -7  -7  17   -4.19    4.27
   7   7  17   -2.87    5.51
   7  -7  17   -1.82    4.85
  -7  -7  17   -5.46    6.48
   7  -7  17   11.18    4.92
   7  -7 -17   -1.77    4.42
  -8  -7  17  120.31   15.71
   8   7  17  144.19   19.60
   8  -7  17  122.65   17.92
  -8  -7  17  127.61   18.28
   8  -7  17   77.81   17.84
   9   7  17   43.10    9.30
   9  -7  17   21.14    7.87
  -9  -7  17   39.68    9.40
   9  -7  17   18.87    8.15
   0   8  17    8.22    5.54
   0  -8  17    3.61    2.60
   0  -8 -17   -0.15    2.80
  -1  -8  17   17.00   11.30
  -1   8  17   16.28    7.24
   1   8  17   15.71    8.32
  -1  -8  17    6.25    4.51
   1  -8  17    6.36    2.98
   1  -8 -17    4.50    2.21
  -1  -8 -17    4.03    3.81
  -1  -8  17   -1.07    4.93
   1  -8  17    5.65    6.61
  -2  -8  17   67.86   22.53
  -2   8  17   65.84   13.79
   2   8  17   49.98   12.03
  -2  -8  17   57.86   14.30
   2  -8  17   56.32   12.30
   2  -8 -17   43.99   11.38
  -2  -8 -17   38.89   11.04
  -2  -8  17   16.35    9.97
   2  -8  17   70.73   22.98
  -3  -8  17  102.37   24.27
  -3   8  17   73.03   14.15
   3   8  17   94.27   17.25
  -3  -8  17   75.21   15.18
   3  -8  17  102.46   16.30
   3  -8 -17   92.18   16.57
  -3  -8 -17   91.05   16.99
   3  -8  17  116.25   30.39
  -4  -8  17  184.36   26.88
  -4   8  17  148.04   21.44
   4   8  17  179.68   24.67
  -4  -8  17  180.01   23.97
   4  -8  17  191.81   23.33
   4  -8  17  242.53   43.04
   4  -8 -17  185.28   22.56
  -4  -8 -17  151.77   22.91
  -5  -8  17  125.14   19.98
   5   8  17  121.10   19.54
  -5  -8  17   98.58   20.23
  -5  -8  17  135.24   21.69
   5  -8  17  135.39   20.09
   5  -8 -17  108.83   17.38
   5  -8  17  103.12   30.37
  -6  -8  17  231.24   24.76
   6   8  17  242.42   27.11
   6  -8  17  221.13   24.10
  -6  -8  17  193.20   24.42
   6  -8  17  240.05   26.01
   6  -8 -17  195.89   22.74
  -7  -8  17  145.21   18.46
   7   8  17  159.11   20.03
   7  -8  17  162.00   20.06
  -7  -8  17  198.35   22.33
   7  -8  17  149.64   20.00
   7  -8 -17  166.00   20.57
  -8  -8  17  171.17   18.14
   8   8  17  228.48   21.64
   8  -8  17  200.67   21.42
  -8  -8  17  233.88   22.30
   8  -8  17  148.90   19.11
   0   9  17  166.33   22.74
   0  -9 -17  156.71   21.15
  -1  -9  17  313.62   43.21
  -1   9  17  187.06   23.72
   1   9  17  180.52   23.87
   1  -9 -17  169.87   21.93
  -1  -9 -17  170.05   22.57
  -1  -9  17   38.06   19.91
   1  -9  17  111.63   31.30
  -2  -9  17  120.96   25.60
  -2   9  17   81.85   16.00
   2   9  17   85.96   16.52
   2  -9 -17   62.72   13.25
  -2  -9 -17   64.95   14.21
   2  -9  17   72.92   22.38
  -3  -9  17   75.86   18.22
   3   9  17   79.58   14.58
   3  -9 -17   65.66   13.51
  -3  -9 -17   55.86   12.76
   3  -9  17   66.58   28.23
  -4  -9  17   15.43    6.78
   4   9  17   15.04    6.08
   4  -9 -17   10.32    4.78
  -4  -9 -17    8.76    5.74
   4  -9  17   11.43   10.74
  -5  -9  17   -3.28    2.71
   5   9  17    1.14    3.15
  -5  -9  17   -1.02    2.02
   5  -9 -17    9.76    5.97
  -5  -9 -17    7.93    3.82
   5  -9  17   -1.08    4.77
  -6  -9  17   -5.28    4.32
   6   9  17    3.46    3.72
  -6  -9  17   -3.23    4.26
   6  -9 -17   -6.20    3.27
  -6  -9 -17   -5.60    4.07
   6  -9  17   -0.13    3.19
  -7  -9  17   12.16    5.23
  -7  -9  17    6.88    3.50
   7  -9 -17   20.15    7.71
  -7  -9 -17   23.18    8.37
   0 -10  17   -6.67    8.87
   0 -10 -17   -0.45    2.44
   0 -10  17    3.91    5.35
  -1 -10  17   13.40    9.80
   1 -10 -17    2.45    3.06
  -1 -10 -17   -1.48    4.00
  -1 -10  17    1.66    3.34
   1 -10  17   15.78   10.79
  -2 -10  17  127.76   26.04
   2 -10 -17  101.09   16.50
  -2 -10 -17   94.15   16.94
  -2 -10  17   13.58    5.33
   2 -10  17   34.60   21.83
  -3 -10  17  -11.88    8.36
  -3 -10  17    1.50    2.98
   3 -10 -17   -3.91    3.79
  -3 -10 -17   -0.67    5.49
   3 -10  17  -10.18   10.87
  -4 -10  17  286.80   31.76
   4 -10 -17  275.53   26.36
  -4 -10 -17  267.77   28.12
  -5 -10  17    0.06    2.77
   5 -10 -17    3.89    4.12
  -5 -10 -17    6.80    5.77
   5 -10  17   -2.31    6.55
  -6 -10  17  428.46   29.26
   6 -10 -17  433.54   31.24
  -6 -10 -17  473.11   33.22
   0 -11 -17   19.27    7.78
   0 -11  17    8.02    5.72
  -1 -11  17  120.08   24.88
   1 -11 -17  125.63   18.41
  -1 -11 -17  145.89   20.24
  -1 -11  17   24.81    9.61
   1 -11  17   62.96   20.99
  -2 -11  17    0.94    5.90
  -2 -11  17    2.79    3.00
   2 -11 -17   -0.85    3.14
  -2 -11 -17    5.91    5.50
   2 -11  17    2.12    4.44
  -3 -11  17   75.39   16.37
  -3 -11  17   52.76   11.50
   3 -11 -17   53.10   11.47
  -3 -11 -17   57.93   12.41
   3 -11  17   24.02   16.66
  -4 -11  17    4.70    4.06
   4 -11 -17    2.30    3.62
  -4 -11 -17    2.98    3.00
   4 -11  17   -1.56    4.11
   0   0  18  160.74   22.73
   0   0  18  160.86   23.11
  -1   0  18   -4.51    3.67
   1   0  18    4.63    5.21
  -1   0  18   -6.16    6.60
   1   0  18   -0.95    2.90
  -2   0  18   39.92   11.83
   2   0  18   64.31   14.45
  -2   0  18   67.72   15.61
   2   0  18   63.92   13.87
  -3   0  18   -1.69    3.64
   3   0  18    4.78    5.18
  -3   0  18   -6.88    7.11
   3   0  18   -3.97    3.96
  -4   0  18   73.84   16.22
   4   0  18   74.58   16.30
  -4   0  18   67.75   15.91
   4   0  18   68.50   16.59
  -5   0  18    6.47    6.80
   5   0  18  -11.42    8.01
  -5   0  18   11.81    8.11
   5   0  18    0.19    2.44
   6   0  18   16.35    4.07
  -6   0  18    1.83    2.47
   6   0  18   13.47    8.49
   6   0 -18    3.73    4.66
   7   0  18   -0.54    6.24
   7   0  18    4.77    2.89
   7   0 -18   -3.14    4.45
   8   0  18   -0.42    2.30
  -8   0  18    3.64    4.16
   8   0  18    1.40    4.73
   8   0 -18    0.59    3.42
   9   0  18    8.81    6.00
   9   0  18    2.19    3.16
   9   0 -18   -6.55    5.95
  10   0  18    1.65    2.24
  10   0 -18   -3.16    1.75
   0  -1  18    1.88    3.02
   0   1  18   -0.38    4.72
   0   1  18   -6.83    4.64
   0  -1  18   -2.24    5.88
  -1  -1  18   43.07   10.51
  -1   1  18   56.35   13.99
   1  -1  18   57.43   12.97
   1   1  18   45.05   12.79
  -1   1  18   58.43   14.64
  -1  -1  18   49.54   13.84
   1   1  18   39.22   10.30
   1  -1  18   47.89   14.03
  -2  -1  18   -4.21    6.12
  -2   1  18    8.47    9.04
   2  -1  18    4.05    7.19
   2   1  18    1.44    4.31
  -2   1  18    9.99    7.67
  -2  -1  18    1.81    4.01
   2   1  18    1.47    5.56
   2  -1  18    2.19    4.36
  -3  -1  18  428.97   37.37
  -3   1  18  440.34   38.58
   3  -1  18  438.49   35.92
   3   1  18  395.73   34.90
  -3   1  18  436.66   40.82
  -3  -1  18  453.75   40.90
   3   1  18  389.96   36.71
   3  -1  18  433.92   37.92
  -4  -1  18   14.40    8.40
  -4   1  18   14.65    8.29
   4   1  18    2.95    3.57
  -4   1  18    2.15    3.46
  -4  -1  18    2.94    4.70
   4   1  18    9.55    5.01
   4  -1  18    7.75    5.93
  -5   1  18  928.02   56.71
   5   1  18 1048.40   57.88
  -5   1  18 1000.24   65.04
  -5  -1  18 1013.64   65.65
   5   1  18 1125.17   61.69
   5  -1  18 1070.63   60.15
   6  -1  18   16.47    8.20
   6   1  18    4.72    5.76
  -6   1  18   12.03    7.94
  -6  -1  18    1.51    6.32
   6   1  18    0.65    3.06
   6  -1  18   -0.20    3.20
   6  -1 -18   -1.03    4.27
   6   1 -18    0.31    3.48
   7   1  18  774.43   48.91
   7  -1  18  747.02   47.72
   7   1  18  767.20   52.75
   7  -1 -18  724.49   50.67
   7   1 -18  657.03   47.45
   8  -1  18    2.09    3.25
   8   1  18    8.15    6.87
  -8  -1  18    3.78    4.13
   8   1  18    3.57    3.55
   8  -1  18   -2.48    2.66
   8  -1 -18    0.82    3.57
   8   1 -18    2.51    3.30
  -9  -1  18  168.47   20.38
   9   1 -18  230.87   24.68
   9  -1 -18  247.69   26.96
   9   1  18  178.00   22.04
   9  -1  18  175.62   23.52
  10   1  18   11.39    6.54
  10  -1  18   -3.31    2.82
  10   1 -18    3.54    3.80
  10  -1 -18   11.92    5.48
   0   2  18    2.45    4.72
   0  -2  18   -4.18    4.01
  -1   2  18  298.41   30.97
   1   2  18  277.46   29.38
  -1  -2  18  264.98   30.65
   1  -2  18  296.85   31.55
  -2   2  18    2.71    4.11
   2   2  18    2.96    2.91
  -2  -2  18    3.73    5.28
   2  -2  18    8.04    3.93
  -3   2  18  104.68   19.15
   3   2  18  102.28   17.61
  -3  -2  18  116.99   20.01
   3  -2  18  119.09   19.49
  -4   2  18   -2.65    6.43
   4   2  18    2.26    4.55
  -4  -2  18   -3.69    6.89
   4  -2  18    2.16    4.60
  -5   2  18    6.01    3.44
   5  -2  18   17.94    8.49
   5   2  18   12.55    6.17
  -5  -2  18   21.57    9.26
   5  -2  18   19.74    7.05
   6   2  18   -2.20    3.79
   6  -2  18    1.65    4.72
  -6  -2  18   -8.48    5.61
   6  -2  18    1.83    4.90
   6  -2 -18   -4.79    4.87
   6   2 -18   12.72    7.00
   7  -2  18    9.25    2.49
   7   2  18   25.37    9.08
  -7  -2  18   16.43    9.51
   7  -2  18    7.26    6.13
   7  -2 -18    7.60    4.70
   7   2 -18   18.01    7.24
   8  -2  18   -2.70    3.68
  -8  -2  18   -7.52    6.56
   8  -2  18   -2.89    3.94
   8  -2 -18    1.32    2.61
   8   2 -18   -1.22    2.25
   9   2  18  166.53   20.84
   9  -2  18  144.93   18.63
  -9  -2  18  148.99   19.03
   9   2 -18  112.68   16.28
   9  -2 -18  153.81   20.74
   9  -2  18   92.50   16.13
  10   2  18   -3.49    3.10
  10  -2  18   -7.25    4.11
  10  -2 -18   -4.73    4.82
   0   3  18   -2.55    2.71
   0  -3  18   -3.63    5.62
  -1   3  18   13.25    6.68
   1   3  18   10.91    6.21
  -1  -3  18    3.76    4.49
   1  -3  18    8.22    6.47
  -2   3  18   17.20    9.29
   2   3  18   13.23    5.81
  -2  -3  18   10.08    6.23
   2  -3  18   13.07    6.68
  -3   3  18  178.98   24.48
   3   3  18  186.67   24.61
  -3  -3  18  179.78   25.57
   3  -3  18  189.95   24.85
  -4   3  18   11.79    7.07
   4   3  18    1.15    5.74
  -4  -3  18   -2.90    5.49
   4  -3  18    1.32    4.97
  -5   3  18  393.33   36.85
   5   3  18  477.29   39.67
   5  -3  18  400.50   36.20
  -5  -3  18  516.86   43.55
   5  -3  18  436.05   40.63
   6   3  18    3.17    4.73
   6  -3  18    0.34    3.33
  -6  -3  18   -7.39    6.75
   6  -3  18    5.25    2.43
   6  -3 -18    4.94    5.20
   6   3 -18  -11.28    3.03
   7   3  18  233.60   27.64
   7  -3  18  193.68   24.72
  -7  -3  18  221.60   30.01
   7  -3  18  234.56   29.20
   7  -3 -18  205.00   28.40
  -8  -3  18   -2.92    2.45
   8  -3  18   -2.71    4.95
   8   3  18    1.52    3.30
  -8  -3  18    5.46    4.55
   8   3 -18   -0.25    2.69
   8  -3 -18   -0.54    2.18
   9   3  18  154.30   19.86
   9  -3  18  115.52   16.40
  -9  -3  18  136.34   18.12
   9  -3 -18  148.66   18.89
   9  -3  18  114.92   18.11
  10   3  18    5.63    3.94
  10  -3  18   -0.81    2.64
  10  -3 -18   -1.06    1.55
   0   4  18   11.13    6.36
   0  -4  18   19.21    9.38
  -1   4  18  644.40   45.00
   1   4  18  642.08   44.86
  -1  -4  18  671.44   47.36
   1  -4  18  683.19   46.65
  -2   4  18   10.75    6.94
   2   4  18    9.18    5.46
  -2  -4  18    4.18    4.42
   2  -4  18    5.45    6.12
  -3   4  18  237.59   27.72
   3   4  18  179.94   24.39
  -3  -4  18  249.27   29.26
   3  -4  18  210.09   25.61
  -4   4  18   -0.92    2.99
   4   4  18    5.23    6.26
  -4  -4  18   -5.41    6.97
   4  -4  18  -12.94    8.13
   5   4 -18   -5.74    5.66
  -5   4  18    6.15    5.40
   5  -4  18    8.57    5.03
   5   4  18   21.69   11.85
  -5  -4  18   21.62    9.90
   5  -4  18   19.28    9.34
   5  -4 -18   10.13    6.52
   6   4  18    1.66    3.98
   6  -4  18   -2.70    5.44
  -6  -4  18    1.60    4.69
   6  -4  18    8.70    7.13
   6  -4 -18    2.65    4.47
  -7  -4  18   39.48   10.93
   7   4  18   83.51   16.08
   7  -4  18   63.03   13.19
  -7  -4  18   73.29   17.15
   7  -4 -18  110.12   18.92
   7  -4  18   78.07   17.48
  -8  -4  18   -5.46    3.92
   8   4  18  -13.96    7.72
   8  -4  18   12.93    5.68
  -8  -4  18    5.98    4.49
   8  -4  18   13.15    4.37
   8  -4 -18   -1.34    3.69
   9   4  18  527.60   34.78
  -9  -4  18  537.74   34.82
   9  -4 -18  531.27   34.23
  10  -4  18   -4.61    4.26
   0   5  18   -0.90    5.11
   0  -5  18    4.28    3.88
   0  -5 -18   -3.57    5.08
  -1   5  18    4.70    3.27
   1   5  18    3.54    3.84
  -1  -5  18   10.26    8.38
   1  -5  18    6.32    5.78
   1  -5  18    1.95    7.85
   1  -5 -18    5.38    2.45
  -1  -5 -18    5.88    4.28
  -2   5  18   14.86    5.60
   2   5  18   12.88    6.67
  -2  -5  18   18.75    7.91
   2  -5  18   13.33    7.83
   2  -5  18    8.52    5.38
  -2  -5 -18    9.83    5.30
  -3   5  18    5.77    6.10
   3   5  18    5.45    3.42
  -3  -5  18  -10.82    5.95
   3  -5  18    7.06    4.66
   3  -5  18   -0.24   10.67
  -3  -5 -18    7.25    2.74
  -4   5  18   -2.00    3.43
   4   5  18   -2.61    6.60
  -4  -5  18    6.79    6.36
   4  -5  18    1.01    3.93
   4  -5  18    5.56    9.09
  -4  -5 -18    1.52    4.55
   4  -5 -18   13.16    6.80
  -5   5  18   11.44    5.85
   5   5  18   17.73    7.13
   5  -5  18   12.46    6.99
  -5  -5  18   14.26    5.99
   5  -5  18    1.50    4.65
   5  -5 -18    8.78    7.01
  -6  -5  18    0.92    5.17
   6   5  18    2.89    4.80
   6  -5  18   16.51    9.36
  -6  -5  18    3.86    6.71
  -6  -5  18    4.43    4.22
   6  -5  18    4.37    4.29
   6  -5 -18   -4.60    6.45
  -7  -5  18   -0.46    1.50
   7   5  18   -0.46    3.49
   7  -5  18   -2.42    3.25
  -7  -5  18    1.60    4.01
   7  -5  18    5.72    6.02
   7  -5 -18    6.04    6.08
  -8  -5  18    3.56    1.93
   8   5  18    1.81    3.95
   8  -5  18   -2.04    3.85
  -8  -5  18    0.37    2.98
   8  -5  18    4.82    4.75
   8  -5 -18    6.92    3.68
   9  -5  18    5.11    3.77
   9   5  18    7.89    4.61
  -9  -5  18    2.41    1.73
   9  -5  18   -3.75    4.10
   9  -5 -18    3.84    2.52
   0   6  18   63.22   14.00
   0  -6  18   57.35   13.24
   0  -6 -18   53.94   11.76
   0  -6  18   14.06    9.28
   1  -6  18 1545.76  109.00
  -1   6  18 1133.21   59.04
   1   6  18 1076.30   58.02
  -1  -6  18 1138.34   59.14
   1  -6  18 1028.41   55.54
   1  -6  18  684.62   76.66
   1  -6 -18 1124.20   55.09
  -1  -6 -18 1100.25   55.77
  -2   6  18    7.90    5.38
   2   6  18   11.70    4.68
  -2  -6  18    8.44    6.04
   2  -6  18    8.96    5.45
   2  -6 -18    6.04    4.23
  -2  -6 -18   12.29    6.46
   2  -6  18   -1.22   10.05
  -3  -6  18  335.11   43.71
  -3   6  18  426.30   36.15
   3   6  18  413.07   35.93
  -3  -6  18  433.97   37.55
   3  -6  18  381.30   34.19
   3  -6 -18  422.39   32.84
  -3  -6 -18  423.96   35.04
  -4  -6  18   11.66    8.58
  -4   6  18   13.95    7.59
   4   6  18   14.75    7.14
  -4  -6  18    9.94    8.13
   4  -6  18    3.98    5.10
   4  -6 -18    7.62    4.28
   4  -6 -18    7.85    6.90
   4  -6  18    3.57    7.77
  -4  -6 -18   10.85    5.87
  -5  -6  18    2.18    3.95
   5   6  18   24.03    9.99
  -5  -6  18    3.92    6.60
  -5  -6  18    9.40    6.38
   5  -6  18   18.82    7.02
   5  -6  18   -5.67    8.20
   5  -6 -18   24.19    7.85
   5  -6 -18   14.19    9.48
  -5  -6 -18   11.77    4.92
  -6  -6  18   14.46    6.89
   6   6  18   12.12    5.97
  -6  -6  18    2.01    3.18
   6  -6  18   13.92    7.98
   6  -6 -18   18.70    7.46
  -7  -6  18   53.27   10.65
   7   6  18   54.22   11.61
   7  -6  18   60.31   12.76
  -7  -6  18   58.66   13.83
   7  -6  18   52.07   13.06
   7  -6 -18   61.78   12.80
   8   6  18   13.12    6.37
   8  -6  18    7.33    4.54
  -8  -6  18   -0.19    3.80
   8  -6  18   10.81    6.35
   8  -6 -18   10.03    5.32
   0  -7  18    3.98    8.35
   0   7  18    6.61    4.60
   0  -7  18    1.38    2.57
   0  -7 -18   -3.83    4.75
   0  -7  18   -0.02    6.05
   1  -7  18   94.46   23.45
  -1  -7  18   31.24   17.39
  -1   7  18   35.66    9.62
   1   7  18   60.07   13.86
  -1  -7  18   38.91   11.13
   1  -7  18   41.22   11.49
  -1  -7  18   -4.75    6.90
   1  -7 -18   42.64   10.35
  -1  -7 -18   38.51   10.60
   1  -7  18   10.32    7.49
  -2  -7  18   -1.89    7.18
  -2   7  18    9.12    5.74
   2   7  18    3.72    4.55
  -2  -7  18   19.65    9.20
   2  -7  18   11.46    7.02
   2  -7 -18   12.21    5.94
  -2  -7 -18    1.94    3.92
   2  -7  18   -0.62    8.35
  -3  -7  18  116.77   21.97
  -3   7  18   78.69   15.77
   3   7  18   89.25   16.27
  -3  -7  18  108.94   18.10
   3  -7  18   78.53   15.38
   3  -7 -18   87.83   14.92
  -3  -7 -18   92.85   16.46
   3  -7  18   39.75   17.77
  -4  -7  18    4.83    7.25
  -4   7  18   -2.80    5.88
   4   7  18    4.99    3.50
  -4  -7  18    2.26    5.52
  -4  -7  18   -3.42    5.08
   4  -7  18    9.02    6.19
   4  -7 -18    0.81    4.41
   4  -7  18    5.84    7.17
  -4  -7 -18    3.94    5.15
  -5  -7  18  116.31   18.70
   5   7  18  118.44   18.62
  -5  -7  18   76.42   16.28
  -5  -7  18  119.88   19.04
   5  -7  18  120.60   18.52
   5  -7 -18  111.17   16.46
  -5  -7 -18   94.19   16.49
  -6  -7  18   -1.06    1.82
   6   7  18    1.26    4.49
  -6  -7  18    8.25    6.33
   6  -7  18   -1.06    2.98
   6  -7 -18   -2.06    2.15
  -6  -7 -18    6.00    3.72
  -7  -7  18  135.11   16.71
   7   7  18  160.36   19.02
  -7  -7  18  120.17   18.27
   7  -7  18  139.69   19.02
  -7  -7 -18  149.80   18.86
   0  -8  18    5.39    9.09
   0   8  18    6.29    4.38
   0  -8  18    4.73    4.75
   0  -8 -18    0.51    4.46
   0  -8  18   -8.99   10.60
  -1  -8  18  594.85   57.21
  -1   8  18  400.19   33.77
   1   8  18  397.26   34.19
  -1  -8  18  362.33   31.64
   1  -8  18  381.41   31.54
   1  -8 -18  381.82   31.72
  -1  -8 -18  370.12   31.98
   1  -8  18   34.60   29.25
  -2  -8  18   13.03    7.85
  -2   8  18    5.21    2.61
   2   8  18    4.51    2.36
  -2  -8  18    3.64    4.93
   2  -8  18    3.90    2.29
   2  -8 -18   11.70    5.58
  -2  -8 -18    9.66    4.24
   2  -8  18    5.91    8.57
  -3  -8  18  222.20   29.65
  -3   8  18  160.25   21.48
   3   8  18  197.43   24.21
  -3  -8  18   17.05    9.83
  -3  -8  18  183.83   22.29
   3  -8  18  187.96   22.45
   3  -8 -18  133.73   18.35
  -3  -8 -18  139.91   19.64
   3  -8  18   36.88   25.16
  -4  -8  18   -4.72    3.18
   4   8  18   -5.88    2.43
  -4  -8  18    0.27    2.00
  -4  -8  18    0.98    4.16
   4  -8  18    0.45    4.09
   4  -8 -18    4.55    4.04
  -4  -8 -18    2.53    2.57
   4  -8  18    1.20    3.97
  -5  -8  18   -0.22    2.67
   5   8  18    2.59    1.74
  -5  -8  18   16.14    7.40
   5  -8  18   11.98    6.68
   5  -8 -18    3.58    1.64
   5  -8  18   -5.33    5.98
  -5  -8 -18   -2.36    2.46
  -6  -8  18    2.90    1.78
   6   8  18    7.64    4.09
  -6  -8  18    5.83    5.05
   6  -8  18   19.32    6.76
   6  -8 -18    8.16    4.83
  -6  -8 -18    3.85    2.73
   0  -9  18    0.79    4.93
   0   9  18   -0.14    4.66
   0  -9 -18    0.69    3.54
   0  -9  18    1.11    6.55
  -1  -9  18   63.83   18.54
  -1   9  18   65.77   13.70
   1   9  18   75.13   15.12
   1  -9 -18   62.24   12.26
  -1  -9 -18   63.62   12.87
   1  -9  18   10.11   10.02
  -2  -9  18    2.53    3.94
   2   9  18    5.10    5.59
   2  -9 -18    2.22    2.68
  -2  -9 -18   -1.03    2.59
   2  -9  18    9.29    9.60
  -3  -9  18  323.80   34.67
   3   9  18  345.30   29.71
   3  -9 -18  254.16   24.90
  -3  -9 -18  221.50   24.44
  -4  -9  18   -7.83    4.70
   4   9  18    2.74    3.58
   4  -9 -18    5.75    4.40
  -4  -9 -18   -3.64    4.42
   4  -9  18   -3.29    4.46
  -5  -9  18  383.07   29.44
   5  -9 -18  398.28   29.21
  -5  -9 -18  381.91   29.45
   0 -10 -18   11.61    4.91
  -1 -10  18   17.61    9.97
   1 -10 -18   32.19    9.33
  -1 -10 -18   26.91    7.88
  -2 -10  18   -0.44    1.41
   2 -10 -18    0.88    2.97
  -2 -10 -18   -1.46    3.34
   2 -10  18   -4.80    5.45
  -3 -10  18   36.13   10.26
   3 -10 -18   34.41    8.49
  -3 -10 -18   26.92    7.59
   0   0  19   -6.04    4.67
   0   0  19    4.74    5.05
  -1   0  19   -4.64    5.72
   1   0  19    0.25    2.55
  -1   0  19    5.00    4.54
   1   0  19    4.96    4.26
  -2   0  19  254.47   27.19
   2   0  19  244.93   26.03
  -2   0  19  215.40   27.18
   2   0  19  239.43   28.28
  -3   0  19   -1.10    3.57
   3   0  19    3.89    4.31
  -3   0  19    1.23    3.88
   3   0  19   -3.13    4.06
  -4   0  19  780.01   49.20
   4   0  19  796.11   46.97
  -4   0  19  871.38   55.79
   4   0  19  790.74   49.64
   5   0  19   11.07    7.55
  -5   0  19    1.36    4.01
   5   0  19    1.81    3.24
   5   0 -19    8.80    7.59
   6   0  19  805.62   46.08
   6   0  19  773.77   47.48
   7   0  19    3.20    2.67
  -7   0  19    8.08    4.73
   7   0  19    3.30    3.36
   7   0 -19   -5.57    4.71
   8   0  19  344.56   27.89
   8   0 -19  252.88   25.43
   0  -1  19   53.57   12.19
   0   1  19   40.68   10.39
   0   1  19   42.82   11.88
   0  -1  19   45.44   12.07
  -1  -1  19  238.44   26.79
  -1   1  19  266.85   27.60
   1   1  19  265.69   27.53
  -1   1  19  272.74   30.58
  -1  -1  19  250.82   28.95
   1   1  19  255.22   28.88
   1  -1  19  286.84   30.62
  -2  -1  19   18.85    8.64
  -2   1  19   20.21    6.95
   2   1  19   23.44    8.10
  -2   1  19   24.01    9.26
  -2  -1  19   20.64    7.80
   2   1  19   26.41   10.04
   2  -1  19   23.13    8.81
  -3  -1  19   75.90   15.56
  -3   1  19   80.86   16.63
   3   1  19   74.47   14.80
  -3   1  19   69.06   15.77
  -3  -1  19   92.85   17.62
   3   1  19   89.02   16.83
   3  -1  19   75.03   15.41
  -4   1  19   -6.39    2.62
   4   1  19   -2.91    2.95
  -4   1  19   -3.47    2.83
  -4  -1  19    8.39    5.71
   4   1  19   11.00    5.79
   4  -1  19    1.07    5.23
   5   1  19   -2.10    3.18
  -5   1  19    3.95    6.69
  -5  -1  19    4.30    5.46
   5   1  19   -2.34    3.57
   5  -1  19    2.16    5.77
   5  -1 -19   -4.63    5.23
   5   1 -19    9.22    6.31
   6   1  19    1.93    4.05
   6   1  19    4.63    2.71
   6  -1  19    9.17    5.67
   6  -1 -19   -4.30    4.27
   6   1 -19   -2.92    5.34
   7   1  19   25.24    6.77
  -7  -1  19   15.66    6.91
   7   1  19   24.31    7.25
   7  -1  19   25.71    8.89
   7  -1 -19   19.58    7.17
   7   1 -19    5.73    6.02
   8   1  19   18.82    6.74
  -8  -1  19   13.21    5.44
   8  -1  19   21.82    7.42
   8   1 -19    6.04    5.01
   8  -1 -19    2.83    2.65
   0   2  19    3.77    5.95
   0  -2  19    8.05    3.60
  -1   2  19   20.25    9.32
   1   2  19   20.16    7.77
  -1  -2  19   14.76    7.73
   1  -2  19   21.45    9.08
  -2   2  19   82.35   15.59
   2   2  19   84.28   15.51
  -2  -2  19   72.88   15.66
   2  -2  19   77.51   15.05
  -3   2  19   39.64   11.22
   3   2  19   41.82    9.75
  -3  -2  19   42.49   12.89
   3  -2  19   52.12   12.61
  -4   2  19  298.05   30.46
   4   2  19  319.00   30.30
  -4  -2  19  265.84   33.00
   4  -2  19  304.82   29.83
   5   2  19  120.55   18.22
  -5  -2  19  147.12   22.32
   5  -2  19  110.22   18.56
   5  -2 -19   48.48   15.56
   5   2 -19   28.13    9.32
   6   2  19  356.70   31.20
  -6  -2  19  393.52   35.45
   6  -2  19  371.64   32.97
   7   2  19   83.80   15.02
  -7  -2  19   45.50   11.72
   7  -2  19   76.77   14.34
   7  -2 -19   53.55   12.91
   8   2  19  155.04   18.23
  -8  -2  19   58.02   11.47
   8  -2  19  116.53   17.26
   8  -2 -19  126.06   18.48
   8   2 -19   57.04   10.52
   0   3  19  264.52   27.67
   0  -3  19  279.58   29.47
  -1   3  19   89.51   15.75
   1   3  19   95.59   16.82
  -1  -3  19   84.47   16.75
   1  -3  19   92.72   16.46
  -2   3  19  185.74   22.88
   2   3  19  190.20   23.64
  -2  -3  19  175.24   24.05
   2  -3  19  194.96   23.79
  -3   3  19   42.71   10.81
   3   3  19   36.49   10.70
  -3  -3  19   47.45   12.96
   3  -3  19   55.96   13.27
   4  -3 -19    3.09    2.82
  -4   3  19   29.32   10.42
   4   3  19   13.86    5.74
  -4  -3  19   20.85    8.89
   4  -3  19   17.27    6.94
   5   3  19    5.32    4.64
  -5  -3  19    3.63    4.54
   5  -3  19    0.26    3.64
   5  -3 -19    2.66    3.47
   5   3 -19   -4.18    2.48
   6   3  19   11.77    3.98
  -6  -3  19    0.67    4.51
   6  -3  19   17.75    6.57
   6  -3 -19    9.31    6.39
   6   3 -19   -2.57    4.05
  -7  -3  19   -5.71    3.76
   7   3  19    4.56    3.08
  -7  -3  19    4.45    6.62
   7  -3  19   -0.58    3.67
   7   3 -19   -0.79    2.86
   7  -3 -19    3.32    4.24
  -8  -3  19   44.07   10.70
   8  -3  19   54.36   11.59
   8  -3 -19   67.50   12.50
   0   4  19   -2.29    3.18
   0  -4  19    7.94    4.27
  -1   4  19    9.49    5.83
   1   4  19    0.16    4.66
  -1  -4  19   10.17    6.12
   1  -4  19   -1.32    5.55
  -2   4  19   13.80    4.98
   2   4  19    2.71    3.08
  -2  -4  19   13.32    5.61
   2  -4  19   20.92    8.82
  -3   4  19   27.84    9.16
   3   4  19   33.72    9.35
  -3  -4  19   42.61   12.74
   3  -4  19   37.19    9.91
   4   4 -19    8.96    5.24
  -4   4  19   48.66   13.02
   4   4  19   62.79   13.04
  -4  -4  19   62.18   14.53
   4  -4  19   56.27   14.06
   4  -4 -19   35.06   13.84
   5   4  19  163.27   21.58
  -5  -4  19  186.29   24.03
   5  -4  19  186.85   23.56
   5  -4 -19  163.57   25.56
  -6  -4  19   56.64   12.87
   6   4  19   99.72   16.09
  -6  -4  19   56.37   15.89
   6  -4  19  104.28   17.59
   6  -4 -19   83.75   17.24
  -7  -4  19   85.77   12.67
   7   4  19  143.27   18.40
  -7  -4  19   88.39   15.46
   7  -4  19  133.01   18.94
   7  -4 -19  112.65   18.42
   8   4  19   47.01    9.64
   8  -4  19   29.58    7.13
   0   5  19  842.75   49.21
   0  -5  19  815.82   48.81
  -1   5  19   58.59   12.63
   1   5  19   44.31   10.66
  -1  -5  19   66.48   13.78
   1  -5  19   50.31   12.31
  -2   5  19  510.85   38.84
   2   5  19  496.92   37.66
  -2  -5  19  546.91   41.08
   2  -5  19  472.94   37.06
  -3   5  19   17.86    9.02
   3   5  19    9.94    6.26
  -3  -5  19   21.75    9.12
   3  -5  19   14.08    6.87
   3  -5 -19   12.69    6.76
  -4  -5  19   78.43   18.34
  -4   5  19  103.80   16.67
   4   5  19   99.69   16.81
   4  -5  19   97.67   17.33
  -4  -5  19  118.60   18.84
   4  -5 -19   47.08   13.02
  -5  -5  19    0.47    4.35
   5   5  19    7.20    4.67
  -5  -5  19    0.79    3.47
  -5  -5  19   -6.01    5.81
   5  -5  19   -3.29    4.87
   5  -5 -19    6.85    4.78
  -6  -5  19   -0.31    1.71
   6   5  19   -3.49    5.22
  -6  -5  19    1.62    2.55
   6  -5  19    3.32    4.59
   6  -5 -19    4.64    3.54
  -7  -5  19   -1.58    2.43
   7   5  19    0.18    3.94
  -7  -5  19   -0.36    4.30
   7  -5  19   -4.12    4.66
   0  -6  19   -2.63    6.90
   0   6  19   -5.96    6.58
   0  -6  19    7.00    3.96
   0  -6 -19   -2.53    2.83
   1  -6  19   11.22   11.35
  -1  -6  19   10.57    8.88
  -1   6  19    9.26    4.69
   1   6  19    7.87    5.56
  -1  -6  19    7.54    4.91
   1  -6  19    4.31    3.31
   1  -6 -19    8.44    4.67
  -1  -6 -19   10.09    5.91
  -2  -6  19   22.16   11.97
  -2   6  19   14.97    8.24
   2   6  19   19.95    7.66
  -2  -6  19   25.92    7.62
   2  -6  19   20.28    7.41
  -2  -6 -19   21.07    7.09
  -3   6  19   89.48   17.37
   3   6  19  127.23   18.65
  -3  -6  19   73.67   19.11
  -3  -6  19  105.61   17.74
   3  -6  19   95.98   16.14
  -3  -6 -19   84.38   14.17
  -4  -6  19   40.72   11.78
   4   6  19   25.32    8.50
  -4  -6  19   11.08    6.05
  -4  -6  19   29.26    8.70
   4  -6  19   26.95    9.53
  -4  -6 -19   40.34    9.58
  -5  -6  19  281.70   26.85
   5   6  19  300.12   27.64
   5  -6  19  330.44   30.13
   5  -6 -19  202.87   26.16
  -5  -6 -19  243.72   23.75
  -6  -6  19   18.51    6.82
   6   6  19   21.24    7.63
  -6  -6  19   -1.30    3.71
   6  -6  19   11.86    4.91
   0   7  19  753.16   45.62
   0  -7  19  718.11   43.31
   0  -7 -19  630.41   37.95
  -1  -7  19   46.95   14.87
  -1   7  19   25.33    8.80
   1   7  19   25.29    7.95
  -1  -7  19   26.45    7.95
   1  -7  19   30.13    9.84
   1  -7 -19   32.39    8.73
  -1  -7 -19   26.36    7.86
  -2   7  19  395.76   33.01
   2   7  19  463.30   35.22
  -2  -7  19  400.31   32.77
   2  -7  19  443.34   33.36
   2  -7 -19  361.28   28.39
  -2  -7 -19  369.87   29.26
  -3  -7  19   18.62    8.34
  -3   7  19   17.67    6.78
   3   7  19   19.80    6.59
  -3  -7  19    2.97    2.80
  -3  -7  19   17.38    7.19
   3  -7  19   10.26    5.28
   3  -7 -19   17.52    6.60
  -3  -7 -19   12.99    5.58
  -4  -7  19  125.71   18.79
   4   7  19  122.36   17.44
  -4  -7  19  111.37   16.95
   4  -7  19  102.42   16.23
   4  -7 -19   94.72   13.91
  -4  -7 -19   88.19   13.57
  -5  -7  19    9.50    5.70
   5   7  19    0.14    4.36
  -5  -7  19   -1.25    3.28
   5  -7  19   12.44    7.62
   0   8  19   -0.87    5.76
   0  -8  19    3.50    3.42
   0  -8 -19   -3.94    2.33
  -1  -8  19    3.78    3.36
  -1   8  19   10.28    5.74
   1   8  19    4.70    3.05
  -1  -8  19   -4.52    4.77
   1  -8  19    1.98    3.37
   1  -8 -19   -7.24    5.23
  -1  -8 -19    2.88    3.92
  -2  -8  19  142.47   22.51
  -2   8  19   99.47   16.36
   2   8  19  116.86   17.57
   2  -8  19  100.79   16.76
  -2  -8  19   84.19   13.80
   2  -8 -19   83.68   13.30
  -2  -8 -19   79.12   12.92
  -3  -8  19   74.32   15.36
   3   8  19   66.18   12.70
  -3  -8 -19   50.01   10.04
  -4  -8  19  188.15   21.58
   0   0  20 1092.62   53.34
   0   0  20 1211.14   61.56
  -1   0  20   -3.26    3.64
   1   0  20    5.34    2.85
  -1   0  20   -8.60    6.75
   1   0  20    2.04    2.45
  -2   0  20  577.72   40.39
   2   0  20  719.62   42.35
  -2   0  20  704.41   48.32
   2   0  20  637.66   43.81
  -3   0  20   -8.73    5.84
   3   0  20   -7.53    5.98
  -3   0  20   -3.09    4.77
   3   0  20    4.32    3.24
   4   0  20  102.38   15.28
  -4   0  20  111.44   18.56
   4   0  20  105.16   17.00
   5   0  20    1.01    3.31
   5   0 -20    5.17    4.53
   6   0  20   -1.18    3.25
   6   0 -20    5.75    5.30
   0   1  20    0.12    2.24
   0   1  20    1.19    2.16
   0  -1  20    5.87    4.66
  -1   1  20   20.16    7.63
   1   1  20   27.03    8.58
  -1   1  20   30.00    9.66
  -1  -1  20   36.20   10.96
   1   1  20   30.60    9.16
   1  -1  20   33.11   11.38
  -2   1  20   19.04    7.20
   2   1  20   10.61    4.74
  -2   1  20   25.26    9.77
  -2  -1  20   23.79    8.05
   2   1  20   11.94    5.87
   2  -1  20   13.31    6.67
   3   1  20  107.21   15.98
  -3   1  20   86.22   14.09
   3   1  20  117.93   18.40
  -3   1  20  100.15   18.37
  -3  -1  20   99.46   17.31
   3  -1  20  103.40   16.80
   4   1  20   33.74    8.98
  -4  -1  20   33.92   10.80
   4  -1  20   20.37    7.66
   4  -1 -20   -9.46    4.94
   4   1 -20    1.84    4.55
   5   1  20  164.01   19.57
   5  -1  20  139.10   20.11
   5  -1 -20   31.56   10.42
   5   1 -20   33.52   11.07
   6   1  20   33.94    8.85
  -6  -1  20   -1.79    2.84
   6  -1  20   31.27    8.88
   6  -1 -20   10.06    5.95
   6   1 -20    3.61    3.94
   0   2  20  629.66   40.61
   0  -2  20  492.52   39.08
  -1   2  20   46.99   10.95
   1   2  20   44.95   10.44
  -1  -2  20   42.18   10.75
   1  -2  20   52.80   11.54
  -2   2  20  362.91   31.47
   2   2  20  415.09   32.52
  -2  -2  20  391.05   35.33
   2  -2  20  386.53   32.97
  -3   2  20    8.39    4.32
   3   2  20    6.74    2.53
  -3  -2  20   17.16    7.92
   3  -2  20    8.36    5.86
   4   2  20   64.39   12.71
  -4  -2  20   60.68   13.60
   4  -2  20   63.37   12.41
   4  -2 -20   20.92    7.84
   4   2 -20    5.45    4.92
   5   2  20   -4.85    4.02
  -5  -2  20   -9.06    5.30
   5  -2  20    1.64    4.46
   5  -2 -20   13.35    7.23
   5   2 -20    5.94    5.24
  -6  -2  20   -1.42    3.15
   6   2  20    3.70    2.89
  -6  -2  20   -3.81    5.04
   6  -2  20    0.49    3.46
   6  -2 -20    5.25    3.00
   0   3  20    5.75    4.94
   0  -3  20    3.67    4.07
  -1   3  20   -1.69    3.57
   1   3  20    7.74    4.79
  -1  -3  20    5.25    5.14
   1  -3  20   -1.04    2.97
  -2   3  20  101.99   16.59
   2   3  20   83.26   14.59
  -2  -3  20  101.44   17.00
   2  -3  20   79.02   15.55
  -3   3  20   21.62    8.02
   3   3  20   30.59    8.68
  -3  -3  20   25.87    8.85
   3  -3  20   23.92    9.53
   3  -3 -20   18.15    9.27
   4   3  20  310.86   27.42
  -4  -3  20  307.22   30.02
   4  -3  20  324.17   28.95
   4  -3 -20  120.57   20.29
  -5  -3  20   20.93    7.72
   5   3  20   44.90    9.87
  -5  -3  20    9.77    5.44
   5  -3  20   37.94   10.11
   5  -3 -20   16.54    7.89
  -6  -3  20  194.34   20.34
   6   3  20  443.81   30.28
  -6  -3  20   85.99   15.14
   6  -3  20  453.93   32.31
   6  -3 -20  185.92   22.39
   0   4  20  176.96   21.26
   0  -4  20  181.12   22.83
  -1   4  20  177.25   21.32
   1   4  20  178.61   21.17
  -1  -4  20  145.22   20.65
   1  -4  20  160.37   20.88
  -2   4  20   69.29   14.14
   2   4  20   88.61   15.00
  -2  -4  20   81.46   15.24
   2  -4  20   77.53   15.63
   2  -4 -20   29.82   11.38
  -3  -4  20    2.06    8.05
  -3   4  20   30.20    8.52
   3   4  20   54.63   11.63
  -3  -4  20   29.66    9.24
   3  -4  20   47.82   12.18
   3  -4 -20    7.33    7.13
   3   4 -20   -5.90    4.66
  -4  -4  20   -6.15    4.12
   4   4  20   18.94    8.01
  -4  -4  20    6.85    5.87
  -4  -4  20   14.53    6.45
   4  -4  20   -0.32    4.07
   4  -4 -20    4.39    5.52
  -5  -4  20    6.48    3.67
   5   4  20   12.72    5.61
  -5  -4  20    0.07    4.25
   5  -4  20   15.01    6.36
   5  -4 -20    7.55    5.26
   0  -5  20   -3.23    6.17
   0   5  20   -6.91    4.33
   0  -5  20   -1.65    3.45
   1  -5  20    1.21    4.35
  -1  -5  20    7.78    7.10
  -1   5  20   11.33    5.22
   1   5  20    5.73    6.74
  -1  -5  20   19.90    6.93
   1  -5  20   12.44    5.35
  -2  -5  20  216.53   31.97
  -2   5  20  194.07   22.35
   2   5  20  220.09   23.72
  -2  -5  20  199.08   23.53
   2  -5  20  181.82   21.52
  -3   5  20    5.49    2.58
  -3  -5  20    6.81    5.60
   3   5  20    4.83    2.36
  -3  -5  20    3.72    2.18
   3  -5  20   -2.20    3.11
  -4  -5  20  563.57   39.77
   4   5  20  621.22   37.57
  -4  -5  20  577.65   37.52
   4  -5  20  623.46   38.94
   5   5  20   10.49    5.15
   5  -5  20   -1.76    3.02
   0  -6  20    2.16    2.40
   0  -6  20    0.63    3.03
  -1   6  20   97.23   16.68
   1   6  20  121.57   17.41
  -1  -6  20  125.64   17.95
   1  -6  20  129.45   17.98
  -2  -6  20    3.94    4.06
  -2   6  20   18.22    6.68
   2   6  20    8.67    2.66
  -2  -6  20   21.60    7.42
   2  -6  20   14.46    6.29
  -3  -6  20   62.41   13.03
   3   6  20   50.13   11.02
  -3  -6  20   37.19    8.84
   3  -6  20   46.72   10.54
   0   0  21    7.83    4.12
  -1   0  21   -3.83    5.47
   1   0  21    0.88    3.44
   3   0 -21    2.15    3.49
   0   1  21   50.21   10.30
   0  -1  21   18.49    6.08
  -1   1  21 1027.06   47.56
   1   1  21 1122.21   49.97
  -1  -1  21 1018.75   52.31
   1  -1  21 1114.84   53.89
   2  -1 -21    5.75    4.41
   2   1  21   17.51    7.29
  -2  -1  21   21.02    7.32
   2  -1  21    8.66    5.83
   3  -1 -21   13.96    6.61
   3   1 -21    0.12    2.46
   0   2  21    1.43    2.84
   0  -2  21    6.57    4.57
   1   2  21   71.63   13.20
  -1   2  21   63.22   12.45
  -1  -2  21   73.78   14.44
   1  -2  21   64.95   12.88
  -2   2  21   14.86    4.36
   2   2  21   18.16    5.80
  -2  -2  21   27.40    8.51
   2  -2  21   21.75    8.14
   2  -2 -21    3.81    4.63
   0   3  21   91.06   14.39
   0  -3  21   90.78   15.41
  -1  -3  21  169.38   26.09
  -1   3  21  232.48   22.58
   1   3  21  233.12   22.44
  -1  -3  21  209.54   24.11
   1  -3  21  223.98   24.35
  -2   3  21   21.66    6.60
  -2  -3  21    4.33    4.83
   2   3  21   21.17    7.21
  -2  -3  21    6.59    3.38
   2  -3  21   22.60    7.83
   0   4  21    5.94    4.13
   0  -4  21   -6.30    3.69
  -1   4  21   62.73   11.89
   1   4  21   75.05   12.54
   0   0   0    0.00    0.00
;
_shelx_hkl_checksum              97023
loop_
_space_group_symop_operation_xyz
'x, y, z'
'-x+1/2, -y+1/2, z'
'x+1/2, -y, -z+1/2'
'-x, y+1/2, -z+1/2'
'-x, -y, -z'
'x-1/2, y-1/2, -z'
'-x-1/2, y, z-1/2'
'x, -y-1/2, z-1/2'
loop_
_atom_site_label
_atom_site_type_symbol
_atom_site_fract_x
_atom_site_fract_y
_atom_site_fract_z
_atom_site_U_iso_or_equiv
_atom_site_adp_type
_atom_site_occupancy
_atom_site_site_symmetry_order
_atom_site_calc_flag
_atom_site_refinement_flags_posn
_atom_site_refinement_flags_adp
_atom_site_refinement_flags_occupancy
_atom_site_disorder_assembly
_atom_site_disorder_group
Nd1 Nd 0.40290(2) -0.04734(2) -0.04300(2) 0.017(2) Uani 1 1 d . . . . .
O1 O 0.3534(3) 0.1034(3) -0.0538(4) 0.040(3) Uani 1 1 d . . . . .
O2 O 0.4699(2) 0.0893(3) -0.0043(3) 0.024(3) Uani 1 1 d . . . . .
O3 O 0.5974(3) 0.2022(4) -0.0029(4) 0.040(3) Uani 1 1 d . . . . .
O4 O 0.5524(3) 0.1798(3) 0.1247(3) 0.039(3) Uani 1 1 d . . . . .
O8 O 0.7636(3) 0.4318(4) 0.0277(3) 0.036(3) Uani 1 1 d . . . . .
O7 O 0.8040(3) 0.4424(3) 0.1585(3) 0.033(3) Uani 1 1 d . . . . .
O6 O 0.6010(3) 0.4688(4) 0.3885(3) 0.030(3) Uani 1 1 d D . . . .
O5 O 0.4835(3) 0.5017(3) 0.3419(3) 0.030(3) Uani 1 1 d . . . . .
C1 C 0.4125(4) 0.1366(5) -0.0247(5) 0.024(3) Uani 1 1 d . . . . .
C2 C 0.4172(4) 0.2287(5) -0.0085(5) 0.030(3) Uani 1 1 d . . . . .
C7 C 0.4794(4) 0.2671(4) 0.0334(4) 0.024(3) Uani 1 1 d . . . . .
C8 C 0.5487(4) 0.2146(4) 0.0546(4) 0.028(3) Uani 1 1 d . . . . .
C6 C 0.4765(4) 0.3521(4) 0.0545(4) 0.023(3) Uani 1 1 d . . . . .
C5 C 0.4127(4) 0.3999(6) 0.0302(6) 0.040(3) Uani 1 1 d . . . . .
H5 H 0.409967 0.456665 0.045036 0.048 Uiso 1 1 calc R U . . .
C4 C 0.3538(5) 0.3636(6) -0.0154(7) 0.054(3) Uani 1 1 d . . . . .
H4 H 0.312586 0.396120 -0.033512 0.065 Uiso 1 1 calc R U . . .
C3 C 0.3570(5) 0.2780(5) -0.0340(6) 0.047(3) Uani 1 1 d . . . . .
H3 H 0.317188 0.253440 -0.064438 0.056 Uiso 1 1 calc R U . . .
C9 C 0.5369(4) 0.3912(4) 0.1088(4) 0.022(3) Uani 1 1 d . . . . .
C10 C 0.6133(4) 0.3959(4) 0.0825(4) 0.023(3) Uani 1 1 d . . . . .
H10 H 0.626628 0.377517 0.028632 0.028 Uiso 1 1 calc R U . . .
C14 C 0.6691(4) 0.4274(4) 0.1358(4) 0.023(3) Uani 1 1 d . . . . .
C16 C 0.7506(4) 0.4342(4) 0.1055(4) 0.021(3) Uani 1 1 d . . . . .
C13 C 0.6500(4) 0.4538(4) 0.2180(4) 0.022(3) Uani 1 1 d . . . . .
H13 H 0.688078 0.472250 0.254879 0.026 Uiso 1 1 calc R U . . .
C12 C 0.5739(4) 0.4521(4) 0.2439(4) 0.022(3) Uani 1 1 d . . . . .
C15 C 0.5512(4) 0.4771(5) 0.3327(4) 0.026(3) Uani 1 1 d . . . . .
C11 C 0.5185(4) 0.4217(4) 0.1889(4) 0.024(3) Uani 1 1 d . . . . .
H11 H 0.467519 0.421580 0.206029 0.028 Uiso 1 1 calc R U . . .
O10 O 0.3047(8) 0.5393(9) 0.1286(8) 0.145(6) Uani 1 1 d G . . . .
H10A H 0.304829 0.502139 0.089794 0.217 Uiso 1 1 d G U . . .
H10B H 0.262737 0.567012 0.126579 0.217 Uiso 1 1 d G U . . .
C18 C 0.6056(10) 0.1547(11) 0.2893(8) 0.105(6) Uani 1 1 d . . . . .
H18A H 0.597961 0.132978 0.232563 0.126 Uiso 1 1 calc R U . . .
H18B H 0.641411 0.118535 0.319054 0.126 Uiso 1 1 calc R U . . .
C17 C 0.6327(14) 0.2418(12) 0.2873(12) 0.141(8) Uani 1 1 d . U . . .
H17A H 0.649352 0.255584 0.231101 0.212 Uiso 1 1 calc R U . . .
H17B H 0.674724 0.248169 0.325953 0.212 Uiso 1 1 calc R U . . .
H17C H 0.591803 0.279009 0.303554 0.212 Uiso 1 1 calc R U . . .
O9 O 0.5376(14) 0.160(2) 0.3319(11) 0.274(13) Uani 1 1 d . . . . .
H9 H 0.545859 0.172246 0.381539 0.410 Uiso 1 1 calc R U . . .
H6 H 0.634(9) 0.487(13) 0.423(10) 0.18(8) Uiso 1 1 d D . . . .
loop_
_atom_site_aniso_label
_atom_site_aniso_U_11
_atom_site_aniso_U_22
_atom_site_aniso_U_33
_atom_site_aniso_U_23
_atom_site_aniso_U_13
_atom_site_aniso_U_12
Nd1 0.013(2) 0.025(2) 0.014(2) 0.00085(11) -0.00192(11) -0.00256(12)
O1 0.022(4) 0.029(4) 0.070(4) -0.008(2) -0.021(2) -0.004(2)
O2 0.020(3) 0.028(3) 0.025(3) -0.0033(19) -0.0057(18) -0.0010(19)
O3 0.029(4) 0.034(4) 0.057(5) -0.002(3) 0.009(2) -0.003(2)
O4 0.052(4) 0.039(4) 0.026(3) -0.002(2) -0.015(2) 0.007(3)
O8 0.022(4) 0.064(4) 0.023(3) -0.008(2) 0.006(2) -0.008(3)
O7 0.021(3) 0.058(4) 0.020(3) 0.001(2) 0.003(2) -0.004(2)
O6 0.020(4) 0.055(4) 0.016(3) -0.001(2) 0.0013(18) 0.004(2)
O5 0.026(3) 0.047(4) 0.017(3) -0.007(2) 0.0021(18) 0.008(2)
C1 0.026(4) 0.022(4) 0.025(4) -0.003(3) 0.001(3) 0.000(3)
C2 0.027(4) 0.035(5) 0.030(4) 0.001(3) -0.001(3) -0.002(3)
C7 0.025(4) 0.031(4) 0.017(4) 0.001(2) -0.002(2) -0.002(3)
C8 0.022(4) 0.022(4) 0.038(4) -0.007(3) -0.006(3) -0.003(3)
C6 0.021(4) 0.029(4) 0.019(4) -0.003(2) -0.001(2) -0.002(3)
C5 0.027(5) 0.037(5) 0.055(6) -0.011(4) -0.014(3) 0.011(3)
C4 0.036(5) 0.038(5) 0.088(7) -0.008(5) -0.024(5) 0.014(4)
C3 0.030(5) 0.034(5) 0.077(7) -0.004(4) -0.029(4) 0.000(3)
C9 0.022(4) 0.024(4) 0.021(4) -0.001(2) -0.003(2) 0.001(3)
C10 0.027(4) 0.027(4) 0.016(4) -0.005(2) 0.004(3) 0.000(3)
C14 0.016(4) 0.026(4) 0.026(4) -0.001(3) 0.004(3) 0.000(3)
C16 0.014(4) 0.026(4) 0.023(4) -0.003(3) 0.005(2) -0.004(3)
C13 0.015(4) 0.035(5) 0.015(4) -0.004(2) 0.001(3) 0.000(2)
C12 0.024(4) 0.025(4) 0.018(4) -0.001(2) 0.003(3) 0.000(3)
C15 0.030(4) 0.034(4) 0.015(4) -0.002(3) 0.003(3) -0.001(3)
C11 0.020(4) 0.029(4) 0.022(4) 0.003(3) 0.002(3) 0.000(3)
O10 0.144(12) 0.181(16) 0.110(10) -0.002(8) 0.034(9) -0.006(9)
C18 0.160(16) 0.114(13) 0.040(7) -0.011(7) -0.001(8) 0.055(11)
C17 0.160(15) 0.132(14) 0.131(13) -0.013(11) -0.040(11) -0.033(11)
O9 0.27(3) 0.43(4) 0.114(13) -0.059(18) 0.058(15) 0.05(2)
loop_
_atom_type_symbol
_atom_type_description
_atom_type_scat_dispersion_real
_atom_type_scat_dispersion_imag
_atom_type_scat_source
C C 0.0181 0.0091 'International Tables Vol C Tables 4.2.6.8 and 6.1.1.4'
H H 0.0000 0.0000 'International Tables Vol C Tables 4.2.6.8 and 6.1.1.4'
Nd Nd -3.1807 10.9079 'International Tables Vol C Tables 4.2.6.8 and 6.1.1.4'
O O 0.0492 0.0322 'International Tables Vol C Tables 4.2.6.8 and 6.1.1.4'
loop_
_geom_angle_atom_site_label_1
_geom_angle_atom_site_label_2
_geom_angle_atom_site_label_3
_geom_angle
_geom_angle_site_symmetry_1
_geom_angle_site_symmetry_3
_geom_angle_publ_flag
O5 Nd1 O2 77.42(16) 8_565 5_655 ?
O5 Nd1 O6 137.37(16) 8_565 4_645 ?
O2 Nd1 O6 75.44(16) 5_655 4_645 ?
O5 Nd1 O8 133.59(16) 8_565 6 ?
O2 Nd1 O8 146.32(16) 5_655 6 ?
O6 Nd1 O8 83.60(16) 4_645 6 ?
O5 Nd1 O7 82.64(16) 8_565 6 ?
O2 Nd1 O7 146.12(16) 5_655 6 ?
O6 Nd1 O7 135.09(16) 4_645 6 ?
O8 Nd1 O7 52.15(16) 6 6 ?
O5 Nd1 O2 69.94(16) 8_565 . ?
O2 Nd1 O2 74.85(17) 5_655 . ?
O6 Nd1 O2 71.60(17) 4_645 . ?
O8 Nd1 O2 123.06(17) 6 . ?
O7 Nd1 O2 123.11(16) 6 . ?
O5 Nd1 O1 82.29(19) 8_565 . ?
O2 Nd1 O1 125.90(15) 5_655 . ?
O6 Nd1 O1 87.7(2) 4_645 . ?
O8 Nd1 O1 78.32(19) 6 . ?
O7 Nd1 O1 77.24(17) 6 . ?
O2 Nd1 O1 51.07(15) . . ?
O5 Nd1 O3 120.18(18) 8_565 5_655 ?
O2 Nd1 O3 69.68(16) 5_655 5_655 ?
O6 Nd1 O3 79.5(2) 4_645 5_655 ?
O8 Nd1 O3 80.89(18) 6 5_655 ?
O7 Nd1 O3 98.19(18) 6 5_655 ?
O2 Nd1 O3 138.71(17) . 5_655 ?
O1 Nd1 O3 156.65(18) . 5_655 ?
O5 Nd1 O4 71.94(18) 8_565 5_655 ?
O2 Nd1 O4 69.90(16) 5_655 5_655 ?
O6 Nd1 O4 126.13(18) 4_645 5_655 ?
O8 Nd1 O4 103.78(19) 6 5_655 ?
O7 Nd1 O4 78.02(16) 6 5_655 ?
O2 Nd1 O4 132.41(17) . 5_655 ?
O1 Nd1 O4 146.17(17) . 5_655 ?
O3 Nd1 O4 50.49(18) 5_655 5_655 ?
O5 Nd1 C8 93.3(2) 8_565 5_655 ?
O2 Nd1 C8 58.94(17) 5_655 5_655 ?
O6 Nd1 C8 100.0(2) 4_645 5_655 ?
O8 Nd1 C8 100.3(2) 6 5_655 ?
O7 Nd1 C8 95.67(19) 6 5_655 ?
O2 Nd1 C8 133.44(17) . 5_655 ?
O1 Nd1 C8 172.05(19) . 5_655 ?
O3 Nd1 C8 26.9(2) 5_655 5_655 ?
O4 Nd1 C8 26.31(18) 5_655 5_655 ?
O5 Nd1 C16 108.22(17) 8_565 6 ?
O2 Nd1 C16 158.19(17) 5_655 6 ?
O6 Nd1 C16 109.23(17) 4_645 6 ?
O8 Nd1 C16 25.97(17) 6 6 ?
O7 Nd1 C16 26.19(17) 6 6 ?
O2 Nd1 C16 126.96(16) . 6 ?
O1 Nd1 C16 75.91(17) . 6 ?
O3 Nd1 C16 89.89(18) 5_655 6 ?
O4 Nd1 C16 91.43(18) 5_655 6 ?
C8 Nd1 C16 99.35(19) 5_655 6 ?
O5 Nd1 Nd1 69.23(11) 8_565 5_655 ?
O2 Nd1 Nd1 38.31(10) 5_655 5_655 ?
O6 Nd1 Nd1 69.03(11) 4_645 5_655 ?
O8 Nd1 Nd1 149.73(13) 6 5_655 ?
O7 Nd1 Nd1 149.64(12) 6 5_655 ?
O2 Nd1 Nd1 36.54(10) . 5_655 ?
O1 Nd1 Nd1 87.60(11) . 5_655 ?
O3 Nd1 Nd1 105.57(12) 5_655 5_655 ?
O4 Nd1 Nd1 102.78(13) 5_655 5_655 ?
C8 Nd1 Nd1 97.09(14) 5_655 5_655 ?
C16 Nd1 Nd1 163.50(13) 6 5_655 ?
C1 O1 Nd1 95.2(4) . . ?
C1 O2 Nd1 160.4(4) . 5_655 ?
C1 O2 Nd1 94.4(4) . . ?
Nd1 O2 Nd1 105.14(17) 5_655 . ?
C8 O3 Nd1 86.8(4) . 5_655 ?
C8 O4 Nd1 86.0(4) . 5_655 ?
C16 O8 Nd1 94.4(4) . 6_665 ?
C16 O7 Nd1 91.8(4) . 6_665 ?
C15 O6 Nd1 134.0(4) . 4_655 ?
C15 O5 Nd1 136.9(4) . 8_566 ?
O1 C1 O2 119.3(7) . . ?
O1 C1 C2 121.7(6) . . ?
O2 C1 C2 118.9(6) . . ?
C3 C2 C7 118.9(7) . . ?
C3 C2 C1 117.8(7) . . ?
C7 C2 C1 123.3(7) . . ?
C6 C7 C2 120.3(6) . . ?
C6 C7 C8 120.7(6) . . ?
C2 C7 C8 119.0(6) . . ?
O4 C8 O3 122.7(7) . . ?
O4 C8 C7 119.2(6) . . ?
O3 C8 C7 117.9(6) . . ?
O4 C8 Nd1 67.7(4) . 5_655 ?
O3 C8 Nd1 66.4(4) . 5_655 ?
C7 C8 Nd1 138.9(4) . 5_655 ?
C7 C6 C5 119.1(6) . . ?
C7 C6 C9 121.0(6) . . ?
C5 C6 C9 119.6(6) . . ?
C4 C5 C6 120.7(8) . . ?
C5 C4 C3 119.2(8) . . ?
C2 C3 C4 121.6(7) . . ?
C11 C9 C10 118.1(6) . . ?
C11 C9 C6 120.2(6) . . ?
C10 C9 C6 121.6(6) . . ?
C14 C10 C9 120.7(6) . . ?
C10 C14 C13 120.3(6) . . ?
C10 C14 C16 119.9(6) . . ?
C13 C14 C16 119.8(6) . . ?
O8 C16 O7 121.6(6) . . ?
O8 C16 C14 118.7(6) . . ?
O7 C16 C14 119.7(6) . . ?
O8 C16 Nd1 59.6(3) . 6_665 ?
O7 C16 Nd1 62.0(3) . 6_665 ?
C14 C16 Nd1 177.4(5) . 6_665 ?
C12 C13 C14 119.5(6) . . ?
C11 C12 C13 119.2(6) . . ?
C11 C12 C15 119.4(6) . . ?
C13 C12 C15 121.3(6) . . ?
O6 C15 O5 127.6(6) . . ?
O6 C15 C12 116.6(6) . . ?
O5 C15 C12 115.8(6) . . ?
C12 C11 C9 122.0(6) . . ?
O9 C18 C17 103.3(18) . . ?
loop_
_geom_bond_atom_site_label_1
_geom_bond_atom_site_label_2
_geom_bond_distance
_geom_bond_site_symmetry_2
_geom_bond_publ_flag
Nd1 O5 2.410(4) 8_565 ?
Nd1 O2 2.435(4) 5_655 ?
Nd1 O6 2.457(5) 4_645 ?
Nd1 O8 2.466(5) 6 ?
Nd1 O7 2.517(5) 6 ?
Nd1 O2 2.535(4) . ?
Nd1 O1 2.545(5) . ?
Nd1 O3 2.557(6) 5_655 ?
Nd1 O4 2.584(5) 5_655 ?
Nd1 C8 2.787(7) 5_655 ?
Nd1 C16 2.850(6) 6 ?
Nd1 Nd1 3.9471(7) 5_655 ?
O1 C1 1.245(9) . ?
O2 C1 1.292(8) . ?
O3 C8 1.261(9) . ?
O4 C8 1.238(9) . ?
O8 C16 1.252(8) . ?
O7 C16 1.258(8) . ?
O6 C15 1.245(9) . ?
O5 C15 1.253(8) . ?
C1 C2 1.483(10) . ?
C2 C3 1.369(11) . ?
C2 C7 1.408(10) . ?
C7 C6 1.388(10) . ?
C7 C8 1.505(10) . ?
C6 C5 1.400(10) . ?
C6 C9 1.493(9) . ?
C5 C4 1.381(12) . ?
C4 C3 1.389(12) . ?
C9 C11 1.393(9) . ?
C9 C10 1.397(9) . ?
C10 C14 1.381(9) . ?
C14 C13 1.406(9) . ?
C14 C16 1.505(8) . ?
C13 C12 1.391(9) . ?
C12 C11 1.387(10) . ?
C12 C15 1.510(9) . ?
C18 O9 1.37(2) . ?
C18 C17 1.46(2) . ?
