#------------------------------------------------------------------------------
#$Date: 2021-11-03 22:03:38 +0200 (Wed, 03 Nov 2021) $
#$Revision: 270228 $
#$URL: file:///home/coder/svn-repositories/cod/cif/4/51/90/4519089.cif $
#------------------------------------------------------------------------------
#
# This file is available in the Crystallography Open Database (COD),
# http://www.crystallography.net/
#
# All data on this site have been placed in the public domain by the
# contributors.
#
data_4519089
loop_
_publ_author_name
'Jiang, Xue'
'Wu, Ben'
'Bai, Peng'
'Lyu, Jiafei'
'Guo, Xianghai'
_publ_section_title
;
 Novel Fluorine-Pillared Metal-Organic Framework for Highly Effective
 Lithium Enrichment from Brine.
;
_journal_issue                   40
_journal_name_full               'ACS applied materials &amp; interfaces'
_journal_page_first              47793
_journal_page_last               47799
_journal_paper_doi               10.1021/acsami.1c17080
_journal_volume                  13
_journal_year                    2021
_chemical_formula_moiety         '0.25(C36 H12 F12 Fe12 Li4 O36), H2 O'
_chemical_formula_sum            'C9 H5 F3 Fe3 Li O10'
_chemical_formula_weight         504.62
_space_group_crystal_system      orthorhombic
_space_group_IT_number           57
_space_group_name_Hall           '-P 2c 2b'
_space_group_name_H-M_alt        'P b c m'
_atom_sites_solution_hydrogens   mixed
_atom_sites_solution_primary     dual
_audit_creation_date             2021-05-17
_audit_creation_method
;
Olex2 1.2
(compiled 2018.05.29 svn.r3508 for OlexSys, GUI svn.r5506)
;
_cell_angle_alpha                90
_cell_angle_beta                 90
_cell_angle_gamma                90
_cell_formula_units_Z            4
_cell_length_a                   3.8139(2)
_cell_length_b                   24.994(3)
_cell_length_c                   14.5959(8)
_cell_measurement_reflns_used    707
_cell_measurement_temperature    100.00(10)
_cell_measurement_theta_max      73.9600
_cell_measurement_theta_min      3.5280
_cell_volume                     1391.3(2)
_computing_cell_refinement       'CrysAlisPro 1.171.40.84a (Rigaku OD, 2020)'
_computing_data_collection       'CrysAlisPro 1.171.40.84a (Rigaku OD, 2020)'
_computing_data_reduction        'CrysAlisPro 1.171.40.84a (Rigaku OD, 2020)'
_computing_molecular_graphics    'Olex2 (Dolomanov et al., 2009)'
_computing_publication_material  'Olex2 (Dolomanov et al., 2009)'
_computing_structure_refinement  'ShelXL (Sheldrick, 2015)'
_computing_structure_solution    'ShelXT (Sheldrick, 2015)'
_diffrn_ambient_environment      N~2~
_diffrn_ambient_temperature      100.00(10)
_diffrn_detector                 'Hybrid Pixel Array Detector'
_diffrn_detector_area_resol_mean 10.0000
_diffrn_measured_fraction_theta_full 0.987
_diffrn_measured_fraction_theta_max 0.987
_diffrn_measurement_details
;
List of Runs (angles in degrees, time in seconds):

  # Type    Start    End  Width  t~exp~   \w     \q     \k     \f   Frames
--------------------------------------------------------------------------
  1  \w    -46.00  10.00   1.00   10.00    --    0.00 -77.00 -60.00   56
  2  \w    -23.00  36.00   1.00   10.00    --    0.00  82.00 -90.00   59
  3  \w     12.00 133.00   1.00   25.00    --  101.30 -19.00-150.00  121
  4  \w     38.00 127.00   1.00   25.00    --  101.30 -77.00  90.00   89
;
_diffrn_measurement_device       'four-circle diffractometer'
_diffrn_measurement_device_type  'XtaLAB AFC12 (RINC): Kappa single'
_diffrn_measurement_method       '\w scans'
_diffrn_orient_matrix_type
'CrysAlisPro convention (1999,Acta A55,543-557)'
_diffrn_orient_matrix_UB_11      -0.0103411000
_diffrn_orient_matrix_UB_12      0.1038562000
_diffrn_orient_matrix_UB_13      -0.0214868000
_diffrn_orient_matrix_UB_21      -0.0606819000
_diffrn_orient_matrix_UB_22      -0.0171921000
_diffrn_orient_matrix_UB_23      0.0290805000
_diffrn_orient_matrix_UB_31      0.0039345000
_diffrn_orient_matrix_UB_32      0.0069015000
_diffrn_orient_matrix_UB_33      0.4022105000
_diffrn_radiation_monochromator  mirror
_diffrn_radiation_probe          x-ray
_diffrn_radiation_type           CuK\a
_diffrn_radiation_wavelength     1.54184
_diffrn_reflns_av_R_equivalents  0.0424
_diffrn_reflns_av_unetI/netI     0.0677
_diffrn_reflns_Laue_measured_fraction_full 0.987
_diffrn_reflns_Laue_measured_fraction_max 0.987
_diffrn_reflns_limit_h_max       4
_diffrn_reflns_limit_h_min       -2
_diffrn_reflns_limit_k_max       29
_diffrn_reflns_limit_k_min       -26
_diffrn_reflns_limit_l_max       17
_diffrn_reflns_limit_l_min       -13
_diffrn_reflns_number            2735
_diffrn_reflns_point_group_measured_fraction_full 0.987
_diffrn_reflns_point_group_measured_fraction_max 0.987
_diffrn_reflns_theta_full        66.990
_diffrn_reflns_theta_max         66.990
_diffrn_reflns_theta_min         3.537
_diffrn_source                   'Rotating-anode X-ray tube (dual wavelength)'
_diffrn_source_type              'Rigaku (Cu) X-ray DW Source'
_exptl_absorpt_coefficient_mu    25.687
_exptl_absorpt_correction_T_max  1.00000
_exptl_absorpt_correction_T_min  0.20420
_exptl_absorpt_correction_type   multi-scan
_exptl_absorpt_process_details
;
CrysAlisPro 1.171.40.84a (Rigaku Oxford Diffraction, 2020)
Empirical absorption correction using spherical harmonics,
implemented in SCALE3 ABSPACK scaling algorithm.
;
_exptl_crystal_colour            colourless
_exptl_crystal_colour_primary    colourless
_exptl_crystal_density_diffrn    2.409
_exptl_crystal_description       needle
_exptl_crystal_F_000             988
_exptl_crystal_size_max          0.09
_exptl_crystal_size_mid          0.03
_exptl_crystal_size_min          0.03
_refine_diff_density_max         6.562
_refine_diff_density_min         -3.067
_refine_diff_density_rms         0.712
_refine_ls_extinction_method     none
_refine_ls_goodness_of_fit_ref   2.396
_refine_ls_hydrogen_treatment    constr
_refine_ls_matrix_type           full
_refine_ls_number_parameters     126
_refine_ls_number_reflns         1278
_refine_ls_number_restraints     90
_refine_ls_restrained_S_all      2.488
_refine_ls_R_factor_all          0.2382
_refine_ls_R_factor_gt           0.2230
_refine_ls_shift/su_max          0.000
_refine_ls_shift/su_mean         0.000
_refine_ls_structure_factor_coef Fsqd
_refine_ls_weighting_details
'w=1/[\s^2^(Fo^2^)+(0.2000P)^2^] where P=(Fo^2^+2Fc^2^)/3'
_refine_ls_weighting_scheme      calc
_refine_ls_wR_factor_gt          0.5019
_refine_ls_wR_factor_ref         0.5185
_reflns_Friedel_coverage         0.000
_reflns_number_gt                998
_reflns_number_total             1278
_reflns_threshold_expression     'I > 2\s(I)'
_cod_data_source_file            am1c17080_si_003.cif
_cod_data_source_block           1859-4
_cod_original_cell_volume        1391.38(17)
_cod_database_code               4519089
_shelx_shelxl_version_number     2018/1
_shelx_space_group_comment
;
The symmetry employed for this shelxl refinement is uniquely defined
by the following loop, which should always be used as a source of
symmetry information in preference to the above space-group names.
They are only intended as comments.
;
_shelx_estimated_absorpt_t_max   0.513
_shelx_estimated_absorpt_t_min   0.206
_reflns_odcompleteness_completeness 98.32
_reflns_odcompleteness_iscentric 1
_reflns_odcompleteness_theta     66.97
_olex2_refinement_description
;
1. Fixed Uiso
 At 1.2 times of:
  All C(H) groups, All O(H,H) groups
2. Uiso/Uaniso restraints and constraints
Uanis(Fe1) \\sim Ueq, Uanis(Fe2) \\sim Ueq: with sigma of 0.002 and sigma for
terminal atoms of 0.004
Uanis(F1) \\sim Ueq, Uanis(O4) \\sim Ueq, Uanis(O1) \\sim Ueq, Uanis(F2) \\sim
Ueq, Uanis(O5) \\sim Ueq, Uanis(O2) \\sim Ueq, Uanis(C2) \\sim Ueq, Uanis(C3)
\\sim Ueq, Uanis(C4) \\sim Ueq, Uanis(C5) \\sim Ueq, Uanis(C6) \\sim Ueq,
Uanis(O3) \\sim Ueq: with sigma of 0.01 and sigma for terminal atoms of 0.02
Uanis(C1) \\sim Ueq: with sigma of 0.005 and sigma for terminal atoms of 0.01
3. Others
 Fixed Sof: Li1(0.5)
4.a Riding coordinates:
 O6(H6A,H6B)
4.b Aromatic/amide H refined with riding coordinates:
 C3(H3), C4(H4)
;
_shelx_res_file
;
TITL 1859-4_a.res in Pbcm
    1859-4.res
    created by SHELXL-2018/1 at 11:29:44 on 17-May-2021
REM Old TITL 1859-4 in P21212 #18
REM SHELXT solution in Pbcm
REM R1 0.310, Rweak 0.099, Alpha 0.072, Orientation a'=c, b'=a, c'=b
REM Formula found by SHELXT: Fe3 C9 O13
CELL 1.54184 3.8139 24.9945 14.5959 90 90 90
ZERR 4 0.0002 0.0025 0.0008 0 0 0
LATT 1
SYMM -X,-Y,0.5+Z
SYMM -X,0.5+Y,0.5-Z
SYMM +X,0.5-Y,-Z
SFAC C H F Fe Li O
UNIT 36 20 12 12 4 40
ISOR 0.002 0.004 Fe1 Fe2
ISOR 0.01 0.02 F1 O4 O1 F2 O5 O2 C2 C3 C4 H3 C5 H4 C6 O3
ISOR 0.005 0.01 C1

L.S. 10
PLAN  10
SIZE 0.03 0.03 0.09
list 4
fmap 2 53
acta
OMIT -3 134
REM <olex2.extras>
REM <HklSrc "%.\\1859-4.hkl">
REM </olex2.extras>

WGHT    0.200000
FVAR       0.26385
FE1   4    0.815397    0.750000    0.500000    10.50000    0.01308    0.02504 =
         0.00623   -0.00062    0.00000    0.00000
FE2   4    0.825023    0.627476    0.374438    11.00000    0.01120    0.03027 =
         0.00279   -0.00071   -0.00023    0.00125
O1    6    0.810044    0.687603    0.582700    11.00000    0.03139    0.03858 =
         0.00508   -0.00242   -0.00383    0.00234
O3    6    1.163885    0.446294    0.671947    11.00000    0.03462    0.03130 =
         0.01530   -0.00281    0.00094    0.00113
O2    6    0.828524    0.609476    0.506430    11.00000    0.03693    0.03878 =
         0.00707    0.00218    0.00044    0.00189
F1    3    0.341287    0.750000    0.500000    10.50000    0.07678    0.04258 =
         0.06555    0.01216    0.00000    0.00000
O4    6    0.816482    0.703903    0.396932    11.00000    0.06274    0.02996 =
         0.01377   -0.00044    0.00085   -0.00083
F2    3    0.362497    0.627013    0.374592    11.00000    0.08462    0.05188 =
         0.06292   -0.01494   -0.00189    0.00595
C1    1    0.839681    0.636121    0.579525    11.00000    0.02375    0.02774 =
         0.01565   -0.00307    0.00079    0.00066
O5    6    0.820392    0.651753    0.250000    10.50000    0.05386    0.03148 =
         0.01591    0.00000    0.00000    0.00041
O6    6    0.325344    0.746854    0.250000    10.50000    0.03659    0.04380 =
         0.01804    0.00000    0.00000   -0.00671
AFIX   3
H6A   2    0.474774    0.721614    0.250000    10.50000   -1.20000
H6B   2    0.171304    0.722274    0.250000    10.50000   -1.20000
AFIX   0

C6    1    1.122213    0.470228    0.750000    10.50000    0.03348    0.03184 =
         0.02858    0.00000    0.00000   -0.00074
C2    1    0.871257    0.608509    0.665518    11.00000    0.02564    0.03167 =
         0.01089   -0.00562   -0.00711    0.00410
C3    1    0.831764    0.635259    0.750000    10.50000    0.01605    0.02062 =
         0.01417    0.00000    0.00000   -0.00113
AFIX  43
H3    2    0.778168    0.671557    0.749999    10.50000   -1.20000
AFIX   0
C5    1    1.016621    0.526063    0.750000    10.50000    0.01994    0.02892 =
         0.01788    0.00000    0.00000    0.00319
C4    1    0.976521    0.553643    0.667950    11.00000    0.03846    0.04781 =
         0.02054   -0.00377    0.00019   -0.00089
AFIX  43
H4    2    1.019405    0.535889    0.613087    11.00000   -1.20000
AFIX   0

LI1   5    0.626049    0.483479    0.488436    10.50000    0.11970
HKLF 4




REM  1859-4_a.res in Pbcm
REM R1 =  0.2230 for     998 Fo > 4sig(Fo)  and  0.2382 for all    1278 data
REM    126 parameters refined using     90 restraints

END

WGHT      0.2000      0.0000

REM Highest difference peak  6.562,  deepest hole -3.067,  1-sigma level  0.712
Q1    1   0.5700  0.6246  0.3748  11.00000  0.05    6.45
Q2    1   0.5671  0.7500  0.5000  10.50000  0.05    6.15
Q3    1   1.0718  0.6247  0.3776  11.00000  0.05    4.19
Q4    1   0.3001  0.7414  0.4663  11.00000  0.05    3.27
Q5    1   0.3003  0.6243  0.3974  11.00000  0.05    3.23
Q6    1   1.0769  0.7500  0.5000  10.50000  0.05    2.97
Q7    1   0.6604  0.6519  0.2500  10.50000  0.05    2.96
Q8    1   0.2975  0.6192  0.3599  11.00000  0.05    2.87
Q9    1   0.6822  0.7000  0.3965  11.00000  0.05    2.49
Q10   1   0.8254  0.6605  0.5805  11.00000  0.05    2.43
;
_shelx_res_checksum              73686
_shelx_hkl_file
;
   0   0  -2  229.54   16.18
   0   0  -3    0.73    1.33
   0   0  -4 1176.13   82.54
   0   0  -5    0.42    1.88
   0   0  -6  209.05   15.06
   0   0  -7    0.38    2.06
   0   0  -8 8133.98  561.62
   0   0   8 7921.05  561.56
   0   0   9   -0.35    3.31
   0   0  10  364.25   26.14
   0   0  11   -0.75    4.74
   0   0  12  888.09   62.87
   0   0  13   -1.43    6.00
   0   0  14   33.14    6.93
   0   0  15    1.27    6.61
   0   0  16 1998.60  140.53
   0   0  17    6.57    5.54
   0  -1  -2    0.89    1.32
   0   1   2   -0.97    1.23
   0   1   3   -0.05    1.73
   0  -1  -3    0.49    1.75
   0   1  -4    0.80    1.53
   0  -1  -4    1.63    1.99
   0   1  -5   -1.95    1.66
   0  -1  -5   -0.76    2.22
   0  -1  -6   -0.42    2.28
   0   1  -6    0.35    1.97
   0  -1  -7   -0.63    2.20
   0   1  -7    0.46    2.15
   0   1  -8   -1.78    2.20
   0  -1  -8   -0.84    2.53
   0  -1   9    1.98    3.49
   0   1   9    1.07    3.52
   0   1  10   15.51    4.29
   0  -1  10   10.88    4.58
   0   1  11   21.13    5.08
   0  -1  11   23.16    5.48
   0   1  12   93.46    8.84
   0  -1  12   85.51    9.50
   0   1  13   42.40    8.51
   0  -1  13   74.52    8.26
   0   1  14   52.93    7.88
   0  -1  14   38.28    7.81
   0  -1  15  251.26   20.19
   0   1  15  270.87   20.17
   0   1  16  686.06   47.78
   0  -1  16  644.63   48.01
   0  -1  17   31.19    6.49
   0   1  17   40.08    6.26
   0   2   0 2710.39  189.88
   0   2  -1 2959.36  207.26
   0  -2  -2 4580.50  322.95
   0   2   2 4639.80  322.94
   0  -2  -3 1253.26   87.91
   0   2   3 1252.31   87.91
   0  -2  -4  676.75   48.79
   0   2   4  711.16   48.82
   0  -2  -5 2928.44  203.94
   0   2  -5 2893.65  203.87
   0   2  -6  259.26   18.71
   0  -2  -6  268.34   18.86
   0  -2  -7 2481.69  171.68
   0   2  -7 2421.02  171.56
   0   2  -8 1246.42   87.62
   0   2   8 1237.81   87.57
   0  -2  -8 1259.70   87.79
   0   2   9 1641.04  112.95
   0  -2   9 1572.71  112.98
   0  -2  10  876.46   65.02
   0   2  10  966.97   65.02
   0  -2  11 1159.16   82.53
   0   2  11 1180.86   82.47
   0  -2  12   99.83    9.64
   0   2  12  113.36    9.51
   0   2  13  759.46   50.78
   0  -2  13  665.24   50.80
   0   2  14  298.64   22.16
   0  -2  14  291.96   22.23
   0  -2  15 1089.47   78.62
   0   2  15 1130.29   78.52
   0  -2  16   85.76    9.23
   0   2  16   89.81    8.97
   0   2  17  198.66   15.15
   0   3   0    0.61    1.63
   0  -3   1    0.38    1.07
   0   3  -1    0.84    1.00
   0  -3   2   -0.01    0.97
   0   3   3   -0.33    2.04
   0  -3  -3   -0.47    2.28
   0   3   4    0.61    2.07
   0  -3  -4   -0.85    2.53
   0   3   5    0.60    2.54
   0  -3  -5    0.41    2.52
   0   3  -6    0.10    1.89
   0  -3  -6    0.25    2.82
   0  -3  -7    0.67    2.95
   0   3  -7    0.20    1.88
   0   3  -8    0.81    2.00
   0   3   8   -0.35    3.24
   0   3   9   -1.19    3.54
   0   3  10   -2.25    3.93
   0   3  11   11.09    4.94
   0  -3  12    5.23    5.67
   0   3  12    5.81    5.57
   0  -3  13   11.88    7.06
   0   3  13   41.93    6.98
   0  -3  14    6.91    7.37
   0   3  14   21.59    7.03
   0   3  15  130.48   11.95
   0  -3  15  135.63   12.42
   0  -3  16   14.69    6.96
   0   3  16   15.94    6.15
   0   3  17   20.82    5.29
   0   4   0 4538.62  317.98
   0   4  -1  102.36    7.33
   0  -4   1   99.72    7.45
   0  -4   2  219.08   15.48
   0  -4   3    6.83    1.40
   0   4   3    5.54    2.30
   0   4   4 8669.90  599.54
   0  -4   4 8511.65  599.38
   0   4   5   94.21    7.37
   0   4  -6  180.55   14.17
   0   4   6  222.14   14.47
   0   4  -7  106.34    7.99
   0   4  -8  653.19   46.40
   0  -4   8  616.13   46.34
   0   4   8  709.65   46.42
   0   4   9  301.22   21.78
   0   4  10  258.94   18.93
   0   4  11  107.53    9.25
   0   4  12 1517.66  106.84
   0   4  13   10.59    6.19
   0  -4  13    1.87    6.55
   0  -4  14   13.46    7.40
   0   4  14   14.24    6.59
   0   4  15   44.96    7.24
   0  -4  15   49.57    8.12
   0  -4  16  318.60   23.85
   0   4  16  322.42   23.50
   0   4  17   44.99    5.74
   0   4  18   95.34    7.58
   0   5   0   -0.21    2.71
   0   5  -1   -0.53    1.83
   0   5  -2   -0.41    1.81
   0  -5   2   -0.03    1.83
   0   5   3    0.82    2.66
   0  -5   3   -0.20    1.49
   0  -5   4   -0.57    1.57
   0   5   4   -1.00    2.92
   0   5   5    0.81    2.98
   0  -5   5    0.68    1.79
   0   5   6    1.29    3.09
   0   5  -7   -0.77    2.35
   0   5  -8    0.03    2.04
   0   5   8    1.43    3.34
   0   5   9    1.33    4.09
   0   5  10   -3.28    4.41
   0   5  11   -0.83    4.93
   0   5  12    4.97    5.45
   0   5  13   -7.58    6.03
   0   5  14    1.90    6.36
   0   5  15    1.60    6.19
   0  -5  15   -0.06    7.33
   0   5  16    6.73    5.38
   0   5  17    3.73    4.49
   0   5  18    3.06    2.85
   0   6   0 1323.74   93.01
   0   6   1  807.35   56.61
   0   6  -1  799.50   56.44
   0  -6   2 1077.63   78.20
   0   6  -2 1139.11   78.13
   0   6   3 1376.20   93.19
   0  -6   3 1303.86   92.93
   0   6   4 1859.76  128.58
   0  -6   4 1819.00  128.29
   0  -6   5 1339.07   94.23
   0   6   5 1354.64   94.53
   0   6   6 5192.46  364.08
   0   6   7 1772.12  124.71
   0   6   8  231.87   13.96
   0   6  -8  159.32   13.68
   0   6   9 1061.38   74.80
   0   6  10  394.43   28.41
   0   6  11  406.44   29.33
   0   6  12  358.52   26.16
   0   6  13 1175.10   82.98
   0   6  14  164.14   13.57
   0   6  15  265.48   19.93
   0   6  16   84.71    8.06
   0   6  17  296.82   21.50
   0   7   0    0.20    3.11
   0   7   1   -0.04    3.30
   0   7  -1    1.13    2.94
   0   7  -2   -0.73    2.08
   0   7   3    0.76    3.19
   0  -7   3    0.22    2.60
   0   7   4   -3.04    3.45
   0  -7   4   -0.21    2.20
   0  -7   5    2.83    2.24
   0   7   5   -2.56    3.54
   0   7   6    1.03    3.48
   0   7   7   -2.31    3.40
   0   7   7   -2.70    4.34
   0   7   8   -0.15    3.71
   0   7   9   -1.69    4.39
   0   7  10    0.94    4.94
   0   7  11    0.97    5.44
   0   7  12   -2.91    5.87
   0   7  13   -0.80    6.12
   0   7  14    2.57    6.18
   0   7  15   -0.43    5.85
   0   7  16    2.77    4.97
   0   7  17   -0.95    3.78
   0   8   0 9999.00  700.45
   0   8   1   58.37    5.58
   0   8  -1   48.56    4.99
   0   8   2 1083.92   75.97
   0   8   2 1085.58   75.83
   0   8  -2 1067.63   75.57
   0   8   3  299.64   21.88
   0   8   4  218.66   16.42
   0   8   5   67.87    6.71
   0   8   6  630.95   45.00
   0  -8   7  131.51    9.76
   0   8   7  130.79   10.92
   0   8   7  134.44   10.23
   0   8   8 7453.73  513.50
   0   8   8 7259.68  513.04
   0   8   9  169.94   13.10
   0   8  10   67.45    7.20
   0   8  11   27.86    6.22
   0   8  12  275.62   20.56
   0   8  13    3.49    6.13
   0   8  14  461.73   33.32
   0   8  15   18.99    5.83
   0   8  16 1886.37  132.51
   0   8  17   29.72    4.23
   0   9   0    2.42    3.51
   0   9  -1    1.00    3.01
   0   9   1   -0.72    3.77
   0   9  -2   -2.15    2.64
   0   9   2    0.89    3.87
   0   9   3   -1.29    3.93
   0   9   3   -0.46    4.20
   0   9   4   -1.67    4.36
   0   9   5   -0.46    4.50
   0   9   6    3.31    4.21
   0   9   7   -1.77    3.87
   0   9   7    0.52    4.34
   0   9   8   -1.86    4.31
   0   9   9    0.70    4.74
   0   9  10   -2.57    5.37
   0   9  11    3.45    5.86
   0   9  12   -2.78    6.10
   0   9  13    2.09    6.19
   0   9  14    0.39    5.88
   0   9  15    0.79    5.46
   0   9  16   -1.66    4.40
   0   9  17    2.11    3.12
   0  10   0 2221.23  156.00
   0  10  -1 1717.70  118.77
   0  10   1 1656.60  118.87
   0  10   2  238.19   17.73
   0  10  -2  241.58   17.37
   0  10   3 2308.68  166.58
   0  10   3 2418.43  166.46
   0  10   4 1326.20   93.75
   0  10   5 1186.01   83.06
   0  10   5 1160.31   83.11
   0  10   6  541.50   36.59
   0  10   6  467.79   37.00
   0  10   7 1327.60   93.46
   0  10   8  399.82   28.74
   0  10   9  503.25   36.03
   0  10  10  104.05    9.39
   0  10  11  653.97   46.73
   0  10  12  262.89   19.82
   0  10  13  460.40   33.31
   0  10  14   24.42    5.99
   0  10  15  176.86   13.67
   0  10  16  423.77   30.21
   0  10  17  126.12    9.46
   0  11   0   -3.31    4.13
   0  11  -1    2.57    3.69
   0  11   1   -0.86    5.24
   0  11   1   -1.92    3.94
   0  11   2    2.44    4.19
   0  11  -2    0.18    3.07
   0  11  -3   -1.29    3.04
   0  11   3    1.82    4.84
   0  11   3    0.12    4.28
   0  11   4    1.12    5.22
   0  11   5    7.37    4.54
   0  11   5    1.48    3.97
   0  11   6    0.56    4.21
   0  11   7   -1.90    4.52
   0  11   8    0.10    4.71
   0  11   9    0.97    5.01
   0  11  10    2.39    5.65
   0  11  11   -5.21    6.25
   0  11  12   -0.06    6.35
   0  11  13    2.81    6.08
   0  11  14    6.84    5.42
   0  11  15    5.79    4.82
   0  11  16   -6.01    3.84
   0  11  17   -0.07    2.39
   0  12   0 4608.92  323.32
   0  12   0 4612.93  323.67
   0  12   1  712.73   51.07
   0  12   1  694.83   50.76
   0  12  -1  731.81   50.62
   0  12  -2  550.17   38.91
   0  12   2  545.11   39.15
   0  12   3    7.84    4.69
   0  12   3    9.54    4.52
   0  12  -3   10.91    3.42
   0  12   4 7323.83  516.56
   0  12   4 7355.49  516.02
   0  12   4 7408.01  516.31
   0  12   5    7.06    4.20
   0  12   6  242.73   18.00
   0  12   7    3.12    4.88
   0  12   8  302.99   22.24
   0  12   9   61.47    7.11
   0  12  10   74.23    7.94
   0  12  11    2.86    6.41
   0  12  12  966.56   68.48
   0  12  13   49.16    6.92
   0  12  14  252.72   18.76
   0  12  15    3.00    4.49
   0  12  16   93.70    7.57
   0  13   0    2.08    4.25
   0  13   0   -0.09    5.20
   0  13  -1   -3.52    3.86
   0  13   1    0.09    4.90
   0  13   1    1.36    4.45
   0  13   2    2.38    4.40
   0  13  -2    0.50    3.59
   0  13   3    0.58    5.01
   0  13   3    2.00    4.69
   0  13   3   -4.45    4.75
   0  13  -3    3.44    3.63
   0  13   4    2.60    4.55
   0  13   5    1.00    4.50
   0  13   6    1.02    4.82
   0  13   7    3.17    5.19
   0  13   8    3.63    5.22
   0  13   9    1.15    5.47
   0  13  10   -1.46    5.89
   0  13  11   -3.33    6.32
   0  13  12    0.39    6.28
   0  13  13   -3.91    5.52
   0  13  14   -4.35    4.92
   0  13  15    1.56    4.16
   0  13  16    1.33    2.99
   0  14   0 1071.70   79.98
   0  14   0 1170.46   79.74
   0  14  -1  915.38   65.13
   0  14   1  942.71   64.92
   0  14   1  805.88   65.08
   0  14  -1  970.55   64.80
   0  14  -2  758.85   54.46
   0  14   2  785.02   54.74
   0  14   3 1082.90   76.50
   0  14   4 1658.68  116.72
   0  14   5 1556.67  109.58
   0  14   6  915.86   64.80
   0  14   7  449.52   32.46
   0  14   8  183.53   14.38
   0  14   9  316.41   23.38
   0  14  10  224.19   17.33
   0  14  11  676.74   48.33
   0  14  12  734.82   52.30
   0  14  13  301.20   22.12
   0  14  14  140.39   11.12
   0  14  15  348.42   24.97
   0  14  16   37.27    3.80
   0  15   0    2.75    4.62
   0  15  -1    1.14    4.55
   0  15  -2   -1.50    4.06
   0  15   2    0.17    5.47
   0  15   3   -1.42    5.44
   0  15   4    1.97    5.09
   0  15   5   -0.46    5.05
   0  15   6   -1.18    5.17
   0  15   7   -1.84    5.80
   0  15   8   -2.68    5.66
   0  15   9   -1.19    5.80
   0  15  10    0.79    6.09
   0  15  11   -1.18    6.25
   0  15  12    0.05    5.88
   0  15  13   -9.24    5.02
   0  15  14   -2.57    4.26
   0  15  15    2.81    3.39
   0  16   2  762.95   54.42
   0  16   3  179.39   14.40
   0  16   4  682.38   48.62
   0  16   5  154.14   12.62
   0  16   6  354.85   25.97
   0  16   7   53.68    7.41
   0  16   8 1057.21   74.81
   0  16   9   35.29    6.69
   0  16  10  297.59   22.19
   0  16  11   79.86    8.57
   0  16  12   37.10    6.42
   0  16  13    3.07    4.71
   0  16  14  182.14   13.63
   0  16  15    5.78    3.01
   0  17   2    3.25    6.37
   0  17   3    3.17    6.13
   0  17   4   -2.82    5.91
   0  17   5   -1.05    5.73
   0  17   6   -2.08    5.95
   0  17   7    4.02    6.28
   0  17   8   -4.33    6.28
   0  17   9    3.19    6.12
   0  17  10    1.10    6.04
   0  17  11    2.57    5.93
   0  17  12    0.93    5.45
   0  17  13   -2.57    4.38
   0  17  14   -3.17    3.48
   0  17  15    2.07    2.52
   0  18   2  274.24   21.20
   0  18   3  293.29   22.30
   0  18   4   97.70    9.68
   0  18   5  758.29   54.04
   0  18   6  512.65   37.01
   0  18   7   37.92    7.02
   0  18   8  755.28   53.82
   0  18   9  438.76   31.84
   0  18  10   83.98    8.71
   0  18  11  276.32   20.61
   0  18  12    7.40    5.11
   0  18  13  392.93   28.13
   0  18  14   74.51    6.28
   0  19   1   -0.63    7.89
   0  19   2    1.13    7.31
   0  19   3    3.27    7.13
   0  19   4    4.29    6.45
   0  19   5    0.98    6.43
   0  19   6    1.93    6.49
   0  19   7    0.32    6.82
   0  19   8    0.59    6.29
   0  19   9    0.72    6.12
   0  19  10    2.79    5.80
   0  19  11   -0.05    5.43
   0  19  12   -3.03    4.57
   0  19  13   -0.77    3.78
   0  19  14   -3.54    2.70
   0  20   1    2.94    8.22
   0  20   2  154.04   13.93
   0  20   3   35.89    8.00
   0  20   4 1364.75   96.44
   0  20   5  115.97   11.11
   0  20   6  435.50   31.85
   0  20   7   45.09    7.73
   0  20   8  132.84   11.74
   0  20   9  263.14   19.86
   0  20  10  185.40   14.51
   0  20  11   51.95    6.59
   0  20  12 1390.38   97.77
   0  20  13   21.09    3.59
   0  21   1   -9.39    8.71
   0  21   2    1.76    8.24
   0  21   3    3.93    7.37
   0  21   4    2.27    7.06
   0  21   5   -2.61    7.06
   0  21   6   -2.52    6.95
   0  21   7   -1.13    6.66
   0  21   8    1.40    6.23
   0  21   9   -1.27    5.78
   0  21  10    4.43    5.34
   0  21  11    0.84    4.80
   0  21  12   -1.72    3.59
   0  21  13   -2.05    2.60
   0  22   0  128.31   13.07
   0  22   1  306.51   24.00
   0  22   2  232.90   19.01
   0  22   3  589.68   42.68
   0  22   4  906.08   64.58
   0  22   5  435.23   31.98
   0  22   6  221.23   17.64
   0  22   7  163.37   13.70
   0  22   8  303.88   22.59
   0  22   9  109.56    9.74
   0  22  10  171.02   13.32
   0  22  11  107.16    8.91
   0  22  12  205.01   14.90
   0  23   0   -0.90    8.88
   0  23   1   -4.38    8.84
   0  23  -1    0.65    8.83
   0  23   2   -1.14    8.37
   0  23   3   -1.73    7.52
   0  23   4    3.19    7.33
   0  23   5    0.66    7.23
   0  23   6   -2.34    7.15
   0  23   7    3.72    6.26
   0  23   8   -1.02    5.56
   0  23   9    5.53    4.99
   0  23  10    6.15    4.47
   0  23  11    4.75    3.56
   0  23  12   -1.43    2.33
   0  24   0  716.44   51.68
   0  24   1    6.71    8.34
   0  24  -1   -1.85    8.76
   0  24   2  121.47   11.99
   0  24   3   13.06    7.46
   0  24   4  126.25   11.84
   0  24   5  233.32   18.33
   0  24   6   91.70    9.52
   0  24   7   35.88    6.35
   0  24   8  899.00   63.63
   0  24   9   16.54    4.74
   0  24  10  100.78    8.34
   0  24  11   59.63    5.12
   0  25   0    5.20    7.95
   0  25   1    2.51    7.54
   0  25  -1    5.10    7.61
   0  25   2    1.49    6.97
   0  25  -2    1.30    7.65
   0  25   3    6.72    7.05
   0  25   4    3.76    6.74
   0  25   5   -2.77    6.51
   0  25   6    2.25    6.00
   0  25   7   -0.65    5.26
   0  25   8   -0.60    4.51
   0  25   9   -5.33    3.95
   0  25  10   -2.28    3.05
   0  26   0  574.51   41.43
   0  26  -1  435.04   31.90
   0  26   1  433.84   31.67
   0  26   2   39.42    7.06
   0  26  -2   30.90    7.50
   0  26   3  483.59   32.39
   0  26  -3  402.57   32.57
   0  26  -4    2.35    6.68
   0  26   4    2.97    6.15
   0  26   5  172.04   13.76
   0  26   6  106.40    9.36
   0  26   7  144.78   11.40
   0  26   8  139.06   10.74
   0  26   9   44.82    4.61
   0  27   0    5.49    5.69
   0  27   1    7.10    5.48
   0  27  -1    1.38    6.02
   0  27  -2   -1.33    6.03
   0  27   2   -3.29    5.77
   0  27  -3   -0.60    5.88
   0  27   3   -3.42    5.55
   0  27   4    0.50    5.41
   0  27  -4   -1.23    5.65
   0  27  -5   -2.97    5.38
   0  27   5    1.13    4.85
   0  27  -6   -2.28    5.05
   0  27   6   -0.78    4.18
   0  27  -7   -1.37    4.56
   0  27   7   -5.20    3.64
   0  27   8    2.01    2.95
   0  27  -8    3.49    3.97
   0  27  -9   -1.17    2.93
   0  28   0    6.71    4.78
   0  28  -1   15.24    5.06
   0  28   1   24.27    5.17
   0  28   2  144.48   10.94
   0  28  -2  125.76   11.05
   0  28   3  156.35   12.13
   0  28  -3  152.00   12.21
   0  28   4  862.83   58.88
   0  28  -4  801.65   58.90
   0  28  -5   41.37    5.71
   0  28   5   49.92    5.17
   0  28   6   18.29    3.59
   0  28  -6   17.47    4.37
   0  28   7   21.97    3.10
   0  28  -7   17.73    3.88
   0  28  -8    0.57    2.66
   0  29   0    1.29    3.99
   0  29  -1    1.09    3.75
   0  29   1    2.83    3.85
   0  29   2   -0.90    3.78
   0  29  -2    0.39    3.75
   0  29  -3    0.76    3.74
   0  29   3   -0.26    3.67
   0  29   4   -2.42    3.24
   0  29  -4    2.58    3.56
   0  29  -5    0.29    3.39
   0  29   5   -3.54    2.69
   0  29   6    0.91    2.18
   0  29  -6   -1.28    2.91
   0  30   0    7.35    3.14
   0  30   1   38.41    4.25
   0  30  -1   36.55    4.20
   0  30  -2   17.49    3.34
   0  30   2   23.65    3.34
   0  30  -3   24.08    3.39
   0  30   3   27.84    3.24
   0  30   4  113.43    7.62
   0  30  -4   87.23    7.70
   0  30  -5   25.44    2.88
   0  31   0   -0.32    2.05
   0  31  -1   -0.77    1.99
   0  31   1   -0.31    1.88
  -1   0  -1    6.72    2.19
  -1   0  -2    9.51    2.53
  -1   0  -3    0.11    2.84
  -1   0  -4   92.86    6.62
   1   0   4   72.90    6.02
  -1   0  -5    3.84    2.93
   1   0   5    1.20    1.99
  -1   0  -6   61.82    5.20
   1   0   6   48.53    4.36
   1   0   7   -0.09    2.10
  -1   0  -7   -0.57    3.44
   1   0   8  530.23   36.13
  -1   0   8  493.47   36.04
   1   0  -9   13.09    3.37
   1   0   9   16.07    4.06
   1   0  10   84.83    8.24
   1   0 -10   65.92    7.81
   1   0  11   15.01    5.44
  -1   0  11   37.12    5.09
   1   0  12  389.93   27.00
  -1   0  12  352.61   26.72
   1   0  13   35.15    7.08
  -1   0  13   43.67    6.65
  -1   0  14   99.79    8.60
   1   0  14   58.22    8.88
  -1   0  15  378.83   25.68
   1   0  15  315.05   25.87
   1   0  16 1210.17   85.42
   1   0  17   47.44    6.45
  -1  -1   0 7769.02  544.16
  -1   1  -1  405.86   29.59
  -1  -1  -1  464.70   29.65
  -1  -1  -1  412.94   29.62
  -1  -1   1  403.59   29.53
  -1  -1  -2  759.02   56.31
  -1   1  -2  786.29   56.20
  -1  -1  -2  835.75   56.30
  -1  -1   2  807.38   56.09
  -1  -1  -3    9.04    2.93
  -1   1  -3    7.26    2.74
   1   1   3   12.14    2.22
  -1  -1  -4  288.94   14.09
   1   1   4  259.64   13.75
   1   1   5  346.90   26.08
  -1   1  -5  398.64   26.36
  -1  -1  -5  370.49   26.27
   1   1   6   36.99    4.25
  -1  -1  -6   46.33    4.60
  -1   1  -6   46.40    4.78
  -1  -1  -7  197.05   14.33
  -1   1  -7  228.63   14.35
  -1   1   8 1404.29   97.64
   1   1   8 1401.38   97.68
  -1  -1   8 1373.90   97.67
   1   1  -8 1387.69   97.64
   1  -1   8 1384.47   97.69
  -1   1   9  334.13   24.46
   1  -1   9  339.08   24.57
   1  -1  -9  339.76   24.40
   1   1  -9  328.84   24.44
  -1  -1   9  352.73   24.49
   1   1   9  366.30   24.58
  -1  -1  10  704.74   49.22
   1   1 -10  700.88   49.18
   1  -1  10  683.84   49.30
   1   1  10  686.37   49.24
  -1   1  10  700.43   49.19
  -1   1  11  185.43   13.45
  -1  -1  11  179.22   13.51
   1  -1  11  167.55   13.70
   1   1  11  170.40   13.61
   1   1  12  277.37   20.90
  -1  -1  12  275.30   20.81
   1  -1  12  261.30   20.91
  -1   1  12  307.20   20.71
   1   1  13  182.08   14.23
  -1   1  13  181.49   13.84
   1  -1  13  161.00   14.17
  -1  -1  13  181.03   14.02
   1   1  14  206.94   15.93
  -1   1  14  209.58   15.57
   1  -1  14  189.05   15.93
  -1  -1  14  195.85   15.76
   1  -1  15  598.43   41.96
  -1   1  15  574.32   41.70
   1   1  15  612.74   41.89
  -1  -1  15  558.80   41.78
   1   1  16 1126.93   74.18
   1  -1  16 1043.15   74.23
  -1   1  16  995.37   74.02
   1   1  17  122.92   10.29
  -1  -2   0   45.77    3.81
  -1  -2  -1    4.80    1.87
  -1  -2   1    4.16    1.69
  -1  -2  -1    3.90    2.20
   1   2   2  375.01   25.31
  -1  -2   2  364.33   25.14
  -1  -2  -2  388.70   25.42
  -1  -2  -2  331.14   25.32
  -1   2  -2  333.66   25.20
   1   2   3    2.18    2.29
  -1  -2  -3    5.44    2.99
  -1   2  -3    1.85    2.17
  -1   2   4    5.53    2.03
  -1  -2  -4    7.49    2.71
   1   2   4    7.44    3.12
  -1  -2  -5   43.29    3.73
   1   2   5   54.88    4.11
   1   2   6   18.71    4.01
  -1  -2  -6   25.31    4.06
  -1   2  -6   18.00    3.94
   1   2   7  152.14   11.82
  -1   2  -7  148.77   11.97
  -1  -2  -7  159.26   11.93
   1  -2   8   34.39    4.24
  -1   2   8   45.54    3.97
   1   2   8   56.11    4.56
   1   2  -8   25.39    3.97
  -1  -2   8   26.06    4.13
   1  -2   9  144.59   10.09
   1   2   9  161.04   10.06
  -1   2   9  148.49    9.85
   1   2  -9  103.54    9.76
   1  -2  -9  102.68    9.61
  -1  -2   9  126.42    9.94
   1  -2  10  272.63   18.97
  -1   2  10  315.85   18.88
  -1  -2  10  227.34   18.91
   1   2 -10  180.54   18.74
   1   2  10  324.35   19.05
   1   2  11  268.58   16.51
   1  -2  11  226.06   16.51
  -1  -2  11  203.62   16.33
   1   2 -11  174.52   16.20
  -1   2  11  229.24   16.24
  -1  -2  12   36.97    6.34
   1  -2  12   27.13    6.56
   1   2  12   39.01    6.67
   1  -2  13  243.83   19.45
   1   2  13  285.63   19.48
  -1   2  13  282.13   19.17
  -1  -2  14  162.08   15.27
  -1   2  14  208.89   14.99
   1  -2  14  176.94   15.56
   1   2  14  216.91   15.58
   1  -2  15  392.54   31.80
  -1   2  15  455.29   31.52
  -1  -2  15  374.32   31.71
  -1   2  16  380.50   21.85
   1   2  16  304.67   21.98
   1   2  17  104.70    9.17
  -1  -3   0 1322.08   92.85
  -1  -3   1   14.23    2.36
  -1  -3  -1   12.22    2.41
   1   3   1   11.52    2.70
  -1  -3  -1   11.39    2.90
  -1  -3  -2  680.63   48.44
  -1  -3   2  700.43   48.21
  -1  -3  -2  753.61   48.53
   1   3   2  657.26   48.34
  -1   3  -2  666.21   48.22
   1   3   3   38.60    4.14
   1   3   4  136.47    8.88
  -1   3   4   93.96    8.34
  -1  -3  -5  435.63   26.90
   1   3   5  412.04   27.00
   1   3   6   28.95    5.11
  -1   3  -6   28.12    3.91
  -1   3   6   14.70    2.26
  -1  -3  -6   30.25    3.89
  -1  -3  -7  483.68   34.82
   1   3   7  488.66   35.06
  -1   3  -7  483.75   34.93
   1  -3   8   44.42    5.09
  -1   3   8   54.15    4.87
   1   3  -8   57.15    4.93
   1   3   8   45.60    6.52
   1   3   8   58.14    5.35
  -1  -3   8   54.16    5.03
   1  -3   9  547.68   38.21
  -1   3   9  530.22   38.06
   1   3   9  541.48   38.20
   1   3  -9  528.99   38.12
   1  -3  -9  540.42   38.04
  -1  -3   9  542.15   38.16
  -1   3  10  582.02   40.68
   1  -3  10  560.21   40.83
   1   3 -10  555.21   40.72
  -1  -3  10  576.85   40.80
   1   3  10  597.66   40.82
  -1   3  11  602.57   40.72
   1   3  11  590.76   40.82
  -1  -3  11  586.30   40.83
   1   3 -11  526.06   40.79
   1  -3  11  555.20   40.86
  -1   3  12  315.46   22.54
   1   3  12  318.30   22.73
  -1  -3  12  297.05   22.77
   1  -3  12  300.04   22.76
   1   3  13  422.82   30.22
  -1   3  13  442.72   29.96
  -1  -3  13  409.76   30.26
   1  -3  13  377.71   30.19
   1   3  14  264.89   18.05
  -1   3  14  240.15   17.48
   1  -3  14  200.16   18.00
  -1  -3  14  218.70   17.89
   1   3  15  476.90   33.10
   1  -3  15  426.05   33.20
  -1   3  15  463.52   32.85
  -1   3  16  140.84   11.98
   1  -3  16  144.91   12.76
   1   3  16  176.33   12.54
   1   3  17   59.84    6.57
  -1  -4   0  198.65   14.41
  -1  -4  -1   13.42    3.04
  -1  -4  -1   21.17    3.81
  -1  -4   1   20.03    2.34
   1   4   1   17.48    3.29
  -1  -4  -2   -0.49    2.65
   1   4   2    0.97    2.87
  -1  -4   2    1.18    2.55
  -1  -4  -2    0.22    3.65
  -1   4  -2    1.89    1.62
   1   4   3   -1.94    3.68
  -1  -4   3    0.98    2.84
  -1  -4   4   60.36    5.48
   1   4   4   57.50    6.23
  -1  -4   5   16.73    3.67
  -1   4   5   11.04    3.10
  -1  -4  -5   21.94    3.80
   1   4   5   25.68    5.57
   1   4   6   -0.82    5.69
  -1  -4  -6    2.41    3.43
  -1   4   6    0.95    2.20
   1   4   7   -3.29    6.47
  -1  -4  -7    3.53    3.66
  -1  -4   7   -0.82    4.17
  -1   4  -7   -0.95    3.68
   1  -4   8   48.91    4.97
  -1   4   8   41.61    4.55
   1   4   8   60.77    5.32
   1   4   8   43.92    7.70
  -1  -4   8   43.73    6.00
   1   4  -8   44.72    4.84
  -1  -4   8   49.94    4.96
   1   4  -9   18.61    4.05
   1   4   9   23.69    4.74
  -1  -4   9   21.00    4.33
   1  -4   9   25.71    4.38
  -1   4   9   28.12    3.82
  -1   4  10   30.79    4.30
   1  -4  10   19.22    4.99
  -1  -4  10   23.67    5.08
   1   4 -10   15.12    4.41
   1   4  10   22.52    4.85
   1  -4  11    1.19    5.24
  -1   4  11   10.33    4.56
   1   4  11    3.10    5.43
   1   4 -11    4.63    5.64
  -1  -4  11    2.13    5.41
  -1   4  12  140.30   10.65
   1   4  12  155.74   11.19
   1  -4  12  109.49   11.25
  -1  -4  12   98.48   11.18
   1  -4  13    9.62    6.89
   1   4  13   21.66    6.72
  -1   4  13   32.31    5.66
  -1  -4  13    9.68    6.82
  -1   4  14   15.82    5.46
  -1  -4  14    2.03    6.85
   1  -4  14   10.91    6.93
  -1   4  15   44.42    6.12
   1   4  15   44.88    7.21
   1   4  16   95.19    8.86
  -1   4  16   89.40    8.14
   1   4  17   22.17    4.79
  -1  -5   0  430.14   30.54
   1   5   1    5.55    2.97
  -1  -5  -1    7.99    3.52
  -1  -5   1    3.86    1.98
   1   5   1    5.24    3.09
  -1  -5  -1    4.65    2.83
   1   5   2   93.68    8.92
  -1  -5  -2  122.18    9.43
  -1  -5  -2  133.98    8.99
   1   5   2  112.78    8.89
  -1  -5   2  103.83    8.72
  -1  -5   3   86.47    6.97
  -1  -5  -3   85.16    7.35
   1   5   3   94.77    7.82
   1   5   4  316.30   21.75
  -1  -5   4  284.77   21.20
  -1  -5   5   73.84    5.68
   1   5   5   51.31    7.59
  -1   5   5   45.47    5.39
  -1  -5  -5   66.83    5.93
  -1  -5   6 1373.76   88.02
  -1  -5  -6 1332.45   88.13
   1   5   6 1260.87   88.72
  -1   5   6 1100.48   87.87
  -1  -5   7   61.61    6.02
   1   5  -7   78.17    5.29
   1   5   7   63.44    9.36
   1   5   7   65.16    5.40
  -1   5   8  280.09   20.61
   1   5   8  314.32   20.83
  -1  -5   8  300.18   20.76
   1   5  -8  265.51   20.69
   1  -5  -8  302.13   20.57
   1   5   8  283.29   23.17
   1  -5   8  266.27   20.69
   1   5  -9   64.41    6.36
   1   5   9   75.20    6.94
  -1  -5   9   74.59    6.64
  -1   5   9   63.62    5.93
   1  -5   9   61.40    6.44
  -1   5  10  304.12   22.54
   1   5  10  340.26   22.89
   1   5 -10  289.33   22.74
  -1  -5  10  345.85   22.92
   1  -5  10  295.48   22.80
  -1  -5  11   57.92    7.02
   1   5 -11   48.27    7.44
  -1   5  11   48.64    5.94
   1   5  11   56.60    6.88
   1  -5  11   54.61    7.00
  -1   5  12  617.57   43.43
   1   5  12  659.09   43.67
   1  -5  12  606.70   43.73
  -1  -5  12  623.62   43.76
   1   5 -12  526.97   43.92
  -1   5  13  388.19   27.43
   1  -5  13  356.50   27.87
  -1  -5  13  353.66   27.90
   1   5  13  407.43   27.80
   1  -5  14   71.86    9.03
   1   5  14   74.69    8.71
  -1   5  14   71.75    7.47
   1  -5  15   43.42    7.73
   1   5  15   54.81    7.30
  -1   5  15   40.35    6.09
  -1   5  16   94.96    8.11
   1   5  16   90.14    8.66
   1   5  17  182.27   13.69
  -1  -6   0    0.79    2.75
   1   6   0   -1.48    2.94
  -1  -6  -1    4.46    3.83
   1   6   1    1.98    3.36
  -1  -6  -1    3.14    2.74
  -1  -6   1    5.66    3.25
   1   6   1    2.63    3.13
  -1  -6  -2   24.19    4.07
  -1  -6   2   33.65    3.93
   1   6   2   30.09    4.72
  -1  -6  -2   34.77    5.27
   1   6   2   29.66    4.25
   1   6  -3    2.58    1.63
  -1  -6  -3    4.05    3.35
  -1  -6   3    5.70    2.95
   1   6   3    5.25    4.55
   1   6   3    5.71    3.35
  -1  -6   4    1.95    2.91
   1   6   4    1.13    5.26
  -1   6   5   10.36    3.49
  -1  -6  -5   20.00    3.81
   1   6   5   14.74    6.62
  -1  -6   5   21.91    3.43
  -1  -6   6  320.39   21.31
   1   6   6  262.67   23.23
  -1  -6  -6  319.02   21.52
  -1   6   6  253.41   21.34
   1   6   7   46.80    4.78
   1   6   7   30.62   10.14
   1  -6   7   43.22    4.34
   1   6  -7   50.36    4.55
  -1  -6   7   43.09    4.87
  -1  -6   7   41.32    4.59
  -1   6   8    1.90    3.29
   1  -6   8    3.53    3.69
   1   6  -8    3.84    3.86
   1   6   8    3.41    4.12
  -1  -6   8    8.08    3.98
   1  -6  -8    0.52    2.86
  -1   6   9   70.13    6.52
   1   6  -9   67.81    6.99
   1   6   9   88.00    7.35
  -1  -6   9   74.66    7.36
   1  -6   9   75.52    7.15
   1   6 -10   40.54    6.03
  -1   6  10   32.22    4.86
   1  -6  10   35.10    5.96
  -1  -6  10   28.57    6.01
   1   6  10   37.13    6.12
  -1  -6  11   35.23    6.61
  -1   6  11   29.06    5.01
   1   6 -11   17.15    7.46
   1  -6  11   30.15    6.49
   1   6  11   28.99    6.21
   1   6  12   17.79    6.65
   1  -6  12   19.14    6.82
   1   6 -12    3.58    7.37
  -1  -6  12   14.46    6.94
  -1   6  12   24.94    5.29
  -1   6  13  108.57    9.03
   1   6  13  102.37    9.80
   1  -6  14   21.83    7.59
   1   6  14   36.37    7.29
  -1   6  14   29.69    5.67
   1   6  15   39.77    6.96
  -1   6  15   35.43    5.60
  -1   6  16    7.26    4.19
   1   6  16    7.62    5.15
   1   6  17   38.34    4.80
   1   7   0  120.95    9.54
   1   7  -1   20.98    3.72
  -1  -7  -1   17.59    3.98
  -1  -7   1   30.45    4.05
   1   7   1   20.00    3.88
  -1  -7  -2  585.67   41.67
  -1  -7   2  593.37   41.14
  -1  -7  -2  569.98   41.33
   1   7   2  596.08   41.34
   1   7   2  549.58   41.44
  -1  -7  -3    6.20    3.53
  -1  -7   3    4.69    3.04
   1   7   3    7.82    4.96
   1   7   3    9.20    3.74
   1   7   4   42.51    6.87
  -1  -7   4   47.62    4.71
  -1   7   5   26.53    4.45
   1   7   5   36.69    7.66
  -1  -7  -5   37.65    4.55
   1   7  -6 1087.01   70.31
   1   7   6  806.90   71.58
  -1  -7   6  992.01   70.43
  -1   7   6  950.03   70.56
  -1  -7  -6  989.18   70.68
   1  -7   7  146.08   11.00
   1   7   7  166.38   11.25
   1   7  -7  147.80   11.19
   1   7   7  113.20   15.67
  -1  -7   7  140.66   11.20
  -1  -7   7  128.42   11.35
   1   7  -8 1172.71   81.23
  -1   7   8 1118.72   81.12
   1   7   8 1178.21   81.25
   1  -7  -8 1146.33   81.07
  -1  -7   8 1225.03   81.29
   1  -7   8 1105.57   81.18
   1   7   9  531.76   36.21
   1   7  -9  464.30   36.13
  -1   7   9  495.83   35.91
  -1  -7   9  519.76   36.20
   1  -7   9  522.38   36.12
   1   7  10  256.82   17.28
  -1  -7  10  249.13   17.35
   1  -7  10  230.61   17.21
  -1   7  10  213.75   16.64
   1   7 -11   90.48   11.21
  -1   7  11  110.20    9.37
  -1  -7  11  111.21   10.54
   1   7  11  117.95   10.18
   1  -7  11  120.83   10.52
   1   7  12   45.50    7.62
   1   7 -12   50.22    8.31
   1  -7  12   43.10    7.75
  -1   7  12   50.79    6.17
   1   7  13  320.07   22.89
  -1   7  13  308.08   22.37
   1  -7  13  280.49   23.12
   1   7  14  510.55   34.53
  -1   7  14  455.17   34.10
   1   7  15  133.42   10.90
  -1   7  15  115.00    9.97
   1   7  16  731.61   48.01
  -1   7  16  643.14   47.78
   1   7  17  166.98   12.40
   1   8   0   27.65    4.62
   1   8   0   14.85    4.55
   1   8  -1    3.23    3.82
   1   8   1    0.43    3.87
  -1  -8   1    3.35    3.74
   1   8  -1    0.26    3.88
   1   8   2   31.12    4.76
   1   8  -2   36.40    4.65
  -1  -8   2   36.58    4.34
   1   8   2   38.31    5.65
  -1  -8  -2   32.70    5.04
   1   8   3    2.69    5.21
  -1  -8   3   10.71    3.50
  -1  -8  -3    7.42    4.13
   1   8   3    5.99    3.87
  -1  -8   4    6.46    3.26
   1   8   4    6.27    6.15
   1   8  -4    0.85    1.89
  -1   8   5    0.88    3.34
   1   8   5   -2.61    7.06
  -1  -8  -5    3.08    4.17
   1   8   5   -0.07    3.81
  -1  -8   5    2.29    3.52
  -1   8   6    5.92    4.44
   1   8   6   10.19    9.04
  -1  -8   6    7.69    3.80
   1   8  -6    9.43    3.74
   1   8   6   14.47    4.31
  -1  -8   7    7.27    3.97
   1  -8  -7   10.37    2.96
   1   8  -7   13.81    4.16
   1  -8   7   10.93    3.74
  -1   8   7   12.18    3.20
   1   8   7    8.66    4.33
  -1   8   8  268.92   20.29
   1   8   8  321.54   20.73
   1   8  -8  287.85   20.75
   1  -8  -8  259.67   20.24
   1  -8   8  292.83   20.57
   1  -8   9   13.82    5.49
   1   8   9   16.38    5.82
  -1   8   9   14.04    4.56
   1   8  10   10.23    6.14
  -1   8  10    8.44    4.34
   1  -8  10    6.99    6.04
   1   8 -10   10.67    7.47
  -1   8  11   -0.66    4.67
   1  -8  11    2.04    6.65
   1   8 -11   -1.92    7.50
   1   8  11    3.61    6.37
   1  -8  12   36.79    7.92
  -1   8  12   33.39    5.66
   1   8  12   38.62    7.38
  -1   8  13    0.32    5.18
   1   8  13   -4.12    6.89
  -1   8  14   52.79    6.55
   1   8  14   57.49    7.83
  -1   8  15    3.36    4.34
   1   8  15    1.04    5.85
   1   8  16  207.59   14.78
  -1   8  16  188.80   14.37
   1   8  17   -1.11    3.01
   1   9   0  359.56   28.70
  -1  -9   0  382.78   28.79
  -1  -9   1   12.02    4.13
   1   9   1   15.52    4.94
   1   9  -1    7.53    5.45
   1   9  -1    6.33    4.49
  -1   9  -2   11.45    2.96
  -1  -9   2   11.42    3.85
   1   9  -2   12.70    5.13
   1   9   2    4.89    5.21
   1   9   2   10.12    4.65
  -1  -9   3  348.92   21.57
   1   9   3  306.68   22.00
   1   9   3  288.90   22.18
  -1  -9   4   17.70    3.83
  -1   9   4    5.11    3.74
   1   9   4   22.43    6.08
  -1  -9  -5   42.32    5.55
   1   9  -5   64.83    4.37
  -1  -9   5   51.36    4.52
  -1   9   5   18.88    4.08
   1   9   5   49.71    7.54
   1   9   5   33.61    4.99
   1   9   6  282.63   16.69
   1   9  -6  281.50   16.62
  -1   9   7  418.41   30.57
   1   9   7  499.66   30.95
   1   9  -7  472.39   30.99
   1  -9  -7  398.63   30.53
   1  -9   7  409.54   30.76
  -1   9   8  913.96   67.60
   1   9   8 1022.80   67.85
   1   9  -8  851.51   67.93
   1  -9  -8  969.73   67.55
   1  -9   8 1037.06   67.79
   1   9  -9   31.73    7.26
  -1   9   9   18.47    4.69
   1   9   9   20.96    5.90
   1  -9   9   19.43    5.82
   1   9  10   12.07    6.37
  -1   9  10   16.36    4.70
   1  -9  10   14.06    6.38
   1   9 -10    6.02    7.91
  -1   9  11  184.23   14.32
   1   9  11  200.66   15.18
   1   9 -11  173.65   15.82
   1  -9  11  186.95   15.43
  -1   9  12   28.18    5.46
   1   9  12   30.21    7.03
  -1   9  13  289.35   22.35
   1   9  13  330.91   22.94
  -1   9  14  162.25   12.91
   1   9  14  171.23   13.69
  -1   9  15   29.62    4.70
   1   9  15   29.88    5.94
  -1   9  16  918.10   63.39
   1   9  16  875.59   63.53
   1   9  17   22.84    3.07
  -1 -10   0   26.20    5.44
   1  10   0   19.61    5.04
   1  10   0   16.63    7.17
  -1 -10   1    5.64    4.48
   1  10   1   -4.69    6.17
   1  10  -1    0.91    6.92
   1  10  -1    0.07    4.69
  -1  10  -2    5.65    2.87
   1  10   2    9.31    5.48
  -1 -10   2   12.45    4.14
   1  10  -2   17.18    6.40
   1  10   3   35.61    6.02
  -1 -10   3   38.29    4.89
   1  10   3   27.71    6.19
   1  10  -3   28.79    5.85
   1  10  -4   -1.51    3.39
  -1  10   4    1.13    3.76
   1  10   4   -2.46    6.03
  -1 -10   4    2.42    3.94
   1  10   5   46.28    5.41
  -1 -10   5   40.32    4.98
   1  10  -5   46.20    5.24
   1  10   6   29.12    5.25
   1  10  -6   25.34    5.63
  -1 -10   6   14.63    4.65
  -1  10   6    3.25    4.70
  -1  10   6   15.31    3.51
   1 -10  -7   24.97    4.03
  -1  10   7   28.23    4.38
   1  10   7   35.01    5.90
  -1  10   8    1.02    3.90
   1 -10  -8    2.88    3.31
   1  10   8    3.33    5.60
  -1  10   9   17.84    4.69
   1  10  -9    1.69    8.00
   1  10   9   15.38    6.06
  -1  10  10    6.34    4.84
   1  10 -10    6.71    7.97
   1  10  10    0.96    6.36
  -1  10  11   34.52    5.66
   1  10  11   38.71    7.86
   1  10  12   18.71    7.11
  -1  10  12   11.54    5.14
   1  10  13   54.88    7.77
  -1  10  13   46.05    6.37
  -1  10  14   -1.29    4.64
   1  10  14    2.81    6.04
  -1  10  15   18.89    4.03
   1  10  15   11.31    5.23
   1  10  16   25.08    4.19
  -1  10  16   21.83    3.19
   1  11   0  331.49   23.80
  -1 -11   0  320.72   23.86
   1  11   0  285.31   26.09
   1  11   1  334.03   23.62
   1  11   1  399.47   25.51
   1  11  -1  357.08   25.91
  -1 -11   1  332.32   23.56
   1  11  -1  348.10   23.76
  -1 -11   2    2.40    4.54
  -1  11  -2    2.63    2.90
   1  11   2   -0.25    6.84
   1  11  -2    6.45    7.72
   1  11  -3  135.48   10.03
   1  11  -3   94.73   11.67
  -1 -11   3  126.86   10.31
   1  11   3  128.49   11.06
   1  11   3  110.52   11.61
   1  11   4  477.13   21.55
  -1  11   4  201.17   21.25
  -1 -11   4  425.12   21.60
   1  11  -5  142.57   13.38
  -1 -11   5  199.40   12.91
  -1  11   6  146.35   11.76
   1  11  -6  139.11   13.20
  -1  11   7   71.93    6.47
   1  11   7   78.94    7.82
  -1  11   8   67.17    6.73
   1 -11  -8   73.46    6.22
  -1  11   9   75.18    7.70
   1  11   9   86.29    8.73
   1  11  -9   90.59   10.34
   1  11 -10   31.34    8.41
  -1  11  10   18.57    5.34
   1  11  10   22.51    6.83
  -1  11  11   71.06    7.36
   1  11  11   76.48    9.42
  -1  11  12  277.35   21.38
   1  11  12  314.64   22.08
  -1  11  13   53.95    6.17
   1  11  13   42.21    7.71
  -1  11  14   72.62    7.17
   1  11  14   80.78    8.09
   1  11  15  106.54    8.65
  -1  11  15   93.65    7.88
   1  11  16    3.24    3.32
   1  12   0  206.55   14.50
   1  12   0  189.05   19.31
  -1  12   0  148.29   14.03
  -1 -12   1    6.96    5.44
  -1  12  -1    6.58    4.07
   1  12   1   -0.19    9.64
   1  12   1    3.90    5.36
   1  12  -1   14.18    5.71
   1  12  -1   12.82   11.24
   1  12  -2   19.57    9.25
  -1 -12   2   17.55    5.36
  -1  12  -2   12.49    3.28
   1  12   2   17.87    9.24
   1  12  -2   23.54    4.93
  -1 -12   3   -0.07    4.79
   1  12   3   -1.57    4.78
   1  12  -3    1.22    5.03
   1  12  -3    2.41    6.66
  -1 -12   4   68.83    7.51
   1  12   4  104.17    7.25
  -1  12   5    3.41    3.80
   1  12   5   -2.28    5.14
   1  12   6    4.97    5.59
  -1  12   6    7.87    3.99
   1  12  -7    0.27    9.78
  -1  12   7   -6.86    4.10
   1  12   7    0.96    5.73
   1  12  -8   13.19    8.32
  -1  12   8   26.21    4.85
   1 -12  -8   26.91    3.94
   1  12   8   23.76    6.30
   1  12  -9   -7.50    8.47
  -1  12   9    2.42    4.81
   1  12   9    9.48    6.21
  -1  12  10    6.88    5.17
   1  12  10   11.94    6.99
  -1  12  11    0.05    4.94
   1  12  11   -3.71    7.42
  -1  12  12   25.46    5.31
   1  12  12   22.05    7.12
   1  12  13    9.23    6.13
  -1  12  13   -1.86    4.65
   1  12  14   23.74    5.47
  -1  12  14   23.14    4.54
  -1  12  15    1.92    3.06
   1  12  15    4.91    4.18
   1  12  16   11.52    2.97
   1  13   0  260.68   25.86
  -1  13   0  264.41   20.07
  -1  13  -1   19.59    4.48
   1  13   1   20.04   12.91
   1  13  -1   34.31    4.72
   1  13  -1    6.14   12.28
   1  13   2  215.69   15.91
   1  13  -2  231.99   15.69
   1  13  -3    5.16    7.28
   1  13  -3    7.00    6.14
   1  13   4  806.09   55.31
   1  13  -4  899.84   55.64
  -1  13   4  700.36   55.10
  -1  13   5  100.07    8.75
   1  13   5  110.53    9.45
  -1  13   6  194.71   16.64
   1  13   6  237.48   17.30
  -1  13   7   43.01    5.68
   1  13   7   49.13    7.40
   1  13   8   29.64    6.59
   1  13  -8   30.01    9.36
  -1  13   8   21.09    4.97
  -1  13   9   56.94    6.96
   1  13   9   73.80    8.34
  -1  13  10  124.24   10.69
   1  13  10  130.28   11.70
  -1  13  11   95.53    8.98
   1  13  11  113.72   10.61
  -1  13  12  392.66   29.05
   1  13  12  422.11   29.62
  -1  13  13   65.21    6.63
   1  13  13   67.28    7.79
  -1  13  14  201.44   14.61
   1  13  14  191.44   14.94
   1  13  15   81.90    6.59
  -1  13  15   69.42    5.91
   1  13  16   19.72    2.75
  -1  14   0    7.84    4.98
  -1  14   1    8.41    5.95
   1  14  -1    9.29   12.07
  -1  14   2    4.90    4.54
   1  14   2   13.60    5.13
  -1  14   3   14.53    4.33
   1  14   3   13.30    5.49
   1  14  -3   15.56    6.21
  -1  14   4   27.69    4.92
   1  14   4   22.78    5.66
  -1  14   5   23.07    4.76
   1  14   5   23.62    5.85
   1  14   6   40.53    6.71
   1  14  -6   24.17    9.33
  -1  14   6   43.11    5.57
   1  14  -7   22.36    9.56
  -1  14   7   18.94    4.90
   1  14   7   20.35    6.69
  -1  14   8    2.04    4.80
   1  14   8    4.63    6.20
  -1  14   9   18.92    5.52
   1  14   9   23.71    6.73
  -1  14  10    8.01    5.42
   1  14  10    6.26    6.90
  -1  14  11   41.91    5.86
   1  14  11   35.72    7.77
   1  14  12   34.73    6.98
  -1  14  12   33.32    5.39
  -1  14  13   15.88    4.29
   1  14  13   12.20    5.41
   1  14  14    2.77    4.34
  -1  14  14    9.59    3.50
   1  14  15   17.89    3.58
  -1  15   1  132.48   11.12
  -1  15   2  178.62   15.04
   1  15   2  215.31   15.35
  -1  15   3  150.98   12.37
   1  15   3  164.83   12.88
  -1  15   4   12.71    4.61
   1  15   4   22.53    5.60
  -1  15   5  203.48   16.92
   1  15   5  255.57   17.42
  -1  15   6  303.01   23.69
   1  15   6  349.25   24.11
  -1  15   7   36.10    5.79
   1  15   7   39.13    7.12
  -1  15   8  103.42    9.61
   1  15   8  120.83   10.64
  -1  15   9  100.80    9.47
   1  15   9  116.33   10.57
  -1  15  10  162.30   13.18
   1  15  10  167.37   13.82
  -1  15  11  228.67   17.04
   1  15  11  223.85   17.83
  -1  15  12   31.92    5.05
   1  15  12   26.58    6.65
  -1  15  13   38.60    4.72
   1  15  13   34.47    5.69
  -1  15  14  116.32    8.64
   1  15  14  107.87    9.06
   1  15  15   56.50    5.00
  -1  16   1   15.07    5.53
   1  16   2   23.73    6.00
  -1  16   2   17.41    5.45
  -1  16   3   -1.14    4.64
   1  16   3    2.05    5.44
  -1  16   4   44.03    5.98
   1  16   4   44.76    6.48
  -1  16   5   11.42    4.98
   1  16   5   10.49    5.73
   1  16   6   21.22    6.36
  -1  16   6   24.06    5.52
  -1  16   7   -3.39    4.83
   1  16   7    2.33    6.30
  -1  16   8   11.15    5.20
   1  16   8   14.53    6.56
  -1  16   9    4.85    5.27
   1  16   9   -3.02    6.36
  -1  16  10   15.77    5.40
   1  16  10   17.80    6.61
  -1  16  11    3.62    4.58
   1  16  11    5.13    6.34
  -1  16  12    6.66    4.12
   1  16  12   -1.29    5.50
  -1  16  13    3.84    3.39
   1  16  13    3.36    4.36
   1  16  14   14.10    3.53
   1  16  15    1.33    2.22
  -1  17   1   -1.39    5.57
   1  17   1    2.45    5.76
  -1  17   2  116.39   10.67
   1  17   2  126.46   11.00
   1  17   3   12.57    5.84
  -1  17   3   15.08    5.19
  -1  17   4   98.59    9.09
   1  17   4   99.91    9.40
  -1  17   5   84.60    9.06
   1  17   5  115.22    9.65
   1  17   6   27.49    6.59
  -1  17   6   15.49    5.58
  -1  17   7    9.60    5.15
   1  17   7   12.54    6.62
  -1  17   8  263.84   19.63
   1  17   8  260.17   20.09
  -1  17   9    6.38    5.14
   1  17   9    1.15    6.38
  -1  17  10   88.16    8.33
   1  17  10   85.07    9.05
  -1  17  11   11.41    4.38
   1  17  11   14.91    6.06
   1  17  12   26.39    5.33
  -1  17  12   26.30    4.26
  -1  17  13   85.93    6.94
   1  17  13   87.70    7.50
   1  17  14   81.81    6.60
  -1  18   1    3.07    5.93
   1  18   1   11.10    6.18
  -1  18   2    5.43    5.75
   1  18   2    2.06    6.01
  -1  18   3   10.15    5.20
   1  18   3    3.11    5.90
  -1  18   4    3.45    5.05
   1  18   4   -0.79    5.62
  -1  18   5   30.43    5.92
   1  18   5   26.79    6.38
   1  18   6   46.46    7.31
  -1  18   6   47.11    6.67
  -1  18   7   -3.02    5.15
   1  18   7    1.52    6.39
  -1  18   8   31.60    5.53
   1  18   8   20.14    6.47
  -1  18   9    4.27    5.06
   1  18   9    8.75    6.10
  -1  18  10    5.04    4.78
   1  18  10    9.05    5.78
  -1  18  11    5.64    3.92
   1  18  11   11.12    5.42
   1  18  12    1.26    4.41
  -1  18  12    2.04    3.24
   1  18  13   18.17    3.82
   1  18  14    2.78    2.38
  -1  19   0   11.15    6.39
  -1  19   1    5.11    6.04
   1  19   1    4.32    6.15
  -1  19   2   38.50    6.76
   1  19   2   43.86    7.18
  -1  19   3   11.58    5.43
   1  19   3   13.91    6.07
  -1  19   4   78.45    8.24
   1  19   4   82.44    8.68
  -1  19   5  106.98   10.35
   1  19   5  127.43   10.61
   1  19   6    5.18    6.19
  -1  19   6    8.52    5.45
  -1  19   7   13.52    5.25
   1  19   7   10.64    6.44
  -1  19   8    1.23    4.95
   1  19   8    2.32    5.82
  -1  19   9  149.55   11.87
   1  19   9  146.31   12.41
  -1  19  10   52.23    5.90
   1  19  10   50.32    6.77
  -1  19  11   80.97    6.88
   1  19  11   80.92    7.86
  -1  19  12  147.83   11.73
   1  19  12  186.02   12.24
   1  19  13  117.15    8.91
   1  19  14    7.76    1.92
  -1  20   0   -2.44    6.52
   1  20   0    1.63    6.37
   1  20   1    0.06    6.51
  -1  20   1   -0.86    6.35
   1  20   2    4.15    6.19
  -1  20   2    2.98    5.89
  -1  20   3   -2.53    5.30
   1  20   3    5.83    5.74
  -1  20   4   12.52    5.50
   1  20   4    5.01    5.94
  -1  20   5    9.14    5.64
   1  20   5   11.71    5.97
   1  20   6   32.58    6.79
  -1  20   6   17.27    5.64
  -1  20   7    5.69    4.92
   1  20   7    2.44    5.95
  -1  20   8   15.53    4.87
   1  20   8   16.18    5.89
  -1  20   9    6.00    4.49
   1  20   9    8.93    5.36
  -1  20  10    9.41    3.99
   1  20  10    5.56    5.06
  -1  20  11    2.45    3.01
   1  20  11    0.29    4.40
   1  20  12   53.01    5.20
   1  20  13    1.57    2.31
  -1  21   0    9.31    6.54
   1  21   0    4.81    6.68
   1  21   1   31.21    7.26
  -1  21  -1   39.06    7.36
  -1  21   1   33.39    6.91
  -1  21   2   56.97    7.31
   1  21   2   61.89    8.24
  -1  21   3   52.86    7.14
   1  21   3   65.91    7.78
  -1  21   4  246.05   18.80
   1  21   4  248.75   19.03
  -1  21   5   -1.50    5.45
   1  21   5    5.28    6.16
  -1  21   6  148.17   12.23
   1  21   6  156.12   12.93
  -1  21   7   55.62    6.27
   1  21   7   47.59    7.28
  -1  21   8   -0.42    4.31
   1  21   8   11.06    5.48
  -1  21   9    4.25    4.10
   1  21   9    7.21    4.92
  -1  21  10   84.35    7.01
   1  21  10   85.33    7.72
  -1  21  11    3.41    2.46
   1  21  11    7.07    3.85
   1  21  12  244.32   17.55
   1  21  13    5.47    1.76
  -1  22   0   -7.45    6.32
   1  22   0    4.57    6.89
  -1  22   1    8.18    5.90
   1  22   1   14.83    7.04
   1  22  -1   12.17    7.28
  -1  22  -1   12.11    6.55
  -1  22   2    5.13    5.40
   1  22   2    5.40    6.28
  -1  22   3   13.89    5.53
   1  22   3   14.85    6.34
  -1  22   4   17.68    5.50
   1  22   4   15.53    6.30
   1  22   5    6.45    5.92
  -1  22   5    7.58    5.22
   1  22   6    3.34    5.79
  -1  22   6    3.84    4.58
  -1  22   7   -5.25    4.32
   1  22   7    3.41    5.50
  -1  22   8    2.45    4.03
   1  22   8    8.95    5.08
  -1  22   9    4.26    3.60
   1  22   9    0.89    4.34
   1  22  10    4.03    3.94
  -1  22  10    7.95    2.62
   1  22  11   -1.82    3.22
   1  22  12    4.33    2.25
   1  23   0   50.28    7.75
  -1  23   0   21.29    6.55
  -1  23   1   42.62    6.58
   1  23   1   44.10    7.80
  -1  23  -1   51.78    7.26
   1  23  -1   43.28    8.19
  -1  23   2   39.06    6.40
   1  23   2   41.30    7.32
  -1  23  -2   48.38    7.45
   1  23  -2   61.96    8.44
  -1  23   3   67.32    6.98
   1  23   3   52.70    7.65
  -1  23   4   -2.18    5.02
   1  23   4    0.68    5.79
  -1  23   5   75.11    7.94
   1  23   5   99.27    8.87
  -1  23   6   23.81    4.64
   1  23   6   19.55    5.92
  -1  23   7    8.76    3.92
   1  23   7   10.28    5.01
  -1  23   8  158.36   13.16
   1  23   8  209.42   13.68
  -1  23   9   39.65    4.32
   1  23   9   49.17    5.14
   1  23  10   46.51    5.01
   1  23  11   57.55    4.94
  -1  24   0   10.34    5.46
   1  24   0    8.52    6.80
  -1  24   1    6.06    4.94
   1  24   1    0.45    6.30
  -1  24  -1    1.72    5.71
   1  24  -1    2.33    6.95
  -1  24   2    3.93    4.98
   1  24   2    3.70    5.79
  -1  24  -2    6.20    5.90
   1  24  -2    4.05    7.08
  -1  24   3    0.34    4.69
   1  24   3   -1.39    5.72
  -1  24  -3   -3.86    5.86
  -1  24   4    9.28    4.57
   1  24   4    1.96    5.67
   1  24   5   -0.67    5.45
  -1  24   5    6.25    4.11
  -1  24   6    2.63    3.63
   1  24   6    3.14    5.00
  -1  24   7   -1.82    3.28
   1  24   7    3.11    4.54
  -1  24   8   17.04    3.26
   1  24   8   25.78    4.30
   1  24   9    2.28    3.50
   1  24  10    3.77    2.90
   1  24  11    2.65    1.80
  -1  25   0  126.71   10.82
   1  25   0  144.08   11.99
  -1  25   1   23.52    5.06
  -1  25  -1   19.76    5.47
   1  25   1   34.82    6.28
   1  25  -1   31.35    6.91
  -1  25   2   12.07    4.58
   1  25   2   13.56    5.70
  -1  25  -2   13.46    5.37
   1  25  -2   12.22    6.79
  -1  25   3   38.54    5.45
   1  25   3   43.98    6.34
   1  25  -3   41.63    7.59
  -1  25  -3   45.56    6.40
  -1  25   4   58.10    6.22
   1  25   4   66.09    7.18
  -1  25  -4   65.92    7.37
   1  25  -4   62.95    8.52
   1  25   5   -0.63    5.02
  -1  25  -5    1.38    5.36
  -1  25   5    5.13    3.47
  -1  25   6   28.15    4.01
   1  25   6   41.82    5.28
  -1  25   7   25.58    3.54
   1  25   7   36.87    4.59
   1  25   8  102.00    8.24
  -1  25  -9    1.43    3.39
   1  25   9   -1.98    2.88
   1  25  10   15.27    2.40
   1  25 -10   14.28    3.48
  -1  26   0    3.23    4.11
   1  26   0   12.79    5.48
  -1  26   1    6.25    4.00
   1  26   1   10.58    5.24
  -1  26  -1    9.67    4.36
   1  26  -1   10.28    6.01
  -1  26   2   -2.00    3.84
   1  26   2   -4.36    5.22
  -1  26  -2    0.88    4.41
   1  26  -2    4.66    6.11
   1  26   3   11.03    5.01
   1  26  -3   16.56    6.23
  -1  26  -3    8.70    4.71
  -1  26   3    7.36    3.74
   1  26   4    5.42    4.80
   1  26  -4    1.10    5.96
  -1  26  -4   -1.49    4.76
  -1  26   4   -0.94    3.28
  -1  26  -5    5.67    4.69
   1  26  -5   16.33    5.80
  -1  26   5    1.10    2.91
   1  26   5    2.83    4.32
  -1  26  -6    7.25    4.55
   1  26  -6    2.90    5.56
  -1  26   6    2.10    2.41
   1  26   6   -1.12    3.75
  -1  26  -7    0.58    4.04
   1  26  -7    5.89    5.22
   1  26   7    7.53    3.34
   1  26  -8   11.37    4.43
   1  26   8    2.82    2.84
   1  26   9    0.05    2.24
   1  26  -9    4.11    3.31
  -1  27   0    3.05    3.56
   1  27   0    8.43    4.72
  -1  27   1   40.98    5.11
   1  27   1   57.45    6.24
  -1  27  -1   53.74    5.31
   1  27  -1   61.19    6.45
  -1  27   2   22.52    3.85
   1  27   2   25.89    4.93
  -1  27  -2   15.95    4.09
   1  27   3  107.19    7.92
  -1  27  -3   89.57    7.50
   1  27  -3  102.64    8.60
  -1  27   4   36.04    4.38
   1  27   4   70.56    5.65
   1  27  -4   73.18    6.58
  -1  27  -4   43.04    5.38
   1  27   5   81.20    6.77
   1  27  -5   92.06    7.77
  -1  27  -6   11.29    3.44
   1  27  -6   13.30    4.74
   1  27   6    9.44    3.22
   1  27  -7   24.89    4.37
   1  27   7   16.43    3.04
   1  27  -8   -0.07    3.11
   1  27   8    3.23    2.11
  -1  28   0    2.96    2.84
   1  28   0    3.34    4.08
  -1  28  -1   -1.90    2.86
   1  28   1   -1.10    3.78
   1  28  -1   -1.30    4.05
  -1  28   1    0.89    2.71
   1  28   2    4.43    3.77
  -1  28  -2    2.50    2.93
   1  28  -2    2.43    4.11
  -1  28   2    1.72    2.45
   1  28   3    7.74    3.81
  -1  28  -3    5.72    2.87
   1  28  -3    4.67    4.21
  -1  28  -4   14.86    3.04
   1  28  -4   23.62    4.54
   1  28   4   21.47    3.70
   1  28  -5    6.21    3.95
   1  28   5    3.83    2.86
   1  28  -6   -0.42    3.50
   1  28   6    0.81    2.43
   1  28  -7    3.20    2.70
   1  28   7    0.05    1.91
   1  29   0    7.16    3.37
   1  29   1   15.64    3.51
   1  29  -1   12.71    3.61
   1  29   2   33.05    4.04
   1  29  -2   28.47    4.13
   1  29  -3   -2.72    3.21
   1  29   3   -0.58    2.87
   1  29   4  139.56   10.23
   1  29  -4  136.83   10.43
   1  29  -5    3.43    2.66
   1  29   5    3.25    2.09
   1  30   0   -0.40    2.51
   1  30   1    3.26    2.51
   1  30  -1    4.46    2.56
   1  30  -2    1.33    2.38
   1  30   2    4.56    2.26
   1  30  -3   -1.88    2.23
   1  30   3   -1.73    1.94
  -2   0   0 4231.96  289.74
  -2   0   0 4003.54  289.86
  -2   0   1   83.22    5.20
  -2   0  -1   30.12    5.07
  -2   0   1   27.09    5.15
  -2   0  -1   76.10    5.21
  -2   0   2  518.37   36.80
  -2   0  -2  531.23   36.71
  -2   0  -2  549.70   36.90
  -2   0   2  482.83   36.55
  -2   0  -3    1.87    3.41
  -2   0   3    6.00    2.27
  -2   0  -3   10.81    4.09
  -2   0   3   13.99    4.14
   2   0  -3    8.97    2.80
  -2   0  -4   57.99    6.46
   2   0  -5   36.79    4.39
   2   0  -6   16.59    3.47
   2   0  -7   80.19    6.92
   2   0  -8 1598.16  112.30
   2   0  -9  106.47    7.31
   2   0   9   55.12    6.74
   2   0 -10  329.79   24.12
   2   0  10  333.08   23.93
   2   0 -11   68.45    7.08
   2   0  11   55.50    6.20
   2   0  12   29.03    5.13
   2   0 -12   28.08    5.91
   2   0 -13   39.79    6.53
   2   0  13   47.27    5.59
   2   0  14  111.74    9.19
  -2   1   0 6573.77  459.01
  -2   1   0 6453.34  459.14
  -2  -1   0 6630.16  459.13
  -2  -1   0 6534.98  459.08
  -2  -1   1  462.52   35.25
  -2   1   1  562.39   35.34
  -2  -1  -1  506.74   35.29
  -2   1   1  442.73   35.27
  -2   1  -1  510.61   35.41
  -2  -1  -1  500.35   35.37
  -2   1  -1  517.40   35.31
  -2  -1   1  479.48   35.26
  -2  -1   2  267.85   19.25
  -2  -1   2  298.52   19.63
  -2   1   2  252.07   19.55
  -2   1   2  230.23   19.30
  -2   1  -2  236.17   19.51
  -2  -1  -2  312.85   19.67
  -2   1  -2  289.87   19.48
  -2  -1  -2  275.21   19.57
  -2  -1   3  103.92    8.00
  -2  -1   3   87.64    6.75
   2  -1  -3   95.75    7.05
   2   1  -3   90.98    6.95
  -2  -1  -3   83.28    7.76
  -2   1  -3   85.10    7.65
  -2   1  -3   84.08    7.55
  -2   1   3   69.17    6.89
  -2  -1  -3  111.86    7.80
  -2   1  -4   83.82    7.63
  -2  -1  -4   77.92    7.67
   2  -1  -5  324.49   23.21
   2  -1  -6   38.03    4.30
   2   1  -6   36.94    4.43
   2  -1  -7  312.70   21.79
   2   1  -7  292.62   21.76
   2  -1  -8 1500.70  107.82
   2   1  -8 1570.90  107.85
   2   1   9  400.62   26.46
   2   1  -9  338.85   26.62
   2  -1  -9  348.79   26.54
   2  -1   9  379.45   26.52
   2   1  10  233.74   15.68
   2   1 -10  187.75   15.93
   2  -1 -10  198.05   15.85
   2  -1  10  217.47   15.76
   2   1 -11  166.01   13.86
   2  -1 -11  166.68   13.60
   2  -1  11  178.64   13.41
   2   1  11  185.41   13.32
   2   1 -12  142.04   11.78
   2  -1 -12  127.28   11.46
   2  -1  12  143.10   11.25
   2   1  12  147.49   11.11
   2  -1 -13   97.70    9.67
   2   1 -13  101.34   10.36
   2  -1  13  122.87    9.50
   2   1  13  127.36    9.45
   2  -1  14   67.53    6.95
   2   1  14   78.85    6.88
  -2  -2   0 1061.03   77.36
  -2   2   0 1164.89   77.31
  -2  -2   0 1057.82   77.36
  -2  -2   1  456.64   36.27
  -2  -2  -1  527.76   36.36
  -2  -2   1  570.19   36.31
  -2   2   1  506.63   36.27
  -2  -2  -1  496.73   36.31
  -2   2  -1  504.87   36.18
  -2  -2  -2  126.05   10.02
  -2  -2   2  115.25   10.06
  -2  -2   2  147.83    9.71
  -2  -2  -2  112.13   10.13
  -2   2  -2  125.01    9.83
  -2  -2  -3  113.99   10.04
  -2  -2   3  139.76    9.33
   2   2  -3  145.34    9.56
   2  -2  -3  129.31    9.66
  -2   2  -3  107.67    9.94
  -2  -2  -3  105.80   10.33
  -2   2  -3  106.36    9.93
   2   2  -4  292.51   20.91
   2  -2  -5  641.86   45.36
   2   2  -6   19.37    3.68
   2  -2  -6   23.28    3.76
   2   2  -7  164.79   12.55
   2  -2  -7  167.90   12.54
   2   2   8  313.05   24.55
   2   2  -8  344.72   24.83
   2  -2  -8  390.61   24.78
   2   2   9  322.63   24.66
   2   2  -9  345.65   24.92
   2  -2  -9  359.90   24.83
   2  -2   9  354.70   24.81
   2   2  10   89.48    7.81
   2  -2 -10   91.55    8.26
   2   2 -10   91.15    8.59
   2  -2  10   96.29    8.18
   2   2  11  176.86   13.11
   2   2 -11  180.04   13.79
   2  -2 -11  159.51   13.39
   2  -2  11  173.72   13.37
   2   2 -12  253.64   18.52
   2  -2 -12  244.40   18.15
   2  -2  12  254.78   18.11
   2   2  12  228.67   17.85
   2  -2  13  121.36    9.55
   2   2  13  116.55    9.26
   2   2  14   36.05    4.96
   2   2  15  272.21   19.65
  -2   3   0  539.76   40.55
  -2  -3   0  639.59   40.70
  -2  -3   0  544.96   40.62
  -2   3  -1   89.55    6.85
  -2  -3  -1   92.09    7.27
  -2  -3   1   92.30    6.99
  -2  -3  -1   65.80    7.27
  -2  -3   1   68.13    7.35
  -2  -3   2  232.08   19.74
  -2  -3  -2  263.95   19.84
  -2  -3   2  303.73   19.56
   2  -3  -2  284.25   19.42
  -2  -3  -2  253.24   19.98
  -2   3  -2  264.24   19.55
  -2  -3  -3  245.55   17.47
  -2  -3   3  226.75   16.58
   2  -3  -3  242.01   16.73
  -2  -3  -3  205.28   17.53
   2   3  -3  231.87   16.61
  -2   3  -3  229.71   16.91
   2   3  -4 1316.69   92.48
   2  -3  -5  527.77   37.42
   2   3  -6   11.76    3.52
   2  -3  -6   14.15    3.45
   2   3  -7  256.01   19.44
   2  -3  -7  280.16   19.47
   2   3   8   24.38    3.93
   2   3  -8   27.19    4.73
   2  -3  -8   29.64    4.48
   2   3   9  356.39   24.94
   2   3  -9  322.76   25.16
   2  -3  -9  360.52   25.11
   2   3  10  180.16   13.39
   2   3 -10  159.11   13.95
   2  -3 -10  173.89   13.59
   2  -3  10  194.85   13.76
   2   3  11  477.29   33.62
   2  -3 -11  448.40   33.73
   2   3 -11  464.32   34.01
   2  -3  11  496.56   33.84
   2   3 -12  231.78   19.44
   2  -3 -12  231.05   18.84
   2  -3  12  275.64   19.02
   2   3  12  273.39   18.73
   2   3 -13  287.18   23.78
   2  -3  13  312.59   22.95
   2   3  13  327.97   22.77
   2   3  14   73.68    6.80
   2   3  15  183.49   13.57
  -2   4   0  210.27   15.37
  -2  -4   0  225.23   15.38
  -2  -4   0  179.82   15.54
  -2   4  -1   49.93    5.39
  -2  -4  -1   60.11    5.74
  -2  -4   1   68.30    5.50
  -2  -4  -1   69.09    6.46
  -2  -4   1   62.67    6.13
  -2  -4  -2  131.35   10.20
  -2  -4   2  123.17    9.56
   2  -4  -2  126.59    9.59
  -2  -4  -2  115.39   10.41
  -2   4  -2  134.32    9.72
  -2  -4   2  127.05   10.37
  -2  -4  -3   -1.89    4.78
  -2   4  -3    1.09    3.26
   2   4  -3   11.72    2.68
   2   4  -4 1015.34   71.40
   2  -4  -5   15.11    3.76
   2   4  -6  160.97   12.76
   2  -4  -6  181.49   12.86
   2   4  -7   33.80    4.65
   2  -4  -7   32.70    4.71
   2   4   8  101.84    8.32
   2   4  -8  107.47    8.88
   2  -4  -8  106.79    8.80
   2   4   9   25.46    4.43
   2   4  -9   30.53    5.63
   2   4  10   97.57    8.85
   2   4 -10   98.78    9.79
   2  -4 -10  116.94    9.19
   2  -4  10  129.71    9.59
   2   4  11   94.41    8.97
   2  -4 -11  127.40    9.24
   2   4 -11   85.91   10.06
   2  -4  11  124.64    9.72
   2   4  12  363.10   25.88
   2  -4 -12  343.97   25.93
   2   4 -12  354.29   26.68
   2  -4  12  377.88   26.18
   2   4 -13   20.43    9.23
   2   4  13   61.04    5.81
   2   4  14   25.33    4.52
   2   4  15    7.53    3.61
  -2  -5   0  122.77    9.71
  -2  -5   0  126.35   10.42
  -2  -5  -1   40.94    6.03
  -2  -5  -1   39.18    4.90
  -2  -5   1   39.66    5.48
  -2  -5   1   46.44    4.26
  -2   5  -1   39.11    4.49
  -2  -5  -2   38.34    6.16
  -2  -5  -2   29.71    4.85
  -2   5  -2   31.95    4.02
  -2  -5   2   34.95    3.71
   2   5  -2   35.29    3.51
   2   5  -3  239.58   17.12
  -2  -5  -3  229.56   18.67
   2  -5  -4 1369.97   94.35
   2   5  -4 1319.18   94.28
   2  -5  -5  187.35   13.90
   2  -5  -6  439.34   31.35
   2   5   7  153.10   11.53
   2   5  -7  152.64   11.92
   2  -5  -7  157.63   11.83
   2   5   8  102.90    8.35
   2  -5  -8  112.26    8.82
   2   5  -8  101.28    8.94
   2   5   9   43.93    4.91
   2   5  -9   39.75    6.19
   2  -5  -9   43.05    5.32
   2  -5 -10   62.16    6.36
   2   5  10   55.03    6.02
   2   5 -10   66.69    7.42
   2  -5  10   64.44    7.13
   2   5  11  115.56    9.35
   2  -5 -11  104.45    9.46
   2   5 -11  129.27   10.58
   2  -5  11  115.18   10.15
   2   5  12  533.06   35.45
   2   5 -12  504.26   36.32
   2  -5 -12  462.07   35.39
   2   5 -13  214.09   19.43
   2   5  13  248.98   17.72
   2   5  14    7.55    4.00
   2   5  15   29.50    4.07
  -2  -6   0   69.21    6.11
  -2  -6  -1   38.85    6.16
  -2  -6   1   34.03    3.77
  -2   6  -1   23.71    4.14
  -2  -6  -1   38.68    4.36
   2   6  -2  108.86    7.86
  -2  -6  -2  109.19    8.90
  -2  -6  -2  113.02   10.12
  -2   6  -2   89.06    8.06
   2   6  -3  209.92   15.20
   2   6  -4  330.49   24.39
   2  -6  -4  355.30   24.50
   2  -6  -5  120.85    9.57
   2  -6  -6  198.23   14.80
   2   6   7  159.96   12.63
   2   6  -7  182.93   13.06
   2  -6  -7  172.98   12.97
   2   6   8  148.69   11.97
   2   6  -8  163.03   12.53
   2  -6  -8  170.31   12.31
   2   6   9   79.81    7.21
   2   6  -9   85.27    8.18
   2  -6  -9   85.41    7.52
   2   6  10   54.80    5.80
   2   6 -10   56.48    7.15
   2  -6 -10   55.47    6.07
   2   6  11  100.07    9.14
   2   6 -11  122.35   10.81
   2  -6 -11  114.81    9.17
   2   6  12   46.47    5.73
   2   6 -12   46.01    8.90
   2  -6 -12   46.28    5.26
   2   6 -13  177.22   17.19
   2   6  13  215.73   15.42
   2   6  14   27.10    4.45
   2   6  15   13.94    3.47
  -2  -7   0  931.68   66.02
  -2   7  -1   78.83    7.79
   2   7  -1   95.90    7.09
  -2  -7  -1   93.28    7.89
  -2  -7   1   99.07    7.74
   2   7  -2  202.38   14.66
   2   7  -3   85.76    6.94
   2   7  -4    5.99    3.33
   2  -7  -4    5.20    3.40
   2   7  -5  162.65   13.45
   2  -7  -5  202.58   13.65
   2   7   6  286.36   20.70
   2  -7  -6  291.16   21.05
   2   7   7  147.54   11.76
   2   7  -7  164.19   12.25
   2  -7  -7  161.36   12.20
   2   7   8  867.91   62.58
   2   7  -8  878.64   62.79
   2  -7  -8  917.28   62.66
   2   7   9  203.88   16.52
   2   7  -9  239.55   17.16
   2  -7  -9  240.60   16.73
   2   7 -10   49.57    7.38
   2   7  10   53.54    6.06
   2  -7 -10   58.36    5.96
   2   7  11   91.12    8.20
   2  -7 -11   88.12    8.06
   2   7  12    9.62    4.45
   2   7 -12   13.09    8.85
   2   7  13  172.34   12.65
   2   7 -13  143.48   14.60
   2   7  14   93.49    7.82
   2   7  15   53.85    4.98
  -2  -8   0  822.22   58.45
  -2  -8  -1    6.61    4.13
   2   8  -1   16.40    2.76
   2   8  -2   68.31    5.74
   2   8  -3   15.21    3.47
   2   8  -4    2.21    3.55
   2   8  -5    4.60    4.09
   2  -8  -5    2.66    4.03
   2   8   6  142.37   11.21
   2  -8  -6  162.65   11.78
   2   8  -7    7.48    4.92
   2   8   7    8.15    3.70
   2  -8  -7   -3.02    4.45
   2   8   8  624.46   46.68
   2   8  -8  638.73   46.96
   2  -8  -8  715.86   46.78
   2   8   9    9.34    4.39
   2   8  -9    8.12    6.02
   2  -8  -9   14.69    4.56
   2   8  10   10.85    4.48
   2   8 -10   18.25    6.92
   2  -8 -10    9.78    4.30
   2   8  11   -1.71    4.56
   2   8 -11   -1.26    8.23
   2  -8 -11    5.85    3.97
   2   8  12   10.08    4.62
   2   8 -12    5.77    8.94
   2   8  13    2.88    4.40
   2   8 -13    0.46    7.86
   2   8  14   34.87    4.63
   2   9   0 1112.69   78.20
   2   9  -1   18.74    3.12
   2   9  -2   17.55    3.35
   2   9  -3  199.58   14.66
   2   9  -4    5.20    3.71
   2   9  -5   34.57    4.87
   2   9   5   27.80    4.02
   2  -9  -5   31.57    4.91
   2   9   6   28.22    4.21
   2  -9  -6   27.45    4.93
   2   9   7  223.66   16.94
   2  -9  -7  227.29   17.26
   2   9  -7  243.25   17.38
   2   9   8  729.92   53.70
   2   9  -8  784.48   54.03
   2  -9  -8  771.90   53.73
   2   9  -9   57.64    7.74
   2   9   9   43.11    5.88
   2  -9  -9   43.18    5.61
   2   9  10    3.22    4.48
   2   9 -10   -0.20    7.72
   2  -9 -10    2.79    4.04
   2   9  11  111.93    8.75
   2  -9 -11   90.49    8.21
   2   9 -11  112.32   11.79
   2   9  12   10.87    4.58
   2   9 -12    8.22    8.38
   2   9  13  127.27   10.19
   2   9  14   33.54    4.38
   2  10   0   62.18    5.53
   2  10  -1  146.73   11.01
   2  10  -2   19.77    3.55
   2  10  -3  124.29    9.74
   2  10   4  108.27    9.34
   2  10  -4  130.48    9.57
   2  10   5   51.69    5.48
   2  10  -5   56.72    6.06
   2  10   6   32.85    4.65
   2 -10  -6   32.31    5.49
   2  10   7  120.66    9.98
   2 -10  -7  128.63   10.32
   2 -10  -8   70.53    7.19
   2  10  -8   85.24    8.61
   2  10   8   63.74    7.05
   2  10   9   66.44    6.94
   2 -10  -9   53.89    6.57
   2  10 -10    6.72    8.60
   2  10  10    1.16    4.72
   2 -10 -10    4.35    3.99
   2  10  11   44.92    5.75
   2  10 -11   47.93    9.83
   2 -10 -11   36.95    4.67
   2  10  12    7.68    4.51
   2  10 -12   13.13    8.27
   2  10  13   24.69    4.66
   2  10  14   18.46    3.65
   2  11   0   76.92    6.98
   2  11  -1  251.18   18.30
   2  11  -2    7.75    3.55
   2  11   3   93.02    8.67
   2  11  -3  115.33    8.64
   2  11   4  464.41   35.99
   2  11  -4  551.84   36.08
   2  11   5  152.34   12.55
   2  11  -5  180.57   12.99
   2  11   6   26.34    4.69
   2 -11  -6   22.45    5.46
   2  11   7   40.35    5.62
   2 -11  -7   44.42    5.84
   2  11  -8   21.09    7.60
   2  11   8   25.75    5.11
   2 -11  -8   26.01    5.21
   2  11   9   86.39    8.09
   2 -11  -9   73.69    7.49
   2  11  -9   87.80   10.74
   2  11  10    4.50    4.84
   2 -11 -10    3.65    3.82
   2 -11 -11   36.94    4.58
   2  11 -11   49.89    9.29
   2  11  11   50.76    5.90
   2  11  12  121.49    9.90
   2  11  13   20.62    4.34
   2  11  14   10.13    3.17
   2  12   0   18.86    5.08
   2  12   1   12.95    5.06
   2  12  -1    9.08    4.53
   2  12   2   26.51    4.84
   2  12  -2   19.58    4.76
   2  12   3    7.98    4.51
   2  12  -3   10.38    4.66
   2  12   4  452.69   35.49
   2  12  -4  542.56   35.56
   2  12  -5    3.69    5.66
   2  12   5    1.28    4.58
   2  12  -6   42.59    7.62
   2 -12  -6   44.46    6.14
   2  12   6   36.09    5.64
   2  12   7    2.58    4.80
   2 -12  -7    2.16    4.93
   2  12  -8   19.92    9.15
   2  12   8   14.78    5.23
   2 -12  -8    6.69    4.87
   2  12  -9   -8.28    9.70
   2  12   9   -5.17    5.47
   2 -12  -9    4.10    4.21
   2  12 -10    9.84    9.01
   2  12  10    4.00    5.05
   2 -12 -10    6.76    3.84
   2  12 -11    4.56    8.45
   2  12  11    2.30    4.77
   2  12  12  173.53   13.27
   2  12  13    3.32    3.79
   2  12  14   11.94    2.84
   2  13   0   87.01    8.61
   2  13   0   62.87    7.83
   2  13   1   22.79    6.00
   2  13   1    9.32    5.88
   2  13  -1   22.48    7.32
   2  13   2   57.94    6.46
   2  13  -2   40.65    6.78
   2  13   3   32.99    5.62
   2  13  -3   33.69    6.39
   2  13   4  626.23   47.82
   2  13  -4  725.71   47.98
   2  13  -5   56.29    7.91
   2  13   5   39.67    6.30
   2  13  -6   57.46    9.03
   2 -13  -6   54.22    6.86
   2  13   6   55.66    6.76
   2  13   7   59.67    6.90
   2 -13  -7   57.50    6.83
   2  13  -8   -3.04    9.99
   2  13   8   10.60    5.26
   2 -13  -8    5.08    4.82
   2  13  -9   24.37    9.89
   2  13   9   23.45    5.91
   2 -13  -9   25.57    4.65
   2  13 -10   27.02    9.13
   2  13  10   31.50    5.69
   2 -13 -10   19.61    4.08
   2  13  11   27.52    5.22
   2  13  12  155.76   12.01
   2  13  13   38.02    4.53
   2  14   0   27.32    7.07
   2  14   0   25.38    5.95
   2  14  -1   65.71    7.91
   2  14   1   64.60    8.02
   2  14  -1   67.81    9.06
   2  14   2   59.33    7.31
   2  14  -2   62.46    7.97
   2  14   3   42.63    6.75
   2  14  -3   69.57    8.26
   2  14   4   76.45    8.19
   2  14  -4   78.41    9.28
   2  14   5  152.69   12.98
   2  14  -5  171.79   14.32
   2 -14  -6   59.28    7.11
   2  14   6   46.42    6.96
   2  14   7    1.41    5.44
   2 -14  -7    2.18    5.14
   2  14  -8   -5.90    9.54
   2  14   8    9.28    5.47
   2 -14  -8    8.78    4.79
   2  14  -9   34.89    9.65
   2  14   9   23.68    5.89
   2 -14  -9   18.34    4.36
   2  14  10   37.21    5.78
   2 -14 -10   25.68    4.08
   2  14  11   31.17    5.22
   2  14  12   35.83    4.73
   2  14  13   16.75    3.28
   2  15   0  567.23   41.19
   2  15   1   32.21    7.83
   2  15  -1   54.05    8.94
   2  15   2   37.15    6.56
   2  15  -2   34.61    6.98
   2  15   3   83.21    8.78
   2  15  -3   88.55    9.24
   2  15   4   -1.00    5.75
   2  15  -4   -4.57    7.37
   2  15   5  179.22   15.34
   2  15  -5  214.49   16.67
   2  15   6   96.62    9.68
   2  15  -6  108.16   11.79
   2 -15  -6  106.50    9.48
   2  15   7   14.39    5.71
   2 -15  -7   10.82    5.24
   2  15   8   94.33    8.59
   2 -15  -8   76.73    7.96
   2  15   9   33.96    5.98
   2 -15  -9   27.21    4.59
   2  15  10   24.91    5.37
   2 -15 -10   22.46    3.59
   2  15  11   75.80    7.08
   2  15  12   11.44    3.59
   2  15  13   26.89    3.28
   2  16   0  358.85   27.02
   2  16   1   -1.05    6.50
   2  16  -1    2.16    7.30
   2  16   2   24.21    6.46
   2  16   3    8.93    5.99
   2  16  -3   -1.88    6.68
   2  16   4    7.19    6.21
   2  16  -4   36.91    7.92
   2  16  -5   -5.37    8.06
   2  16   5   -5.71    6.14
   2  16  -6   10.42    8.85
   2 -16  -6    3.44    5.51
   2  16   6    8.27    5.78
   2  16   7    7.53    5.75
   2 -16  -7   14.66    5.20
   2  16   8  118.98   10.62
   2 -16  -8  120.72   10.04
   2  16   9   -4.48    5.36
   2 -16  -9    6.16    3.67
   2  16  10   17.03    4.95
   2  16  11    4.48    3.89
   2  16  12    0.09    2.98
   2  17   0  287.34   22.27
   2  17   1    7.87    6.49
   2  17  -1   13.06    7.48
   2  17   2   33.02    7.05
   2  17  -2   42.49    8.22
   2  17   3   18.78    6.38
   2  17   4   27.04    6.76
   2  17   5   23.88    6.54
   2 -17  -6   10.87    5.50
   2  17   6   15.16    5.92
   2  17   7    5.13    5.52
   2 -17  -7   -1.32    4.84
   2  17   8  145.71   11.92
   2 -17  -8  141.52   11.49
   2  17   9   -2.33    5.07
   2 -17  -9    3.71    3.47
   2  17  10   14.97    4.53
   2  17  11   10.52    3.55
   2  17  12   13.12    2.76
   2  18   0   70.10    9.19
   2  18   1    5.67    6.38
   2  18  -1   10.15    7.26
   2  18   2   23.92    6.69
   2  18  -2   20.83    7.69
   2  18   3   12.04    6.36
   2  18   4   -0.73    6.21
   2  18   5   24.16    6.52
   2 -18  -6    6.04    5.26
   2  18   6   13.32    5.67
   2  18   7    5.48    5.41
   2 -18  -7    8.35    4.77
   2  18   8   13.14    5.16
   2 -18  -8   16.55    4.36
   2 -18  -9   34.93    4.24
   2  18   9   40.25    5.57
   2  18  10   11.76    3.99
   2  18  11   24.88    3.60
   2  19   0    5.52    6.69
   2  19   1   22.28    6.52
   2  19  -1   24.63    7.32
   2  19   2    9.19    6.30
   2  19  -2    5.07    7.11
   2  19   3    4.56    6.16
   2  19  -3   11.15    7.14
   2  19   4   79.08    8.80
   2  19   5   33.39    6.52
   2 -19  -6    1.36    4.93
   2  19   6    5.53    5.34
   2  19   7   10.99    5.05
   2 -19  -7   12.94    4.60
   2  19   8   -0.08    4.55
   2 -19  -8    3.24    3.75
   2  19   9   74.78    7.11
   2  19  10    7.25    3.28
   2  19  11   21.62    2.94
   2  20   0   -4.40    6.15
   2  20   1    2.19    5.83
   2  20  -1    0.37    6.52
   2  20   2    8.42    5.90
   2  20  -2    7.48    6.65
   2  20   3    1.71    5.78
   2  20  -3    9.49    6.67
   2  20   4  117.99   10.80
   2  20  -4  118.63   11.26
   2  20   5   -2.18    5.37
   2 -20  -6    3.81    4.70
   2  20   6    9.26    5.02
   2  20   7   -1.20    4.49
   2 -20  -7   -0.79    4.08
   2  20   8    0.72    4.12
   2 -20  -8   -0.91    3.28
   2  20   9    7.52    3.76
   2  20  10    8.37    2.75
   2  21   0   -3.82    5.61
   2  21   1   10.35    5.58
   2  21  -1    6.67    6.02
   2  21   2   10.81    5.62
   2  21  -2   10.96    6.33
   2  21   3   18.26    5.81
   2  21  -3   16.55    6.32
   2  21   4  110.27    9.93
   2  21  -4  107.63   10.42
   2  21  -5    2.14    5.53
   2  21   5    0.61    4.91
   2  21   6   58.23    6.67
   2 -21  -6   69.45    6.55
   2  21   7   23.19    4.55
   2 -21  -7   29.64    4.38
   2  21   8    8.26    3.67
   2 -21  -8    1.40    2.78
   2  21   9    0.14    2.99
   2  21  10   10.64    2.25
   2  22   0    5.46    5.08
   2  22   1    5.05    5.26
   2  22  -1    4.57    5.27
   2  22   2   14.77    5.34
   2  22  -2   10.48    5.61
   2  22   3   18.95    5.32
   2  22  -3   16.81    5.79
   2  22  -4   25.80    5.94
   2  22   4   24.21    5.29
   2  22  -5    7.95    5.05
   2 -22  -5    1.53    4.23
   2  22   5    8.22    4.36
   2  22  -6   27.49    5.03
   2 -22  -6   19.07    4.13
   2  22   6   21.86    4.43
   2  22  -7   18.22    4.30
   2  22   7   18.47    3.94
   2 -22  -7   25.23    3.62
   2  22  -8    2.29    3.13
   2  22   8    4.39    3.03
   2  22   9    6.49    2.35
   2  23   0   21.29    5.16
   2  23   1   12.30    4.79
   2  23  -1    7.62    4.75
   2  23   2   10.74    4.81
   2  23  -2    6.27    4.93
   2  23   3   34.31    5.26
   2  23  -3   26.95    5.42
   2  23  -4    2.95    4.58
   2  23   4    2.15    4.11
   2  23   5   46.47    5.35
   2  23  -5   47.83    5.81
   2 -23  -5   53.84    5.36
   2  23  -6    3.00    3.94
   2  23   6    5.46    3.40
   2 -23  -6    6.93    3.27
   2  23  -7    1.22    3.09
   2  23   7   -0.35    2.91
   2 -23  -7   -0.48    2.47
   2  23   8   54.60    4.76
   2  24   0   40.87    5.41
   2  24   1   -0.64    4.05
   2  24  -1   -0.46    4.11
   2  24   2    2.51    4.08
   2  24  -2    4.04    3.91
   2  24  -3    0.17    4.00
   2  24   3    1.58    3.90
   2  24  -4    5.98    3.81
   2 -24  -4    2.39    3.47
   2  24   4   -3.06    3.49
   2  24  -5   11.48    3.60
   2 -24  -5   10.18    3.24
   2  24   5    5.19    3.25
   2  24  -6    7.57    3.03
   2  24   6    7.39    2.82
   2 -24  -6    4.72    2.71
   2  24   7    1.23    2.32
   2  25   0   53.07    5.50
   2  25   1    6.50    3.68
   2  25  -1   10.16    3.60
   2  25  -2    2.21    3.42
   2  25   2    1.76    3.43
   2  25  -3    5.76    3.21
   2  25   3    9.57    3.31
   2  25  -4    6.35    3.03
   2 -25  -4   13.71    3.08
   2  25   4   10.02    2.97
   2  25  -5    1.56    2.46
   2  25   5   -0.53    2.50
   2 -25  -5   -2.27    2.52
   2  25   6    2.98    2.19
   2  26   0   14.04    3.17
   2  26  -1   11.30    3.07
   2  26   1   11.53    3.19
   2  26  -2    3.16    2.74
   2  26   2    3.93    2.78
   2  26  -3    8.45    2.72
   2 -26  -3   16.35    2.92
   2  26   3   12.50    2.68
   2  26  -4    3.73    2.18
   2  26   4    1.87    2.15
   2 -26  -4    0.69    2.34
   2 -26  -5    5.48    1.85
   2  27   0    0.93    2.20
   2  27  -1    8.74    2.34
   2  27   1   11.08    2.31
   2  27   2    3.47    1.93
   2 -27  -2    1.71    2.33
   2 -27  -3   18.18    2.45
   2 -28  -1    1.15    1.81
   3   0   0 2076.19  145.67
   3   0   1   -1.12    2.71
   3   0  -1   -0.10    3.40
   3   0  -2  296.35   21.37
   3   0  -3    0.37    3.90
   3   0  -4  173.90   13.20
   3   0  -5   15.35    4.82
   3   0  -8  913.36   64.61
   3   0  -9   16.11    5.79
   3   0 -10  237.78   17.88
   3   0 -11    9.69    5.08
   3   0 -12   19.29    4.70
   3   0 -13   18.47    4.48
   3   1   0   79.22    5.40
   3  -1   0   35.51    5.23
   3   1   1    7.00    2.74
   3   1  -1    5.38    3.33
   3  -1   1    6.60    2.96
   3  -1  -1    5.77    3.44
   3   1  -2   41.02    4.51
   3  -1  -2   31.99    4.24
   3   1  -3   12.38    4.16
   3  -1  -3    9.58    4.14
   3   1  -4   12.17    4.30
   3  -1  -4   11.69    4.51
   3   1  -5   55.14    6.19
   3  -1  -5   47.34    5.97
   3   1  -8  133.26   10.86
   3  -1  -8  113.10   10.79
   3   1  -9   28.53    6.09
   3  -1  -9   23.99    5.91
   3   1 -10   75.09    7.79
   3  -1 -10   65.23    7.50
   3   1 -11   27.65    5.48
   3  -1 -11   22.19    5.31
   3   1 -12    7.56    4.77
   3  -1 -12   13.30    4.37
   3   1 -13   16.14    4.72
   3  -1 -13   16.42    4.08
   3   2   0  202.13   13.96
   3  -2   0  178.86   13.98
   3   2   1  180.45   13.40
   3   2  -1  193.07   13.63
   3  -2   1  180.07   13.49
   3  -2  -1  187.82   13.63
   3   2  -2  196.44   12.96
   3  -2   2  152.38   12.57
   3  -2  -2  185.09   12.91
   3   2  -3   87.63    7.58
   3  -2  -3   85.53    7.43
   3   2  -4   29.22    4.85
   3  -2  -4   28.06    4.72
   3   2  -5  548.31   37.26
   3  -2  -5  498.18   37.18
   3   2  -6   59.49    6.97
   3  -2  -7  123.41   10.33
   3   2  -8  108.92    9.60
   3  -2  -8   95.86    9.19
   3   2  -9  341.41   24.65
   3  -2  -9  330.30   24.49
   3   2 -10  153.67   12.35
   3  -2 -10  149.19   12.06
   3   2 -11  227.49   17.12
   3  -2 -11  227.30   16.94
   3   2 -12  125.62    9.82
   3  -2 -12  109.23    9.29
   3   2 -13  210.43   15.30
   3  -2 -13  199.23   14.82
   3   3   0   35.99    3.81
   3  -3   0   21.74    3.97
   3   3   1   10.85    2.83
   3   3  -1   12.42    3.49
   3  -3   1    8.08    3.17
   3  -3  -1   10.19    3.51
   3   3  -2    7.88    3.79
   3  -3   2    3.30    2.84
   3  -3  -2    6.43    3.71
   3   3  -3   -0.39    4.10
   3  -3  -3    1.02    3.80
   3   3  -4   22.22    4.77
   3  -3  -4   11.41    4.68
   3   3  -5    9.50    5.20
   3  -3  -5   13.78    4.66
   3   3  -6   50.73    6.57
   3  -3  -7    7.15    5.16
   3   3  -8    8.87    5.81
   3  -3  -8    9.94    5.40
   3   3  -9   23.45    6.53
   3  -3  -9   37.88    5.87
   3   3 -10   12.41    5.74
   3  -3 -10   16.62    5.16
   3   3 -11    2.94    5.45
   3  -3 -11   13.46    4.75
   3   3 -12   67.86    7.99
   3  -3 -12   83.43    6.97
   3   3 -13   -4.36    4.92
   3  -3 -13   11.69    3.15
   3   4   0  569.99   39.99
   3  -4   0  560.37   40.04
   3   4   1   96.78    7.53
   3   4  -1  100.73    7.95
   3  -4  -1  100.64    7.98
   3  -4   1   92.83    7.78
   3   4  -2  127.48    8.87
   3  -4  -2  107.16    8.68
   3  -4   2   98.27    8.42
   3   4  -3    3.20    4.37
   3  -4  -3    2.48    3.95
   3   4  -4  722.08   47.99
   3  -4  -4  638.47   47.86
   3   4  -5    3.26    4.98
   3   4  -6  160.47   12.90
   3  -4  -7    7.12    5.11
   3  -4  -8  195.67   15.03
   3   4  -9   14.92    6.23
   3  -4  -9   21.10    5.39
   3   4 -10  158.01   13.21
   3  -4 -10  166.99   12.76
   3   4 -11   88.73    8.80
   3  -4 -11   92.12    7.99
   3   4 -12  419.99   30.59
   3  -4 -12  423.86   30.07
   3   4 -13   44.10    5.57
   3   5   0   -0.21    3.12
   3  -5   0    0.03    3.56
   3   5  -1   21.56    3.97
   3  -5  -1   20.21    4.02
   3  -5   1   17.05    3.74
   3   5  -2   17.34    4.18
   3  -5  -2   17.12    4.11
   3  -5   2   12.04    3.58
   3   5  -3    8.89    4.49
   3  -5  -3    2.50    4.07
   3  -5   3    3.61    3.07
   3   5  -4   30.72    5.53
   3  -5  -4   24.96    4.90
   3   5  -5    6.64    5.33
   3   5  -6   10.69    5.61
   3  -5  -7    4.56    5.32
   3  -5  -8    0.09    5.23
   3   5  -9   -2.55    6.13
   3  -5  -9    4.00    5.08
   3   5 -10   10.84    5.95
   3  -5 -10   19.20    4.97
   3   5 -11   -0.24    5.92
   3  -5 -11   14.70    4.28
   3   5 -12    8.34    6.68
   3  -5 -12   32.65    4.01
   3   5 -13  -10.80    4.66
   3   6   0   14.63    3.48
   3  -6   0   16.21    4.00
   3   6  -1   19.61    4.00
   3  -6  -1   23.85    4.20
   3  -6   1   18.66    4.09
   3   6  -2  115.87    9.00
   3  -6  -2  110.78    9.06
   3  -6   2  103.88    8.78
   3  -6  -3  255.70   18.57
   3  -6   3  218.83   18.27
   3   6  -4  173.18   13.04
   3  -6  -4  159.11   12.79
   3   6  -5  205.96   15.90
   3   6  -6  404.41   29.42
   3  -6  -7  238.73   17.99
   3  -6  -8   68.80    7.42
   3   6  -9  164.32   13.28
   3  -6  -9  157.88   12.61
   3   6 -10  122.60   10.83
   3  -6 -10  117.84    9.88
   3   6 -11  408.57   27.87
   3  -6 -11  367.68   27.20
   3  -6 -12   61.66    5.56
   3   6 -12   68.21    8.14
   3   7   0    3.50    3.27
   3  -7   0    5.69    3.94
   3   7  -1    1.45    3.78
   3  -7  -1   -0.86    3.95
   3  -7   1    1.19    3.94
   3   7  -2    7.54    4.24
   3  -7  -2    7.58    4.42
   3  -7   2    4.70    4.04
   3   7  -3    0.53    4.81
   3  -7  -3    9.47    4.65
   3  -7   3    5.79    3.95
   3   7  -4    8.70    5.36
   3  -7  -4    2.00    4.89
   3   7  -5   -1.50    5.96
   3   7  -6   11.20    6.22
   3  -7  -6    6.54    5.50
   3   7  -7   -1.93    6.41
   3  -7  -7    5.76    5.42
   3  -7  -8   32.45    5.97
   3   7  -9   -2.92    6.35
   3  -7  -9    1.42    4.77
   3   7 -10    9.23    6.29
   3  -7 -10    6.18    4.46
   3   7 -11   -4.85    6.79
   3  -7 -11    0.72    3.75
   3   7 -12   -7.89    6.06
   3  -7 -12   -3.11    2.90
   3   8   0  775.40   54.38
   3  -8   0  763.82   54.56
   3   8  -1   56.52    5.68
   3  -8  -1   56.91    5.97
   3  -8   1   53.87    6.05
   3   8  -2  118.19    9.44
   3  -8  -2  111.25    9.48
   3  -8   2  113.61    9.54
   3   8  -3    9.71    4.98
   3  -8  -3    4.75    4.82
   3  -8   3    5.62    4.39
   3   8  -4   76.59    7.64
   3  -8  -4   69.24    7.52
   3   8  -5   12.47    5.84
   3   8  -6  255.43   18.28
   3  -8  -6  223.00   17.93
   3   8  -7    3.17    6.62
   3  -8  -7    6.33    5.59
   3  -8  -8  815.25   57.75
   3   8  -9   38.88    7.34
   3  -8  -9   34.76    5.52
   3  -8 -10   52.80    5.95
   3   8 -10   60.06    8.29
   3   8 -11    2.95    7.29
   3  -8 -11    7.64    3.57
   3  -8 -12   41.49    3.94
   3   8 -12   40.57    6.46
   3   9   0   10.25    3.59
   3  -9   0    7.57    4.78
   3   9  -1    5.98    3.96
   3  -9  -1    5.45    4.71
   3  -9   1    5.87    4.87
   3   9  -2    9.57    4.48
   3  -9  -2    2.28    5.01
   3  -9   2    7.33    5.03
   3   9  -3    5.53    5.05
   3  -9  -3   -1.13    5.03
   3  -9   3    0.40    5.03
   3   9  -4    2.67    5.51
   3  -9   4   -1.32    4.94
   3   9  -5    7.58    6.14
   3   9  -6   19.22    6.81
   3  -9  -6   13.87    5.99
   3   9  -7    7.87    6.81
   3  -9  -7   -0.39    5.63
   3  -9  -8   15.11    5.45
   3  -9  -9   -3.77    4.62
   3   9 -10    5.74    7.45
   3  -9 -10    8.71    4.13
   3   9 -11   34.38    7.41
   3  -9 -11    2.36    3.27
   3   9 -12   -4.31    5.31
   3  10   0   48.22    5.71
   3 -10   0   56.79    6.54
   3  10  -1  147.91   11.58
   3 -10  -1  143.83   12.03
   3 -10   1  153.58   12.20
   3  10  -2   50.54    5.99
   3 -10  -2   50.91    6.52
   3 -10   2   45.11    6.93
   3  10  -3  155.86   11.88
   3 -10  -3  126.50   12.02
   3 -10   3  156.57   12.42
   3  10  -4   32.18    6.30
   3 -10   4   32.41    6.45
   3  10  -5  171.21   14.05
   3  10  -6   55.79    7.77
   3 -10  -6   28.22    6.70
   3  10  -7  324.97   22.07
   3 -10  -7  264.03   21.40
   3 -10  -8   79.00    7.90
   3 -10  -9  147.94   11.63
   3 -10 -10   46.19    5.32
   3  10 -10   61.71    9.03
   3  10 -11  133.93   11.21
   3 -10 -11  123.05    9.44
   3  11   0    2.22    4.74
   3 -11   0    2.56    5.85
   3  11  -1    9.64    4.99
   3 -11  -1    7.22    5.80
   3 -11   1    8.71    6.13
   3  11  -2    4.40    5.17
   3 -11  -2    3.31    5.57
   3 -11   2   12.43    6.57
   3  11  -3    6.35    5.40
   3 -11  -3    4.42    6.00
   3 -11   3    9.88    7.06
   3  11  -4   17.44    6.42
   3 -11   4   10.04    7.35
   3  11  -5    3.01    6.75
   3  11  -6   21.25    7.62
   3 -11  -6    7.04    5.97
   3  11  -7    7.92    7.98
   3 -11  -7   -1.54    5.59
   3 -11  -8    0.04    4.97
   3 -11  -9    2.25    4.20
   3  11 -10    8.76    7.29
   3 -11 -10    4.98    3.46
   3  11 -11   -0.63    6.10
   3 -11 -11    2.35    2.62
   3 -12   0  244.86   18.90
   3  12  -1   40.18    6.27
   3 -12  -1   17.23    6.81
   3 -12   1   35.33    7.38
   3  12  -2   80.19    8.34
   3 -12  -2   66.13    8.48
   3 -12   2   85.94    9.50
   3  12  -3   31.34    6.99
   3 -12  -3   32.27    6.91
   3 -12   3   46.10    8.82
   3  12  -4  665.84   44.94
   3 -12   4  567.26   45.45
   3  12  -5  137.81   11.49
   3 -12  -5   93.94   10.54
   3  12  -6  134.83   12.13
   3 -12  -6  105.44   10.43
   3  12  -7   25.63    9.15
   3 -12  -7   24.57    5.99
   3  12  -8  113.69   11.81
   3 -12  -8   88.93    8.57
   3 -12  -9    1.08    4.07
   3  12 -10   80.21    8.70
   3 -12 -10   66.08    6.06
   3 -12 -11    5.84    2.22
   3 -13   0    6.69    6.87
   3  13  -1    3.92    5.53
   3 -13  -1    0.70    6.64
   3 -13   1   -1.17    7.50
   3  13  -2    8.58    6.43
   3 -13  -2    5.56    6.65
   3  13  -3    3.95    7.15
   3 -13  -3   -7.90    6.48
   3 -13   3    0.81    9.12
   3  13  -4   12.38    7.55
   3 -13   4   16.33    9.74
   3  13  -5    5.38    8.45
   3 -13  -5    6.47    6.68
   3 -13   5   -2.17    7.64
   3  13  -6    5.02    9.15
   3 -13  -6    6.65    6.00
   3  13  -7   31.16    9.57
   3 -13  -7    4.93    5.29
   3  13  -8    1.91    8.40
   3 -13  -8    1.40    4.58
   3 -13  -9    4.12    3.71
   3 -13 -10    6.36    2.95
   3 -14   0    7.74    7.55
   3  14  -1  146.13   11.91
   3 -14  -1  144.57   13.07
   3  14  -2  102.47    9.61
   3 -14  -2  104.03   10.54
   3  14  -3  102.05   10.17
   3  14  -4  125.73   11.13
   3 -14   4   76.66   12.95
   3  14  -5  397.83   22.31
   3 -14  -5  298.64   21.51
   3  14  -6  209.16   15.39
   3 -14  -6  154.70   13.88
   3  14  -7   31.45    8.60
   3 -14  -7   20.86    5.36
   3  14  -8   14.33    7.91
   3 -14  -8    8.38    4.31
   3 -14  -9  106.02    8.38
   3 -14 -10   74.68    5.98
   3 -15   0    4.32    7.91
   3 -15  -1   -0.07    7.48
   3 -15  -2    7.04    7.20
   3  15  -3    1.82    6.35
   3  15  -4   -4.05    7.02
   3 -15   4    5.85   10.01
   3  15  -5    0.18    7.62
   3 -15  -5    7.33    6.22
   3 -15   5   -7.66    7.67
   3  15  -6   -0.97    8.02
   3 -15  -6   -0.14    5.46
   3  15  -7    7.85    8.01
   3 -15  -7    6.57    4.73
   3 -15  -8    9.44    3.87
   3 -15  -9    2.85    2.93
   3 -15 -10    8.14    2.09
   3 -16   0  365.08   27.60
   3 -16  -1    0.20    7.37
   3 -16  -2   51.87    8.31
   3 -16   4   45.80   10.08
   3 -16  -5    2.05    5.95
   3 -16   5   -0.23    6.84
   3 -16  -6   32.61    5.67
   3 -16  -7    8.66    4.19
   3 -16  -8  289.45   20.85
   3 -16  -9   25.79    3.15
   3 -17   0    7.93    7.88
   3 -17  -1    0.59    7.40
   3 -17  -2   -3.82    6.97
   3 -17  -4    0.35    5.84
   3 -17   4    5.35    7.68
   3 -17  -5   -0.31    5.22
   3 -17   5   -4.15    5.57
   3 -17  -6    7.29    4.54
   3 -17  -7   -5.41    3.76
   3 -17  -8    5.40    2.85
   3 -17  -9    1.52    1.93
   3 -18   0   69.14    9.34
   3 -18  -1   25.26    7.38
   3 -18   1   20.40    8.15
   3 -18  -2   32.81    7.04
   3 -18   3   38.34    8.56
   3 -18  -4    5.74    5.24
   3 -18   4   11.18    6.43
   3 -18  -5   86.86    6.57
   3 -18   5   31.63    6.17
   3 -18  -6    2.94    3.83
   3 -18  -7   40.09    4.34
   3 -18  -8   38.82    3.72
   3 -19   0   -3.94    6.53
   3 -19  -1    0.78    6.23
   3 -19   1    5.64    6.85
   3 -19   2   -0.99    6.74
   3 -19   3    2.99    6.17
   3 -19  -4    4.25    4.64
   3 -19   4   -5.85    5.10
   3 -19  -5    0.90    3.90
   3 -19   5   -0.40    3.26
   3 -19  -6    3.31    3.30
   3 -19  -7    1.04    2.57
   3 -19  -8   -1.11    1.67
   3 -20   0   25.99    6.20
   3 -20  -1   -3.82    5.27
   3 -20   1   -0.78    5.93
   3 -20   2   34.14    6.34
   3 -20   3   -3.65    5.01
   3 -20  -4  188.87   12.50
   3 -20   4  140.24   12.33
   3 -20  -5   20.57    3.69
   3 -20  -6   27.91    3.45
   3 -20  -7    1.28    1.91
   3 -21   0   -2.74    4.77
   3 -21  -1   -1.16    4.42
   3 -21   1    3.83    4.79
   3 -21   2   -3.89    4.46
   3 -21   3    0.12    3.82
   3 -21  -4   13.28    3.34
   3 -21   4    3.93    2.85
   3 -21  -5    3.20    2.57
   3 -21  -6   -0.52    2.01
   3 -22   0    1.94    3.87
   3 -22  -1   37.76    4.58
   3 -22   1   31.56    4.75
   3 -22   2   20.52    3.86
   3 -22  -3   40.40    4.10
   3 -22   3   31.60    3.93
   3 -22  -4   43.87    4.15
   3 -22  -5    7.94    2.05
   3 -23   0    3.53    2.96
   3 -23  -1    0.52    2.87
   3 -23   1    0.49    2.85
   3 -23   2    1.67    2.52
   3 -23  -3   -0.74    2.20
   3 -23  -4   -0.44    1.69
   3 -24   0   43.93    3.95
   3 -24  -1    1.23    2.03
   3 -24   1    4.92    2.00
   4   0   0  191.17   14.24
   4   0  -1    6.19    3.55
   4   0  -2   11.32    3.85
   4   0  -3    7.95    3.77
   4   0  -4   26.71    4.27
   4   0  -5   27.74    4.40
   4   0  -6   12.15    3.98
   4   0  -7    0.03    3.65
   4   0 -10    2.70    3.05
   4  -1   0 1392.13   97.80
   4   1  -1  151.48   11.55
   4  -1  -1  155.35   11.60
   4   1  -2  194.58   14.01
   4  -1  -2  184.57   14.03
   4   1  -3  135.85   10.21
   4  -1  -3  128.52   10.20
   4   1  -4   29.48    4.19
   4  -1  -4   17.03    4.19
   4   1  -5  309.65   21.78
   4  -1  -5  294.92   21.73
   4   1  -6   59.39    5.79
   4  -1  -6   57.04    5.75
   4   1  -7   29.03    4.36
   4  -1  -7   31.12    4.41
   4   1  -8  640.62   45.26
   4   1 -10   51.43    4.91
   4  -1 -10   48.90    4.64
   4  -2   0    5.62    3.80
   4   2  -1   25.35    3.96
   4  -2  -1   18.35    4.17
   4   2  -2   15.41    3.76
   4  -2  -2    9.06    3.94
   4   2  -3   19.02    4.05
   4  -2  -3   15.80    3.98
   4   2  -4   20.37    4.23
   4  -2  -4   22.01    4.22
   4   2  -5   49.03    5.40
   4  -2  -5   51.64    5.45
   4   2  -6    7.36    3.67
   4  -2  -6    9.91    3.91
   4   2  -7   18.18    4.02
   4  -2  -7   20.22    4.12
   4   2  -8   36.95    4.59
   4  -2  -9   39.02    4.53
   4   2 -10    5.80    3.25
   4  -2 -10    4.82    2.71
   4  -3   0   57.20    5.85
   4   3  -1   94.07    7.57
   4  -3  -1   92.16    7.85
   4   3  -2  119.88    9.37
   4  -3  -2  120.81    9.52
   4   3  -3   80.65    6.79
   4  -3  -3   73.93    6.82
   4   3  -4  757.41   53.25
   4  -3  -4  751.58   53.25
   4   3  -5  181.41   13.76
   4  -3  -5  188.37   13.76
   4   3  -6  119.88    9.69
   4  -3  -6  128.58    9.72
   4   3  -7   83.08    7.26
   4  -3  -7   89.90    7.28
   4   3  -8   10.52    3.68
   4  -3  -9  185.06   13.58
   4   3 -10   29.67    3.99
   4  -4   0   83.30    7.46
   4   4  -1    5.20    3.39
   4  -4  -1    7.01    4.02
   4   4  -2    2.36    3.59
   4  -4  -2   -0.92    3.95
   4   4  -3    1.18    3.67
   4  -4  -3   -1.35    3.89
   4   4  -4   70.84    6.27
   4  -4  -4   60.30    6.41
   4   4  -5   -0.15    3.72
   4  -4  -5    0.44    3.93
   4   4  -6    4.29    3.71
   4  -4  -6    2.89    3.73
   4   4  -7    2.82    3.59
   4  -4  -7    0.68    3.79
   4   4  -8   14.01    3.80
   4  -4  -9    8.45    3.17
   4  -5   0   60.29    6.31
   4  -5  -1  176.16   13.32
   4   5  -2   72.45    6.55
   4  -5  -2   80.01    6.87
   4   5  -3  163.76   12.52
   4  -5  -3  170.05   12.61
   4   5  -4  974.25   69.00
   4  -5  -4  986.06   69.03
   4   5  -5  122.12    9.58
   4  -5  -5  122.66    9.67
   4   5  -6  123.51    9.94
   4  -5  -6  132.39   10.02
   4   5  -7  107.72    8.64
   4   5  -8   12.39    3.91
   4  -5  -9   42.81    4.24
   4   5  -9   35.74    4.77
   4  -6   0   -9.05    4.91
   4  -6   1   -2.02    4.77
   4  -6  -1    9.05    4.49
   4   6  -2   -0.36    3.66
   4  -6  -2    4.55    4.26
   4   6  -3   25.83    4.18
   4  -6  -3   17.52    4.51
   4   6  -4    3.82    3.79
   4  -6  -4    1.84    4.15
   4   6  -5   13.27    3.94
   4  -6  -5   11.06    4.14
   4   6  -6    2.37    3.79
   4  -6  -6    3.94    3.95
   4   6  -7   16.47    4.16
   4   6  -8    1.78    3.94
   4   6  -9    2.30    3.60
   4  -6  -9    7.64    2.82
   4  -7   0  831.54   58.89
   4  -7   1   80.60    8.12
   4  -7  -1   84.39    7.89
   4   7  -2  116.22    9.94
   4  -7  -2  139.69   10.30
   4   7  -3  175.50   13.61
   4  -7  -3  189.62   13.77
   4   7  -4   10.90    4.04
   4  -7  -4    8.32    4.20
   4   7  -5  164.73   12.17
   4  -7  -5  154.76   12.22
   4   7  -6  111.24    9.24
   4  -7  -6  115.11    9.12
   4   7  -7  102.74    8.56
   4   7  -8  454.36   34.20
   4  -7  -8  504.26   34.12
   4  -7  -9   50.99    4.34
   4   7  -9   43.22    4.64
   4  -8   0   32.58    6.59
   4  -8   1    5.21    5.74
   4  -8  -1   11.07    5.28
   4   8  -2   -1.12    4.37
   4  -8  -2    1.08    4.72
   4   8  -3   -1.05    4.33
   4  -8  -3   -1.00    4.53
   4   8  -4   22.81    4.79
   4  -8  -4   26.41    4.68
   4   8  -5    0.69    4.42
   4  -8  -5   -0.68    4.14
   4   8  -6    2.78    4.36
   4  -8  -6    1.70    3.89
   4   8  -7    1.83    4.32
   4   8  -8   13.64    3.90
   4  -8  -8   23.74    3.45
   4  -9   0 1108.88   78.43
   4  -9   1   83.00    8.41
   4  -9  -1   61.74    7.63
   4  -9  -2   78.90    7.75
   4   9  -3   69.95    7.15
   4  -9  -3   80.76    7.28
   4   9  -4   18.84    4.90
   4  -9  -4   23.04    4.67
   4   9  -5   40.18    5.59
   4  -9  -5   38.95    5.06
   4  -9  -6   51.92    5.32
   4   9  -6   47.89    5.82
   4   9  -7   72.77    6.53
   4   9  -8  398.21   31.02
   4  -9  -8  473.32   30.99
   4 -10   0    0.77    6.46
   4 -10   1    4.47    6.71
   4 -10  -1    4.80    5.77
   4 -10  -2   -3.90    5.12
   4  10  -3    1.78    3.89
   4 -10  -3   -1.30    4.74
   4  10  -4   15.48    4.13
   4 -10  -4   -3.91    4.43
   4  10  -5   -0.94    3.97
   4 -10  -5    0.54    3.89
   4  10  -6   15.06    3.88
   4  10  -7   13.96    3.60
   4 -10  -8    2.96    2.30
   4 -11   0    0.06    6.60
   4 -11   1  110.23   10.30
   4 -11  -1   92.30    9.59
   4 -11  -2   74.55    7.70
   4 -11  -3  109.95    9.34
   4 -11  -4  285.14   20.76
   4 -11  -5  133.40   10.34
   4 -12   0   21.79    6.92
   4 -12   1   -7.80    6.27
   4 -12  -1   -0.41    5.89
   4 -12  -2   -3.23    5.26
   4 -12  -3    3.10    4.56
   4 -12  -4    7.79    4.20
   4 -12  -5   19.86    3.89
   4 -12  -7    7.96    2.33
   4 -13   0    2.53    6.11
   4 -13   1   45.61    6.18
   4 -13  -1   26.95    6.43
   4 -13  -2   49.26    6.28
   4 -13  -3   20.17    4.61
   4 -13  -4  391.96   28.04
   4 -13  -5   94.31    7.55
   4 -14   0    0.74    5.03
   4 -14   1    1.18    4.00
   4 -14  -1    2.85    4.99
   4 -14  -2   -2.69    4.50
   4 -14  -3   -0.89    3.94
   4 -14  -4    0.35    3.28
   4 -14  -5   16.69    2.97
   4 -15   0  351.87   25.27
   4 -15  -1   41.92    5.24
   4 -15  -2   62.40    6.06
   4 -15  -3   26.76    3.90
   4 -15  -4    2.07    2.60
   4 -15  -5   52.35    4.36
   4 -16  -1   -0.74    2.96
   4 -16  -2   -2.95    2.91
   4 -16  -3    4.35    2.43
   0   0   0    0.00    0.00


TITL 1859-4 in Pmma
REM Pmma (#51, found as Pcmm in -cba setting)
CELL 1.54184  24.994476  14.595898   3.813866  90.0000  90.0000  90.0000
ZERR    6.00   0.002470   0.000810   0.000214   0.0000   0.0000   0.0000
LATT  1
SYMM -x+1/2,-y, z
SYMM -x, y,-z
SYMM  x+1/2,-y,-z
SFAC C H N O
UNIT 66.00 60.00 6.00 6.00
TREF
HKLF 4
END
_computing_structure_solution     'SHELXT 2014/5 (Sheldrick, 2014)'
;
_shelx_hkl_checksum              44480
_olex2_submission_special_instructions 'No special instructions were received'
_oxdiff_exptl_absorpt_empirical_details
;
Empirical correction (ABSPACK) includes:
- Absorption correction using spherical harmonics
- Frame scaling
;
_oxdiff_exptl_absorpt_empirical_full_max 3.323
_oxdiff_exptl_absorpt_empirical_full_min 0.624
loop_
_space_group_symop_operation_xyz
'x, y, z'
'-x, -y, z+1/2'
'-x, y+1/2, -z+1/2'
'x, -y+1/2, -z'
'-x, -y, -z'
'x, y, -z-1/2'
'x, -y-1/2, z-1/2'
'-x, y-1/2, z'
loop_
_atom_site_label
_atom_site_type_symbol
_atom_site_fract_x
_atom_site_fract_y
_atom_site_fract_z
_atom_site_U_iso_or_equiv
_atom_site_adp_type
_atom_site_occupancy
_atom_site_site_symmetry_order
_atom_site_calc_flag
_atom_site_refinement_flags_posn
_atom_site_refinement_flags_adp
_atom_site_refinement_flags_occupancy
_atom_site_disorder_assembly
_atom_site_disorder_group
Fe1 Fe 0.8154(10) 0.750000 0.500000 0.0148(14) Uani 1 2 d S TU P . .
Fe2 Fe 0.8250(7) 0.62748(12) 0.3744(2) 0.0148(13) Uani 1 1 d . U . . .
O1 O 0.810(4) 0.6876(6) 0.5827(11) 0.025(3) Uani 1 1 d . U . . .
O3 O 1.164(4) 0.4463(6) 0.6719(10) 0.027(4) Uani 1 1 d . U . . .
O2 O 0.829(4) 0.6095(7) 0.5064(11) 0.028(4) Uani 1 1 d . U . . .
F1 F 0.341(7) 0.750000 0.500000 0.062(7) Uani 1 2 d S TU P . .
O4 O 0.816(4) 0.7039(7) 0.3969(12) 0.035(4) Uani 1 1 d . U . . .
F2 F 0.362(6) 0.6270(7) 0.3746(14) 0.066(6) Uani 1 1 d . U . . .
C1 C 0.840(5) 0.6361(8) 0.5795(17) 0.022(5) Uani 1 1 d . U . . .
O5 O 0.820(6) 0.6518(9) 0.250000 0.034(6) Uani 1 2 d S TU P . .
O6 O 0.325(6) 0.7469(9) 0.250000 0.033(6) Uani 1 2 d S T P . .
H6A H 0.474774 0.721614 0.250000 0.039 Uiso 1 2 d RS T P . .
H6B H 0.171304 0.722274 0.250000 0.039 Uiso 1 2 d RS T P . .
C6 C 1.122(9) 0.4702(13) 0.750000 0.031(7) Uani 1 2 d S TU P . .
C2 C 0.871(5) 0.6085(8) 0.6655(15) 0.023(5) Uani 1 1 d . U . . .
C3 C 0.832(6) 0.6353(11) 0.750000 0.017(6) Uani 1 2 d S TU P . .
H3 H 0.778168 0.671557 0.749999 0.020 Uiso 1 2 calc RS TU P . .
C5 C 1.017(7) 0.5261(11) 0.750000 0.022(6) Uani 1 2 d S TU P . .
C4 C 0.977(7) 0.5536(10) 0.6679(15) 0.036(5) Uani 1 1 d . U . . .
H4 H 1.019405 0.535889 0.613087 0.043 Uiso 1 1 calc R U . . .
Li1 Li 0.63(6) 0.483(9) 0.488(16) 0.12(7) Uiso 0.5 1 d . . . . .
loop_
_atom_site_aniso_label
_atom_site_aniso_U_11
_atom_site_aniso_U_22
_atom_site_aniso_U_33
_atom_site_aniso_U_23
_atom_site_aniso_U_13
_atom_site_aniso_U_12
Fe1 0.013(2) 0.0250(18) 0.0062(19) -0.0006(13) 0.000 0.000
Fe2 0.0112(18) 0.0303(17) 0.0028(17) -0.0007(10) -0.0002(9) 0.0013(10)
O1 0.031(7) 0.039(7) 0.005(6) -0.002(5) -0.004(5) 0.002(5)
O3 0.035(7) 0.031(6) 0.015(7) -0.003(5) 0.001(5) 0.001(5)
O2 0.037(8) 0.039(7) 0.007(6) 0.002(5) 0.000(5) 0.002(5)
F1 0.077(11) 0.043(9) 0.066(11) 0.012(8) 0.000 0.000
O4 0.063(9) 0.030(7) 0.014(7) 0.000(6) 0.001(6) -0.001(6)
F2 0.085(10) 0.052(8) 0.063(10) -0.015(7) -0.002(7) 0.006(7)
C1 0.024(6) 0.028(6) 0.016(6) -0.003(4) 0.001(4) 0.001(4)
O5 0.054(10) 0.031(8) 0.016(9) 0.000 0.000 0.000(7)
O6 0.037(15) 0.044(14) 0.018(13) 0.000 0.000 -0.007(9)
C6 0.033(10) 0.032(10) 0.029(11) 0.000 0.000 -0.001(8)
C2 0.026(8) 0.032(8) 0.011(8) -0.006(6) -0.007(7) 0.004(6)
C3 0.016(10) 0.021(9) 0.014(10) 0.000 0.000 -0.001(7)
C5 0.020(10) 0.029(9) 0.018(10) 0.000 0.000 0.003(8)
C4 0.038(9) 0.048(9) 0.021(9) -0.004(7) 0.000(8) -0.001(8)
loop_
_atom_type_symbol
_atom_type_description
_atom_type_scat_dispersion_real
_atom_type_scat_dispersion_imag
_atom_type_scat_source
C C 0.0181 0.0091 'International Tables Vol C Tables 4.2.6.8 and 6.1.1.4'
H H 0.0000 0.0000 'International Tables Vol C Tables 4.2.6.8 and 6.1.1.4'
F F 0.0727 0.0534 'International Tables Vol C Tables 4.2.6.8 and 6.1.1.4'
Fe Fe -1.1336 3.1974 'International Tables Vol C Tables 4.2.6.8 and 6.1.1.4'
Li Li 0.0008 0.0003 'International Tables Vol C Tables 4.2.6.8 and 6.1.1.4'
O O 0.0492 0.0322 'International Tables Vol C Tables 4.2.6.8 and 6.1.1.4'
loop_
_geom_angle_atom_site_label_1
_geom_angle_atom_site_label_2
_geom_angle_atom_site_label_3
_geom_angle
_geom_angle_site_symmetry_1
_geom_angle_site_symmetry_3
_geom_angle_publ_flag
O1 Fe1 O1 178.8(8) . 4_566 ?
O1 Fe1 F1 90.6(4) 4_566 1_655 ?
O1 Fe1 F1 90.6(4) . 1_655 ?
F1 Fe1 O1 89.4(4) . . ?
F1 Fe1 O1 89.4(4) . 4_566 ?
F1 Fe1 F1 180.000(16) . 1_655 ?
F1 Fe1 O4 90.1(5) . . ?
F1 Fe1 O4 90.1(5) . 4_566 ?
O4 Fe1 O1 89.7(7) 4_566 . ?
O4 Fe1 O1 90.3(7) . . ?
O4 Fe1 O1 89.7(7) . 4_566 ?
O4 Fe1 O1 90.3(7) 4_566 4_566 ?
O4 Fe1 F1 89.9(5) . 1_655 ?
O4 Fe1 F1 89.9(5) 4_566 1_655 ?
O4 Fe1 O4 179.7(11) 4_566 . ?
O3 Fe2 O2 97.0(7) 5_766 . ?
O3 Fe2 F2 88.5(6) 5_766 1_655 ?
O2 Fe2 F2 89.5(7) . 1_655 ?
O4 Fe2 O3 169.6(7) . 5_766 ?
O4 Fe2 O2 93.4(8) . . ?
O4 Fe2 F2 91.3(7) . 1_655 ?
F2 Fe2 O3 90.9(7) . 5_766 ?
F2 Fe2 O2 90.2(8) . . ?
F2 Fe2 O4 89.4(8) . . ?
F2 Fe2 F2 179.3(11) . 1_655 ?
F2 Fe2 O5 89.7(10) . . ?
O5 Fe2 O3 88.3(8) . 5_766 ?
O5 Fe2 O2 174.7(8) . . ?
O5 Fe2 O4 81.3(9) . . ?
O5 Fe2 F2 90.7(9) . 1_655 ?
C1 O1 Fe1 139.9(15) . . ?
C6 O3 Fe2 137.6(17) . 5_766 ?
C1 O2 Fe2 134.9(15) . . ?
Fe1 F1 Fe1 180.0 . 1_455 ?
Fe1 O4 Fe2 137.2(9) . . ?
Fe2 F2 Fe2 179.3(12) . 1_455 ?
O1 C1 C2 117(2) . . ?
O2 C1 O1 124(2) . . ?
O2 C1 C2 119.3(19) . . ?
Fe2 O5 Fe2 143.0(13) . 6_556 ?
O3 C6 O3 123(3) 6_557 . ?
O3 C6 C5 118.5(14) . . ?
O3 C6 C5 118.5(14) 6_557 . ?
C3 C2 C1 121.8(19) . . ?
C3 C2 C4 117.6(19) . . ?
C4 C2 C1 120.4(19) . . ?
C2 C3 C2 122(3) 6_557 . ?
C4 C5 C6 120.5(14) 6_557 . ?
C4 C5 C6 120.5(14) . . ?
C4 C5 C4 119(3) 6_557 . ?
C5 C4 C2 122(2) . . ?
Li1 Li1 Li1 120(10) 5_666 5_766 ?
loop_
_geom_bond_atom_site_label_1
_geom_bond_atom_site_label_2
_geom_bond_distance
_geom_bond_site_symmetry_2
_geom_bond_publ_flag
Fe1 O1 1.972(16) . ?
Fe1 O1 1.972(16) 4_566 ?
Fe1 F1 1.81(3) . ?
Fe1 F1 2.01(3) 1_655 ?
Fe1 O4 1.895(17) 4_566 ?
Fe1 O4 1.895(17) . ?
Fe2 O3 1.965(15) 5_766 ?
Fe2 O2 1.978(16) . ?
Fe2 O4 1.939(17) . ?
Fe2 F2 1.76(2) . ?
Fe2 F2 2.05(2) 1_655 ?
Fe2 O5 1.915(8) . ?
O1 C1 1.29(2) . ?
O3 C6 1.30(2) . ?
O2 C1 1.26(3) . ?
C1 C2 1.44(3) . ?
C6 C5 1.45(4) . ?
C2 C3 1.41(2) . ?
C2 C4 1.43(3) . ?
C5 C4 1.39(3) . ?
C5 C4 1.39(3) 6_557 ?
Li1 Li1 1.3(4) 5_666 ?
Li1 Li1 3.0(5) 5_766 ?
