#------------------------------------------------------------------------------
#$Date: 2022-01-03 22:22:04 +0200 (Mon, 03 Jan 2022) $
#$Revision: 271716 $
#$URL: file:///home/coder/svn-repositories/cod/cif/4/51/92/4519220.cif $
#------------------------------------------------------------------------------
#
# This file is available in the Crystallography Open Database (COD),
# http://www.crystallography.net/
#
# All data on this site have been placed in the public domain by the
# contributors.
#
data_4519220
loop_
_publ_author_name
'Liu, Wansheng'
'Yang, Yi'
'Yang, Xiaojie'
'Peng, Yun-Lei'
'Cheng, Peng'
'Zhang, Zhenjie'
'Chen, Yao'
_publ_section_title
;
 Template-Directed Fabrication of Highly Efficient Metal-Organic Framework
 Photocatalysts.
;
_journal_issue                   49
_journal_name_full               'ACS applied materials &amp; interfaces'
_journal_page_first              58619
_journal_page_last               58629
_journal_paper_doi               10.1021/acsami.1c17925
_journal_volume                  13
_journal_year                    2021
_chemical_formula_moiety         'C24 H12 Cl0.25 Co1.5 N3 O6'
_chemical_formula_sum            'C24 H12 Cl0.25 Co1.5 N3 O6'
_chemical_formula_weight         535.62
_chemical_name_systematic        Co-TATB
_space_group_crystal_system      tetragonal
_space_group_IT_number           91
_space_group_name_Hall           'P 4w 2c'
_space_group_name_H-M_alt        'P 41 2 2'
_atom_sites_solution_hydrogens   mixed
_audit_creation_date             2021-08-30
_audit_creation_method
;
Olex2 1.3
(compiled 2020.11.12 svn.r5f609507 for OlexSys, GUI svn.r6272)
;
_cell_angle_alpha                90
_cell_angle_beta                 90
_cell_angle_gamma                90
_cell_formula_units_Z            8
_cell_length_a                   17.9001(16)
_cell_length_b                   17.9001(16)
_cell_length_c                   26.387(5)
_cell_measurement_reflns_used    1489
_cell_measurement_temperature    120
_cell_measurement_theta_max      22.0730
_cell_measurement_theta_min      3.2960
_cell_volume                     8454.8(19)
_computing_molecular_graphics    'Olex2 1.3 (Dolomanov et al., 2009)'
_computing_publication_material  'Olex2 1.3 (Dolomanov et al., 2009)'
_computing_structure_refinement  'SHELXL 2018/3 (Sheldrick, 2015)'
_computing_structure_solution    'SHELXT 2018/2 (Sheldrick, 2018)'
_diffrn_ambient_temperature      120
_diffrn_detector                 'CCD area detector'
_diffrn_detector_area_resol_mean 5.6
_diffrn_detector_type            'Bruker SMART CCD 6000 area detector'
_diffrn_measured_fraction_theta_full 0.989
_diffrn_measured_fraction_theta_max 0.989
_diffrn_measurement_device       'three-circle diffractometer'
_diffrn_measurement_device_type  'Bruker SMART CCD 6000'
_diffrn_measurement_method       '\w scans'
_diffrn_radiation_monochromator  graphite
_diffrn_radiation_probe          x-ray
_diffrn_radiation_type           MoK\a
_diffrn_radiation_wavelength     0.71073
_diffrn_reflns_av_R_equivalents  0.1322
_diffrn_reflns_av_unetI/netI     0.2250
_diffrn_reflns_Laue_measured_fraction_full 0.989
_diffrn_reflns_Laue_measured_fraction_max 0.989
_diffrn_reflns_limit_h_max       19
_diffrn_reflns_limit_h_min       -15
_diffrn_reflns_limit_k_max       21
_diffrn_reflns_limit_k_min       -6
_diffrn_reflns_limit_l_max       31
_diffrn_reflns_limit_l_min       -29
_diffrn_reflns_number            16558
_diffrn_reflns_point_group_measured_fraction_full 0.990
_diffrn_reflns_point_group_measured_fraction_max 0.990
_diffrn_reflns_theta_full        24.999
_diffrn_reflns_theta_max         24.999
_diffrn_reflns_theta_min         3.219
_diffrn_source                   'sealed X-ray tube'
_diffrn_source_target            Mo
_exptl_absorpt_coefficient_mu    0.636
_exptl_crystal_colour            'metallic light black'
_exptl_crystal_colour_lustre     metallic
_exptl_crystal_colour_modifier   light
_exptl_crystal_colour_primary    black
_exptl_crystal_density_diffrn    0.842
_exptl_crystal_description       block
_exptl_crystal_F_000             2158
_exptl_crystal_size_max          0.2
_exptl_crystal_size_mid          0.2
_exptl_crystal_size_min          0.2
_refine_diff_density_max         1.297
_refine_diff_density_min         -0.706
_refine_diff_density_rms         0.108
_refine_ls_abs_structure_details
;
 Flack x determined using 795 quotients [(I+)-(I-)]/[(I+)+(I-)]
 (Parsons, Flack and Wagner, Acta Cryst. B69 (2013) 249-259).
;
_refine_ls_abs_structure_Flack   0.04(3)
_refine_ls_extinction_method     none
_refine_ls_goodness_of_fit_ref   0.977
_refine_ls_hydrogen_treatment    constr
_refine_ls_matrix_type           full
_refine_ls_number_parameters     317
_refine_ls_number_reflns         7389
_refine_ls_number_restraints     26
_refine_ls_restrained_S_all      114.635
_refine_ls_R_factor_all          0.1759
_refine_ls_R_factor_gt           0.1060
_refine_ls_shift/su_max          0.000
_refine_ls_shift/su_mean         0.000
_refine_ls_structure_factor_coef Fsqd
_refine_ls_weighting_details
'w=1/[\s^2^(Fo^2^)+(0.1386P)^2^] where P=(Fo^2^+2Fc^2^)/3'
_refine_ls_weighting_scheme      calc
_refine_ls_wR_factor_gt          0.2465
_refine_ls_wR_factor_ref         0.2959
_reflns_Friedel_coverage         0.755
_reflns_Friedel_fraction_full    0.991
_reflns_Friedel_fraction_max     0.991
_reflns_number_gt                3718
_reflns_number_total             7389
_reflns_threshold_expression     'I > 2\s(I)'
_cod_data_source_file            am1c17925_si_003.cif
_cod_data_source_block           NKMOF-9-Co
_cod_original_cell_volume        8455(2)
_cod_original_formula_sum        'C24 H12 Cl0.25 Co1.50 N3 O6'
_cod_database_code               4519220
_shelx_shelxl_version_number     2018/3
_shelx_space_group_comment
;
The symmetry employed for this shelxl refinement is uniquely defined
by the following loop, which should always be used as a source of
symmetry information in preference to the above space-group names.
They are only intended as comments.
;
_shelx_estimated_absorpt_t_max   0.883
_shelx_estimated_absorpt_t_min   0.883
_olex2_refinement_description
;
1. Restrained distances
 O6-O4
 2.9 with sigma of 0.001
 O6_$1-O4_$2
 2.955 with sigma of 0.001
2. Uiso/Uaniso restraints and constraints
Uanis(C7) \\sim Ueq, Uanis(C2) \\sim Ueq, Uanis(C14) \\sim Ueq: with sigma of
0.01 and sigma for terminal atoms of 0.02
Uanis(C17) \\sim Ueq: with sigma of 0.001 and sigma for terminal atoms of 0.002
3. Others
 Fixed Sof: Cl1(0.25)
4.a Riding coordinates:
 C4(H4), C6(H6), C3(H3), C7(H7)
4.b Aromatic/amide H refined with riding coordinates:
 C13(H13), C19(H19), C15(H15), C12(H12), C22(H22), C16(H16), C20(H20), C23(H23)
;
_shelx_res_file
;
TITL p20201223c10_a.res in P4(1)22
    p20201223c10_sq.res
    created by SHELXL-2018/3 at 21:12:48 on 23-Dec-2020
REM Old TITL P20201223C10 in P4(1)22
REM SHELXT solution in P4(1)22: R1 0.274, Rweak 0.125, Alpha 0.038
REM <I/s> 1.668 for 21 systematic absences, Orientation as input
REM Flack x = 0.131 ( 0.029 ) from 988 Parsons' quotients
REM Formula found by SHELXT: C36 N30 O14 Co3
CELL 0.71073 17.9001 17.9001 26.3871 90 90 90
ZERR 8 0.0016 0.0016 0.0048 0 0 0
LATT -1
SYMM -X,-Y,0.5+Z
SYMM -Y,+X,0.25+Z
SYMM +Y,-X,0.75+Z
SYMM -X,+Y,-Z
SYMM +X,-Y,0.5-Z
SYMM +Y,+X,0.75-Z
SYMM -Y,-X,0.25-Z
SFAC C H Cl Co N O
UNIT 192 96 2 12 24 48
EQIV $1 1-Y,1+X,0.25+Z
EQIV $2 1-X,1-Y,0.5+Z
ISOR 0.01 0.02 C7 C2 C14
DFIX 2.9 0.001 O6 O4
DFIX 2.955 0.001 O6_$1 O4_$2
ISOR 0.001 0.002 C17

L.S. 30 0 221
PLAN  80
SIZE 0.2 0.2 0.2
TEMP -153.15
CONF
list 4
MORE -1
ABIN
BOND $H
fmap 2
acta
OMIT -2 50
OMIT 1 1 8
OMIT 2 3 1
OMIT 2 2 5
OMIT 0 2 15
OMIT -2 3 1
OMIT 1 1 5
OMIT 1 1 6
OMIT 5 11 0
OMIT 4 4 2
OMIT -5 13 2
OMIT 1 1 23
OMIT 0 1 24
OMIT 7 13 0
OMIT 6 12 0
OMIT 3 0 0
OMIT 6 6 25
OMIT 4 0 4
OMIT 0 0 4
OMIT 3 3 2
OMIT 0 1 5
OMIT 2 2 1
OMIT 0 4 1
OMIT 0 4 25
OMIT 3 5 0
OMIT 0 9 0
OMIT 1 6 0
OMIT 0 2 13
OMIT 0 1 6
OMIT 0 2 9
OMIT -7 8 1
OMIT -1 3 6
OMIT 0 1 7
OMIT 0 4 0
OMIT 2 4 0
OMIT 0 2 8
OMIT 0 4 4
OMIT -2 3 3
OMIT 0 0 8
OMIT 3 5 2
REM <olex2.extras>
REM <HklSrc "%.\\p20201223c10_sq.hkl">
REM </olex2.extras>

WGHT    0.138600
FVAR       0.24321
CO1   4    0.500000    0.749213    0.500000    10.50000    0.02969    0.03157 =
         0.03036    0.00000    0.00143    0.00000
CO2   4    0.333110    0.748151    0.575258    11.00000    0.03940    0.04022 =
         0.03401    0.00061    0.00410   -0.00422
CL1   3    0.244903    0.755097    0.625000    10.25000    0.09822    0.09822 =
         0.06366    0.01325    0.01325   -0.06391
O3    6    0.592526    0.290202    0.123025    11.00000    0.02905    0.04072 =
         0.05020   -0.00796   -0.00916    0.00248
O6    6   -0.164763    0.413279    0.251857    11.00000    0.05307    0.06334 =
         0.03347    0.00431   -0.01270   -0.01704
O4    6    0.496204    0.248487    0.080186    11.00000    0.03408    0.04359 =
         0.06164   -0.00526    0.00447    0.01314
O2    6    0.422445    0.666316    0.501922    11.00000    0.03729    0.04001 =
         0.05131   -0.00625   -0.01187   -0.01295
O1    6    0.299957    0.691074    0.516441    11.00000    0.02777    0.05607 =
         0.04255   -0.00293   -0.00511   -0.01079
O5    6   -0.142783    0.344938    0.187307    11.00000    0.07877    0.05565 =
         0.02092   -0.00949   -0.01688    0.00420
C1    1    0.353408    0.659537    0.491263    11.00000    0.04055    0.03522 =
         0.04647   -0.00714    0.01002   -0.01135
C17   1    0.523943    0.278762    0.116751    11.00000    0.03169    0.03148 =
         0.03015   -0.00050   -0.00126   -0.00013
C24   1   -0.126529    0.380753    0.224289    11.00000    0.03840    0.04437 =
         0.03445   -0.01433    0.01613    0.01178
C14   1    0.471468    0.305707    0.156009    11.00000    0.01508    0.03010 =
         0.05007   -0.02046    0.00555   -0.01302
C2    1    0.331137    0.608703    0.447818    11.00000    0.01674    0.04312 =
         0.02857   -0.01366    0.00138   -0.01192
N2    5    0.234827    0.378078    0.246471    11.00000    0.02767    0.06986 =
         0.07486   -0.04862    0.00252    0.00244
N1    5    0.330435    0.434787    0.297776    11.00000    0.02979    0.06214 =
         0.05897   -0.03970    0.00622    0.00266
C4    1    0.368519    0.523820    0.382107    11.00000    0.03083    0.05067 =
         0.04289   -0.00895    0.01831    0.00213
AFIX   3
H4    2    0.406408    0.500270    0.362607    11.00000   -1.20000
AFIX   0
C21   1   -0.043786    0.387308    0.240240    11.00000    0.01593    0.03992 =
         0.05381   -0.02215    0.00293    0.00191
C13   1    0.491655    0.354528    0.194276    11.00000    0.03110    0.03576 =
         0.04497   -0.01009   -0.01303    0.00337
AFIX  43
H13   2    0.542678    0.367924    0.198225    11.00000   -1.20000
AFIX   0
C5    1    0.293060    0.512720    0.368433    11.00000    0.01977    0.08313 =
         0.05874   -0.02452   -0.00206   -0.00422
C11   1    0.364068    0.358512    0.223734    11.00000    0.02581    0.04470 =
         0.03890   -0.02178   -0.01446   -0.00411
C9    1    0.307589    0.390245    0.260499    11.00000    0.04505    0.10722 =
         0.02326   -0.02135    0.00197    0.01569
C19   1    0.082644    0.365695    0.219701    11.00000    0.03549    0.13322 =
         0.06935   -0.04657   -0.00914    0.02447
AFIX  43
H19   2    0.119187    0.342591    0.198819    11.00000   -1.20000
AFIX   0
N3    5    0.202206    0.454241    0.317527    11.00000    0.03022    0.07891 =
         0.09763   -0.06374    0.00616   -0.00373
C6    1    0.238511    0.556032    0.393830    11.00000    0.03854    0.08231 =
         0.04629   -0.03786    0.00361    0.02658
AFIX   3
H6    2    0.187901    0.553672    0.383100    11.00000   -1.20000
AFIX   0
C15   1    0.397729    0.279973    0.154733    11.00000    0.06964    0.06231 =
         0.02868   -0.01584   -0.00419   -0.00454
AFIX  43
H15   2    0.383539    0.244339    0.129849    11.00000   -1.20000
AFIX   0
C12   1    0.439017    0.384161    0.226849    11.00000    0.02052    0.06084 =
         0.09769   -0.03050   -0.01640    0.00086
AFIX  43
H12   2    0.452728    0.421117    0.250956    11.00000   -1.20000
AFIX   0
C3    1    0.388162    0.567645    0.423042    11.00000    0.05069    0.05666 =
         0.02862   -0.00367   -0.01164    0.01185
AFIX   3
H3    2    0.438512    0.570665    0.434232    11.00000   -1.20000
AFIX   0
C22   1   -0.024510    0.419376    0.284317    11.00000    0.01706    0.05087 =
         0.07216   -0.01202   -0.00934    0.00788
AFIX  43
H22   2   -0.061989    0.438521    0.306252    11.00000   -1.20000
AFIX   0
C7    1    0.259287    0.602579    0.434051    11.00000    0.04613    0.08945 =
         0.02187   -0.02362   -0.00798    0.02063
AFIX   3
H7    2    0.222447    0.630009    0.452081    11.00000   -1.20000
AFIX   0
C16   1    0.344081    0.305850    0.189618    11.00000    0.05240    0.08447 =
         0.04033   -0.04152    0.00999   -0.01702
AFIX  43
H16   2    0.294630    0.286593    0.189175    11.00000   -1.20000
AFIX   0
C18   1    0.105123    0.405189    0.260234    11.00000    0.02438    0.14133 =
         0.04468   -0.03745   -0.00587   -0.02788
C8    1    0.274371    0.465844    0.324630    11.00000    0.06127    0.06118 =
         0.05915   -0.01430   -0.01723    0.01777
C20   1    0.006191    0.357449    0.207148    11.00000    0.04296    0.12446 =
         0.07647   -0.07086   -0.00939    0.02439
AFIX  43
H20   2   -0.009354    0.332398    0.177212    11.00000   -1.20000
AFIX   0
C10   1    0.186419    0.411747    0.277410    11.00000    0.02053    0.09817 =
         0.13873   -0.07584    0.00341    0.00991
C23   1    0.049724    0.424493    0.297710    11.00000    0.06727    0.08990 =
         0.07205   -0.02418    0.02447    0.00711
AFIX  43
H23   2    0.064008    0.440286    0.330687    11.00000   -1.20000
AFIX   0
HKLF 4




REM  p20201223c10_a.res in P4(1)22
REM wR2 = 0.2959, GooF = S = 0.977, Restrained GooF = 114.635 for all data
REM R1 = 0.1060 for 3718 Fo > 4sig(Fo) and 0.1759 for all 7389 data
REM 317 parameters refined using 26 restraints

END

WGHT      0.1385      0.0000

REM Highest difference peak  1.297,  deepest hole -0.706,  1-sigma level  0.108
Q1    1   0.4996  0.7464  0.5399  11.00000  0.05    1.30
Q2    1   0.1721  0.7526  0.6005  11.00000  0.05    1.09
Q3    1   0.3340  0.7515  0.6152  11.00000  0.05    1.06
Q4    1  -0.1816  0.4236  0.2596  11.00000  0.05    1.04
Q5    1   0.4556  0.7018  0.4990  11.00000  0.05    0.84
Q6    1   0.3387  0.7469  0.5339  11.00000  0.05    0.70
Q7    1   0.3847  0.7011  0.5782  11.00000  0.05    0.65
Q8    1   0.3814  0.7958  0.5766  11.00000  0.05    0.61
Q9    1   0.4922  0.2373  0.0666  11.00000  0.05    0.59
Q10   1   0.2855  0.6997  0.5721  11.00000  0.05    0.53
Q11   1  -0.0815  0.5000  0.2500  10.50000  0.05    0.45
Q12   1   0.2857  0.7883  0.5781  11.00000  0.05    0.42
Q13   1  -0.0810  0.3245  0.1745  11.00000  0.05    0.42
Q14   1   0.4490  0.3124  0.1927  11.00000  0.05    0.41
Q15   1   0.4505  0.6774  0.4493  11.00000  0.05    0.40
Q16   1   0.0124  0.3467  0.2603  11.00000  0.05    0.40
Q17   1   0.4963  0.3565  0.1543  11.00000  0.05    0.37
Q18   1  -0.0270  0.3992  0.2062  11.00000  0.05    0.36
Q19   1   0.3318  0.4204  0.3621  11.00000  0.05    0.35
Q20   1   0.4005  0.5682  0.3828  11.00000  0.05    0.35
Q21   1   0.0006  0.0691  0.3450  11.00000  0.05    0.35
Q22   1   0.5094  0.2550  0.1527  11.00000  0.05    0.35
Q23   1   0.2732  0.5183  0.3994  11.00000  0.05    0.34
Q24   1   0.0000  0.9251  0.5000  10.50000  0.05    0.34
Q25   1  -0.0349  0.4340  0.3308  11.00000  0.05    0.34
Q26   1   0.2511  0.4825  0.4033  11.00000  0.05    0.32
Q27   1  -0.0613  0.3016  0.2249  11.00000  0.05    0.32
Q28   1   0.3298  0.6040  0.4881  11.00000  0.05    0.32
Q29   1   0.0633  0.4864  0.3301  11.00000  0.05    0.32
Q30   1   0.2537  0.3170  0.1799  11.00000  0.05    0.31
Q31   1   0.3894  0.6601  0.4480  11.00000  0.05    0.30
Q32   1   0.4200  0.6610  0.5381  11.00000  0.05    0.30
Q33   1   0.3227  0.6784  0.4260  11.00000  0.05    0.30
Q34   1   0.6228  0.3596  0.1472  11.00000  0.05    0.30
Q35   1  -0.1408  0.3524  0.1542  11.00000  0.05    0.30
Q36   1   0.0073  0.5000  0.2500  10.50000  0.05    0.30
Q37   1   0.3884  0.5000  0.2500  10.50000  0.05    0.29
Q38   1  -0.0010  0.2513  0.0211  11.00000  0.05    0.29
Q39   1   0.0199  0.4216  0.3538  11.00000  0.05    0.28
Q40   1   0.0751  0.8206  0.4883  11.00000  0.05    0.28
Q41   1   0.2297  0.5518  0.4328  11.00000  0.05    0.28
Q42   1   0.3027  0.2586  0.1476  11.00000  0.05    0.28
Q43   1   0.1262  0.3707  0.3052  11.00000  0.05    0.28
Q44   1   0.0749  0.3758  0.2603  11.00000  0.05    0.28
Q45   1   0.5795  0.2930  0.1699  11.00000  0.05    0.27
Q46   1  -0.0964  0.4980  0.3203  11.00000  0.05    0.27
Q47   1   0.1572  0.3420  0.1748  11.00000  0.05    0.27
Q48   1  -0.0585  0.4176  0.0584  11.00000  0.05    0.27
Q49   1   0.5096  0.2612  0.1784  11.00000  0.05    0.27
Q50   1   0.3099  0.6117  0.4819  11.00000  0.05    0.27
Q51   1   0.2760  0.3754  0.3008  11.00000  0.05    0.26
Q52   1   0.4951  0.3590  0.1821  11.00000  0.05    0.26
Q53   1   0.4167  0.2829  0.1163  11.00000  0.05    0.26
Q54   1   0.3186  0.3186  0.2846  11.00000  0.05    0.26
Q55   1   0.5424  0.3209  0.1808  11.00000  0.05    0.26
Q56   1   0.4729  0.3097  0.1173  11.00000  0.05    0.26
Q57   1  -0.1766  0.4198  0.2123  11.00000  0.05    0.26
Q58   1  -0.0246  0.4275  0.2401  11.00000  0.05    0.26
Q59   1   0.3174  0.3126  0.2268  11.00000  0.05    0.26
Q60   1   0.2958  0.6359  0.3915  11.00000  0.05    0.26
Q61   1   0.0031  0.2475  0.0643  11.00000  0.05    0.25
Q62   1   0.2827  0.4657  0.3656  11.00000  0.05    0.25
Q63   1   0.0974  0.4124  0.2947  11.00000  0.05    0.25
Q64   1   0.2873  0.4921  0.3261  11.00000  0.05    0.25
Q65   1   0.0294  0.3754  0.2187  11.00000  0.05    0.25
Q66   1   0.2595  0.5876  0.3971  11.00000  0.05    0.25
Q67   1   0.5000  0.5981  0.5000  10.50000  0.05    0.25
Q68   1   0.2993  0.3545  0.1526  11.00000  0.05    0.25
Q69   1   0.4830  0.2889  0.2245  11.00000  0.05    0.25
Q70   1   0.4152  0.6637  0.4156  11.00000  0.05    0.25
Q71   1   0.3799  0.6489  0.3943  11.00000  0.05    0.25
Q72   1   0.2395  0.2975  0.2308  11.00000  0.05    0.25
Q73   1   0.4402  0.3889  0.1862  11.00000  0.05    0.24
Q74   1   0.0633  0.3436  0.0864  11.00000  0.05    0.24
Q75   1   0.0876  0.3089  0.2502  11.00000  0.05    0.24
Q76   1   0.2134  0.3225  0.2241  11.00000  0.05    0.24
Q77   1   0.3006  0.4947  0.3656  11.00000  0.05    0.24
Q78   1   0.5136  0.3331  0.2271  11.00000  0.05    0.24
Q79   1   0.3348  0.0972  0.1937  11.00000  0.05    0.24
Q80   1   0.3914  0.6031  0.4919  11.00000  0.05    0.24
;
_shelx_res_checksum              51721
_shelx_hkl_file
;
   0   0  -4 3525.38   80.06
   0   0   5   -0.92    4.68
   0   0   6   20.81   11.51
   0   0   6    8.00    8.57
   0   0   7    3.76    4.20
   0   0   7   -1.87    5.76
   0   0   8  391.89   42.28
   0   0   8  327.23   35.79
   0   0   9   -0.19    7.61
   0   0   9    8.05    7.15
   0   0  10   24.81   13.22
   0   0  10    4.37    8.42
   0   0  11    2.15    6.77
   0   0  11    9.23    7.23
   0   0  12 3556.81  147.53
   0   0  13  609.74   70.42
   0   0  14   -3.31    8.30
   0   0  15   28.01   18.52
   0   0  16 3779.11  179.66
   0   0  17  290.45   53.54
   0   0  18   10.08   13.32
   0   0  19    9.89    6.26
   0   0  20  280.54   55.35
   0   0  21    2.23    9.82
   0   0  22  -14.56   21.87
   0   0  23  -42.21   20.94
   0   0  24  138.04   37.80
   0   0  25 1296.48  139.72
   0   0  26   -6.86   15.60
   0   0  27    8.57   11.49
   0   0  28  128.54   41.23
   0   0  29  -36.08   29.21
   0   0  30   16.83   23.96
   0   0  31    7.52   17.18
   0   0  32   -6.41    9.10
   0   0  33  117.37   53.62
   1   0  -4  166.20   20.67
   0  -1   4  174.87   20.06
   0   1  -4  182.94   20.72
   1   0   5  360.94   33.73
   0   1  -5  159.31   27.46
   1   0  -5  370.20   34.43
   0  -1   5  348.41   31.80
  -1   0   5  341.26   31.65
   0   1  -5  168.12   27.13
   0  -1   5  288.34   33.35
   1   0   5  286.65   26.78
   0   1  -6 2852.16   97.11
   0  -1   6 2807.08   94.37
   1   0   6 2723.32   96.52
  -1   0   6 2772.31   92.20
   1   0   6 2589.95   76.52
   0  -1   6 2787.55   92.64
   0   1  -6 2600.60   88.68
   0  -1   7  118.50   22.87
   0   1  -7   68.56   18.16
   1   0   7  138.54   25.66
   0   1  -7   92.53   18.95
   0  -1   7   87.61   19.86
  -1   0   7  109.64   19.86
   1   0   7  102.18   18.02
   0  -1   8  318.63   36.85
   1   0   8  291.23   35.64
   0   1  -8  295.48   33.65
   1   0   8  254.55   28.31
  -1   0   8  253.47   31.39
   0  -1   8  304.37   35.01
   1   0   9   82.66   22.19
  -1   0   9   43.32   19.96
   0  -1   9  100.39   24.66
   0   1   9    1.27    8.40
   0  -1   9   36.03   14.68
   0   1  -9   52.41   15.27
   1   0   9   19.44   10.52
  -1   0   9   12.70    9.94
   1   0  10  156.22   31.45
  -1   0  10  150.65   26.91
   0  -1  10  134.16   27.44
   0   1 -10  151.55   27.14
   0   1  10  115.43   23.24
  -1   0  10  147.05   26.07
   0  -1  10  143.03   26.89
   1   0  10  127.47   24.06
   0  -1  11  848.68   70.23
  -1   0  11  799.55   66.33
   1   0  11  881.77   71.86
   0   1 -11  807.17   65.17
   0   1  11  672.81   58.10
   0  -1  11  659.58   60.30
   1   0  11  726.73   57.68
  -1   0  12  376.71   47.50
   1   0  12  331.24   47.71
   0  -1  12  341.53   46.00
   0   1 -12  296.25   45.20
   1   0  12  336.55   42.76
  -1   0  13 1105.11   84.68
   1   0  13 1024.21   86.29
   0  -1  13 1180.97   90.43
   0   1  14  364.33   53.18
   1   0  14  504.02   65.25
  -1   0  14  467.95   56.71
   0  -1  14  439.02   59.28
   0   1  15  374.93   54.29
   0  -1  15  311.89   48.08
  -1   0  15  393.65   53.97
   1   0  15  412.19   58.64
   0   1  16  721.76   77.31
   1   0  16  711.34   80.25
  -1   0  16  724.41   76.86
   0  -1  16  716.76   80.36
   0   1  17  776.47   83.14
   1   0  17  744.24   85.34
  -1   0  17  772.95   83.09
   0  -1  17  767.83   83.39
   1   0  18   91.60   32.54
  -1   0  18  118.75   31.42
   0   1  18  151.70   44.18
   0  -1  18  108.56   35.75
   1   0  19   45.68   20.30
   0  -1  19  129.10   37.64
  -1   0  19  119.93   34.83
   0   1  19  100.05   35.37
   0   1  20    5.06   11.37
   1   0  20  -29.56   18.77
   0  -1  20   -3.67    9.38
  -1   0  20   -1.68    8.47
   0   1  21  118.13   37.73
   1   0  21  106.53   33.82
  -1   0  21   98.87   30.36
   0  -1  21   62.27   27.86
   0   1  22  100.66   35.28
   0  -1  22   72.86   32.77
   1   0  22   36.54   25.48
  -1   0  22    0.96   19.15
   0  -1  23   88.69   34.70
  -1   0  23  110.78   38.85
   0   1  23  172.53   47.56
   1   0  23   51.96   31.01
   0  -1  24  519.78   84.56
   1   0  24  601.49   93.73
   0   1  24  579.69   90.19
  -1   0  24  567.09   85.75
   0  -1  25   34.55   25.33
   0   1  25  122.35   39.05
   1   0  25  126.08   44.29
  -1   0  25   64.01   29.95
   0  -1  26  563.27   92.74
   0   1  26  501.41   87.47
  -1   0  26  503.04   86.69
   1   0  26  455.53   85.66
  -1   0  27  211.53   55.26
   0   1  27  173.70   51.70
   1   0  27  140.09   44.47
   0  -1  27  151.57   46.84
  -1   0  28    0.46   12.60
   0   1  28   17.37   18.59
   1   0  28   -5.26   15.38
   0  -1  28   21.16   17.60
   0   1  29   11.77   17.22
   1   0  29    8.65   18.11
   0  -1  29   50.79   35.23
  -1   0  29    4.65    8.46
   1   0  30    6.78   27.38
  -1   0  30  -15.23   15.51
   0   1  30   -0.72   17.06
  -1   0  31  -16.60   24.67
   0   1  31   -6.66   19.62
   1   0  31   30.13   20.21
  -1   0  32   41.68   31.90
   0   1  32    7.56   27.58
   1   0  32  -22.83   21.47
   0   1  33    1.82   22.95
  -1   0  33    4.83   12.92
   0   1  34  -38.50   30.55
  -1  -1   4 1938.02   59.79
   1  -1   4 1823.02   73.11
   1  -1   5   99.39   18.83
  -1   1  -5  110.87   18.52
  -1  -1   5   96.09   16.58
   1   1  -5  113.46   15.78
  -1   1  -5   94.27   13.65
  -1  -1   5  104.66   17.70
   1   1  -5   96.03   15.92
   1  -1   5  108.61   16.23
  -1  -1   6  300.18   31.66
   1   1  -6  326.08   31.47
   1  -1   6  258.58   31.13
  -1   1  -6  243.71   29.91
   1  -1   6  244.18   26.40
  -1  -1   6  359.51   38.67
   1   1  -6  388.01   36.44
  -1   1  -6  215.28   23.37
  -1  -1   7  416.84   37.46
  -1   1  -7  471.22   43.83
   1  -1   7  435.36   43.16
  -1  -1   7  441.50   42.68
  -1   1  -7  402.03   34.16
   1  -1   7  420.25   36.79
   1   1  -7  380.62   38.78
  -1   1  -8  944.23   69.35
  -1  -1   8 1018.92   62.64
   1  -1   8 1137.12   72.45
  -1   1   8  748.91   54.73
  -1   1  -8  904.09   56.57
   1   1  -8  943.92   63.82
  -1  -1   8  955.88   65.53
   1  -1   8  940.84   58.54
   1  -1   9  832.59   64.32
  -1  -1   9  862.55   61.03
  -1   1   9  801.45   59.35
   1   1  -9  824.59   62.91
   1   1   9  796.10   54.09
  -1   1  -9  800.23   55.86
   1  -1   9  804.73   57.68
  -1  -1   9  736.73   59.72
   1   1  10  140.58   24.25
  -1  -1  10  206.40   31.77
  -1   1  10  153.35   28.14
  -1   1 -10  174.09   27.92
   1  -1  10  228.39   35.33
   1   1 -10  188.47   31.94
   1  -1  10  168.57   27.73
  -1  -1  10  159.47   29.39
   1  -1  11  719.71   66.09
  -1  -1  11  686.14   60.64
   1   1  11  596.72   52.00
   1   1 -11  643.88   60.16
  -1   1 -11  615.69   55.11
   1  -1  11  685.75   58.78
   1  -1  12    3.31    7.50
   1   1  12    3.26    5.37
  -1  -1  12   -5.51    9.02
   1   1 -12   -5.85    9.27
   1  -1  12    6.99    6.14
  -1   1 -12  -12.46    8.70
   1  -1  13 1232.79   92.87
  -1  -1  13 1064.79   82.27
   1   1 -13 1089.44   85.48
   1   1  13 1166.88   89.43
   1  -1  14   40.32   19.45
  -1  -1  14    6.64    9.20
   1   1  14   23.71   16.98
  -1   1  15  349.86   52.04
   1  -1  15  393.95   58.88
   1   1  15  374.51   56.60
  -1  -1  15  337.29   51.49
  -1  -1  16   13.60    7.69
  -1   1  16  -21.14   14.90
   1  -1  16    6.37    8.98
   1   1  16   12.70    8.25
  -1  -1  17  117.43   30.34
   1   1  17  111.97   31.94
   1  -1  17  101.91   32.53
  -1   1  17   99.31   30.19
  -1  -1  18  707.63   81.72
  -1   1  18  705.42   82.90
   1   1  18  669.61   83.40
   1  -1  18  626.86   79.05
  -1   1  19  118.53   35.20
   1   1  19  117.10   34.85
  -1  -1  19  114.52   33.69
   1  -1  19  114.47   32.84
  -1  -1  20  -11.24   14.83
   1  -1  20    3.45   10.71
  -1   1  20   20.72   16.62
   1   1  20  -15.90   21.63
  -1  -1  21  -20.73   21.57
  -1   1  21  -11.18    7.39
   1   1  21   23.39   11.14
   1  -1  21    2.22    8.80
   1   1  22  242.37   53.70
  -1   1  22  241.78   53.50
  -1  -1  22  221.31   51.32
   1  -1  22  162.65   42.94
   1   1  23  461.47   78.77
  -1  -1  23  473.32   77.76
   1  -1  23  522.74   85.67
  -1   1  23  597.74   85.61
   1  -1  24   16.20   12.94
  -1  -1  24  -23.05   21.74
   1   1  24   17.74    8.33
  -1   1  24  -17.42   17.18
   1  -1  25  297.40   65.00
  -1  -1  25  240.31   59.13
  -1   1  25  233.62   57.54
   1   1  25  210.58   55.23
  -1  -1  26   10.44    8.06
   1  -1  26   15.67   12.39
  -1   1  26   -1.58   26.99
   1   1  26  -16.50   25.41
  -1   1  27  209.30   58.59
  -1  -1  27  253.49   64.91
   1  -1  27  196.71   56.32
   1   1  27  293.64   73.23
   1  -1  28  -24.54   28.03
   1   1  28  -18.92   10.93
  -1  -1  28   25.12   16.43
  -1   1  28  -22.65   26.81
  -1  -1  29  -24.23   18.32
   1  -1  29  -21.42   11.20
  -1   1  29   21.89   22.03
   1   1  29   13.12   15.35
  -1   1  30   41.66   24.03
   1   1  30   74.44   32.76
  -1   1  31    0.57   13.33
   1   1  31  -16.96   21.19
   1   1  32  -39.79   30.14
  -1   1  32  -24.33   23.41
   1   1  33   -1.07   25.10
  -1   1  33  -14.75   17.01
   1   1  34   43.74   23.74
  -1   1  34  -47.99   33.09
  -2   0   3  834.43   42.85
   0   2  -3  784.65   45.87
  -2   0  -3  861.12   44.00
  -2   0   4  901.95   49.90
   2   0  -4  722.43   49.30
  -2   0  -4  790.03   47.23
   2   0   4  695.61   46.29
   0  -2   4  519.01   43.06
  -2   0   5  417.48   37.11
   0   2  -5  433.49   37.42
   2   0  -5  380.68   37.54
   2   0   5  423.56   37.13
   0  -2   5  461.01   40.25
   0   2  -5  339.90   36.08
   2   0   5  395.92   23.66
  -2   0   6  784.06   56.68
   2   0   6  838.94   63.41
   0  -2   6  895.17   59.89
   0   2  -6  615.72   52.62
   2   0   6  676.47   39.98
   0   2  -7    9.85    7.33
   2   0   7    5.08    9.11
   2   0   7    5.69    5.74
   0   2  -7    1.07    4.90
  -2   0   7   13.73   10.53
   0  -2   7    7.10    7.29
   0   2  -8   12.45   10.55
   2   0   8   35.05   15.94
   0  -2   8   21.88   13.70
   2   0   8   19.97    9.08
  -2   0   8    4.31    7.13
   0   2  -8    5.60    5.59
   2   0   9   59.05   18.32
   0   2  -9   51.24   16.36
   0  -2   9   64.12   18.71
   0  -2   9   57.15   16.48
   0   2  -9   44.26   14.03
  -2   0   9   38.77   14.53
   2   0   9   59.82   14.45
  -2   0  10 1194.94   73.26
   0  -2  10 1226.25   80.62
   2   0  10 1302.81   89.83
   0   2 -10  900.05   71.41
   0  -2  10 1000.64   74.07
   0   2 -10  936.64   70.84
   2   0  10  855.74   56.82
  -2   0  11   40.86   22.74
   0  -2  11   69.19   28.00
   2   0  11   73.45   29.25
   0   2 -11   27.74   24.69
   2   0  11   16.65   13.95
   0  -2  12  559.89   60.93
   2   0  12  600.08   66.36
  -2   0  12  480.51   54.14
   0   2 -12  481.81   55.85
   2   0  12  415.27   44.45
   0  -2  13  133.28   32.28
   2   0  13  149.09   39.13
  -2   0  13  149.03   31.97
   2   0  13   64.62   23.06
   0   2 -13  165.31   37.36
  -2   0  14 2079.75  116.73
   2   0  14 1964.65  129.69
   0  -2  14 2209.52  129.63
   0   2 -14 1914.79  116.14
  -2   0  15  756.06   74.09
   2   0  15  927.14   92.77
   0  -2  15  861.38   86.36
   0   2 -15  845.65   90.04
  -2   0  16  267.06   45.67
   0   2 -16  259.72   46.97
   0  -2  16  251.44   45.31
   2   0  16  243.71   46.98
  -2   0  17  276.16   47.39
   2   0  17  245.08   49.55
   0  -2  17  276.44   49.56
  -2   0  18   94.60   28.82
   0  -2  18   66.87   23.22
   0   2  18  125.28   36.44
   2   0  18  116.38   36.05
   0   2  19   19.71   14.10
   0  -2  19   22.10   15.34
   2   0  19   -5.82   14.08
  -2   0  19   29.97   19.48
   0   2  20  315.78   56.83
   2   0  20  261.66   54.31
  -2   0  20  298.74   54.92
   0  -2  20  303.10   61.17
   0   2  21  134.60   41.92
   0  -2  21  128.13   40.70
  -2   0  21  132.12   37.30
   2   0  21  128.49   41.26
   0  -2  22   21.17   16.90
   2   0  22   15.58   17.19
   0   2  22    6.23    7.39
  -2   0  22  -15.24   13.82
   0  -2  23  218.09   55.03
   0   2  23  264.07   57.67
   2   0  23  244.80   58.88
  -2   0  23  295.83   58.48
   2   0  24   -5.95   20.04
   0  -2  24  -18.57   22.27
   0   2  24  -14.52   20.08
  -2   0  24    4.59    8.39
   2   0  25  139.62   48.90
  -2   0  25  163.52   46.20
   0   2  25  107.79   40.86
   0   2  26  443.10   80.29
   2   0  26  472.81   86.82
  -2   0  26  567.07   89.95
  -2   0  27  440.63   82.34
   2   0  27  378.61   81.88
   0   2  27  358.62   84.64
  -2   0  28   21.30   17.49
   2   0  28    1.52   10.00
   0   2  29   10.95   15.97
  -2   0  29   11.48   14.58
   2   0  29   10.99   22.06
  -2   0  30   -6.79   16.59
   0   2  30  -36.65   31.33
   2   0  30    0.04   12.69
   0   2  31   10.57   20.51
  -2   0  31   -5.30   11.98
   2   0  31    2.80   12.17
   2   0  32   14.95   22.34
   0   2  32   -4.62   27.33
  -2   0  32  -23.18   22.96
   0   2  33    3.62   11.35
  -2   0  33  -11.51   14.47
   0   2  34  -77.35   41.67
  -2   1  35   53.17   33.17
  -2   1  34   -2.54   12.09
  -2   1  33   22.58   13.13
   1   2  33  -14.36   29.32
  -2   1  32    3.37   14.62
   1   2  32   10.04   19.44
   1   2  31   39.54   24.39
  -2   1  31   43.88   32.29
   1   2  30    7.10   29.32
  -2   1  30  120.66   47.62
   2  -1  29   34.55   26.11
   1   2  29   38.49   30.68
  -2   1  29   18.13   15.91
   2  -1  28  109.93   42.00
   1   2  28   71.50   26.48
  -2   1  28   87.47   46.55
   1   2  27  -23.72   28.64
  -2   1  27   -8.07   19.92
   2  -1  27  -19.14   31.35
   2  -1  26  140.10   46.00
   1   2  26  148.20   43.50
  -2   1  26  214.13   53.85
  -1  -2  25   92.58   38.00
  -2   1  25   52.32   30.28
   1   2  25   61.88   27.03
   2  -1  25   91.04   36.65
   1   2  24   44.49   25.01
  -2   1  24   36.38   22.99
  -1  -2  24   46.44   20.34
   2  -1  24   44.61   22.14
  -2   1  23  -27.58   22.75
   2  -1  23   11.58   11.80
   1   2  23  -12.32   13.40
  -1  -2  23  -18.73   19.00
   2  -1  22  348.07   68.35
  -2   1  22  423.47   69.19
  -1  -2  22  347.39   65.83
   1   2  22  366.21   69.93
  -2   1  21  181.29   42.40
  -1  -2  21  166.36   41.76
   1   2  21  184.39   43.21
   2  -1  21  166.06   46.81
  -1  -2  20   94.44   34.94
   1   2  20   74.55   28.29
   2  -1  20   86.21   31.12
  -2   1  20  102.46   36.65
   1   2  19  352.03   61.26
  -2   1  19  363.62   59.73
   2  -1  19  348.03   62.26
  -1  -2  19  439.20   66.07
   1   2  18  140.98   40.11
  -1  -2  18  167.06   40.14
   2  -1  18  153.35   42.07
  -2   1  18  114.36   31.45
  -1  -2  17   53.39   19.98
   2  -1  17   38.27   19.30
  -2   1  17   32.33   18.98
   1   2  17   84.73   29.85
   2  -1  16  487.68   67.29
  -1  -2  16  422.19   58.03
  -2   1  16  495.68   61.66
  -1   2 -16  445.12   58.90
  -1   2 -15   50.03   19.42
   2  -1  15   61.84   27.22
  -1  -2  15   18.90   11.41
   2  -1  14  862.98   85.05
  -1  -2  14  860.19   77.69
  -1   2 -14  869.83   75.43
  -1  -2  13  117.89   27.13
   2  -1  13  174.83   37.00
   2   1 -13  168.69   36.58
   2  -1  13  141.95   27.32
  -1   2 -13  158.59   32.04
   2  -1  12  789.51   73.56
  -1  -2  12  694.91   64.12
  -1   2 -12  714.61   63.66
   2   1 -12  680.74   69.20
   2  -1  12  769.36   64.58
  -1  -2  11   63.05   19.15
   2  -1  11   70.88   24.47
   2   1 -11   74.33   23.28
  -1   2 -11   22.36   13.14
   2  -1  11   32.80   12.23
   2  -1  10  297.14   45.14
  -1  -2  10  295.49   40.24
   2   1 -10  291.10   41.98
  -1   2 -10  232.75   35.16
   2  -1  10  289.98   36.16
  -1   2  -9  959.52   72.48
   2  -1   9 1387.80   87.99
  -1  -2   9  921.19   70.49
  -2   1   9  766.73   64.31
   2   1  -9 1139.56   79.53
  -1  -2   9  935.78   73.27
   2  -1   9  916.23   59.01
  -1   2  -9  852.72   61.94
   2  -1   8  312.14   39.16
  -2   1   8  366.19   39.92
  -1   2  -8  365.65   42.02
   2   1  -8  312.14   38.39
   2  -1   8  320.55   32.14
  -1  -2   8  304.89   39.84
  -1   2  -8  298.98   34.27
   2  -1   7  141.36   27.69
  -1   2  -7  118.71   26.61
   2  -1   7  112.61   19.13
   2   1  -7  129.75   23.31
  -1   2  -7  106.95   18.51
  -1  -2   7  106.98   24.85
   2  -1   6   35.88   12.76
  -1   2  -6   40.67   12.28
   2   1  -6   40.75   12.41
  -1   2  -6   18.36    7.20
  -1  -2   6   24.98    7.10
   2  -1   6   51.34   12.17
  -1   2  -5  417.06   38.14
   2  -1   5  791.17   53.93
   2  -1   5  568.47   37.29
  -1  -2   5  567.14   55.47
  -1   2  -5  571.98   43.97
   2   1  -5  727.19   49.21
   2  -1   4  771.95   48.01
   2   1  -4  724.92   32.20
   2  -1   4  712.82   33.82
  -1  -2   4  765.87   50.39
  -1   2  -4  690.63   42.39
   2   1  -4  667.29   44.71
  -1   2  -3  754.90   43.91
  -2   1  -3  896.69   47.56
   1   2  -3  648.67   44.77
  -2  -1   3 1062.18   53.25
  -2  -1   4  699.43   31.76
  -2   1  -4  749.44   46.96
   1  -2   4  732.16   46.41
  -2  -1   4  653.86   45.52
   1   2  -4  674.24   46.22
  -2   1  -4  689.56   31.54
   1   2  -5  368.37   32.03
  -2   1  -5  809.21   52.90
  -2  -1   5  667.42   35.84
   1  -2   5  466.00   43.60
  -2  -1   5  846.78   55.71
  -2   1  -5  650.39   35.66
   1   2  -6   40.02   12.67
  -2  -1   6   27.14    7.48
  -2   1  -6   43.39   12.14
  -2  -1   6   24.31   10.23
   1   2  -6   37.77    9.97
  -2   1  -6   43.25   10.01
   1  -2   6   46.26   14.07
  -2   1  -7  172.60   30.57
   1   2  -7  123.58   20.43
  -2  -1   7  171.36   22.49
   1   2  -7  121.26   26.88
  -2   1  -7  151.68   20.03
  -2  -1   7  181.77   29.73
   1  -2   7  160.13   25.53
  -2   1  -8  275.96   28.39
   1   2  -8  308.89   35.72
  -2  -1   8  301.02   31.66
  -2   1  -8  342.30   41.03
   1  -2   8  323.82   37.84
   1   2  -8  302.42   37.91
  -2  -1   8  302.36   37.84
  -2   1  -9  956.48   57.56
   2   1   9  734.83   49.64
  -2  -1   9 1175.99   68.65
   1  -2   9 1057.75   81.51
  -2   1  -9  899.79   71.45
   1   2  -9  865.60   64.13
   1  -2   9  931.52   68.31
  -2  -1   9  877.40   69.31
   1   2  -9  935.90   72.65
  -2  -1  10  360.99   41.33
   1  -2  10  311.78   44.14
   1   2 -10  382.86   45.69
  -2   1 -10  318.19   36.68
   2   1  10  306.40   33.41
   1   2 -10  322.86   42.69
   1  -2  10  330.47   41.56
   1   2 -11   29.44   14.02
   2   1  11   30.71   11.64
   1  -2  11   42.80   16.49
  -2   1 -11   49.20   15.57
  -2  -1  11   87.52   23.64
   2   1  11   61.39   23.09
   1  -2  11   52.96   19.49
   2   1  12  629.07   53.69
   1   2 -12  663.12   67.05
  -2  -1  12  723.47   63.51
   1  -2  12  649.25   65.47
   2   1  12  722.31   70.55
   1   2 -13  158.84   32.74
   2   1  13  133.04   25.64
  -2  -1  13  158.29   29.96
   1  -2  13  167.04   34.87
   2   1  13  140.19   29.41
   1   2 -14  892.14   81.34
   2   1  14  883.59   83.27
  -2  -1  14  879.00   76.15
   1  -2  14  877.74   83.30
   1  -2  15   20.49   12.11
  -2  -1  15   27.46   16.88
   1   2 -15   42.71   19.25
   2   1  15   10.09   13.36
   1   2 -16  417.49   65.47
  -2  -1  16  454.58   60.40
   2   1  16  409.24   61.35
   1  -2  16  458.89   63.42
   2   1  17   26.21   20.63
   1  -2  17    2.26   11.47
  -2  -1  17   58.27   22.06
   1   2 -17   33.37   19.10
   1  -2  18  117.95   33.07
  -2  -1  18  124.24   33.77
   2   1  18  100.22   30.03
  -2  -1  19  335.32   58.07
  -1   2  19  341.15   58.47
   2   1  19  361.01   63.04
   1  -2  19  385.01   62.96
  -1   2  20  152.84   40.50
   1  -2  20  119.13   36.72
   2   1  20   64.43   26.00
  -2  -1  20   92.23   30.42
  -2  -1  21  179.80   44.42
   1  -2  21  189.16   43.69
   2   1  21  208.82   53.70
  -1   2  21  202.77   48.77
  -1   2  22  421.84   70.18
   2   1  22  387.72   73.88
  -2  -1  22  402.15   67.30
   1  -2  22  407.86   73.79
  -2  -1  23   -2.48   21.25
   1  -2  23  -17.90   19.85
   2   1  23    1.97   16.48
  -1   2  23   -3.76   19.37
   1  -2  24   71.56   30.89
  -1   2  24   50.96   23.40
   2   1  24   66.33   29.61
  -2  -1  24   75.31   32.12
   2   1  25   71.41   30.90
  -1   2  25   94.38   38.24
  -2  -1  25   65.47   30.06
   2   1  26  210.40   57.88
  -2  -1  26  178.16   50.10
  -1   2  26  147.30   45.69
   2   1  27   24.61   14.91
  -2  -1  27   17.37   20.54
  -1   2  27   24.86   18.20
   2   1  28  131.32   50.62
  -1   2  28   74.67   40.78
  -2  -1  28   65.40   37.43
  -2  -1  29    6.38   17.66
   2   1  29   19.04   18.49
  -1   2  29   27.26   27.49
   2   1  30   20.02   13.76
  -1   2  30   60.32   29.71
  -1   2  31  134.09   49.04
   2   1  31   35.35   29.51
   2   1  32  -10.81   13.15
  -1   2  32   -2.58   17.22
   2   1  33   15.57   20.96
  -1   2  33   36.49   26.38
  -1   2  34  -50.02   33.62
  -2  -2   0 3396.03   89.27
  -2  -2  -1   -0.98    3.49
  -2  -2   1    6.66    7.74
  -2   2  -2 2689.29   72.06
   2   2  -2 3357.15   99.26
  -2  -2   2 2917.60   94.96
   2  -2   3  958.95   44.39
  -2   2  -3  941.00   44.17
  -2  -2   3 1060.86   58.77
   2   2  -3  972.94   56.09
   2   2  -4   34.32   19.89
   2  -2   4   27.01   12.38
  -2   2  -4   23.37   15.26
  -2  -2   4   62.91   20.06
  -2   2  -5  748.23   55.99
   2   2  -5  792.85   42.32
  -2   2  -5  785.29   45.92
   2  -2   5  856.93   48.40
  -2  -2   5  783.11   56.85
   2   2  -5  715.23   53.46
  -2   2  -6 2567.17  106.35
   2  -2   6 2734.73   92.03
  -2   2  -6 2081.42   78.91
  -2  -2   6 2777.50  112.19
   2   2  -6 2771.59  113.76
   2   2  -7 1637.95   72.56
  -2   2  -7 1758.10   92.05
   2  -2   7 1660.01   76.24
   2   2  -7 1482.78   83.89
  -2   2  -7 1572.24   71.68
  -2  -2   7 1559.67   87.09
  -2   2  -8 1273.44   82.93
   2   2  -8 1444.47   74.49
   2  -2   8 1420.73   76.38
   2   2  -8 1402.32   89.03
  -2   2  -8 1287.01   68.82
  -2  -2   8 1630.22   94.01
  -2  -2   9  126.34   24.36
   2   2  -9  133.71   23.81
   2   2  -9  111.91   27.14
  -2   2  -9  131.10   23.03
   2  -2   9  150.55   26.28
  -2  -2  10   53.72   16.95
   2  -2  10   62.86   21.74
  -2   2 -10   32.86   12.66
   2   2 -10   59.34   21.46
   2  -2  10   46.44   13.25
  -2  -2  11  117.00   21.78
   2  -2  11  119.06   26.78
   2   2 -11  111.46   27.91
  -2   2 -11  117.00   22.52
   2  -2  11  145.91   27.73
  -2  -2  12   87.99   24.21
   2  -2  12   59.82   23.47
  -2   2 -12   65.21   19.36
   2   2 -12   78.44   27.33
   2  -2  12   84.16   23.37
   2  -2  13  368.24   54.37
  -2  -2  13  335.28   45.04
  -2   2 -13  298.84   42.31
   2   2 -13  303.81   49.26
   2  -2  14    0.14   11.88
  -2   2 -14   -5.79    5.63
  -2  -2  14  -15.02   12.99
   2   2 -14    2.78    8.98
  -2  -2  15   68.84   24.96
   2  -2  15   72.00   26.36
   2   2 -15   60.26   25.95
  -2   2 -15   73.22   25.55
   2   2  16  148.77   38.88
  -2  -2  16  191.60   40.18
   2   2 -16  184.22   44.22
   2  -2  16  186.15   42.11
  -2   2 -16  147.51   35.24
   2   2  17  662.14   81.91
  -2  -2  17  594.00   71.46
   2   2 -17  867.77   92.71
   2  -2  17  544.92   75.14
   2  -2  18   57.49   28.66
  -2  -2  18   67.09   22.70
   2   2  18   45.01   23.54
   2  -2  19  175.04   45.33
   2   2  19   93.78   38.82
  -2   2  19  156.63   42.58
  -2  -2  19  107.44   31.37
  -2   2  20  308.25   57.45
  -2  -2  20  321.36   55.39
   2  -2  20  378.36   67.38
   2   2  20  374.96   67.53
   2   2  21  217.78   52.50
  -2   2  21  298.13   56.07
   2  -2  21  258.52   57.34
  -2  -2  21  243.38   50.56
   2   2  22   21.30   16.63
   2  -2  22   31.25   14.25
  -2  -2  22   -0.33   17.51
  -2   2  22    5.57   17.91
   2   2  23  287.62   62.80
  -2   2  23  314.11   61.63
   2  -2  23  226.94   57.68
  -2  -2  23  268.04   57.51
   2   2  24   84.62   32.81
  -2  -2  24   71.13   27.59
  -2   2  24   42.36   22.56
  -2   2  25  146.63   38.41
   2   2  25  103.62   42.28
  -2   2  26  -18.99   22.29
   2   2  26   30.04   19.97
   2   2  27   98.52   41.41
  -2   2  27   -7.03   12.75
   2   2  28   -1.63   17.50
  -2   2  28  -11.19   16.05
  -2   2  29  129.23   49.31
   2   2  29   63.84   34.17
   2   2  30   60.42   33.58
  -2   2  30  -20.13   14.96
  -2   2  31   31.25   25.51
   2   2  31   44.53   35.10
  -2   2  32   24.11   19.61
   2   2  32   93.18   39.32
   2   2  33   58.29   41.64
  -2   2  33   31.00   24.14
  -2   2  34  -21.68   22.87
  -3   0   0 3652.48   65.40
  -3   0   0 3338.82   65.43
  -3   0   1  705.75   36.95
   0   3  -1  946.90   53.58
  -3   0  -1  636.92   36.05
  -3   0   2   78.27   13.53
  -3   0  -2   90.58   14.31
   3   0   2   89.02   13.43
   0   3  -2   63.03   16.73
   0  -3   2  107.56   19.60
  -3   0   3  146.95   22.82
   3   0   3  147.76   21.07
  -3   0  -3  157.48   23.63
   0  -3   3  145.64   23.94
   0   3  -3  119.47   24.11
  -3   0   4  304.67   31.38
   3   0   4  312.77   31.83
  -3   0  -4  329.77   31.79
   0   3  -4  328.03   34.99
   0  -3   4  356.65   37.23
  -3   0  -5  105.03   21.08
   3   0   5   93.95   22.31
  -3   0   5   95.17   22.54
   0   3  -5   29.74   18.19
  -3   0   6  670.01   51.53
   3   0   6  681.35   53.02
   0   3  -6  651.06   55.21
   0  -3   6  676.48   55.74
   3   0   6  657.37   30.69
   3   0   7   -2.37    7.36
   0   3  -7   10.39    5.70
   0   3  -7    2.19    6.68
   3   0   7    8.13    2.90
  -3   0   7   12.94    8.95
   0  -3   7   14.24   10.51
   0   3  -8  510.51   49.97
   3   0   8  435.33   46.84
   0  -3   8  499.85   52.30
   3   0   8  466.08   33.15
   0   3  -8  441.12   47.57
  -3   0   8  439.85   46.57
   3   0   9  193.47   34.58
   0   3  -9  141.87   28.77
   3   0   9  134.15   19.82
   0   3  -9  140.12   29.63
   0  -3   9  169.61   32.51
   3   0  10   52.86   22.61
   3   0  10   28.24    9.85
   0   3 -10   36.83   16.15
   0  -3  10   48.39   18.02
  -3   0  11  325.25   39.64
   3   0  11  421.98   55.85
   3   0  11  266.37   32.63
   0   3 -11  298.82   43.29
  -3   0  12   33.15   17.46
   3   0  12   59.67   27.63
   0   3 -12   58.65   26.05
   3   0  12   17.77   11.69
  -3   0  13  200.06   34.01
   3   0  13  250.78   47.61
   0   3 -13  197.16   35.90
   3   0  13  192.30   29.31
   3   0  14  196.25   44.08
  -3   0  14  196.87   36.36
   3   0  14  135.22   27.64
   0   3 -14  177.03   37.84
  -3   0  15   12.18   18.59
   3   0  15   19.54   17.12
   0   3 -15   -2.10    9.85
  -3   0  16   10.06    5.53
   3   0  16  -11.14   18.57
   0   3 -16  -15.61   19.18
  -3   0  17   24.42   14.84
   3   0  17    1.46   15.79
   0   3 -17   19.66   15.01
   0   3 -18  299.77   57.79
  -3   0  18  259.43   47.03
   3   0  18  251.79   53.17
   0   3 -19   30.52   18.88
  -3   0  19    5.12   12.44
   3   0  19   26.51   19.66
  -3   0  20  142.09   38.59
   3   0  20  104.06   36.11
   0   3  21   24.89   17.85
  -3   0  21  -12.03   12.19
   3   0  21  -21.74   16.93
  -3   0  22  156.08   41.58
   0   3  22  202.87   52.80
   3   0  22  183.78   49.70
   3   0  23   22.98   17.13
  -3   0  23   24.90   16.94
   0   3  23    6.32    9.76
   3   0  24  149.22   44.84
   0   3  24  161.10   50.02
  -3   0  24  251.22   55.21
   3   0  25  164.78   52.68
   0   3  25  179.41   49.25
  -3   0  25  188.76   51.16
   3   0  26  120.66   47.77
  -3   0  26  172.48   50.15
   0   3  26  118.60   45.58
  -3   0  27   15.11   16.23
   3   0  27  -28.20   29.44
   0   3  27   13.48   13.15
   3   0  28   -6.57   19.98
   0   3  28  -47.55   30.81
  -3   0  28  -18.86    7.86
   3   0  29   -8.55   25.26
   0   3  29   76.00   40.04
  -3   0  29   48.01   25.94
   0   3  30  -19.46   20.40
  -3   0  30   -0.07    9.24
   3   0  30    2.14   26.60
   3   0  31  -13.81   16.86
  -3   0  31   11.98   28.54
   0   3  31   25.20   33.95
   0   3  32   33.91   25.62
   3   0  32   -9.05   12.55
  -3   0  32   21.75   19.21
   0   3  33  -32.72   27.64
  -3   1  35   24.35   32.65
  -3   1  34   23.68   27.02
  -3   1  33   67.63   35.38
   1   3  33   64.70   39.28
   1   3  32  -40.99   34.50
  -3   1  32    8.37   14.05
  -3   1  31  -11.67   10.24
   1   3  31   -6.36   12.90
   1   3  30   58.96   37.29
  -3   1  30   39.15   24.40
   1   3  29   35.90   31.53
  -3   1  29   26.28   23.18
   3  -1  28   18.77   16.70
   1   3  28   11.02   19.48
  -3   1  28   -4.49   25.25
  -3   1  27   -8.54   25.84
   3  -1  27   47.22   34.22
   1   3  27   27.80   13.88
   1   3  26   -8.80   20.61
  -3   1  26   11.62   17.13
   3  -1  26   18.54   16.34
  -3   1  25   96.91   36.36
   1   3  25  109.01   43.19
   3  -1  25  100.60   37.88
   3  -1  24   17.56   14.93
   1   3  24   66.71   31.89
  -3   1  24  112.28   37.72
   3  -1  23  108.60   36.27
  -3   1  23  100.95   35.30
   1   3  23   69.88   34.18
   3  -1  22   67.75   28.89
  -3   1  22   76.74   24.51
   1   3  22   39.23   23.12
   1   3  21  300.61   60.93
  -3   1  21  300.49   57.20
   3  -1  21  377.08   69.21
  -3   1  20    2.93    9.37
   1   3  20    4.29    8.62
  -3   1  19  218.38   46.87
   3  -1  19  243.26   49.76
  -1   3 -19  286.92   53.08
   3  -1  18   55.73   22.85
  -3   1  18   65.45   24.54
  -1   3 -18   75.79   27.33
   3  -1  17   79.61   29.57
  -3   1  17   44.97   18.87
  -1   3 -17   89.22   27.85
   3  -1  16   53.01   27.33
  -3   1  16   22.94   14.54
  -1   3 -16   39.68   20.60
   3  -1  15   52.69   21.50
  -1   3 -15  106.14   30.90
   3  -1  14  121.21   31.20
   3  -1  14  145.60   29.35
  -1   3 -14  139.70   29.66
   3  -1  13  302.04   50.07
   3  -1  13  297.29   40.52
  -1   3 -13  305.38   43.59
   3  -1  12   72.74   22.63
   3   1 -12   55.08   17.66
  -1   3 -12   64.01   19.37
   3  -1  12   53.57   14.85
   3  -1  11  355.95   48.80
   3   1 -11  364.56   48.93
   3  -1  11  348.70   39.12
  -1   3 -11  337.77   43.40
   3  -1  10   60.44   21.58
   3   1 -10   33.37   17.00
  -1   3 -10   12.95   10.18
   3   1  -9  259.66   40.43
   3  -1   9  263.91   42.16
  -1   3  -9  320.10   43.06
  -1  -3   9  241.36   39.13
  -1   3  -9  290.44   38.89
   3  -1   9  256.64   29.12
  -3   1   8  332.52   38.90
   3   1  -8  503.76   51.85
   3  -1   8  578.95   56.30
  -1   3  -8  296.83   42.60
  -1  -3   8  459.63   54.45
   3  -1   8  385.32   33.65
  -1   3  -8  410.46   48.14
   3   1  -7  704.42   58.41
  -1   3  -7  838.19   65.17
  -3   1   7  650.00   56.67
   3  -1   7  767.70   61.66
   3  -1   7  781.81   43.97
  -1  -3   7  842.75   68.83
  -1   3  -7  741.39   57.98
   3   1  -6  631.55   52.81
   3  -1   6  646.01   53.62
  -1   3  -6  589.91   50.89
   3  -1   6  607.75   35.70
  -1  -3   6  688.55   60.33
   3  -1   5  997.23   63.55
  -1  -3   5 1046.67   67.24
  -1   3  -5  928.52   59.14
   3  -1   5 1086.98   42.13
   3   1  -5  898.85   58.24
  -1  -3   4 3923.42  134.86
  -1   3  -4 3596.61  120.84
   3   1  -3  133.54   20.59
  -1   3  -3  114.35   20.48
  -1  -3   3   96.65   20.91
  -1  -3   2  725.31   53.37
  -1   3  -2  996.15   54.82
   3   1  -2  921.52   50.57
  -1  -3   1  686.17   48.00
  -1   3  -1  644.65   42.93
  -3  -1  -1  632.49   31.98
   3   1  -1  704.20   37.54
  -3  -1   0 2568.38   72.30
   1   3   0 2349.30   92.58
  -1  -3   0 2787.62   91.77
   1   3  -1  726.02   48.88
  -3  -1   1  778.10   40.69
   1  -3   2 1031.08   56.42
   1   3  -2  721.93   54.80
  -3  -1   2 1001.89   53.30
  -3  -1   3  136.02   21.52
  -3   1  -3  116.61   18.65
   1  -3   3  120.42   20.23
   1   3  -3  144.73   24.57
  -3   1  -4 4854.10  130.17
  -3  -1   4 5446.54  140.70
  -3  -1   5  899.11   37.33
  -3   1  -5  956.97   61.59
   1   3  -5  855.70   62.76
   1  -3   5  985.31   62.29
  -3   1  -5  880.05   34.70
  -3  -1   5  914.32   59.36
  -3  -1   6  692.66   38.05
  -3   1  -6  688.54   55.19
   1  -3   6  681.64   55.33
   1   3  -6  573.97   53.02
  -3   1  -6  616.77   32.57
  -3  -1   6  662.20   55.31
   1   3  -7  767.23   56.26
  -3  -1   7  757.74   43.84
  -3   1  -7  827.13   63.55
   1  -3   7  805.36   60.69
  -3  -1   7  777.50   60.39
   1   3  -7  730.22   62.21
  -3   1  -7  702.27   37.85
  -3   1  -8  395.38   32.17
  -3   1  -8  379.17   45.69
  -3  -1   8  447.95   38.18
   3   1   8  416.07   49.80
   1   3  -8  342.46   40.65
   1  -3   8  328.49   44.14
  -3  -1   8  371.52   44.15
   1   3  -8  254.07   39.06
   1   3  -9  200.59   33.86
  -3   1  -9  235.76   26.42
   3   1   9  223.48   24.70
   3   1   9  288.83   41.37
  -3  -1   9  233.43   29.97
   1   3  -9  316.79   40.47
   1  -3   9  285.24   39.69
   1   3 -10   17.79   10.05
  -3  -1  10   42.57   14.64
   3   1  10   47.35   17.68
  -3   1 -10   21.87    8.31
   1   3 -10   22.04   14.76
   3   1  10   28.25   10.40
   1  -3  10   25.28   11.86
   3   1  11  406.68   51.79
  -3  -1  11  449.27   45.80
   3   1  11  375.87   37.29
   1   3 -11  383.83   50.53
  -3  -1  12   46.41   14.96
   3   1  12  102.07   28.74
   1   3 -12   37.34   13.59
   3   1  12   61.31   16.18
  -3  -1  13  310.54   42.27
   3   1  13  274.91   46.05
   1   3 -13  279.57   44.35
   3   1  13  276.77   35.82
  -3  -1  14  111.26   26.32
   3   1  14  147.28   35.15
   3   1  14  117.82   24.51
   1   3 -14  122.46   31.09
  -3  -1  15   76.04   24.81
   3   1  15   48.24   23.36
   1   3 -15   75.64   27.57
   3   1  16   34.46   13.85
  -3  -1  16   49.20   17.93
   1   3 -16   42.89   21.07
   3   1  17   76.96   25.99
   1   3 -17   80.70   25.24
  -3  -1  17   96.13   29.04
   3   1  18   37.55   15.88
  -3  -1  18   43.71   16.11
   1   3 -18   32.26   26.27
   1   3 -19  273.09   57.35
  -3  -1  19  207.87   44.61
   3   1  19  209.42   47.77
   1   3 -20   23.52   18.33
   3   1  20    9.03   13.72
  -3  -1  20    5.07   15.81
   3   1  21  252.63   60.31
  -3  -1  21  285.03   54.26
  -1   3  21  324.97   61.20
   3   1  22   64.08   26.74
  -1   3  22   89.95   36.91
  -3  -1  22   96.62   28.26
   3   1  23   49.09   28.53
  -1   3  23   67.16   27.15
  -3  -1  23  116.45   31.79
  -1   3  24   58.48   26.73
   3   1  24   19.59   13.41
  -3  -1  24   73.67   23.15
   3   1  25  115.67   42.28
  -3  -1  25   41.44   21.09
  -1   3  25   60.83   25.47
  -3  -1  26   23.03   17.28
   3   1  26   36.39   25.75
  -1   3  26   16.60   15.10
   3   1  27   42.68   34.10
  -3  -1  27   21.47   21.80
  -1   3  27   59.86   31.74
   3   1  28   16.78   11.45
  -3  -1  28   10.81   18.90
  -1   3  28    4.96   24.88
  -1   3  29    9.93    9.42
   3   1  29   31.71   28.40
  -3  -1  29   32.88   18.29
   3   1  30   11.06   22.27
  -1   3  30   40.96   29.91
  -1   3  31    1.97   17.81
   3   1  31   30.74   33.47
  -1   3  32   26.29   10.84
   3   1  32   27.06   26.23
   3   1  33    4.47   22.54
  -1   3  33  116.27   53.43
  -1   3  34   29.08   28.14
  -3   2  35   39.72   37.90
  -3   2  34   88.22   41.74
  -3   2  33    3.78    9.87
   2   3  33   52.15   34.98
   2   3  32   88.60   41.96
  -3   2  32   70.90   36.09
  -3   2  31   55.92   34.20
   2   3  31   -7.09   20.61
   2   3  30  -12.01   16.70
  -3   2  30   35.41   21.59
   2   3  29  -13.99   21.14
  -3   2  29   17.05   14.89
   2   3  28   19.98   13.38
  -3   2  28  -12.26   14.06
  -3   2  27   18.87   11.60
   2   3  27   -3.86    9.63
  -3   2  26   27.79   18.22
   2   3  26  -41.33   26.68
  -3   2  25   -5.97   15.10
   2   3  25   17.76   13.60
   2   3  24  200.90   56.43
  -3   2  24  141.52   43.57
  -3   2  23   98.60   35.82
   2   3  23  113.22   37.86
   3  -2  22  213.63   52.78
  -3   2  22  156.05   42.08
   2   3  22  189.89   52.82
  -3   2  21   52.75   22.64
   3  -2  21    6.86   11.58
   2   3  21   31.98   19.71
   2   3  20  334.73   65.39
   3  -2  20  289.72   59.95
  -3   2  20  386.30   62.52
   3  -2  19  239.08   53.24
   2   3  19  253.12   55.38
  -2   3 -19  196.98   43.81
   3  -2  18  260.63   54.55
  -2   3 -18  269.56   51.50
   3  -2  17   47.15   24.91
  -2   3 -17   51.85   24.30
   3  -2  16  127.70   37.76
   3   2 -16   99.96   31.45
  -2   3 -16   74.07   23.27
   3  -2  15   41.66   19.91
   3   2 -15   34.29   20.50
  -2   3 -15   17.61   10.47
   3  -2  14   88.56   27.03
   3   2 -14  110.83   32.91
  -2   3 -14  128.26   27.16
   3  -2  13   31.29    9.15
  -2   3 -13   52.18   13.53
   3   2 -13   60.87   20.99
   3  -2  13   63.08   19.46
   3   2 -12  310.38   48.67
   3  -2  12  336.28   52.08
   3  -2  12  286.26   39.86
  -2   3 -12  293.18   41.63
   3  -2  11  180.72   41.10
   3   2 -11  150.49   36.12
  -2   3 -11  109.56   26.31
   3  -2  11  132.94   27.26
  -2   3 -10   85.40   21.30
   3   2 -10  100.45   27.31
   3  -2  10   66.17   16.91
   3   2  -9  121.22   28.67
  -2   3  -9   77.78   19.21
   3  -2   9   95.53   21.07
  -2   3  -8  432.57   50.92
  -2  -3   8  420.09   51.32
   3  -2   8  406.15   38.17
  -2   3  -8  378.20   40.68
   3   2  -8  359.05   46.57
   3   2  -7 1278.98   59.81
  -2   3  -7 1242.35   87.03
  -2   3  -7 1174.89   71.71
  -2  -3   7 1167.32   89.47
   3  -2   7 1359.81   67.62
   3   2  -7 1476.18   86.98
   3   2  -6  522.26   34.79
   3  -2   6  515.33   37.35
  -2   3  -6  455.63   41.79
  -2  -3   6  514.42   52.06
   3   2  -6  503.10   49.00
   3   2  -5  206.25   31.75
   3   2  -5  153.32   17.30
   3  -2   5  163.39   19.25
  -2  -3   5  146.35   29.23
  -2   3  -5  133.95   22.87
  -2  -3   4 2312.62  100.85
   3  -2   4 2139.12   67.17
  -2   3  -4 2045.52   82.40
   3   2  -4 2058.28   89.33
  -2  -3   3  398.94   46.72
  -2   3  -3  545.16   42.41
  -3  -2  -2 1145.62   48.06
   2   3   2 1155.61   58.09
  -2  -3   2 1282.51   70.20
  -2   3  -2 1142.98   57.05
   3   2  -2 1113.09   59.07
   3   2  -1  455.14   37.50
  -2  -3   1  387.12   39.25
  -3  -2  -1  430.22   33.04
   2   3   1  394.98   35.93
   3   2   0 1335.54   58.50
  -3  -2   0 1276.16   59.87
  -2  -3   0 1260.09   64.34
   2   3   0 1296.87   63.37
   3   2   1  490.45   34.47
  -2  -3  -1  425.72   37.31
  -3  -2   1  404.51   37.24
   2   3  -1  338.47   41.76
  -3  -2   2 1081.16   60.28
   2   3  -2 1146.74   64.59
   3   2   2 1191.68   48.05
  -3  -2   3  576.44   48.81
   2  -3   3  544.97   43.33
  -3   2  -3  448.55   31.11
   2   3  -3  549.61   52.10
   2  -3   4 1981.64   81.42
   2   3  -4 1899.71   90.91
  -3   2  -4 1900.40   63.12
  -3  -2   4 2017.50   91.28
   2   3  -5  125.81   27.50
  -3  -2   5  150.99   28.00
  -3   2  -5  135.57   24.23
   2  -3   5   98.51   19.38
  -3   2  -5  124.18   17.77
  -3   2  -6  589.79   53.19
   2  -3   6  616.21   48.63
  -3   2  -6  587.91   39.23
  -3  -2   6  580.52   53.71
   2   3  -6  547.29   52.73
  -3   2  -7 1304.32   84.36
   2   3  -7 1036.70   61.67
   2  -3   7 1499.73   80.98
  -3  -2   7 1219.95   82.99
  -3   2  -7 1185.13   59.51
   2   3  -7 1056.96   77.75
  -3   2  -8  465.52   51.11
   2   3  -8  432.13   41.87
   2  -3   8  394.72   43.63
  -3   2  -8  411.34   36.03
   2   3  -8  436.27   49.74
  -3  -2   9   95.75   18.25
   2   3  -9   89.39   21.11
   2   3  -9   83.87   19.70
  -3   2  -9  115.39   19.42
   2  -3   9  117.73   24.38
  -3  -2  10   92.43   19.67
   2   3 -10  114.31   23.80
   2   3 -10   75.24   24.60
  -3   2 -10   80.52   17.43
   2  -3  10   71.42   17.84
  -3  -2  11  151.35   28.30
   2   3 -11  134.13   28.34
  -3   2 -11  114.76   23.72
   2   3 -11  100.53   32.00
   2  -3  11  131.27   28.45
  -3  -2  12  347.15   42.98
  -3   2 -12  291.44   37.54
   2   3 -12  275.91   45.82
   3   2  13   49.06   15.47
  -3  -2  13   74.27   21.56
   2   3 -13   48.09   14.56
  -3   2 -13   52.45   18.10
   3   2  14  108.23   29.95
  -3   2 -14  122.65   26.92
  -3  -2  14  110.74   26.05
   2   3 -14  118.49   31.32
   3   2  15   34.50   19.30
  -3   2 -15   31.74   13.96
  -3  -2  15   36.73   16.04
   2   3 -15   36.75   17.68
  -3  -2  16   76.21   24.48
   3   2  16   68.18   31.87
   2   3 -16   73.04   27.76
   2   3 -17   34.30   18.89
   3   2  17   73.40   30.78
  -3  -2  17   52.03   22.40
  -3  -2  18  260.48   47.94
   3   2  18  272.52   58.39
   2   3 -18  402.21   64.69
   3   2  19  211.52   52.21
  -3  -2  19  254.29   48.71
   2   3 -19  238.63   56.84
  -3  -2  20  284.17   56.46
   2   3 -20  462.72   74.71
   3   2  20  269.89   58.54
   3   2  21   18.98   15.04
  -3  -2  21   16.64   10.57
  -3  -2  22  181.00   49.29
   3   2  22  115.11   36.72
  -2   3  22  140.71   43.67
  -2   3  23   95.65   38.23
   3   2  23   63.77   31.70
  -3  -2  23   75.57   31.02
  -2   3  24   98.40   38.31
   3   2  24   66.68   35.39
   3   2  25   10.89   10.76
  -2   3  25   -9.23   12.90
   3   2  26    1.98   20.84
  -2   3  26   -1.88   19.09
   3   2  27  -12.05   16.37
  -2   3  27  -25.77   18.87
   3   2  28   -2.14   11.42
  -2   3  28   13.72   16.06
   3   2  29   -9.70   12.52
  -2   3  29   -0.33   29.06
  -2   3  30   55.31   30.46
   3   2  30   40.11   35.02
  -2   3  31   21.42   22.48
   3   2  31   70.71   37.19
   3   2  32   19.84   17.49
  -2   3  32   40.55   25.33
  -2   3  33    6.60   20.55
   3   2  33  -37.14   24.45
  -2   3  34   57.75   38.90
  -3  -3   0   69.33   15.35
   3   3   0   49.11   14.84
   3   3   1   -4.06    5.77
  -3  -3  -1   -4.73    6.72
  -3  -3   1   14.87   11.43
   3   3  -1   -1.78    5.50
   3   3   2  382.74   34.40
  -3  -3   2  403.84   42.08
   3   3  -2  476.95   43.93
   3   3   3  276.92   28.39
  -3  -3   3  287.19   35.91
  -3   3  -3  273.98   28.68
   3   3  -3  254.62   33.59
  -3  -3   4 2261.03  110.51
  -3   3  -4 1606.15   72.18
   3   3  -4 2201.20  105.58
   3   3  -5   41.50   14.22
   3  -3   5   40.74   10.79
  -3   3  -5   43.50   11.53
  -3  -3   5   56.54   17.26
   3   3  -6   25.08   14.11
   3  -3   6   -4.41    6.03
  -3   3  -6    3.42    7.27
  -3  -3   6   11.17   10.83
   3   3  -7 1500.39   68.79
  -3   3  -7 1581.91   95.83
  -3   3  -7 1437.69   73.31
  -3  -3   7 1414.55   93.43
   3  -3   7 1500.70   75.85
   3   3  -7 1464.89   91.94
   3   3  -8   36.81   12.29
   3   3  -8   27.90   15.58
   3  -3   8   30.07   11.93
  -3   3  -8   36.99   12.86
   3   3  -9  548.77   47.15
   3  -3   9  572.13   52.84
  -3   3  -9  536.88   48.55
   3   3  -9  528.64   58.84
   3   3 -10   12.89    7.50
   3   3 -10   19.19   18.11
  -3   3 -10   -4.41    7.40
   3  -3  10   12.39    7.38
   3   3 -11    8.51    9.78
  -3   3 -11   -2.39    6.83
   3   3 -11   -7.22   15.24
   3  -3  11   -9.74   10.51
  -3   3 -12  184.66   30.70
   3   3 -12  161.49   36.02
   3  -3  12  160.26   30.79
   3   3 -13   33.69   21.92
  -3   3 -13    2.05    7.00
  -3   3 -14    1.41    6.98
   3   3 -14    4.83   12.40
  -3   3 -15   56.33   19.91
   3   3 -15   45.23   17.47
  -3   3 -16  -18.30   13.87
   3   3 -16   12.07   17.40
  -3   3 -17  560.64   64.56
   3   3 -17  603.97   80.10
  -3   3 -18    1.95    8.79
   3   3 -18  -17.03   18.43
   3   3  18   -5.89    9.18
   3   3 -19  223.58   53.24
   3   3  19  290.11   60.43
   3   3  20   -3.75   13.87
   3   3  21  281.31   60.59
   3   3  22  152.17   51.28
  -3   3  22  130.32   41.62
   3   3  23  344.82   70.49
  -3   3  23  333.96   66.68
   3   3  24  -14.88   28.27
  -3   3  24   11.89   14.05
  -3   3  25    3.68   16.90
   3   3  25   21.23   27.32
  -3   3  26   -4.85   10.51
   3   3  26   -7.19   14.04
   3   3  27   59.36   34.31
  -3   3  27   23.84   21.89
   3   3  28  -31.23   22.46
  -3   3  28  -27.90   23.73
   3   3  29    5.80   10.64
  -3   3  29  -22.88   32.29
   3   3  30   -3.32   19.98
  -3   3  30   43.59   28.55
   3   3  31   66.15   44.37
  -3   3  31   25.80   23.42
   3   3  32   14.77   12.95
  -3   3  32   34.24   29.78
  -3   3  33  137.57   54.28
  -3   3  34  -26.26   24.71
  -4   0   0  138.06   14.72
   0   4   0  130.12   23.55
  -4   0   0  136.14   15.81
  -4   0   1   12.19    6.59
  -4   0  -1    0.11    3.54
  -4   0  -1    0.26    3.07
   0   4  -1  -11.46    7.76
  -4   0  -2 4024.05  103.67
   4   0   2 3867.73  103.87
   0  -4   2 4752.87  143.40
   0   4  -2 5200.21  146.75
  -4   0   2 4765.07  115.17
   4   0   3 2765.82   90.71
  -4   0  -3 2781.99   91.18
   0  -4   3 2710.94  109.63
   0   4  -3 2503.24  104.38
  -4   0   3 2533.98   87.87
  -4   0  -4 8889.41  176.22
   4   0   4 9109.46  184.43
   0   4  -4 8092.26  200.66
  -4   0   4 9689.52  188.16
  -4   0  -5 6576.26  161.06
   4   0   5 6418.40  159.77
   0   4  -5 6408.67  177.49
   0  -4   5 6614.19  182.60
  -4   0   5 6128.35  156.20
   4   0   6  241.93   35.91
   0  -4   6   68.14   27.77
   0   4  -6   89.54   31.16
  -4   0   6  191.65   32.20
   4   0   7   54.25   16.79
   4   0   7   80.39   10.80
  -4   0   7   85.45   21.75
   0  -4   7   74.98   19.25
   0   4  -7   60.78   18.86
   4   0   8   97.60   23.78
   4   0   8   57.83   11.08
   0  -4   8   68.70   21.18
   0   4  -8   30.93   20.25
   0   4  -9   14.63   10.66
   4   0   9   14.09   12.14
   4   0   9   19.83    8.04
   0   4  -9    7.83    7.16
   4   0  10  107.31   30.74
   4   0  10   62.08   14.23
   0   4 -10   65.88   27.22
   4   0  11  718.82   71.48
   0   4 -11  741.29   73.50
   4   0  11  718.62   49.70
   4   0  12  488.04   62.31
  -4   0  12  393.71   44.69
   0   4 -12  400.12   58.25
   4   0  12  417.99   41.15
   4   0  13   29.91   26.96
  -4   0  13   27.08   18.05
   0   4 -13   19.39   18.01
   4   0  13   -2.14    6.00
   4   0  14  211.65   43.37
  -4   0  14  209.82   37.10
   0   4 -14  235.76   43.42
   4   0  14  197.44   31.72
   4   0  15  292.72   52.69
  -4   0  15  269.59   42.51
   0   4 -15  260.22   47.92
   4   0  15  282.67   40.95
   4   0  16  194.80   44.05
  -4   0  16  147.12   31.83
   0   4 -16  150.26   38.15
  -4   0  17   67.87   21.32
   4   0  17   81.47   29.31
   0   4 -17   93.68   29.48
  -4   0  18   65.61   23.88
   4   0  18   79.04   27.60
   0   4 -18   55.05   28.54
  -4   0  19  242.35   47.60
   4   0  19  262.09   57.97
   0   4 -19  305.63   57.10
   0   4 -20    7.43   20.17
   4   0  20   -8.02   10.17
  -4   0  20    8.38    7.03
  -4   0  21    8.68   10.06
   4   0  21   17.63    9.12
   0   4 -21   50.80   25.33
   0   4 -22   18.12   22.44
   4   0  22    6.04   19.61
  -4   0  22   19.64    9.75
   4   0  23  148.58   49.74
  -4   0  23  177.63   45.47
   0   4  23  184.65   47.69
   0   4  24  198.64   51.50
   4   0  24  185.30   49.56
  -4   0  24  183.20   46.66
  -4   0  25  393.28   73.21
   4   0  25  449.68   86.53
   0   4  25  414.92   79.66
   0   4  26  162.36   52.32
   4   0  26  163.79   55.71
  -4   0  26  153.48   46.48
   4   0  27   19.40   29.49
   0   4  27   39.91   34.26
  -4   0  27   36.71   33.30
   4   0  28   97.40   42.59
  -4   0  28  152.83   49.37
   0   4  28   95.00   39.01
   4   0  29  -14.87   18.97
  -4   0  29   23.10   13.29
   0   4  29   41.06   35.00
   4   0  30  -42.11   27.06
   0   4  30   -1.07   18.05
  -4   0  30  -34.36   34.12
  -4   0  31  101.37   45.39
   4   0  31   18.59   22.75
   0   4  31  115.98   52.61
  -4   0  32   11.10   23.26
   0   4  32   31.45   27.29
   0   4  33    1.75   26.94
  -4   1  34   20.68   26.71
  -4   1  33   28.68   39.26
   1   4  33  -11.92   22.86
  -4   1  32   16.94   28.61
   1   4  32    5.66   10.69
   1   4  31   55.66   37.24
  -4   1  31   -9.25   12.42
  -4   1  30   57.42   32.18
   1   4  30   28.69   21.78
   1   4  29   26.52   18.34
  -4   1  29   55.21   22.98
  -4   1  28  133.73   47.53
   1   4  28  109.11   52.13
   1   4  27   20.45   29.11
   4  -1  27   -2.17   15.81
  -4   1  27    9.33   15.50
   1   4  26  144.96   46.13
   4  -1  26  187.55   59.60
  -4   1  26  160.07   45.89
   4  -1  25   -3.69   19.43
  -4   1  25   11.62   12.82
   1   4  25   -9.88   18.49
   1   4  24  134.04   40.66
  -4   1  24  119.35   38.21
   4  -1  24   57.72   30.58
   4  -1  23   58.84   24.37
  -4   1  23   76.93   26.10
   1   4  23  157.44   48.36
   4  -1  22   21.08   19.50
  -4   1  22   51.32   20.13
  -1   4 -22   59.31   27.06
   4  -1  21   -1.53   22.53
  -4   1  21   16.55   15.99
  -1   4 -21    1.58    7.41
  -4   1  20  187.39   45.32
   4  -1  20  103.51   41.34
  -1   4 -20  253.68   51.95
   4  -1  19   -9.88   20.91
  -4   1  19  -20.54   16.92
  -1   4 -19   -0.15    9.69
   4  -1  18  348.31   63.57
  -4   1  18  264.06   47.66
  -1   4 -18  350.20   58.33
   4  -1  17  213.28   47.95
  -4   1  17  168.90   36.37
  -1   4 -17  163.47   34.84
   4  -1  16  163.26   38.12
  -1   4 -16  162.05   38.19
   4  -1  15   36.16   19.51
  -1   4 -15   51.58   20.46
   4  -1  15   51.58   16.81
   4  -1  14  563.96   70.48
  -1   4 -14  507.02   63.16
   4  -1  14  472.69   50.74
   4  -1  13   35.99   20.37
  -1   4 -13   46.03   17.33
   4  -1  13   52.20   15.90
   4  -1  12  333.14   51.09
   4   1 -12  271.69   46.68
  -1   4 -12  303.33   45.78
   4  -1  12  292.25   35.63
   4   1 -11  440.02   56.96
   4  -1  11  428.71   56.96
   4  -1  11  421.27   40.04
  -1   4 -11  413.70   50.61
   4  -1  10   97.26   25.86
   4   1 -10  105.16   28.82
  -1   4 -10  111.78   28.27
   4  -1  10  114.88   19.76
   4   1  -9   24.69   16.04
   4  -1   9   17.96   10.75
  -1   4  -9    8.45    9.04
   4  -1   9    1.30    2.62
   4   1  -8   47.96   20.04
   4  -1   8   11.00    7.45
  -1   4  -8   32.96   13.58
   4  -1   8   40.50   10.78
   4   1  -7 1760.59   95.42
  -4   1   7 1038.63   72.11
   4  -1   7 1523.00   91.98
  -1  -4   7 1004.22   77.24
  -1   4  -7 1177.27   82.86
   4  -1   7 1173.50   49.70
   4   1  -6  158.87   29.34
   4  -1   6  150.79   28.01
  -4   1   6  129.49   26.88
   4  -1   6  155.57   14.88
  -1   4  -6  157.97   29.06
  -1  -4   6  173.48   30.93
  -1  -4   5 1995.90  107.83
  -1   4  -5 2302.50  108.11
  -1  -4   4  229.96   36.60
  -1   4  -4  232.62   32.09
   4   1  -4  219.72   29.97
   4   1  -3  172.24   24.86
  -1   4  -3  146.16   27.13
  -1  -4   3  106.85   26.08
  -4  -1  -2  298.91   20.74
  -1  -4   2  263.72   35.56
  -1   4  -2  264.49   31.10
   4   1  -2  292.17   28.59
  -1  -4   1  837.08   61.39
   1   4   1  690.31   52.59
  -1   4  -1  744.70   54.48
  -4  -1  -1  773.86   39.01
   4   1  -1  736.73   44.07
   4   1   0 1984.99   51.23
   1   4   0 1806.96   85.18
  -4  -1   0 1942.21   65.01
   4   1   0 1796.79   59.13
   4   1   1  775.03   37.71
   1   4  -1  945.07   63.56
   4   1   1  847.94   37.68
  -4  -1   1  724.23   44.69
   4   1   2  329.38   27.60
   1   4  -2  295.59   36.38
   4   1   2  341.23   20.33
  -4  -1   2  328.49   31.63
   4   1   3   88.75   15.91
  -4   1  -3  156.77   22.78
   1  -4   3  140.47   24.50
   1   4  -3  111.02   24.66
  -4  -1   3  159.79   25.91
   4   1   4  251.83   27.52
  -4   1  -4  283.77   33.06
   1  -4   4  292.22   35.94
   1   4  -4  268.57   36.30
  -4  -1   4  215.17   29.57
  -4   1  -5 2614.60  106.33
  -4  -1   5 2042.20   49.28
   4   1   5 2336.38  101.37
   1  -4   5 2186.28  104.45
   1   4  -5 2255.52  112.08
  -4  -1   5 2423.27  102.73
  -4  -1   6  143.03   26.74
   4   1   6  167.62   26.49
  -4   1  -6  188.55   29.10
  -4  -1   6  177.35   17.28
   1  -4   6  160.17   29.42
  -4   1  -6  169.25   14.31
   1   4  -6  175.10   30.22
  -4  -1   7 1153.95   50.96
  -4   1  -7 1179.62   82.37
   4   1   7 1381.08   84.18
   1  -4   7 1284.31   87.60
   1   4  -7  825.53   72.34
  -4   1  -7 1015.53   41.15
  -4  -1   7 1142.21   79.08
   4   1   8   45.19   19.27
   4   1   8   48.44   10.07
  -4  -1   8   53.88   13.35
   1   4  -8   18.47    9.19
  -4   1  -8   41.61    9.68
   1  -4   8   35.02   13.72
   1   4  -9   14.76    9.59
  -4   1  -9   12.55    3.46
  -4  -1   9   10.07    7.43
   4   1   9   22.35   14.81
   4   1   9    1.85    4.90
   1   4  -9    4.43   13.61
   1  -4   9    9.26    6.58
  -4  -1  10   87.85   18.99
   4   1  10  140.06   31.10
   1   4 -10  137.60   28.04
   4   1  10   99.91   16.27
   1   4 -10   90.06   23.82
  -4  -1  11  421.64   42.38
   4   1  11  384.15   52.28
   4   1  11  368.03   34.23
   1   4 -11  428.09   55.78
  -4  -1  12  295.85   38.20
   4   1  12  347.20   51.49
   1   4 -12  280.70   45.52
   4   1  12  293.12   33.09
   4   1  13   32.18   14.57
  -4  -1  13   64.43   18.97
   4   1  13   51.85   16.26
   1   4 -13   42.86   18.88
  -4  -1  14  561.36   57.47
   4   1  14  535.57   68.22
   1   4 -14  488.73   63.40
   4   1  14  437.35   44.48
   4   1  15   23.79   14.85
  -4  -1  15   17.40    5.75
   1   4 -15   37.41   16.62
   4   1  15   28.25   11.29
   4   1  16  176.51   41.84
  -4  -1  16  125.57   30.39
   1   4 -16  166.97   38.32
  -4  -1  17  195.90   38.05
   4   1  17  158.90   43.98
   1   4 -17  163.21   40.48
  -4  -1  18  238.08   44.91
   4   1  18  274.64   58.37
   1   4 -18  276.03   54.21
   4   1  19  -19.03   16.27
  -4  -1  19   -4.84   16.20
   1   4 -19    4.28    6.65
  -4  -1  20  182.60   43.09
   4   1  20  139.94   41.43
   1   4 -20  317.27   60.65
  -4  -1  21    5.91   14.17
   1   4 -21   10.48   11.79
   4   1  21   12.43   15.91
   1   4 -22   67.61   30.67
  -4  -1  22   42.58   19.04
   4   1  22   -1.31   24.04
  -4  -1  23  129.89   38.91
   4   1  23  163.14   52.06
  -4  -1  24  105.76   32.87
   4   1  24  110.01   38.81
  -1   4  24   74.35   27.58
  -4  -1  25   15.98   24.90
   4   1  25  -17.78   16.68
  -1   4  25   -1.84   18.19
  -1   4  26  192.26   56.92
   4   1  26  243.20   65.50
  -4  -1  26  188.72   54.55
  -1   4  27   42.22   27.28
   4   1  27   -6.75   20.40
  -4  -1  27   42.16   22.90
  -4  -1  28   72.70   33.70
  -1   4  28  119.55   48.26
   4   1  28   94.08   47.56
  -1   4  29   53.85   32.02
   4   1  29   50.27   33.19
   4   1  30  156.45   58.43
  -1   4  30   86.51   41.23
  -1   4  31   24.78   24.21
   4   1  31  -50.40   33.40
   4   1  32   19.18   23.94
  -1   4  32    9.42   17.09
  -1   4  33   34.56   34.50
  -4   2  34   71.05   43.80
  -4   2  33   -3.11   18.74
  -4   2  32   38.54   34.89
   2   4  32   23.62   21.36
  -4   2  31   49.65   33.96
   2   4  31  111.47   46.85
   2   4  30   16.12   15.64
  -4   2  30   14.28   21.34
   2   4  29   80.80   41.40
  -4   2  29   63.40   34.91
   2   4  28   -0.59   27.18
  -4   2  28   19.06   19.44
  -4   2  27   62.66   29.54
   2   4  27   84.82   40.93
   2   4  26   95.16   41.38
  -4   2  26    8.92   18.14
  -4   2  25  154.21   45.51
   2   4  25  115.22   49.99
   2   4  24   38.94   21.42
  -4   2  24   65.38   32.97
  -4   2  23   97.68   34.29
   2   4  23   40.24   27.55
   2   4  22   77.34   31.22
  -4   2  22   48.67   27.24
  -4   2  21   46.78   26.82
   4  -2  21  -14.78   23.44
  -2   4 -21   33.59   23.87
   4  -2  20   45.36   18.55
  -4   2  20   27.77   17.30
  -2   4 -20   30.41   21.73
   4  -2  19  311.79   65.09
  -2   4 -19  386.21   63.85
   4  -2  18  236.13   50.86
  -2   4 -18  226.95   44.20
   4  -2  17  178.05   45.32
  -2   4 -17  188.77   38.37
   4  -2  16   13.93   15.74
   4   2 -16    1.54    9.51
  -2   4 -16  -10.24   13.31
   4   2 -15  264.01   53.63
   4  -2  15  281.38   52.93
  -2   4 -15  253.44   43.43
   4   2 -14   98.19   32.02
   4  -2  14   78.82   26.22
  -2   4 -14   73.05   22.73
   4  -2  14   79.38   22.00
   4  -2  13   -4.60   11.13
  -2   4 -13    4.27    9.44
   4  -2  13    5.33    6.34
   4  -2  12   98.20   29.21
  -2   4 -12   84.67   26.00
   4   2 -12  114.50   33.02
   4  -2  12   66.31   18.13
   4   2 -11  621.48   70.24
   4  -2  11  681.43   55.85
  -2   4 -11  672.92   65.64
  -2   4 -10   88.41   23.35
   4   2 -10  123.91   33.85
   4  -2  10   85.00   19.93
   4  -2   9  352.93   35.42
  -2   4  -9  352.74   43.84
   4   2  -9  313.48   45.59
   4   2  -8    5.65    9.09
   4  -2   8   -2.28    5.88
  -2   4  -8   15.19   13.46
   4   2  -7   29.41   10.59
   4  -2   7   67.90   13.39
  -2   4  -7   40.59   15.03
  -2  -4   7   70.26   20.97
   4   2  -6  200.45   31.99
   4  -2   6  117.04   16.65
  -2   4  -6  114.72   25.21
  -2  -4   6  115.47   30.41
   4   2  -5  854.46   33.58
  -2   4  -5  882.35   63.41
  -2  -4   5  911.61   72.01
   4   2  -5  845.65   62.33
  -2   4  -4  345.62   39.79
  -2  -4   4  315.39   43.74
   4   2  -4  481.07   46.23
   4   2  -3   72.55   18.43
  -2  -4   3   60.41   17.17
  -2   4  -3   51.62   13.96
  -4  -2  -2 1140.37   54.97
   2   4   2 1123.81   67.71
  -2  -4   2 1070.25   72.84
  -2   4  -2 1456.77   75.10
   4   2  -2 1532.96   73.43
   4   2  -1   60.22   13.22
  -2  -4   1   55.26   16.37
  -4  -2  -1   63.19   14.43
   2   4   1   69.65   15.77
   2   4   0  273.78   38.17
   4   2   0  235.10   33.29
  -4  -2   0  310.57   33.17
  -2  -4   0  258.98   37.49
   2   4  -1   53.64   14.92
   4   2   1   59.26   12.69
  -4  -2   1   42.58   13.13
   2   4  -2 1115.93   76.79
   4   2   2 1396.21   59.05
  -4  -2   2 1512.70   74.87
   4   2   3   70.48   11.28
   2   4  -3   74.47   22.49
  -4  -2   3   40.34   11.94
   2   4  -4  456.91   49.91
  -4   2  -4  345.94   26.06
   2  -4   4  365.65   40.08
   4   2   4  339.09   25.43
  -4  -2   4  399.96   43.83
  -4   2  -5  890.28   64.81
   2  -4   5  808.07   60.91
   2   4  -5  795.69   66.61
  -4   2  -5  862.84   43.03
  -4  -2   5  810.92   63.48
  -4  -2   6  113.97   26.61
  -4   2  -6  117.14   29.30
   2  -4   6  105.03   26.49
  -4   2  -6   88.88   16.85
   2   4  -6   45.60   26.75
  -4  -2   7   70.24   19.36
   2   4  -7   41.99   19.07
  -4   2  -7   67.53   12.95
  -4   2  -7   61.64   18.74
   2  -4   7   58.10   18.15
   2   4  -8  -12.58   16.06
  -4   2  -8   -0.21    4.36
   2  -4   8    6.43    8.64
   2   4  -9  456.11   47.60
   2  -4   9  423.86   50.51
   2   4  -9  358.52   49.85
  -4   2  -9  381.33   34.52
  -4  -2  10  106.24   21.35
   2   4 -10  131.71   27.90
  -4   2 -10  106.34   20.33
   2   4 -10  126.46   29.85
   2  -4  10  130.55   29.76
  -4  -2  11  699.17   55.16
   2   4 -11  797.16   68.55
  -4   2 -11  685.11   51.41
   2   4 -11  642.60   71.82
   4   2  12   56.06   16.10
  -4  -2  12   58.54   18.98
   4   2  12  103.55   29.60
   2   4 -12   71.69   25.35
  -4   2 -12   90.69   20.86
  -4  -2  13    3.39    5.30
   4   2  13   36.47   23.47
   4   2  13   16.26   12.97
   2   4 -13   26.88   22.20
  -4   2 -13    7.50   10.56
  -4  -2  14   85.85   24.13
   4   2  14   59.98   22.69
  -4   2 -14   79.12   21.35
   4   2  14   64.22   18.58
   2   4 -14   72.44   23.58
   4   2  15  317.07   54.50
  -4  -2  15  308.69   44.65
   2   4 -15  261.80   48.58
   4   2  16    2.99    9.80
  -4  -2  16   -7.43    7.97
   2   4 -16   -2.53   14.81
   4   2  17  190.60   44.81
  -4  -2  17  141.59   31.29
   2   4 -17  181.12   42.35
   4   2  18  296.63   59.04
  -4  -2  18  277.63   48.26
   2   4 -18  225.82   51.92
  -4  -2  19  272.27   53.98
   4   2  19  399.53   69.82
   2   4 -19  433.07   74.03
   2   4 -20   36.62   22.15
   4   2  20   27.03   21.26
  -4  -2  20   29.72   18.67
  -4  -2  21   32.16   14.17
   2   4 -21   30.56   22.52
   4   2  21   69.91   30.52
  -4  -2  22   73.98   30.33
   4   2  22   40.39   23.22
   2   4 -22  103.06   42.96
  -4  -2  23   94.58   30.16
   4   2  23   91.20   38.93
   4   2  24   62.90   32.98
  -2   4  24   24.61   19.65
  -2   4  25   54.50   33.29
   4   2  25  131.41   46.33
  -2   4  26   16.50   19.42
   4   2  26    0.07   27.40
  -2   4  27   36.61   30.27
   4   2  27   52.11   30.22
  -2   4  28   53.49   30.95
   4   2  28    1.75   24.87
  -2   4  29  114.48   48.74
   4   2  29   70.41   33.45
   4   2  30   24.19   32.70
  -2   4  30   65.51   35.28
  -2   4  31  145.83   52.53
   4   2  31  136.68   51.28
  -2   4  32  -19.02   23.10
   4   2  32  -28.96   24.39
  -2   4  33    0.63   18.46
  -2   4  34  107.51   53.90
  -4   3  34  106.44   48.48
  -4   3  33   25.47   23.02
  -4   3  32   50.41   38.14
   3   4  32   -6.94   12.85
  -4   3  31   80.04   42.09
   3   4  31  -43.74   41.26
  -4   3  30   64.51   42.18
   3   4  30   11.27   30.27
   3   4  29   25.25   13.65
  -4   3  29   29.92   31.78
   3   4  28  158.85   56.71
  -4   3  28  115.80   45.74
   3   4  27   36.44   26.98
  -4   3  27   14.81   16.59
   3   4  26   30.77   16.23
  -4   3  26   21.69   16.18
   3   4  25  -32.65   38.47
  -4   3  25  -40.64   31.47
  -4   3  24   38.76   22.36
   3   4  24   22.87   16.27
  -4   3  23  144.87   44.23
   3   4  23  140.50   47.26
   3   4  22   27.26   24.94
  -3   4 -21   78.39   28.97
   3   4  21   51.54   26.15
  -3   4 -20  247.11   48.85
   4   3 -19   70.75   33.40
  -3   4 -19   86.88   28.14
   4   3 -18  290.82   59.56
  -3   4 -18  201.62   41.52
   4   3 -17   65.48   27.52
  -3   4 -17   72.52   23.74
   4   3 -16  193.69   47.12
  -3   4 -16  179.02   36.45
   4   3 -15   -2.45   21.12
  -3   4 -15   43.74   19.45
   4   3 -14  141.61   34.94
  -3   4 -14  181.38   34.90
   4   3 -13   24.92   17.85
  -3   4 -13   19.08   12.74
   4  -3  13   32.18   14.54
  -3   4 -12   -5.50    9.74
   4   3 -12   -9.48   14.28
   4  -3  12    4.29    4.43
   4   3 -11  319.64   49.48
   4  -3  11  348.72   43.51
  -3   4 -11  280.95   41.60
   4   3 -10  229.71   41.52
   4   3 -10  269.83   34.19
   4  -3  10  273.49   36.05
  -3   4 -10  260.41   37.81
   4   3  -9  598.95   47.19
  -3   4  -9  543.64   55.73
   4  -3   9  585.68   51.15
   4   3  -9  605.06   68.00
   4   3  -8  235.24   40.95
   4   3  -8  316.01   31.16
   4  -3   8  315.88   34.45
  -3   4  -8  276.24   37.76
   4   3  -7  390.14   33.52
  -3   4  -7  384.56   43.59
   4  -3   7  338.65   35.48
   4   3  -7  430.94   52.55
   4   3  -6  318.11   27.02
  -3  -4   6  346.44   46.38
   4  -3   6  324.58   32.17
  -3   4  -6  337.87   40.13
   4   3  -6  266.22   41.09
  -3   4  -5  756.66   58.22
  -3  -4   5  665.13   67.48
  -3  -4   4  496.13   56.36
  -3   4  -4  495.71   45.92
   4   3  -4  497.67   49.06
   4   3  -3  154.03   29.83
  -3   4  -3  100.84   20.67
   3   4   3   75.84   20.95
  -3  -4   3   69.43   23.05
   3   4   2  166.87   24.69
  -4  -3  -2  194.54   24.97
  -3  -4   2  191.17   31.33
   4   3  -2  172.47   28.48
  -3  -4   1  148.59   28.26
   3   4   1  187.63   30.29
  -4  -3  -1  173.83   26.31
   4   3  -1  178.96   27.29
  -4  -3   0   26.17   10.74
  -3  -4   0   27.33   12.92
   3   4   0   43.45   12.82
   4   3   0   28.15   11.06
  -3  -4  -1  177.92   28.60
   4   3   1  222.25   28.92
   3   4  -1  166.40   33.71
  -4  -3   1  158.81   27.89
  -4  -3   2  180.07   29.57
   4   3   2  211.52   25.56
   3   4  -2  258.86   34.41
   4   3   3   59.31   18.13
   3   4  -3   45.77   22.09
  -4  -3   3   99.76   25.19
  -4  -3   4  504.07   51.93
   3   4  -4  452.60   50.32
  -4   3  -4  490.74   37.64
   4   3   4  461.57   36.45
   3   4  -5  857.76   74.14
  -4   3  -5  765.61   49.91
   3  -4   5  916.18   64.01
  -4  -3   5  864.46   73.96
   3   4  -6  277.75   41.40
   3  -4   6  287.24   36.61
  -4   3  -6  286.22   30.12
  -4  -3   6  296.27   42.63
  -4   3  -7  351.98   35.47
   3  -4   7  407.65   44.77
   3   4  -7  352.45   53.28
   3   4  -8  257.88   42.25
   3   4  -8  366.76   38.57
   3  -4   8  332.09   41.17
  -4   3  -8  327.31   34.58
   3   4  -9  540.90   49.42
   3  -4   9  669.30   62.42
  -4   3  -9  566.16   49.28
   3   4  -9  604.71   72.88
   3   4 -10  262.55   43.70
   3   4 -10  298.18   40.36
   3  -4  10  264.49   39.39
  -4   3 -10  239.73   31.50
   3   4 -11  300.50   40.89
   3  -4  11  356.18   48.13
  -4   3 -11  296.07   36.96
   3   4 -11  328.74   54.84
  -4   3 -12   17.96    9.15
   3   4 -12   22.84   13.64
  -4   3 -13   34.69   13.79
   3   4 -13   24.26    8.37
  -4   3 -14  183.03   31.73
   3   4 -14  156.58   36.76
   3   4 -15   41.83   20.31
  -4   3 -15   26.60    8.22
  -4   3 -16  191.95   36.30
   3   4 -16  200.46   47.48
   4   3  16  164.44   39.46
   3   4 -17   62.06   26.21
  -4   3 -17   49.85   18.52
   4   3  17   92.03   32.29
   3   4 -18  297.51   60.20
   4   3  18  189.46   50.53
  -4   3 -18  158.10   40.74
   4   3  19   84.13   35.57
   3   4 -19   74.82   32.13
   3   4 -20  259.36   60.76
   4   3  20  237.83   60.15
   3   4 -21    6.55   13.91
   4   3  21   46.44   29.87
   4   3  22   90.93   40.38
   3   4 -22   46.61   18.97
   4   3  23  101.29   36.53
   4   3  24   93.37   40.38
  -3   4  25  -23.05   20.58
   4   3  25   10.22   13.93
  -3   4  26   92.36   34.95
   4   3  26   87.17   41.96
  -3   4  27   32.75   18.53
   4   3  27   56.31   33.65
   4   3  28   59.79   40.74
  -3   4  28  143.30   54.09
  -3   4  29  -26.58   15.83
   4   3  29  -51.06   42.56
  -3   4  30   45.65   38.21
   4   3  30   45.00   34.59
   4   3  31   21.79   32.88
  -3   4  31   15.96   19.44
  -3   4  32   68.91   43.13
   4   3  32   60.43   35.48
  -3   4  33   25.83   25.85
  -3   4  34   23.82   19.01
  -4  -4   0  352.44   42.80
   4   4   0  468.71   51.10
  -4  -4   1   34.54   14.32
  -4  -4  -1   49.39   15.19
   4   4  -1   46.30   16.04
   4   4   1   54.19   15.27
  -4  -4   2  543.03   57.74
  -4  -4  -2  553.08   55.18
   4   4   2  582.53   53.65
   4   4  -3  318.44   40.75
  -4  -4   3  276.72   41.83
   4   4   3  305.44   34.69
   4   4  -4 2097.82  118.49
  -4  -4   4 2124.00  114.30
  -4   4  -4 1939.48   86.65
   4   4   4 1824.92   86.25
  -4   4  -5  345.28   37.73
  -4  -4   5  275.47   48.51
   4   4  -5  348.35   47.98
   4   4  -6   17.82   16.48
  -4   4  -6    4.45    8.75
   4   4  -7   82.26   25.69
   4  -4   7  111.52   22.56
  -4   4  -7  102.34   21.46
   4   4  -8  743.74   52.82
  -4   4  -8  797.54   62.73
   4  -4   8  996.00   71.82
   4   4  -8 1026.76   86.86
   4   4  -9  805.21   56.96
   4  -4   9  770.58   62.71
  -4   4  -9  817.18   63.51
   4   4  -9  813.96   77.89
   4   4 -10   17.70   11.38
   4   4 -10    9.00    6.33
   4  -4  10   16.05   10.30
  -4   4 -10   14.72    8.66
   4   4 -11  349.66   41.47
   4  -4  11  345.75   44.21
   4   4 -11  374.53   56.53
  -4   4 -11  331.02   43.32
   4   4 -12   41.78   15.84
   4   4 -12   60.54   22.93
  -4   4 -12   66.97   21.08
   4  -4  12   73.74   21.49
   4   4 -13    3.58    6.48
  -4   4 -13   -7.12    9.90
  -4   4 -14   75.58   21.62
   4   4 -14  128.59   34.74
   4   4 -15  236.13   50.63
  -4   4 -15  207.91   37.59
   4   4 -16   29.72   15.83
  -4   4 -16   28.09   10.83
  -4   4 -17  205.58   42.36
   4   4 -17  290.99   62.94
   4   4 -18   21.93   15.64
  -4   4 -18    7.77   11.68
  -4   4 -19   44.00   24.15
   4   4 -19   58.98   32.04
   4   4 -20   63.74   28.64
  -4   4 -20   56.65   25.89
   4   4  20   52.15   22.59
   4   4  21   37.58   29.45
   4   4 -21   36.19   24.94
   4   4  22   28.23   27.48
   4   4 -22   61.43   34.03
   4   4  23  129.21   45.08
   4   4  24   29.24   19.01
  -4   4  25   53.13   28.37
   4   4  25   26.92   15.65
  -4   4  26   30.96   15.91
   4   4  26   53.70   32.97
   4   4  27   15.52   12.24
  -4   4  27   69.98   32.40
  -4   4  28    3.82   20.30
   4   4  28   70.12   32.27
  -4   4  29  162.69   55.43
   4   4  29   96.07   50.63
  -4   4  30    7.05   10.31
   4   4  30   -6.06   15.23
  -4   4  31   27.11   23.65
   4   4  31   15.58   39.44
   4   4  32    1.68   30.21
  -4   4  32   32.12   31.10
  -4   4  33   77.34   45.57
  -4   4  34  -27.72   25.27
  -5   0   0   53.05   10.63
   0   5   0   27.72    9.17
  -5   0   0   62.96   11.33
  -5   0  -1   40.31    9.62
  -5   0   1   81.50   17.61
  -5   0  -1   43.19   12.18
   0   5  -1  144.61   30.10
  -5   0   2  137.59   20.81
  -5   0  -2  149.25   21.19
   0   5  -2  106.85   22.51
   0  -5   2  118.08   22.37
  -5   0  -2  134.25   12.84
  -5   0  -3 2097.82   86.42
   5   0   3 2110.98   86.19
   0  -5   3 2306.28  112.69
   0   5  -3 2317.57  114.44
  -5   0   3 2211.87   91.98
  -5   0  -4  897.37   59.16
   5   0   4  956.17   60.70
   0   5  -4  870.16   69.88
   0  -5   4  877.37   70.75
  -5   0   4  862.35   58.60
   5   0   5 9198.64  205.66
  -5   0  -5 8268.75  194.46
   0   5  -5 8006.95  225.43
   0  -5   5 9156.23  238.59
  -5   0   5 9999.00  211.30
   5   0   6 1301.44   81.45
   0   5  -6 1281.75   88.82
   0  -5   6 1267.07   90.13
  -5   0   6 1273.18   78.69
   5   0   7   27.39   14.98
   0   5  -7   -4.88   12.15
   0  -5   7    8.27    9.28
   5   0   8   17.51    6.66
   0   5  -8    9.43    9.57
   5   0   8   23.11    5.73
   5   0   9  154.62   17.82
   0   5  -9  149.42   35.50
   5   0  10  100.04   30.53
   5   0  10   53.15   12.34
   0   5 -10   40.99   19.01
   5   0  11  281.04   45.62
   0   5 -11  319.90   49.10
   5   0  11  254.56   27.82
  -5   0  12  131.25   24.67
   5   0  12  157.28   36.72
   5   0  12  114.18   19.09
   0   5 -12  111.62   30.92
  -5   0  13  150.66   28.11
   5   0  13  184.33   40.09
   0   5 -13  165.81   36.89
   5   0  13  160.92   25.55
  -5   0  14  179.16   32.62
   5   0  14  198.21   43.26
   0   5 -14  138.39   35.26
   5   0  14  127.12   23.86
  -5   0  15  435.85   52.24
   5   0  15  454.59   67.48
   0   5 -15  462.87   66.76
   5   0  15  392.37   44.89
  -5   0  16  136.67   33.47
   5   0  16  169.18   44.32
   0   5 -16  190.72   44.45
   5   0  16   80.35   25.71
   5   0  17   19.46   14.28
  -5   0  17   61.58   20.11
   0   5 -17   43.21   24.63
   5   0  18  130.47   44.31
  -5   0  18   55.05   25.40
   0   5 -18   94.48   33.41
  -5   0  19   47.30   19.60
   5   0  19   34.16   18.70
   0   5 -19   19.27   14.81
  -5   0  20  178.85   41.19
   5   0  20  225.03   57.20
   0   5 -20  259.01   55.94
   5   0  21   24.67   18.81
  -5   0  21   64.86   26.84
   0   5 -21   76.05   29.38
   0   5 -22   52.56   25.25
   5   0  22   19.36   16.11
  -5   0  22   60.27   26.06
   0   5 -23   18.25   25.25
   5   0  23  -10.00   20.43
  -5   0  23    4.90   18.83
   5   0  24    6.58   14.48
  -5   0  24   12.63   17.09
   0   5  25  339.66   72.33
   5   0  25  334.44   72.72
  -5   0  25  345.66   65.17
   0   5  26   42.80   20.40
   5   0  26   39.43   27.92
  -5   0  26   46.83   34.07
   5   0  27   26.80   29.38
  -5   0  27   23.16   25.79
   0   5  27  102.08   44.03
   5   0  28   41.37   31.81
  -5   0  28   59.37   33.37
   0   5  28    1.30   13.59
   0   5  29    6.24   11.76
  -5   0  29  -13.52   23.02
   5   0  30   44.07   33.22
   0   5  30   72.12   40.22
  -5   0  30   66.87   33.34
  -5   0  31  -31.70   24.21
   0   5  31   27.49   20.83
   0   5  32  -29.60   24.29
   0   5  33   17.16   17.23
  -5   1  32   52.04   31.32
   1   5  32    4.91   13.97
  -5   1  31  -54.91   31.17
   1   5  31   -5.98   17.04
   1   5  30   11.48   10.40
  -5   1  30  -11.64   13.23
  -5   1  29  104.84   40.60
   1   5  29  117.12   51.71
   1   5  28   87.41   38.76
  -5   1  28   33.77   20.96
   1   5  27  104.03   46.53
  -5   1  27   58.20   27.36
   5  -1  26    7.49   21.38
   1   5  26   -4.61   21.98
  -5   1  26    8.41   10.79
   5  -1  25   74.24   30.89
  -5   1  25  140.75   42.56
   1   5  25  108.21   38.21
  -1   5 -24   86.84   35.20
  -5   1  24   91.80   32.64
   5  -1  24   69.77   33.64
  -5   1  23   24.63   21.40
   5  -1  23   59.26   37.53
  -1   5 -23   40.83   28.78
  -1   5 -22   35.83   27.54
  -5   1  22   53.72   20.40
   5  -1  22   27.48   15.35
   5  -1  21  139.81   47.16
  -5   1  21  173.14   41.14
  -1   5 -21  181.33   49.04
   5  -1  20  -22.77   21.23
  -5   1  20   13.05   17.87
  -1   5 -20    6.10   11.34
   5  -1  19   47.03   17.50
  -5   1  19   65.36   23.49
  -1   5 -19   74.21   32.84
   5  -1  18   21.43   16.34
  -5   1  18   25.29    9.33
  -1   5 -18   29.76   13.24
  -5   1  17  157.59   37.52
   5  -1  17  128.48   45.07
  -1   5 -17  171.91   39.86
   5  -1  16  395.41   66.36
   5  -1  16  419.62   49.88
  -1   5 -16  376.73   63.36
   5  -1  15  116.38   34.22
  -1   5 -15  115.57   31.96
   5  -1  15   87.69   22.03
   5  -1  14    1.92   13.16
  -1   5 -14   45.78   20.33
   5  -1  14   45.17   16.21
  -1   5 -13  242.31   44.80
   5  -1  13  242.88   47.91
   5  -1  13  232.65   32.67
   5  -1  12  315.43   50.26
   5  -1  12  322.40   35.99
  -1   5 -12  325.50   49.86
  -1   5 -11  210.31   40.78
   5  -1  11  221.93   40.87
   5   1 -11  237.37   41.18
   5  -1  11  184.98   26.40
   5   1 -10   57.45   25.66
   5  -1  10   51.30   18.08
   5  -1  10   47.36   12.76
  -1   5 -10   45.90   21.54
   5  -1   9    0.56    9.91
   5   1  -9   16.59   19.31
  -1   5  -9   26.72   18.12
   5  -1   9   21.43    6.25
   5   1  -8  932.22   78.96
  -1   5  -8  712.62   69.97
   5   1  -7  260.87   40.14
   5  -1   7  209.42   35.75
   5  -1   7  229.13   17.37
  -1   5  -7  197.41   35.32
  -5   1   6   66.19   18.90
   5   1  -6   58.70   22.99
  -1  -5   6  -15.77   10.90
  -1   5  -6   39.66   23.73
  -5   1   5  650.55   55.83
   5   1  -5  668.21   56.40
  -1   5  -5  725.94   66.09
  -1  -5   5  733.22   67.38
   5   1  -4  455.95   43.38
  -1   5  -4  588.58   56.58
  -1  -5   4  376.36   47.35
  -5   1   4  560.71   48.36
   5   1  -3  517.17   42.24
  -1  -5   3  534.52   55.91
  -5  -1  -3  542.91   26.26
  -1   5  -3  484.25   49.08
  -1   5  -2  400.19   48.10
  -1  -5   2  407.07   51.28
  -5  -1  -2  378.76   29.24
   5   1  -2  293.86   35.64
   1   5   1  775.77   61.02
  -1  -5   1  935.30   69.20
  -5  -1  -1  895.41   44.45
  -1   5  -1  778.54   62.29
   5   1  -1  859.50   48.15
   5   1   0 1950.65   58.34
   1   5   0 2227.93  120.03
  -5  -1   0 2139.94   79.59
   5   1   0 2046.83   70.26
   5   1   1  996.93   46.76
   1   5  -1  888.68   68.40
   5   1   1  926.86   41.61
  -5  -1   1  945.08   53.45
   5   1   2  350.56   34.26
  -5   1  -2  213.31   28.40
   1   5  -2  420.90   52.99
   5   1   2  237.18   21.58
  -5  -1   2  352.41   39.23
  -5   1  -3  466.70   41.47
   5   1   3  516.42   40.70
   1   5  -3  502.29   53.29
   1  -5   3  519.63   52.63
   5   1   3  476.79   22.58
  -5  -1   3  486.18   43.83
   5   1   4  433.00   41.88
  -5   1  -4  594.31   50.89
   1  -5   4  533.24   55.79
   1   5  -4  400.54   52.33
  -5  -1   4  509.44   46.97
  -5   1  -5  789.27   61.47
   5   1   5  765.92   57.16
   1  -5   5  801.14   67.82
   1   5  -5  784.47   70.19
  -5  -1   5  676.57   57.17
  -5  -1   6   36.92   14.28
  -5   1  -6   52.01   19.86
   5   1   6    4.00    7.00
  -5  -1   6   41.43    8.08
   1  -5   6   48.83   20.84
   1   5  -6   22.17   18.07
  -5   1  -7  238.52   16.16
   5   1   7  235.82   35.63
  -5  -1   7  263.98   22.09
   1  -5   7  268.02   41.76
   1   5  -7  218.27   40.69
  -5  -1   8  745.42   42.57
   5   1   8  830.03   73.18
   1  -5   8  683.24   68.78
   1   5  -8  733.02   79.36
   5   1   8  557.89   28.72
   5   1   9    6.27   11.15
  -5  -1   9   15.22    7.53
   1   5  -9   27.90   16.66
   5   1   9   19.20    5.89
  -5  -1  10   68.27   15.50
   5   1  10   89.88   28.55
   5   1  10   62.26   11.60
   1   5 -10   69.54   25.03
   5   1  11  196.22   39.39
  -5  -1  11  182.89   26.55
   1   5 -11  224.66   41.45
   5   1  11  163.43   21.15
  -5  -1  12  326.63   38.86
   5   1  12  389.77   55.24
   1   5 -12  322.35   52.48
   5   1  12  297.27   31.29
  -5  -1  13  277.36   38.11
   5   1  13  259.18   49.69
   1   5 -13  274.92   50.88
   5   1  13  224.32   29.41
   5   1  14   31.58   19.95
  -5  -1  14   21.32    9.23
   1   5 -14   46.24   20.15
   5   1  14   19.23    6.74
   5   1  15   66.65   32.42
  -5  -1  15  103.72   27.11
   1   5 -15  132.36   37.30
   5   1  15   85.12   20.24
  -5  -1  16  449.20   55.51
   5   1  16  494.69   73.20
   5   1  16  360.95   42.85
   1   5 -16  457.35   70.46
  -5  -1  17  100.86   31.34
   5   1  17  149.55   43.47
   1   5 -17  195.29   44.99
  -5  -1  18   31.14   14.03
   5   1  18   47.00   22.78
   1   5 -18   19.89   16.75
  -5  -1  19   78.93   26.41
   5   1  19   95.07   36.48
   1   5 -19   89.47   32.48
   5   1  20   -5.83   12.85
  -5  -1  20   22.18   16.66
   1   5 -20   -4.32   11.02
   5   1  21   73.90   36.81
  -5  -1  21  121.04   35.87
   1   5 -21  213.65   55.12
   5   1  22   53.27   25.40
   1   5 -22   12.37   18.36
  -5  -1  22   53.24   24.38
   1   5 -23   20.61   22.03
  -5  -1  23  -12.28    8.83
   5   1  24   87.43   35.39
   1   5 -24  130.06   44.90
  -5  -1  24   86.95   32.67
  -5  -1  25  136.85   42.18
   5   1  25   54.35   35.59
  -5  -1  26   25.83   23.04
  -1   5  26   40.41   26.60
   5   1  26   13.02   20.90
  -5  -1  27  109.29   41.56
   5   1  27   61.75   32.67
  -1   5  27  120.04   46.50
  -5  -1  28   -6.44   13.23
  -1   5  28   48.56   29.89
   5   1  28   20.67   19.09
  -1   5  29  110.96   46.57
   5   1  29   74.55   41.30
  -1   5  30    3.11   19.00
   5   1  30  -31.55   30.82
   5   1  31   16.99   16.43
  -1   5  31    0.86    9.90
   5   1  32   10.28   30.52
  -1   5  32    3.73   16.71
  -1   5  33   78.73   53.39
   2   5  32   61.32   39.87
  -5   2  32   58.78   39.66
  -5   2  31   40.34   25.99
   2   5  31   35.90   28.72
  -5   2  30   68.32   34.25
   2   5  30   71.90   47.09
   2   5  29   17.55   10.33
  -5   2  29   51.88   35.12
   2   5  28   54.88   35.05
  -5   2  28   85.54   39.87
  -5   2  27   21.86   17.56
   2   5  27   -2.26   18.52
   2   5  26  130.36   50.33
  -5   2  26   91.94   35.92
  -5   2  25   21.07   15.42
   2   5  25   25.20   21.94
   2   5  24   66.74   35.53
  -5   2  24   67.88   32.30
  -2   5 -24   57.51   28.20
  -5   2  23  193.08   49.02
  -2   5 -23  136.72   42.63
  -5   2  22   73.61   30.13
  -2   5 -22  148.76   40.97
  -5   2  21    4.18   14.15
  -2   5 -21   -9.65   15.57
  -5   2  20   81.30   33.00
  -2   5 -20   65.05   26.61
  -2   5 -19    7.16    7.06
  -2   5 -18  297.08   54.42
  -2   5 -17  205.34   41.22
  -2   5 -16  105.67   30.18
   5   2 -15  152.93   40.37
  -2   5 -15  147.83   37.26
   5  -2  15  123.52   27.03
   5   2 -14   70.66   30.25
  -2   5 -14   73.75   24.66
   5  -2  14  112.98   26.05
   5   2 -13   28.25   19.87
  -2   5 -13   19.53   12.66
   5  -2  13   29.55   12.74
   5   2 -12  215.99   44.94
   5  -2  12  267.95   35.33
  -2   5 -12  303.01   49.06
   5   2 -11  682.14   72.90
   5  -2  11  687.66   53.76
  -2   5 -11  590.37   64.16
   5   2 -10  115.09   32.49
  -2   5 -10   93.81   24.28
   5  -2  10  128.77   21.76
   5   2  -9  523.94   62.14
  -2   5  -9  333.37   49.93
   5  -2   9  378.52   34.03
  -2   5  -8  370.54   48.47
   5  -2   8  389.51   31.47
   5   2  -8  388.16   49.92
   5  -2   7  210.31   21.90
  -2   5  -7  239.55   40.32
   5   2  -7  331.28   45.70
   5   2  -6  231.83   34.57
  -2   5  -6  202.63   35.28
  -2   5  -5 1707.59   96.34
   5   2  -5 1870.56   96.21
   5   2  -4  162.49   26.70
  -2  -5   4  215.53   36.61
  -2   5  -4  189.78   30.72
   5   2  -3   34.16   11.51
  -2  -5   3    3.58    4.33
  -2   5  -3   12.30    5.16
  -5  -2  -3   25.14    7.76
  -5  -2  -2  582.92   37.46
  -2   5  -2  481.79   48.47
  -2  -5   2  593.75   58.36
   2   5   2  552.11   52.56
   5   2  -2  552.48   45.10
   5   2  -1  148.17   24.48
   2   5   1  123.18   24.58
  -5  -2  -1  141.20   23.11
  -2  -5   1  135.44   29.03
  -5  -2   0  312.25   35.80
  -2  -5   0  383.70   44.49
   2   5   0  400.31   44.11
   5   2   0  428.92   36.10
   2   5  -1  188.69   34.66
  -5  -2   1  131.36   22.29
   5   2   1  157.58   21.59
   2   5  -2  560.06   55.93
   5   2   2  581.60   36.89
  -5  -2   2  601.27   50.19
   5   2   3   11.44    6.67
   2   5  -3   22.97   12.63
  -5  -2   3   32.50   13.39
  -5   2  -4  195.38   18.32
   5   2   4  182.25   20.08
   2  -5   4  138.35   27.40
  -5  -2   4  215.97   32.94
   2   5  -4  163.86   31.38
  -5   2  -5 2067.52  104.35
  -5   2  -5 1682.10   56.48
   2   5  -5 1720.26  108.09
   2  -5   5 1972.22  103.44
  -5  -2   5 1848.15   99.86
  -5   2  -6  232.95   36.98
   2  -5   6  187.52   34.52
  -5   2  -6  217.40   20.61
   2   5  -6  229.20   39.55
  -5  -2   6  227.22   36.88
   2  -5   7  301.28   44.41
  -5   2  -7  301.97   26.36
   2   5  -7  254.99   45.05
   2  -5   8  392.96   49.28
   2   5  -8  320.76   49.30
  -5   2  -8  341.50   28.10
   5   2   9  519.62   57.95
   2  -5   9  500.40   59.19
   2   5  -9  343.20   60.98
  -5   2  -9  376.70   32.45
   5   2  10  115.31   29.05
   2   5 -10  107.67   25.84
  -5   2 -10  125.78   18.74
   2   5 -10  134.57   31.47
   5   2  11  661.57   72.42
  -5  -2  11  690.46   53.11
   2   5 -11  603.79   72.73
  -5   2 -11  681.85   47.67
   5   2  12  282.00   47.39
  -5  -2  12  250.05   33.50
  -5   2 -12  255.58   30.86
   5   2  12  208.20   26.59
   2   5 -12  220.58   46.83
  -5  -2  13   16.70    7.72
  -5   2 -13   37.14   13.69
   5   2  13   53.19   25.12
   5   2  13   24.90   10.04
   2   5 -13   23.58   20.25
   5   2  14  106.49   31.33
  -5  -2  14   94.55   22.75
   5   2  14   89.62   19.17
   2   5 -14   77.56   28.87
  -5  -2  15  123.03   27.38
   5   2  15  168.69   41.59
   2   5 -15  130.50   33.46
   5   2  15  121.16   22.79
   5   2  16  179.52   45.48
  -5  -2  16  111.27   29.89
   2   5 -16  132.73   40.00
   5   2  17  247.63   55.56
  -5  -2  17  252.08   44.03
   2   5 -17  227.82   51.08
  -5  -2  18  181.99   40.90
   5   2  18  180.18   47.62
   2   5 -18  267.30   55.46
   5   2  19    6.62   16.30
  -5  -2  19   23.22   19.58
   2   5 -19   -3.71   14.58
   5   2  20   55.57   31.44
  -5  -2  20   51.98   28.30
   2   5 -20   69.75   30.98
  -5  -2  21   14.92    5.89
   5   2  21    8.79   17.17
   2   5 -21   28.64   18.95
  -5  -2  22   54.43   25.46
   5   2  22   73.47   36.34
   2   5 -22  115.72   38.57
   5   2  23  135.80   47.03
   2   5 -23  131.23   50.84
   2   5 -24   79.62   39.70
   5   2  24   25.16   23.89
   5   2  25   26.27   24.70
  -2   5  26  136.79   45.85
   5   2  26  107.28   40.12
  -2   5  27  -14.74   17.68
   5   2  27   16.47   28.48
  -2   5  28   23.68   26.86
   5   2  28   52.25   26.81
  -2   5  29   12.83   22.34
   5   2  29   30.59   28.47
  -2   5  30   98.18   44.48
   5   2  30   61.71   30.99
  -2   5  31   13.78   12.36
   5   2  31   52.27   38.34
   5   2  32   56.68   34.42
  -2   5  32   70.63   40.42
  -2   5  33   -7.22   17.04
  -5   3  33   48.55   35.22
   3   5  32   56.86   40.02
  -5   3  32   17.93   22.67
  -5   3  31   27.58   27.09
   3   5  31   75.71   43.90
   3   5  30   11.85   13.39
  -5   3  30  122.47   45.05
  -5   3  29   58.37   32.14
   3   5  29   48.46   34.12
   3   5  28   45.34   36.90
  -5   3  28   44.91   25.87
  -5   3  27  121.28   40.57
   3   5  27  118.49   48.88
  -5   3  26  -32.29   19.92
   3   5  26  -39.39   25.18
   3   5  25  138.15   49.50
  -5   3  25   87.95   32.36
   3   5  24   92.53   39.25
  -5   3  24   46.63   22.52
  -5   3  23  135.05   39.05
   3   5  23   79.08   32.71
  -3   5 -23  116.40   39.22
  -3   5 -22    7.40    6.84
  -3   5 -21  120.05   35.91
  -3   5 -20   45.76   21.00
   5   3 -19  606.59   88.48
  -3   5 -19  573.98   73.95
   5   3 -18  -12.64   20.54
  -3   5 -18   29.68   17.50
   5   3 -17   61.09   33.24
  -3   5 -17   47.93   22.33
   5   3 -16   94.80   31.16
  -3   5 -16  100.38   28.79
   5   3 -15   73.65   35.67
  -3   5 -15  106.05   32.42
   5  -3  15   65.26   26.27
   5   3 -14   72.93   27.04
  -3   5 -14   40.60   15.82
   5  -3  14   72.76   21.55
   5   3 -13  368.83   58.13
   5  -3  13  462.00   51.90
  -3   5 -13  428.80   55.88
  -3   5 -12  108.01   25.22
   5   3 -12  118.50   31.99
   5  -3  12  116.02   23.63
   5  -3  11  802.51   60.49
  -3   5 -11  757.73   71.70
   5   3 -11  779.71   80.98
   5   3 -10  184.01   37.72
   5  -3  10  166.89   26.19
  -3   5 -10  157.87   30.54
   5  -3   9  480.43   42.93
  -3   5  -9  445.31   52.91
   5   3  -9  385.97   52.60
   5   3  -8   90.03   27.28
   5   3  -8   81.68   15.41
   5  -3   8   56.58   14.47
  -3   5  -8   71.02   26.38
   5   3  -7  594.35   35.87
  -3   5  -7  569.41   57.58
   5   3  -7  566.09   60.38
   5   3  -6   20.00    6.48
   5   3  -6   12.33    5.79
  -3   5  -6   21.34   13.93
  -3   5  -5  398.00   44.98
   5   3  -5  391.35   45.93
  -3  -5   4  447.96   57.23
  -3   5  -4  541.59   54.53
   5   3  -4  619.49   57.69
  -3   5  -3  750.71   60.56
   3   5   3  772.51   60.37
  -3  -5   3  824.75   71.59
   5   3  -3  769.53   60.77
   5   3  -2   58.38   18.22
  -3  -5   2   29.01   16.56
   3   5   2   78.22   19.58
  -5  -3  -2   54.46   15.32
   3   5   1  361.26   41.76
   5   3  -1  397.86   40.77
  -3  -5   1  374.19   46.71
  -5  -3  -1  399.55   37.50
   5   3   0  999.76   64.19
  -5  -3   0  740.32   58.11
  -3  -5   0  751.54   67.76
   3   5   0  949.77   72.51
  -5  -3   1  379.01   45.36
   3   5  -1  404.68   46.55
   5   3   1  344.98   36.39
  -5  -3   2   51.16   18.46
   3   5  -2   20.20   16.25
   5   3   2   58.37   14.69
   3   5  -3  716.84   65.26
   5   3   3  750.67   49.59
  -5  -3   3  719.72   62.54
   3   5  -4  589.91   67.95
  -5   3  -4  536.56   40.68
  -5  -3   4  620.01   61.72
   5   3   4  533.61   40.43
   5   3   5  376.66   32.54
  -5  -3   5  381.52   47.16
  -5   3  -5  342.24   31.04
   3   5  -5  326.59   44.35
   3  -5   6   16.79    9.75
   5   3   6   12.57    5.14
  -5   3  -6   25.85   10.03
   3   5  -6   40.69   18.84
   3  -5   7  588.73   58.52
  -5   3  -7  534.43   41.16
   3   5  -7  601.07   66.50
   3   5  -8   74.88   27.13
   3  -5   8   85.66   23.86
  -5   3  -8   65.87   16.52
   3  -5   9  473.87   53.94
  -5   3  -9  402.42   37.26
   3   5  -9  388.41   57.31
  -5   3 -10  137.07   23.24
   3   5 -10  153.52   38.77
   3   5 -10  161.43   30.82
   3  -5  10  160.44   33.22
   3   5 -11  834.66   70.83
  -5   3 -11  778.19   56.00
   3   5 -11  835.27   85.33
   3   5 -12   79.56   25.84
  -5   3 -12  106.23   21.67
   3   5 -13  402.86   65.45
  -5   3 -13  449.76   45.76
   3   5 -14   70.54   32.07
  -5   3 -14   66.38   18.56
   5   3  15  106.74   37.50
   5   3  15   78.69   24.73
  -5   3 -15   92.63   24.85
   3   5 -15   81.27   31.50
  -5   3 -16   77.54   19.14
   5   3  16   52.86   28.42
   3   5 -16   46.49   24.08
   5   3  17   11.58   14.63
  -5   3 -17   58.44   23.19
   3   5 -17   40.46   25.41
   5   3  18   -1.79   13.16
   3   5 -18    7.96   14.72
   5   3  19  517.85   80.54
   3   5 -19  581.79   86.23
   5   3  20   68.01   29.89
   3   5 -20   66.66   32.76
   5   3  21  106.12   38.44
   3   5 -21  160.43   53.23
   5   3  22   17.04   18.52
   3   5 -22  -14.95   15.57
   5   3  23  108.37   44.06
   3   5 -23  155.04   49.63
   3   5 -24   79.12   34.32
   5   3  24   75.23   35.68
   5   3  25  123.11   44.63
   5   3  26  -36.13   37.55
  -3   5  27  209.25   58.65
   5   3  27  103.12   47.76
  -3   5  28   41.85   26.34
   5   3  28   13.10   17.14
   5   3  29   42.50   36.22
  -3   5  29   98.93   49.00
   5   3  30   93.15   45.58
  -3   5  30   56.88   30.86
   5   3  31  -25.50   21.20
  -3   5  31   -8.72   14.35
  -3   5  32   44.51   34.25
  -3   5  33   21.66   19.55
  -5   4  33   -4.86   18.01
  -5   4  32    9.79   13.50
  -5   4  31  133.64   48.47
   4   5  31   74.32   43.04
  -5   4  30   12.93   20.34
   4   5  30   48.53   26.89
  -5   4  29   -9.61   12.99
   4   5  29   -3.53   19.04
  -5   4  28  150.53   56.83
   4   5  28  204.39   68.71
   4   5  27   18.75   10.26
  -5   4  27    4.41    8.83
  -5   4  26  -14.43   24.04
   4   5  26   26.47   32.46
  -5   4  25  -14.62   17.48
   4   5  25   26.37   26.42
   4   5  24  134.57   46.77
   4   5  23   16.73   13.37
  -4   5 -23   17.09   14.59
   4   5  22  242.93   60.64
  -4   5 -22  312.71   59.75
   5   4 -21  263.55   62.32
  -4   5 -21  167.89   41.50
   5   4 -20   33.49   31.02
  -4   5 -20   42.16   23.51
   5   4 -19   56.48   27.98
  -4   5 -19  112.02   32.41
   5   4 -18  238.28   58.92
  -4   5 -18  106.35   33.37
  -4   5 -17   21.63   12.37
   5   4 -17  -25.35   21.53
   5   4 -16  323.87   64.53
  -4   5 -16  222.70   43.78
  -4   5 -15  228.36   39.89
   5   4 -15  182.17   45.27
   5   4 -14  317.25   55.37
  -4   5 -14  317.45   46.45
   5   4 -13   11.74   13.29
  -4   5 -13   14.08   15.57
   5  -4  13   14.47    7.40
   5  -4  12  385.83   47.18
  -4   5 -12  399.77   51.79
   5   4 -12  461.55   65.64
   5   4 -11  149.81   36.33
   5   4 -11  187.68   29.49
   5  -4  11  202.63   32.21
  -4   5 -11  179.05   34.20
   5   4 -10  324.49   55.07
   5   4 -10  388.53   39.66
  -4   5 -10  334.55   45.44
   5  -4  10  334.22   41.07
   5   4  -9 1157.91   64.77
  -4   5  -9 1101.20   81.28
   5  -4   9 1217.82   76.68
   5   4  -9 1298.71  102.18
   5   4  -8   40.48   16.18
   5   4  -8   44.08   11.29
   5  -4   8   71.39   16.88
  -4   5  -8   47.31   15.10
  -4   5  -7  574.24   62.47
   5   4  -7  694.41   74.28
   5   4  -6  157.98   31.36
  -4   5  -6  115.38   23.32
   5   4  -5  116.97   28.98
  -4   5  -5   51.06   20.42
   5   4  -4  175.21   30.89
   4   5   4  169.51   28.40
  -4   5  -4  180.70   30.42
  -4   5  -3 1806.55   93.58
   4   5   3 1568.12   90.19
  -4  -5   3 1558.60  100.80
   5   4  -3 1859.93  104.29
  -5  -4  -2  633.80   52.22
   4   5   2  614.25   56.97
  -4  -5   2  732.42   66.86
   5   4  -2  629.26   57.95
  -4  -5   1  256.14   40.50
   5   4  -1  313.07   40.75
   4   5   1  245.02   35.70
  -5  -4  -1  204.64   31.11
  -5  -4   0  394.42   45.67
  -4  -5   0  433.07   49.98
   4   5   0  416.80   49.48
   5   4   0  343.18   42.85
  -4  -5  -1  221.37   34.77
   5   4   1  234.19   35.39
  -5  -4   1  249.23   37.30
   4   5  -1  228.62   40.21
  -5  -4   2  724.81   64.03
   5   4   2  612.91   53.70
   4   5  -2  603.87   63.74
  -5  -4   3 1483.48   96.91
   5   4   3 1638.68   84.88
   4   5  -3 1682.83  102.49
  -5   4  -4  134.43   22.58
   5   4   4  120.11   20.37
  -5  -4   4   95.20   29.81
   4   5  -4  160.15   32.95
  -5   4  -5   44.34   18.17
   5   4   5   18.79   12.05
   4   5  -5   49.70   28.58
  -5   4  -6  129.47   22.53
   5   4   6  137.57   22.54
   4   5  -6  175.07   35.04
  -5   4  -7  691.34   57.43
   4  -5   7  570.70   58.03
   4   5  -7  623.19   71.44
   4   5  -8   68.35   25.93
   4  -5   8   43.89   13.55
  -5   4  -8   61.94   15.44
  -5   4  -9 1159.85   75.43
   4  -5   9 1251.72   89.22
   4   5  -9 1459.06  117.90
   4   5 -10  214.63   45.40
   4  -5  10  288.42   42.39
  -5   4 -10  294.73   37.47
   4   5 -10  327.24   40.39
   4   5 -11  167.88   37.21
  -5   4 -11  170.35   29.37
   4   5 -11  163.96   30.68
   4  -5  11  191.26   35.67
   4   5 -12  477.50   53.03
  -5   4 -12  446.54   48.48
   4   5 -12  468.94   65.00
   4   5 -13   31.35   16.25
  -5   4 -13   16.81    9.36
   4   5 -14  348.24   61.02
  -5   4 -14  280.53   40.05
  -5   4 -15  226.19   37.51
   4   5 -15  188.01   44.63
   4   5 -16  322.13   62.04
  -5   4 -16  280.28   47.17
   4   5 -17   18.17   11.71
  -5   4 -17   16.19   13.38
   5   4  18   75.78   38.25
  -5   4 -18  118.83   31.33
   4   5 -18  118.09   40.41
   5   4  19   75.13   36.06
  -5   4 -19  108.68   28.14
   4   5 -19  137.64   41.64
   5   4  20    9.96   21.46
  -5   4 -20    9.76   12.81
   4   5 -20   20.85   17.96
   4   5 -21  165.14   50.34
   5   4  21  204.92   54.63
   5   4  22  212.47   57.52
   4   5 -22  399.29   79.89
   4   5 -23   19.38   22.77
   5   4  23   29.57   26.91
   5   4  24  135.19   48.71
   4   5 -24  120.74   42.73
   5   4  25   17.34   19.94
   5   4  26   44.67   31.75
   5   4  27  -11.95   25.29
  -4   5  27  -29.89   20.02
   5   4  28  160.56   60.26
  -4   5  28  191.81   63.33
   5   4  29   -6.53   13.15
  -4   5  29   -3.93   19.84
   5   4  30   49.74   33.30
  -4   5  30   63.30   34.72
   5   4  31   28.12   18.77
  -4   5  31    8.20   16.83
  -4   5  32   31.03   37.09
  -4   5  33   41.60   22.59
  -4   5  34    6.73   10.65
  -5  -5   0   83.44   22.78
   5   5   0  106.37   26.00
   5   5   1 1264.41   84.61
  -5  -5  -1 1211.35   82.11
   5   5  -1 1198.62   85.04
  -5  -5   1 1146.29   84.56
  -5  -5  -2  117.64   27.57
   5   5   2  184.12   33.33
  -5  -5   2  110.55   28.27
   5   5  -2  201.54   38.60
   5   5  -3  451.20   53.53
   5   5   3  354.73   42.10
   5   5   4   66.48   19.29
  -5   5  -4   86.60   21.05
   5   5  -4   90.47   23.15
  -5   5  -5  119.71   25.69
   5   5   5  106.94   22.37
   5   5  -5  111.92   28.74
   5   5  -6  124.79   30.86
   5   5   6  154.19   28.25
  -5   5  -6  178.58   30.04
   5   5  -7   79.64   27.17
  -5   5  -7  102.05   21.79
   5   5  -8   -2.65    7.29
  -5   5  -8   20.92   14.68
   5   5  -9  111.99   30.53
   5   5  -9  139.84   24.12
   5  -5   9  113.58   23.20
  -5   5  -9   69.00   19.89
   5   5 -10  460.71   45.43
  -5   5 -10  492.63   54.06
   5  -5  10  488.73   55.19
   5   5 -10  411.61   66.52
   5   5 -11   75.42   30.91
   5   5 -11   78.99   19.35
   5  -5  11   89.42   21.43
  -5   5 -11  101.88   24.89
   5   5 -12   12.24   14.11
  -5   5 -12    8.30    8.25
   5   5 -12   14.66   10.72
   5  -5  12   19.03   15.23
   5   5 -13  863.90   71.44
  -5   5 -13  844.44   73.29
   5   5 -13  808.60   91.51
   5   5 -14  203.20   49.22
  -5   5 -14  150.77   34.43
   5   5 -15  659.74   90.36
  -5   5 -15  523.28   63.23
  -5   5 -16    8.03    7.46
   5   5 -16    4.08   15.30
   5   5 -17  163.78   51.92
  -5   5 -17  109.15   28.11
   5   5 -18   52.98   33.35
  -5   5 -18   54.86   22.07
   5   5 -19   39.97   26.14
  -5   5 -19   22.47   15.69
   5   5 -20    9.34   18.76
  -5   5 -20   35.55   22.01
  -5   5 -21   58.37   25.48
   5   5  21   44.73   26.98
   5   5 -21   13.01   13.59
   5   5  22   41.10   29.34
   5   5 -22  120.58   44.20
  -5   5 -22   84.67   33.11
   5   5  23  169.08   53.52
   5   5 -23  174.49   59.44
   5   5  24    0.83   11.16
   5   5  25   56.19   40.94
   5   5  26   32.39   22.66
  -5   5  27  197.06   56.49
   5   5  27  182.16   64.67
  -5   5  28  -34.31   19.21
   5   5  28   26.22   28.77
   5   5  29   83.41   42.55
  -5   5  29   49.53   20.73
   5   5  30   36.44   29.00
  -5   5  30  114.66   46.79
  -5   5  31  -54.42   32.23
   5   5  31    8.25   13.90
  -5   5  32    4.56   18.76
  -5   5  33    7.13   18.49
  -5   5  34   77.81   46.30
  -6   0   0   19.50    5.64
  -6   0   0   14.11    5.48
   0   6   0    7.17    6.70
  -6   0   1  132.28   19.88
  -6   0  -1  131.88   18.57
  -6   0   1  141.04   16.26
   0   6  -1  108.45   26.92
  -6   0  -1  158.62   18.32
  -6   0  -2  211.49   26.73
   0   6  -2  191.71   36.13
  -6   0  -2  203.92   19.21
  -6   0   2  188.21   27.44
  -6   0   3   26.36    8.94
  -6   0  -3   42.11   12.83
   0  -6   3   27.91   14.11
   0   6  -3    9.84   10.12
  -6   0  -3   38.50    6.95
   6   0   4  154.22   26.58
  -6   0  -4  171.92   27.59
   0   6  -4  117.61   28.63
   0  -6   4  130.52   29.20
  -6   0   4  180.65   28.95
  -6   0  -5  507.20   49.18
   6   0   5  440.47   46.61
   0   6  -5  429.42   56.69
  -6   0   5  434.09   45.78
   6   0   6 2353.55  113.09
   0   6  -6 2303.15  130.08
   6   0   7  233.92   37.76
   0   6  -7  209.60   38.16
   6   0   8  226.61   37.69
   0   6  -8  192.38   43.36
   6   0   9   10.08    9.47
   0   6  -9    6.45    8.74
   6   0  10   53.16   11.31
   0   6 -10   43.72   22.31
   6   0  11  101.99   32.83
   0   6 -11   73.44   27.33
   6   0  11   83.51   15.31
   6   0  12   -5.22   14.21
  -6   0  12    2.19    6.33
   0   6 -12   26.93   19.30
   6   0  12   -1.67    6.40
  -6   0  13    1.65    3.96
   6   0  13   30.40   21.50
   0   6 -13    3.32   12.77
   6   0  13    6.39    6.41
   6   0  14 1241.43  110.18
  -6   0  14 1094.91   77.58
   6   0  14 1131.93   67.61
   0   6 -14 1171.88  107.06
  -6   0  15   32.08   19.72
   6   0  15   15.77   24.46
   0   6 -15   20.75   17.79
   6   0  15    8.05   10.94
  -6   0  16   16.28   12.71
   6   0  16   11.15   11.31
   6   0  16   -1.50   10.25
   6   0  17  -13.88   14.34
  -6   0  17   15.12    9.88
   0   6 -17  -20.61   22.30
   6   0  17   -1.24    5.72
  -6   0  18  104.38   29.48
   6   0  18   99.99   37.39
   0   6 -18   88.70   30.34
  -6   0  19  140.05   40.69
   6   0  19  114.65   44.48
   0   6 -19  194.36   47.50
  -6   0  20    5.00   12.13
   6   0  20   17.09   13.44
   0   6 -20   23.42   16.36
   6   0  21  -17.95   17.49
  -6   0  21    0.33    7.32
   0   6 -21   -5.96    9.48
   6   0  22   65.44   31.82
  -6   0  22   51.53   22.70
   0   6 -22   66.81   31.48
  -6   0  23  168.43   44.02
   6   0  23   64.80   34.82
   0   6 -23  156.21   50.12
   0   6 -24   -7.22   11.48
  -6   0  24    7.16    7.29
   6   0  25   23.75   31.31
  -6   0  25   42.11   25.55
   0   6 -25   42.82   34.59
   0   6 -26  379.14   80.66
   6   0  26  406.12   84.09
  -6   0  26  410.75   72.68
   6   0  27  169.72   63.52
  -6   0  27  177.32   53.46
   0   6  27  228.18   67.30
   6   0  28  -11.83   14.78
  -6   0  28   -6.93   23.79
   0   6  28  -48.53   35.55
   0   6  29   41.25   33.06
  -6   0  29   10.41   18.86
   6   0  29   27.13   24.33
   0   6  30  -36.09   39.12
   0   6  31   32.67   30.54
   0   6  32  -15.09   10.23
   1   6  32  -39.08   34.27
   1   6  31   -0.59   14.44
   1   6  30   87.98   39.12
  -6   1  30   32.14   29.70
   1   6  29   -7.21   22.63
  -6   1  29  -25.00   20.53
   1   6  28  119.46   58.56
  -6   1  28  106.09   43.49
   1   6  27  136.11   48.42
  -6   1  27  102.35   32.94
  -1   6 -26  111.01   50.34
  -6   1  26  108.91   41.30
  -6   1  25  123.66   38.65
  -1   6 -25  118.48   42.66
   6  -1  25   24.33   20.87
  -6   1  24   58.54   27.90
  -1   6 -24   69.87   33.29
   6  -1  24   51.00   25.80
   6  -1  23   -1.71   24.13
  -6   1  23   67.35   30.10
  -1   6 -23   21.47   21.12
   6  -1  22   77.48   40.54
  -6   1  22   90.77   36.38
  -1   6 -22  126.01   41.72
  -6   1  21   13.00    7.10
   6  -1  21  -17.22   15.26
   6  -1  20   90.40   38.05
  -6   1  20   75.75   28.33
  -1   6 -20  103.63   37.88
   6  -1  19   -5.26   13.92
  -6   1  19   -6.14   14.51
  -6   1  18   88.91   32.11
   6  -1  18  114.94   39.56
  -1   6 -18   66.24   28.31
  -6   1  17  116.10   28.89
   6  -1  17   77.71   29.31
  -1   6 -17   81.82   31.07
   6  -1  17   94.87   25.19
   6  -1  16   52.00   25.91
  -1   6 -16   38.43   23.16
   6  -1  16   34.25   18.82
   6  -1  15  382.87   63.23
   6  -1  15  392.87   45.03
  -1   6 -15  359.12   62.25
   6  -1  14   73.93   26.95
  -1   6 -14  111.25   35.37
   6  -1  14   58.80   16.29
  -1   6 -13  210.94   44.37
   6  -1  13  216.80   42.76
   6  -1  13  230.75   31.03
   6  -1  12  384.70   58.32
   6  -1  12  361.08   35.95
  -1   6 -12  369.65   58.68
   6  -1  11  331.60   54.14
  -1   6 -11  312.50   55.34
   6  -1  11  291.76   29.85
   6  -1  10   50.72   16.87
   6   1 -10   69.04   22.02
   6  -1  10   81.83   13.54
  -1   6 -10   54.66   21.75
   6  -1   9   69.67   22.25
   6   1  -9  121.88   31.95
  -1   6  -9   33.43   19.15
   6   1  -8   71.95   25.21
  -1   6  -8   68.17   26.23
   6   1  -7 1275.49   89.36
  -1   6  -7  885.70   81.08
   6   1  -6  234.07   36.62
  -1   6  -6  242.37   41.17
   6   1  -5   65.41   22.46
  -6   1   5   74.81   20.82
  -1   6  -5   28.14   13.40
  -6   1   4  285.05   35.33
   6   1  -4  308.05   37.66
  -1   6  -4  286.60   41.62
  -6   1   3 1749.30   87.11
   6   1  -3 1534.85   83.40
  -6  -1  -3 1476.11   50.59
  -1   6  -3 1837.16  108.38
  -1  -6   3 1257.81   96.86
   6   1  -2  116.40   20.37
  -1   6  -2  119.36   26.05
  -1  -6   2  115.26   27.31
  -6  -1  -2  129.73   17.44
  -6   1   2  145.26   23.34
  -6   1   1 1014.15   57.98
   6   1  -1  991.29   57.57
  -6  -1  -1  883.50   50.88
   1   6   1 1150.37   91.20
  -1   6  -1 1268.11   89.25
  -6  -1   0  115.19   18.21
   6   1   0   90.71   15.40
   1   6   0  113.81   24.93
   6   1   1  771.88   46.55
  -6  -1   1  895.37   59.82
   6   1   1  780.59   42.77
  -6   1  -2  150.78   23.60
   6   1   2  143.74   20.45
   1   6  -2  110.35   27.04
   6   1   2  149.39   15.93
  -6  -1   2  177.40   26.95
   6   1   3 1269.42   71.12
  -6   1  -3 1533.83   83.12
   1   6  -3 1559.88  105.88
  -6  -1   3 1484.07   81.70
   6   1   4  344.73   37.81
  -6   1  -4  365.73   42.13
   1  -6   4  338.03   47.44
  -6  -1   4  303.52   37.83
   1   6  -4  288.41   45.61
  -6  -1   5   57.90   19.62
   6   1   5   56.75   17.55
  -6   1  -5   78.06   21.77
   1  -6   5   42.36   19.75
   1   6  -5   48.55   22.34
   6   1   6  281.60   37.38
  -6   1  -6  274.81   39.46
   1   6  -6  288.09   47.37
  -6  -1   7  931.39   37.14
   6   1   7  996.11   75.93
   1   6  -7  760.98   83.78
   6   1   8   89.92   25.78
  -6  -1   8   72.29   11.80
   1   6  -8   67.41   23.63
  -6  -1   9   76.74   14.22
   6   1   9   68.02   19.97
   6   1   9   63.42    9.26
   1   6  -9   64.22   24.65
  -6  -1  10   74.72   14.33
   6   1  10  115.01   29.99
   6   1  10   86.62   12.19
   1   6 -10   69.46   24.88
   6   1  11  423.86   58.48
  -6  -1  11  288.61   33.40
   1   6 -11  341.93   60.98
   6   1  11  250.40   24.24
  -6  -1  12  387.15   40.33
   6   1  12  358.36   57.92
   1   6 -12  348.14   60.53
   6   1  12  313.93   30.34
  -6  -1  13  254.11   33.63
   6   1  13  251.45   48.31
   1   6 -13  253.85   50.03
   6   1  13  214.86   26.43
   6   1  14   80.37   27.00
  -6  -1  14   90.72   22.97
   6   1  14   81.64   18.76
   1   6 -14   76.77   24.84
  -6  -1  15  380.69   47.26
   6   1  15  372.74   64.02
   1   6 -15  336.85   62.73
   6   1  15  345.09   37.76
   6   1  16   66.29   29.42
  -6  -1  16   42.30   19.37
   1   6 -16   45.35   20.84
   6   1  16   34.97   17.06
  -6  -1  17  119.64   28.68
   6   1  17   92.02   35.74
   1   6 -17   94.31   32.45
   6   1  17   71.42   17.16
   6   1  18  124.85   38.01
  -6  -1  18  117.00   32.71
   1   6 -18  105.18   33.70
  -6  -1  19   15.62   10.37
   6   1  19    4.35   17.08
   1   6 -19    0.26   14.74
   6   1  20   37.92   22.08
  -6  -1  20   74.60   24.51
   1   6 -20   58.20   31.27
  -6  -1  21   40.91   21.13
   6   1  21   35.87   24.12
   1   6 -21   27.91   13.12
   6   1  22   83.36   42.56
  -6  -1  22   86.45   34.11
   1   6 -22  171.66   50.24
  -6  -1  23   -1.53    9.10
   1   6 -23   22.95   18.24
  -6  -1  24   45.24   24.96
   6   1  24   80.06   32.56
   1   6 -24   46.24   34.15
   1   6 -25   98.70   49.23
  -6  -1  25  137.98   38.50
   6   1  25   66.44   29.71
  -6  -1  26   21.07   19.91
   6   1  26   94.62   48.07
   1   6 -26  104.21   45.47
  -6  -1  27   95.53   37.98
   6   1  27   84.50   37.20
   6   1  28  103.69   43.24
  -1   6  28  161.02   52.60
   6   1  29  -40.39   33.50
  -1   6  29   12.15    9.52
   6   1  30  -28.64   19.34
  -1   6  30   30.68   10.58
   6   1  31   12.94   13.50
  -1   6  31   74.94   40.51
  -1   6  32   33.93   33.92
   2   6  32   22.29   31.87
   2   6  31   24.01   29.35
   2   6  30  -28.50   31.15
  -6   2  30   18.65   30.71
   2   6  29   61.96   30.17
  -6   2  29   20.49   20.72
  -6   2  28   87.59   37.67
   2   6  28   62.40   44.35
  -6   2  27   19.04   12.82
   2   6  27  -28.29   21.01
   2   6  26  105.57   40.71
  -6   2  26   92.12   31.47
  -2   6 -25  119.38   47.77
  -6   2  25  128.14   43.96
  -2   6 -24   44.69   32.65
  -6   2  24   33.30   17.08
  -6   2  23   48.32   23.36
  -2   6 -23   58.91   29.99
  -6   2  22    8.33   14.81
  -2   6 -22   31.97   21.57
  -6   2  21  114.57   31.70
  -2   6 -21   96.91   33.87
  -6   2  20   -3.12   14.74
  -2   6 -20   -9.58   15.83
  -2   6 -19  131.64   42.00
  -2   6 -18  111.26   33.82
  -2   6 -17   96.65   31.82
   6  -2  17  154.13   33.76
  -2   6 -16   73.16   28.90
   6  -2  16   85.15   21.69
   6   2 -15   15.64   16.61
  -2   6 -15   20.80   17.01
   6  -2  15   23.89   13.57
   6   2 -14  162.34   38.96
  -2   6 -14  150.15   38.24
   6  -2  14  181.79   29.65
   6   2 -13  104.88   39.24
  -2   6 -13  127.01   36.21
   6  -2  13   75.01   21.44
   6   2 -12  724.88   82.76
   6  -2  12  882.81   58.60
  -2   6 -12  842.18   84.90
   6   2 -11   14.16   15.85
   6  -2  11    3.35    6.68
  -2   6 -11   -4.80    9.97
   6   2 -10  309.75   50.99
   6  -2  10  183.03   23.68
  -2   6 -10  193.71   39.47
   6   2  -9  260.80   43.60
   6  -2   9  326.65   27.25
  -2   6  -9  247.15   42.97
   6   2  -8  119.55   30.19
  -2   6  -8   97.24   27.63
   6   2  -7  149.81   32.53
  -2   6  -7  120.38   32.47
  -2   6  -6 1206.80   91.87
   6   2  -6 1143.48   86.48
   6   2  -5  117.38   24.73
  -2   6  -5  120.22   28.08
   6   2  -4   94.27   22.18
  -2   6  -4   98.97   27.37
   6   2  -3  169.41   26.88
  -6  -2  -3  163.97   19.32
  -2   6  -3  147.03   31.51
  -2  -6   2  455.43   60.55
  -2   6  -2  602.88   62.52
  -6  -2  -2  598.74   43.76
   2   6   2  476.55   55.22
   6   2  -2  539.44   48.44
   6   2  -1  138.52   21.79
   6   2  -1  156.64   15.04
   2   6   1  135.31   28.92
  -2  -6   1  143.96   33.24
  -6  -2  -1  122.01   22.07
   6   2   0 1622.02   59.08
  -6  -2   0 2203.80   91.47
   2   6   0 2124.59  118.06
   6   2   0 1608.29   76.17
   6   2   1  149.83   20.13
   6   2   1  138.24   18.90
   2   6  -1  138.30   29.88
  -6  -2   1  113.85   21.76
   6   2   2  503.34   41.09
  -6  -2   2  616.71   53.91
   2   6  -2  441.75   55.96
   6   2   2  414.22   33.45
  -6  -2   3  163.67   28.67
   6   2   3  166.21   23.19
   6   2   3  163.38   18.71
   2   6  -3  146.07   32.17
   6   2   4  105.47   21.12
  -6   2  -4  128.64   27.61
  -6  -2   4  144.00   29.17
   2   6  -4  128.17   35.21
   6   2   4   99.87   13.99
  -6  -2   5  142.20   28.30
   6   2   5  162.29   27.21
  -6   2  -5  160.24   29.44
  -6   2  -5  123.26   14.11
   2  -6   5  154.79   30.55
   6   2   5   95.43   14.69
   2   6  -5  165.04   38.55
   6   2   6 1163.21   78.88
   2   6  -6 1144.44   95.18
  -6   2  -6 1349.07   48.38
   2  -6   6 1296.76   94.82
   6   2   6  984.57   41.65
   6   2   7   88.88   21.61
   6   2   7  116.51   13.76
   2   6  -7   57.54   19.44
  -6   2  -7  100.78   12.83
   6   2   8  123.82   28.24
  -6   2  -8  104.90   13.73
   2   6  -8   86.61   28.32
   6   2   9  321.85   46.93
  -6   2  -9  315.29   25.66
   2   6  -9  283.94   48.92
   6   2  10  319.43   49.08
   2   6 -10  217.85   51.55
  -6   2 -10  207.22   22.20
   6   2  11    2.08    4.08
   6   2  11   13.19   14.27
  -6   2 -11   12.18    6.67
   2   6 -11   18.85   21.49
   6   2  12  933.44   89.31
   6   2  12  676.85   44.81
  -6   2 -12  823.08   51.51
   2   6 -12  796.98   90.62
   6   2  13  105.73   32.02
   6   2  13   64.19   16.83
   2   6 -13  104.98   37.10
   6   2  14  164.36   41.53
  -6  -2  14  174.70   30.35
   2   6 -14  146.66   39.11
   6   2  14  125.55   21.50
  -6  -2  15   26.66   11.74
   6   2  15   42.60   23.22
   6   2  15   12.94    7.16
   2   6 -15   44.29   26.92
  -6  -2  16   88.28   23.61
   6   2  16   78.40   31.02
   2   6 -16   72.25   26.40
   6   2  16   78.53   18.48
  -6  -2  17  125.77   29.79
   6   2  17  120.70   36.89
   6   2  17  101.83   22.43
   2   6 -17  135.75   37.49
  -6  -2  18  115.17   28.95
   6   2  18  127.48   38.74
   2   6 -18  133.29   39.17
  -6  -2  19  128.65   37.04
   6   2  19  151.03   45.19
   2   6 -19  150.78   43.45
  -6  -2  20    2.54   11.72
   6   2  20  -12.29   10.60
   2   6 -20    2.62    8.69
   6   2  21  127.55   45.91
   2   6 -21  108.87   40.21
   6   2  22  103.80   40.44
   2   6 -22   30.53   29.89
   6   2  23   34.81   27.26
   2   6 -23   72.59   33.57
   2   6 -24   14.52    9.87
   6   2  24   30.51   25.50
   6   2  25  140.14   50.39
   2   6 -25  204.35   62.41
   2   6 -26   66.92   28.48
   6   2  26   56.53   30.52
   6   2  27  -34.32   34.18
  -2   6  28  143.47   54.67
   6   2  28   60.28   31.64
   6   2  29   76.22   43.60
  -2   6  29   21.03   23.05
   6   2  30   -0.05   22.28
  -2   6  30   69.03   39.07
  -2   6  31   50.44   32.19
   6   2  31   15.46   32.60
  -2   6  32  -27.24   24.89
  -2   6  33   43.26   32.45
   3   6  31   16.71   13.73
  -6   3  31  -13.42   24.66
   3   6  30   -9.15   18.85
  -6   3  30   19.43   20.24
   3   6  29   24.19   23.32
  -6   3  29   39.19   25.50
  -6   3  28   57.85   34.91
   3   6  28   -5.07   20.62
  -6   3  27  119.53   40.40
   3   6  27  186.66   56.30
  -6   3  26   72.26   34.01
   3   6  26   69.21   41.03
   3   6  25   60.95   32.11
  -6   3  25   49.63   11.69
  -3   6 -25   43.74   25.87
  -6   3  24   75.64   34.41
  -3   6 -24   57.24   34.29
  -6   3  23   34.28   20.22
  -3   6 -23    9.78   16.04
  -3   6 -22  151.77   46.10
  -3   6 -21   25.35   18.82
  -3   6 -20   75.14   29.67
  -3   6 -19  178.80   41.23
   6   3 -18  259.53   66.45
  -3   6 -18  344.14   57.86
   6   3 -17    7.27    9.13
  -3   6 -17    4.98   10.19
   6   3 -16   26.06   13.25
  -3   6 -16    1.71    6.86
   6  -3  16    7.80    8.18
   6   3 -15  114.93   34.40
  -3   6 -15  160.05   37.99
   6  -3  15  137.08   28.99
  -3   6 -14   65.88   29.25
   6   3 -14  120.81   44.06
   6  -3  14   21.98   16.12
   6   3 -13  828.83   90.38
   6  -3  13  826.93   63.86
  -3   6 -13  830.95   85.39
   6   3 -12   54.12   30.88
   6  -3  12   11.01    7.23
  -3   6 -12   10.58    8.03
   6   3 -11  301.37   53.46
  -3   6 -11  264.45   50.70
   6  -3  11  182.72   27.05
   6   3 -10  142.33   31.81
   6  -3  10  156.83   22.93
  -3   6 -10  154.30   33.02
   6   3  -9   94.11   28.73
  -3   6  -9  104.12   31.78
  -3   6  -8  469.35   57.40
   6   3  -8  604.25   65.65
  -3   6  -7  745.77   75.26
   6   3  -7  837.24   75.97
   6   3  -6   62.26   17.48
  -3   6  -6  111.81   25.85
   6   3  -5   17.05   11.19
  -3   6  -5   17.84   12.48
  -3   6  -4  297.01   42.34
   6   3  -4  302.56   40.64
  -6  -3  -3  209.31   27.34
   3   6   3  206.66   36.60
  -3   6  -3  252.87   39.27
   6   3  -3  260.29   39.21
   6   3  -2   50.78   15.60
  -3   6  -2   53.68   18.72
  -6  -3  -2   71.81   15.99
   3   6   2   54.36   15.88
  -6  -3  -1 1850.64   86.63
  -3  -6   1 1651.32  108.52
   3   6   1 1724.16  103.46
   6   3  -1 1923.34   94.48
   6   3   0   13.00    5.59
  -3  -6   0    6.83    9.63
   3   6   0    8.89    7.43
  -6  -3   0    0.15    4.74
   6   3   1 1721.47   81.62
  -6  -3   1 1803.12   94.69
   3   6  -1 1686.82  110.77
  -6  -3   2   54.47   17.57
   6   3   2   73.77   16.38
   3   6  -2   61.27   20.03
  -6  -3   3  253.87   38.83
   6   3   3  210.57   28.75
   3   6  -3  258.96   48.92
   3   6  -4  337.75   50.81
  -6  -3   4  344.08   46.01
   6   3   4  290.33   33.09
  -6   3  -5   14.76    7.83
   6   3   5    7.83    7.52
   3   6  -5   16.90   18.10
   6   3   6   76.66   14.90
   3  -6   6   74.19   24.33
  -6   3  -6   82.88   14.76
   3   6  -6   55.74   20.38
  -6   3  -7  814.36   49.45
   6   3   7  585.63   41.23
   3   6  -7  716.72   82.00
   3  -6   7  800.72   74.00
  -6   3  -8  566.16   41.24
   3   6  -8  520.53   66.63
  -6   3  -9   92.06   17.83
   3   6  -9   68.60   26.81
   3   6 -10  202.46   41.73
  -6   3 -10  175.33   23.74
   3   6 -11  258.95   57.75
  -6   3 -11  238.74   30.15
   6   3  12   22.00   15.17
   3   6 -12    2.94    9.13
  -6   3 -12   15.18    7.03
   6   3  13  947.25   92.99
   3   6 -13  760.48   94.67
  -6   3 -13  795.21   57.05
   3   6 -14   67.68   35.55
  -6   3 -14   29.55   15.46
   6   3  14   56.24   27.03
  -6   3 -15  153.80   28.01
   3   6 -15  147.03   40.28
   6   3  15  111.81   22.43
   6   3  15  171.06   42.75
   3   6 -16  -10.57   18.68
   6   3  16    4.04    4.19
  -6   3 -16    6.72    9.58
   6   3  16   15.55   11.26
   3   6 -17   -7.14   11.17
   6   3  17   -1.64    9.53
   3   6 -18  390.10   68.67
   6   3  18  318.47   64.94
   3   6 -19  195.28   49.49
   6   3  19  154.07   45.22
   3   6 -20  159.47   47.05
   6   3  20  118.92   40.18
   3   6 -21   12.98   23.35
   6   3  21    1.59   13.07
   3   6 -22  123.92   43.77
   6   3  22  125.89   43.91
   6   3  23   42.97   27.37
   3   6 -23   24.63   14.66
   3   6 -24   96.71   39.68
   6   3  24   56.02   27.79
   6   3  25   28.96   19.35
   3   6 -25   52.39   29.99
   6   3  26   63.56   39.74
   3   6 -26   87.16   48.16
   6   3  27  142.72   53.08
  -3   6  28   31.66   25.94
   6   3  28   17.61   28.32
   6   3  29   39.42   24.03
  -3   6  29   86.04   38.98
  -3   6  30   32.99   26.00
   6   3  30    2.50   24.11
  -3   6  31  -14.00   15.68
   6   3  31   29.83   40.47
  -3   6  32  -39.55   29.34
  -3   6  33   10.10   12.94
  -6   4  31    2.83   18.76
   4   6  31    9.72   10.78
   4   6  30   28.18   23.20
  -6   4  30   46.88   32.87
   4   6  29   66.87   41.90
  -6   4  29   17.59   27.20
  -6   4  28  107.27   38.38
   4   6  28   79.49   43.72
  -6   4  27   67.69   31.76
   4   6  27  124.11   47.35
   4   6  26  217.80   63.57
  -6   4  26  156.38   50.97
  -6   4  25   88.00   41.40
   4   6  25  103.04   48.59
  -4   6 -25  114.27   46.67
   4   6  24   19.88   11.27
  -4   6 -24   35.38   18.96
  -4   6 -23  202.18   52.10
  -4   6 -22   67.83   34.52
  -4   6 -21  187.63   47.20
   6   4 -21  291.70   66.65
  -4   6 -20  217.70   47.26
   6   4 -20  246.68   62.13
  -4   6 -19  120.39   37.47
   6   4 -19  166.85   53.37
  -4   6 -18  103.68   29.09
   6   4 -18   63.55   25.49
  -4   6 -17  132.87   36.36
   6   4 -17  139.69   52.60
  -4   6 -16   27.42   17.01
   6   4 -16   14.12   17.40
  -4   6 -15  126.29   35.21
   6   4 -15  147.71   50.73
   6  -4  15  142.37   31.95
   6   4 -14  607.02   78.72
   6  -4  14  702.26   64.89
  -4   6 -14  591.13   71.77
   6   4 -13   78.05   39.93
  -4   6 -13   21.15   16.25
   6  -4  13   23.31   15.04
   6  -4  12  529.73   53.59
  -4   6 -12  597.04   69.51
   6   4 -12  487.08   69.92
   6   4 -11   26.88   16.70
   6  -4  11   60.83   17.30
  -4   6 -11   39.92   17.18
   6   4 -10  551.89   44.01
   6  -4  10  455.24   47.09
  -4   6 -10  541.66   65.91
   6   4 -10  536.69   70.62
   6   4  -9  447.77   36.34
  -4   6  -9  422.27   54.52
   6   4  -9  387.77   59.02
   6   4  -8  276.03   48.78
   6   4  -8  331.98   29.62
  -4   6  -8  331.65   48.67
   6   4  -7  292.97   25.50
   6   4  -7  318.30   48.55
  -4   6  -7  274.74   41.68
  -4   6  -6  293.48   44.52
   6   4  -6  363.13   52.81
   6   4  -5   44.19   15.97
   4   6   5   40.85   12.93
  -4   6  -5   16.15    7.04
   6   4  -4  101.58   26.52
  -4   6  -4  106.78   25.51
   4   6   4   72.66   20.91
   6   4  -3  133.60   29.72
  -4   6  -3  127.28   27.73
   4   6   3  118.09   28.22
  -6  -4  -3  141.08   22.73
   4   6   2 1892.52  110.09
  -6  -4  -2 1694.61   92.98
   6   4  -2 2143.31  110.40
   4   6   1   29.86   14.13
  -6  -4  -1   16.73    4.30
   6   4  -1   24.85    5.66
   4   6   0  143.44   37.12
  -4  -6   0  173.56   36.30
  -6  -4   0  133.04   27.36
   6   4   0  196.78   34.44
  -4  -6  -1   25.52   15.99
   4   6  -1   19.11    8.47
  -6  -4   1   28.45   14.37
   6   4   1   29.95   13.06
   6   4   2 2038.26   98.41
  -6  -4   2 2016.58  116.30
   4   6  -2 1773.85  111.39
  -6  -4   3   89.62   24.10
   4   6  -3  113.75   28.90
   6   4   3  102.21   23.51
   6   4   4   98.69   22.39
   4   6  -4   87.74   30.61
  -6   4  -5   24.83   10.69
   6   4   5   14.71    6.47
   4   6  -5   20.81    8.71
   6   4   6  234.66   30.78
  -6   4  -6  242.66   31.27
   4   6  -6  260.91   49.80
  -6   4  -7  300.01   35.08
   6   4   7  287.44   33.40
   4   6  -7  304.14   50.03
   4   6  -8  359.06   58.29
   4  -6   8  288.81   44.20
  -6   4  -8  298.93   36.34
   4   6  -9  395.62   60.39
  -6   4  -9  434.35   43.34
  -6   4 -10  542.17   50.99
   4   6 -10  495.03   70.70
   4   6 -11   48.23   20.09
  -6   4 -11   44.60   13.54
  -6   4 -12  569.47   54.20
   4   6 -12  534.58   76.99
   4   6 -13   62.41   29.06
  -6   4 -13    7.02    7.43
  -6   4 -14  627.59   57.90
   4   6 -14  663.29   87.12
   4   6 -15  213.56   53.57
  -6   4 -15  179.65   32.81
   6   4  16   -0.87   12.62
   4   6 -16  -17.45   16.98
  -6   4 -16   12.47    6.99
   6   4  17  151.67   43.39
   4   6 -17  175.65   46.92
  -6   4 -17  103.58   31.01
  -6   4 -18   91.51   25.33
   6   4  18  153.60   46.71
   4   6 -18  125.75   37.36
   6   4  19   93.52   39.42
  -6   4 -19  162.27   38.11
   4   6 -19  105.03   41.56
   6   4  20  190.03   48.25
   4   6 -20  177.57   49.98
   6   4  21  182.43   57.75
   4   6 -21  246.04   61.81
   6   4  22   20.87   17.55
   4   6 -22   40.91   22.69
   4   6 -23  203.16   58.42
   6   4  23  175.78   57.89
   4   6 -24  -13.78   12.67
   6   4  24  -29.41   32.23
   4   6 -25  153.27   57.63
   6   4  25   97.09   43.76
   6   4  26  190.94   56.03
   4   6 -26  221.95   66.18
   6   4  27  141.92   59.06
   6   4  28   49.49   20.33
  -4   6  28  108.85   41.07
   6   4  29   25.87   23.54
  -4   6  29   44.54   31.91
  -4   6  30   10.33   19.81
   6   4  30   28.14   25.80
  -4   6  31   35.38   29.78
   6   4  31   56.15   30.59
  -4   6  32   34.05   26.69
  -4   6  33   21.44   18.15
  -6   5  32  -34.13   26.13
  -6   5  31   45.28   35.34
  -6   5  30   36.25   30.36
   5   6  30   40.84   30.45
  -6   5  29  122.16   48.40
   5   6  29  101.05   47.30
   5   6  28   14.54   16.95
  -6   5  28   29.72   26.04
   5   6  27  123.82   48.92
  -6   5  27   51.62   27.38
   5   6  26  270.74   73.05
   5   6  25   30.32   25.79
   5   6  24  304.60   71.31
  -5   6 -24  254.95   59.72
   5   6  23   91.17   33.01
  -5   6 -23  160.71   46.11
   6   5 -23  143.70   54.00
   6   5 -22   14.43   17.84
  -5   6 -22   46.00   27.97
   6   5 -21   49.64   28.59
  -5   6 -21   82.86   26.87
   6   5 -20   58.32   28.21
  -5   6 -20   51.10   27.87
  -5   6 -19   93.39   31.21
   6   5 -19   45.66   26.81
  -5   6 -18   14.94   11.64
   6   5 -18   -0.91   16.79
   6   5 -17  228.55   51.64
  -5   6 -17  223.34   43.36
   6   5 -16   58.11   23.07
  -5   6 -16  136.40   34.07
  -5   6 -15   13.61    7.23
   6   5 -15    0.40   15.43
  -5   6 -14  244.38   44.70
   6   5 -14  377.77   70.25
   6   5 -13  842.79   66.71
   6  -5  13  827.55   75.72
  -5   6 -13  829.55   79.19
   6   5 -13  827.76   97.17
   6   5 -12  142.49   39.71
   6   5 -12  140.70   26.91
   6  -5  12   89.84   23.43
  -5   6 -12   91.80   23.67
   6   5 -11  676.56   54.63
  -5   6 -11  637.88   68.24
   6  -5  11  735.23   66.57
   6   5 -11  721.49   87.86
   6   5 -10  124.16   21.97
   6   5 -10   80.93   25.32
  -5   6 -10   95.35   26.09
   6   5  -9  114.58   20.23
   6   5  -9  116.93   32.29
  -5   6  -9   83.92   22.50
   6   5  -8   33.91   19.98
  -5   6  -8   44.01   16.42
   6   5  -7  108.11   30.60
  -5   6  -7   71.87   28.16
   6   5  -6   80.93   23.88
  -5   6  -6   82.28   21.09
   5   6   6  116.75   30.26
   5   6   5  324.27   47.73
  -5   6  -5  328.97   45.97
   6   5  -5  394.29   56.21
   6   5  -4  227.72   42.12
   5   6   4  287.45   42.33
  -5   6  -4  304.04   42.14
   5   6   3  285.43   41.80
   6   5  -3  359.74   53.85
   6   5  -2  410.75   52.05
  -6  -5  -2  413.82   47.06
   5   6   2  413.71   52.12
   5   6   1  947.73   79.33
   6   5  -1  964.34   80.47
  -6  -5  -1  797.91   68.98
  -6  -5   0  382.20   50.47
   5   6   0  391.84   49.90
   6   5   0  401.08   52.66
   5   6  -1  882.17   80.84
  -6  -5   1  770.48   72.56
  -5  -6  -1  738.80   70.74
   6   5   1  973.27   76.08
   6   5   2  410.01   50.09
   5   6  -2  377.24   52.86
   5   6  -3  374.84   58.21
   6   5   3  371.83   46.62
   6   5   4  245.43   35.02
   5   6  -4  289.54   47.68
   6   5   5  297.10   41.27
   5   6  -5  421.88   59.77
  -6   5  -5  337.81   42.69
   6   5   6   81.75   19.79
  -6   5  -6   71.46   19.48
   5   6  -6   93.66   28.64
   5   6  -7   93.75   37.74
   6   5   7   23.40   16.34
  -6   5  -7   72.06   22.98
   5   6  -8   23.71   12.89
   6   5   8   52.86   14.73
  -6   5  -8   25.93    8.17
   5   6  -9  156.21   42.26
  -6   5  -9   98.96   24.64
   5   6 -10  105.40   33.58
  -6   5 -10  104.68   22.14
   5   6 -11  745.46   63.92
  -6   5 -11  694.57   64.29
   5   6 -11  731.89   93.04
   5   6 -12  134.43   29.07
   5   6 -12  153.90   43.06
  -6   5 -12  151.33   27.85
   5   6 -13  853.90   98.68
  -6   5 -13  808.95   72.24
   5   6 -14  370.14   67.07
  -6   5 -14  282.07   44.06
   5   6 -15    1.23   12.24
  -6   5 -15   24.57   16.09
  -6   5 -16  115.32   29.49
   5   6 -16   98.80   33.88
  -6   5 -17  198.98   36.44
   5   6 -17  166.00   44.54
   5   6 -18   30.61   21.85
  -6   5 -18   24.52   15.53
  -6   5 -19   63.57   22.34
   5   6 -19   75.93   35.43
   6   5  19  118.19   40.78
   5   6 -20   23.63   19.99
  -6   5 -20   57.30   25.05
   6   5  20   29.96   22.58
   5   6 -21   44.74   21.08
  -6   5 -21   45.85   18.78
   6   5  21  101.15   44.68
   5   6 -22   18.63   17.11
   6   5  22   39.47   37.56
   6   5  23  101.64   42.60
   5   6 -23  144.44   48.71
   6   5  24  205.31   62.28
   5   6 -24  327.37   76.24
   6   5  25   73.98   48.47
   5   6 -25   53.48   36.84
   6   5  26  270.26   74.99
   6   5  27   58.71   29.84
   6   5  28   67.35   43.09
  -5   6  29   95.74   46.39
   6   5  29  166.57   59.89
  -5   6  30    2.19   25.22
   6   5  30   41.05   35.60
  -5   6  31  -67.84   36.12
  -5   6  32   -6.94   24.33
  -5   6  33   -0.22   18.87
   6   6   0 4917.52  189.52
   6   6   1   13.26    6.81
   6   6  -1   -4.41   14.92
  -6  -6  -2   32.52   20.35
   6   6  -2   74.07   41.68
   6   6   2   85.33   31.88
   6   6   3  107.79   25.22
   6   6  -3  117.60   28.87
  -6   6  -4  418.89   51.51
   6   6   4  433.52   51.84
   6   6  -4  498.78   65.27
  -6   6  -5  275.53   39.78
   6   6   5  294.03   41.89
   6   6  -5  292.49   49.41
   6   6  -6   49.07   21.76
  -6   6  -6   41.45   16.71
   6   6   6   47.82   15.52
   6   6  -7   14.94   11.86
  -6   6  -7   13.11    9.73
   6   6   7    3.57    6.94
   6   6  -8   20.97   18.04
   6   6   8   15.26   16.62
  -6   6  -8   38.60   18.09
   6   6  -9   15.87   20.18
  -6   6  -9   -5.45    7.80
   6   6 -10    3.72    3.85
   6   6 -10   29.38   27.97
  -6   6 -10   12.72    9.75
   6   6 -11    1.64    7.15
   6   6 -11   -8.16   14.49
  -6   6 -11  -16.96   15.11
   6   6 -12 1879.52  101.64
  -6   6 -12 1903.46  116.02
   6   6 -12 2163.41  155.72
   6   6 -13  252.07   61.76
  -6   6 -13  255.37   43.68
   6   6 -13  224.68   40.08
   6   6 -14  -17.79   13.31
  -6   6 -14   32.95   20.61
   6   6 -15   13.06   18.47
  -6   6 -15    0.62   12.34
   6   6 -16  184.49   47.25
  -6   6 -16  145.78   34.65
   6   6 -17    7.36   16.20
  -6   6 -17    4.57   12.21
  -6   6 -18   40.46   21.31
   6   6 -18   -0.06   11.16
  -6   6 -19   30.86   21.33
   6   6 -19   43.36   25.54
  -6   6 -20    9.80    8.06
   6   6 -20   -6.33   19.94
  -6   6 -21    2.67   13.47
   6   6 -21   13.09   25.41
  -6   6 -22   12.44   16.96
   6   6  22  -20.16   14.46
   6   6 -22   12.80   24.41
   6   6 -23   17.30   21.81
  -6   6 -23    5.80   20.62
   6   6  23   24.41   20.32
   6   6  24  313.71   72.76
   6   6 -24  376.93   85.33
   6   6 -25  963.35  141.82
   6   6  25  572.22  102.72
   6   6  26   15.51   12.22
   6   6  27   29.14   25.31
   6   6  28  431.02   96.66
  -6   6  29    2.75   13.16
   6   6  29  -33.76   30.67
  -6   6  30  -70.98   35.67
   6   6  30  -31.23   30.35
  -6   6  31  -34.55   26.09
  -6   6  32  -36.66   27.51
  -7   0   0  136.07   20.74
  -7   0   0  108.12   17.05
   0   7   0   98.21   25.15
  -7   0   1  133.42   19.18
  -7   0  -1  127.98   21.34
   0   7  -1  263.27   51.00
  -7   0   1  197.32   28.10
  -7   0  -1  128.60   21.30
  -7   0   2  170.73   26.24
  -7   0  -2  180.73   25.94
  -7   0   2  188.90   18.53
   0   7  -2  150.38   34.01
  -7   0  -2  178.51   19.49
  -7   0  -3  383.10   40.11
   0   7  -3  412.31   57.15
  -7   0  -3  336.04   24.81
  -7   0   3  432.19   45.00
  -7   0   4  106.87   23.91
  -7   0  -4  121.69   25.09
   0   7  -4   83.51   24.23
  -7   0  -5 1151.21   79.67
   7   0   5 1410.36   89.55
   0   7  -5 1469.69  108.35
   7   0   6  338.56   45.42
   0   7  -6  385.93   59.18
   7   0   7 2383.02  128.46
   0   7  -7 2248.14  138.80
   7   0   8   96.82   27.05
   0   7  -8   48.03   19.94
   7   0   9   -0.77   11.40
   0   7  -9    8.20    6.54
   7   0  10   87.66   25.42
   0   7 -10   16.77   11.17
   7   0  11  167.78   38.01
   7   0  11  143.35   14.63
   0   7 -11  154.49   37.73
   7   0  12  113.35   32.09
  -7   0  12  117.20   21.95
   7   0  12  125.80   17.20
   0   7 -12   86.01   31.01
   7   0  13   66.78   24.88
  -7   0  13   85.24   19.89
   0   7 -13   61.21   24.73
   7   0  13   63.44   14.32
  -7   0  14   51.00   15.30
   7   0  14   46.97   22.00
   0   7 -14   36.55   16.40
   7   0  14   80.61   17.62
   0   7 -15  381.11   64.37
  -7   0  15  370.32   46.14
   7   0  15  340.12   59.66
   7   0  15  310.93   35.06
  -7   0  16   53.73   17.31
   7   0  16   27.60   18.23
   0   7 -16   69.86   23.80
   7   0  16   37.81   12.74
  -7   0  17   33.06   14.58
   7   0  17  -20.30   15.70
   0   7 -17   48.60   22.90
   7   0  17   11.92    7.67
  -7   0  18   14.79   10.01
   7   0  18   29.35   21.74
   0   7 -18   24.34   11.89
  -7   0  19   16.34   12.03
   0   7 -19    0.92   15.50
  -7   0  20   38.31   19.11
   7   0  20   25.00   17.21
   0   7 -20   13.89   20.70
   7   0  21  -14.88   22.79
  -7   0  21   22.76   13.88
   0   7 -21   36.46   24.36
   7   0  22   73.39   34.13
  -7   0  22   54.94   20.48
   0   7 -22   50.28   28.89
   7   0  23   -0.60   14.10
  -7   0  23   19.46    9.24
   0   7 -23   -2.98   14.05
   7   0  24   76.38   44.67
  -7   0  24   72.77   30.47
   0   7 -24   60.05   35.43
   7   0  25  182.25   56.09
  -7   0  25  231.19   51.92
   0   7 -25  174.30   56.89
   7   0  26   95.11   40.60
  -7   0  26  206.66   53.18
   0   7 -26  170.07   59.19
   7   0  27   15.85   21.30
  -7   0  27   58.45   32.30
   0   7 -27  -28.67   23.52
   7   0  28    4.85   16.50
   0   7  29   48.09   29.28
   0   7  30   23.60   10.87
   0   7  31   19.15   19.78
   0   7  32   29.69   38.96
   1   7  31   36.22   25.15
   1   7  30   38.03   23.90
   1   7  29   87.90   49.76
   1   7  28   39.15   28.48
  -7   1  28   10.04    7.11
  -7   1  27   55.01   30.24
  -1   7 -27   48.75   29.81
  -1   7 -26   54.97   31.45
  -7   1  26   -3.07   12.80
  -7   1  25   39.95   21.68
  -1   7 -25   37.60   26.26
  -7   1  24  195.13   46.86
  -1   7 -24  196.70   53.79
   7  -1  23    2.89   15.91
  -7   1  23   20.70   14.44
  -1   7 -23   29.30   29.56
   7  -1  22    0.97   15.48
  -7   1  22   33.77   19.72
  -1   7 -22    2.16   15.41
   7  -1  21  114.34   43.39
  -7   1  21   86.27   29.42
  -1   7 -21  150.37   42.01
  -7   1  20   14.61   13.84
   7  -1  20   13.55   10.80
  -1   7 -20    4.32   10.53
   7  -1  19  -19.78   23.38
  -7   1  19   19.13   18.68
  -1   7 -19  -45.26   23.83
   7  -1  18   -4.17   21.78
  -7   1  18   -3.67    5.65
  -1   7 -18  -22.96   19.31
   7  -1  17   14.74   23.66
  -7   1  17   29.66   21.89
  -1   7 -17   53.18   28.32
   7  -1  17   17.58   18.72
  -1   7 -16  279.73   60.22
   7  -1  16  292.46   61.66
   7  -1  16  280.86   38.36
   7  -1  15  111.56   32.92
  -1   7 -15  114.20   33.27
   7  -1  15   86.12   18.39
   7  -1  14   -9.41   23.39
  -1   7 -14   -6.90   10.77
   7  -1  14    5.24    3.85
  -1   7 -13  257.21   51.75
   7  -1  13  245.02   49.03
   7  -1  13  250.76   28.54
   7  -1  12  188.28   41.53
   7  -1  12  184.82   20.92
  -1   7 -12  183.43   41.61
   7  -1  11   30.14   14.22
   7  -1  11   32.25    6.87
  -1   7 -11   43.88   20.97
  -1   7 -10   79.83   28.91
  -1   7  -9  114.63   29.10
  -1   7  -8  788.60   88.25
   7   1  -8  655.48   72.25
   7   1  -7  826.81   73.31
  -1   7  -7  785.48   82.59
   7   1  -6  261.75   41.93
  -1   7  -6  245.22   45.55
   7   1  -5  293.82   40.39
  -1   7  -5  255.87   42.45
  -7   1   4 1150.51   79.74
   7   1  -4 1156.05   76.83
  -7  -1  -4  953.24   37.42
  -1   7  -4 1357.08  102.51
   7   1  -3  100.61   20.74
  -7   1   3  113.99   21.82
  -1   7  -3  115.38   29.43
  -7  -1  -3  116.78   16.37
   7   1  -2   19.05   11.90
  -7   1   2   18.24    8.35
  -1   7  -2   -0.98   11.87
  -7  -1  -2    1.34    3.39
  -7   1   1  525.86   42.98
   7   1  -1  494.21   41.52
  -7  -1  -1  517.86   40.50
  -1   7  -1  406.48   53.75
   1   7   1  462.13   56.98
  -7  -1   0   33.82   11.79
  -7   1   0   26.17   10.35
   7   1   0   15.67    7.64
   1   7   0   33.98   16.82
  -7   1  -1  459.31   34.61
   7   1   1  465.10   34.17
  -7   1  -1  513.69   44.17
   1   7  -1  458.46   58.00
  -7  -1   1  521.53   45.56
   7   1   2   12.37    6.40
  -7  -1   2    9.96    8.85
  -7   1  -2   14.24    5.93
   1   7  -2    8.16   11.17
   7   1   2    1.61    7.14
  -7   1  -2   21.41   11.28
  -7   1  -3  110.39   13.64
  -7  -1   3  111.64   24.49
  -7   1  -3  130.08   25.33
   7   1   3   97.69   19.01
   7   1   3  103.08   12.77
   1   7  -3   89.09   25.33
  -7   1  -4 1010.88   73.69
   7   1   4 1016.26   70.68
   1   7  -4 1211.97  100.10
  -7   1  -4  872.55   32.69
  -7  -1   4 1204.67   81.55
  -7   1  -5  327.56   42.69
   7   1   5  265.55   36.00
   1   7  -5  276.84   47.31
   7   1   6  197.46   34.53
   1   7  -6  216.98   47.48
   7   1   7  740.51   68.45
   1   7  -7  824.55   85.42
  -7  -1   8  617.37   31.08
   7   1   8  670.05   67.04
   1   7  -8  611.79   78.63
   7   1   9  132.54   31.82
  -7  -1   9  110.90   15.67
   1   7  -9  121.74   36.00
  -7  -1  10  123.95   19.16
   7   1  10  136.96   32.24
   1   7 -10   86.42   23.79
   7   1  11   70.63   25.98
  -7  -1  11   60.56   13.31
   1   7 -11   51.31   22.66
   7   1  11   49.45    8.92
  -7  -1  12  222.06   29.07
   7   1  12  231.02   44.91
   1   7 -12  210.35   46.21
   7   1  12  199.22   20.80
   7   1  13  206.67   43.21
  -7  -1  13  238.65   31.11
   1   7 -13  209.74   49.04
   7   1  13  200.63   23.56
   7   1  14   18.34    8.84
  -7  -1  14   10.31    5.73
   1   7 -14   26.15   21.76
   7   1  14    9.46    5.13
   7   1  15  104.28   32.81
  -7  -1  15   88.70   21.29
   1   7 -15  112.81   32.64
   7   1  15   96.49   19.69
  -7  -1  16  297.95   41.42
   7   1  16  277.19   55.13
   1   7 -16  219.47   51.44
   7   1  16  250.07   31.77
  -7  -1  17   22.67   18.74
   7   1  17   14.37   25.06
   7   1  17   14.00   12.82
   1   7 -17   58.76   25.85
  -7  -1  18    4.11    7.35
   7   1  18  -25.57   22.92
   1   7 -18   -9.48   13.09
   7   1  19   -1.28    9.03
  -7  -1  19    6.64   10.28
   1   7 -19   -6.61   10.37
  -7  -1  20   14.86    7.45
   7   1  20    9.43    9.75
   1   7 -20   12.28   17.07
  -7  -1  21  112.82   37.89
   7   1  21   28.76   31.86
   1   7 -21  125.51   38.76
  -7  -1  22   39.11   19.69
   7   1  22   30.04   25.67
   1   7 -22   10.50   15.56
  -7  -1  23    1.58    6.24
   7   1  23   46.81   37.35
   1   7 -23   21.42   25.28
  -7  -1  24  261.28   53.87
   7   1  24  185.67   55.04
   1   7 -24  204.64   56.86
  -7  -1  25   33.15   22.88
   7   1  25   15.71   10.67
   1   7 -25    9.31   10.56
  -7  -1  26    5.73   14.05
   7   1  26  -28.87   33.21
   1   7 -26   30.48   24.93
   7   1  27   58.73   43.03
   1   7 -27   47.68   32.27
   7   1  28   33.16   27.87
   7   1  29   16.24   15.29
  -1   7  29   53.79   33.45
   7   1  30    2.53   20.69
  -1   7  30    4.88   16.83
   7   1  31   14.39   17.39
  -1   7  31  -14.02   12.94
  -1   7  32   43.08   40.19
   2   7  31  -31.70   38.47
   2   7  30   34.46   29.01
   2   7  29   -1.32   20.93
  -7   2  28   14.31   14.90
   2   7  28   28.73   17.13
  -7   2  27   30.93   15.70
  -2   7 -27   23.68   26.63
  -7   2  26   31.49   23.24
  -2   7 -26   92.48   43.24
  -7   2  25   14.46   13.61
  -2   7 -25   -2.93   12.15
  -7   2  24  158.82   45.25
  -2   7 -24  108.87   41.04
  -7   2  23   54.27   22.63
  -2   7 -23   30.51   15.05
  -7   2  22   45.01   20.66
  -2   7 -22   57.16   35.31
  -7   2  21   26.98   13.60
  -2   7 -21   32.11   20.05
  -7   2  20   72.77   31.91
  -2   7 -20   33.78   20.40
  -2   7 -19   48.23   29.33
  -2   7 -18   60.43   30.50
  -2   7 -17  134.71   37.68
   7  -2  17  120.85   27.67
  -2   7 -16  290.87   55.62
   7  -2  16  293.33   39.98
  -2   7 -15  138.68   34.96
   7  -2  15  143.47   26.02
  -2   7 -14  193.03   42.89
   7  -2  14  176.20   26.47
   7   2 -14  149.29   38.02
  -2   7 -13    5.14   12.42
   7   2 -13   21.63   14.62
   7  -2  13    2.20    4.46
   7   2 -12  153.48   38.85
   7  -2  12  150.30   20.35
  -2   7 -12  163.79   39.08
   7   2 -11  101.22   27.69
   7  -2  11  142.62   18.50
  -2   7 -11  130.84   37.04
   7   2 -10  370.11   56.47
  -2   7 -10  351.82   57.15
   7   2  -9   51.33   21.06
  -2   7  -9   70.59   28.96
   7   2  -8  123.39   30.80
  -2   7  -8  151.46   37.14
   7   2  -7  149.58   33.55
  -2   7  -7  136.05   38.44
   7   2  -6   24.80   10.20
  -2   7  -6   28.14   13.76
  -2   7  -5  713.58   72.11
   7   2  -5  507.44   56.76
   7   2  -4  143.81   27.55
  -2   7  -4  119.06   31.67
  -7  -2  -4  147.95   17.60
   7   2  -3   55.28   16.35
  -7  -2  -3   47.11   10.33
  -2   7  -3   57.58   25.78
   7   2  -2  180.65   27.57
   2   7   2  146.75   32.22
  -7  -2  -2  183.79   25.44
  -2   7  -2  159.99   35.28
   7   2  -1  125.77   23.72
   7   2  -1  109.61   13.72
  -2   7  -1   86.11   27.53
   2   7   1  122.77   33.73
  -7  -2  -1   72.88   19.49
   7   2   0  129.24   20.44
   7   2   0  152.98   18.46
   2   7   0  111.01   27.08
  -7  -2   0   92.03   21.76
   7   2   1   97.56   17.03
   7   2   1  110.40   18.84
   2   7  -1  144.39   37.68
  -7  -2   1  112.61   23.16
   7   2   2  220.54   27.46
   2   7  -2  225.17   41.06
  -7  -2   2  221.20   32.69
   7   2   2  194.84   23.04
   7   2   3   29.65   11.51
  -7  -2   3   53.11   16.74
   7   2   3   27.79    8.28
   2   7  -3   27.14   14.34
   7   2   4  144.32   24.46
  -7   2  -4  134.94   26.74
  -7  -2   4  143.05   28.92
   7   2   4  119.92   15.86
   2   7  -4  123.22   35.87
   7   2   5  552.94   53.13
  -7   2  -5  580.31   32.62
   2   7  -5  505.08   68.93
   7   2   5  448.09   27.57
   7   2   6   46.52   17.91
  -7   2  -6   29.35    6.97
   2   7  -6   12.74   13.11
   7   2   6   28.85    6.32
   7   2   7   94.06   25.17
  -7   2  -7  118.59   13.49
   7   2   7   75.53   10.73
   2   7  -7   30.16   20.30
   7   2   8  103.92   27.14
   7   2   8  145.50   13.76
  -7   2  -8  110.21   11.77
   2   7  -8  108.24   31.55
  -7   2  -9   43.06    7.79
   7   2   9   90.35   25.65
   7   2   9   60.05    9.64
   2   7  -9   73.91   30.81
   7   2  10  353.77   50.97
  -7   2 -10  339.67   23.73
   2   7 -10  387.39   61.77
   7   2  11  234.03   44.70
   2   7 -11   96.21   28.38
   7   2  11  129.36   15.92
   7   2  12  108.18   15.48
   2   7 -12  120.77   32.51
   7   2  12  137.14   33.34
   7   2  13   -2.89    6.20
   2   7 -13  -18.88   21.38
   7   2  13   12.42   12.91
   7   2  14  137.96   20.54
   2   7 -14  184.59   45.13
   7   2  14  179.89   42.64
   2   7 -15  136.20   41.84
   7   2  15  105.55   19.52
   7   2  15  115.10   35.12
   2   7 -16  211.11   50.84
   7   2  16  170.28   26.71
   7   2  16  245.50   53.28
   7   2  17   73.40   17.95
   2   7 -17  117.88   36.80
   7   2  17  103.44   34.19
   2   7 -18   25.90    9.71
   7   2  18   28.63   16.09
   2   7 -19   41.70   25.68
   7   2  19   40.74   26.40
   2   7 -20   88.03   35.75
   7   2  20   56.80   40.28
   2   7 -21   67.69   43.04
   7   2  21   61.95   38.30
   2   7 -22   59.78   37.93
   7   2  22   82.35   37.99
   2   7 -23   30.32   32.48
   7   2  23   74.48   22.91
   2   7 -24  183.81   57.00
   7   2  24  126.77   43.39
   7   2  25   47.79   27.16
   2   7 -25   58.64   34.31
   7   2  26   36.65   29.18
   2   7 -26    0.65   12.99
   7   2  27    9.62   13.97
   2   7 -27   -3.00   12.04
   7   2  28  -16.75   23.80
  -2   7  29   -4.11   16.71
   7   2  29    1.29   28.70
  -2   7  30   41.59   42.92
   7   2  30   47.80   38.10
  -2   7  31   50.91   33.97
   7   2  31   13.85   10.92
  -2   7  32   14.14   29.69
   3   7  31   -0.97   14.16
   3   7  30   27.96   23.98
  -7   3  29   49.82   30.97
   3   7  29   54.25   29.67
  -7   3  28   -2.66   17.20
   3   7  28   44.64   45.49
   3   7  27   73.01   29.60
  -7   3  27   37.53   23.36
  -3   7 -27   53.45   31.23
  -7   3  26   -5.91   22.20
  -3   7 -26   29.68   20.82
  -7   3  25   27.36   15.07
  -3   7 -25   15.66   17.88
  -3   7 -24  -18.87   20.20
  -7   3  24  -29.53   20.02
  -3   7 -23   43.80   26.49
  -7   3  23   60.94   33.23
  -3   7 -22  -14.18   18.90
  -3   7 -21  179.91   49.99
  -3   7 -20   11.48   18.01
  -3   7 -19  130.93   44.76
  -3   7 -18  119.11   36.50
  -3   7 -17  101.93   31.83
   7  -3  17  103.23   26.01
   7   3 -17  130.20   44.97
  -3   7 -16   39.01   18.47
   7  -3  16   61.45   17.49
   7   3 -16   61.91   28.91
  -3   7 -15  256.59   50.10
   7  -3  15  237.93   35.49
   7   3 -15  220.37   50.95
  -3   7 -14   80.82   29.53
   7   3 -14  126.06   36.38
   7  -3  14   89.92   20.76
   7   3 -13   11.24   11.57
   7  -3  13   29.06   12.39
  -3   7 -13   30.56   17.96
   7   3 -12   24.56    9.62
   7  -3  12   50.16   13.91
  -3   7 -12   37.80   20.13
   7   3 -11   93.49   29.65
  -3   7 -11   94.72   30.24
   7   3 -10  136.35   34.58
  -3   7 -10  154.03   39.42
  -3   7  -9  438.86   59.43
   7   3  -9  431.96   57.90
  -3   7  -8  357.01   64.81
   7   3  -8  406.71   55.17
  -3   7  -7  662.76   71.99
   7   3  -7  631.50   66.37
   7   3  -6  162.55   33.17
  -3   7  -6  126.71   31.16
  -3   7  -5  475.29   57.02
   7   3  -5  484.31   55.20
   3   7   4  331.15   51.68
  -3   7  -4  402.25   55.99
   7   3  -4  399.55   50.96
   7   3  -3  195.79   30.46
   3   7   3  159.28   32.92
  -7  -3  -3  178.99   26.42
  -3   7  -3  170.16   32.86
   7   3  -2   26.91   16.13
  -7  -3  -2   34.63   16.55
   3   7   2   45.31   17.67
  -3   7  -2   66.53   17.53
   3   7   1  243.72   42.40
  -7  -3  -1  280.68   36.30
   7   3  -1  275.34   34.81
   7   3   0   89.20   20.77
   3   7   0   72.73   24.64
  -7  -3   0  109.62   26.44
  -7  -3   1  174.26   35.54
   3   7  -1  261.72   44.42
   7   3   1  260.83   32.25
   7   3   2   32.75   15.08
  -7  -3   2   79.17   21.22
   3   7  -2   68.17   24.33
   7   3   3  204.01   25.74
   3   7  -3  220.63   43.74
  -7  -3   3  168.18   32.88
   3   7  -4  401.87   65.19
   7   3   4  282.12   33.21
  -7   3  -5  508.66   38.22
   7   3   5  374.37   37.63
   3   7  -5  524.32   66.03
  -7   3  -6  136.78   19.08
   7   3   6  142.19   21.65
   3   7  -6  129.51   37.59
   7   3   7  678.24   42.27
   3   7  -7  577.85   73.81
  -7   3  -7  640.11   41.90
   3   7  -8  333.18   75.19
  -7   3  -8  474.45   37.24
   7   3   8  321.50   29.65
   7   3   9  516.26   62.27
   7   3   9  464.05   35.32
   3   7  -9  424.65   68.92
  -7   3  -9  472.59   35.21
  -7   3 -10  132.92   19.50
   3   7 -10  142.96   40.96
   7   3  10  179.67   35.55
   3   7 -11  110.95   30.28
  -7   3 -11  116.31   18.24
   7   3  11   87.26   24.99
   3   7 -12   43.34   14.00
  -7   3 -12   53.95   13.57
   7   3  12   55.01   22.22
   3   7 -13   61.03   24.38
  -7   3 -13   34.18   11.48
   7   3  13   44.15   26.04
  -7   3 -14  108.81   21.23
   3   7 -14  103.63   37.81
   7   3  14  132.81   37.76
   7   3  14   80.92   16.99
   3   7 -15  199.52   50.46
   7   3  15  178.60   27.14
  -7   3 -15  264.59   34.45
   7   3  15  260.18   54.42
   7   3  16   63.41   17.16
   3   7 -16   84.30   33.35
   7   3  16   57.14   27.65
   3   7 -17  114.47   38.92
   7   3  17   86.85   24.11
   7   3  17  103.41   40.79
   3   7 -18  127.83   38.58
   7   3  18  129.01   42.91
   3   7 -19  128.81   39.76
   7   3  19  171.49   50.11
   3   7 -20   -6.58   12.89
   7   3  20   15.95   21.37
   3   7 -21  114.75   42.56
   7   3  21  137.94   46.70
   3   7 -22  -20.29   25.78
   7   3  22  -23.58   18.31
   3   7 -23   73.76   35.61
   7   3  23   71.99   38.90
   3   7 -24    8.91   19.07
   7   3  24  -14.92   33.03
   7   3  25   40.25   26.71
   3   7 -25   24.17   20.68
   7   3  26   -4.21   11.06
   3   7 -26   -1.26   10.55
   7   3  27   44.13   18.89
   3   7 -27   77.26   42.79
   7   3  28  -32.37   34.66
   7   3  29   32.04   29.25
   7   3  30   26.73   31.06
  -3   7  30   32.89   26.24
  -3   7  31   17.17   26.82
  -3   7  32  -43.16   30.82
   4   7  30   48.80   31.71
  -7   4  29  -15.97   26.03
   4   7  29   19.24   20.47
   4   7  28   63.42   32.41
  -7   4  28  113.63   47.16
  -7   4  27  -18.60    9.38
   4   7  27  -13.60   18.44
  -4   7 -26   93.74   41.33
  -7   4  26  136.32   46.24
   4   7  26  114.45   48.65
  -4   7 -25   75.93   33.71
  -7   4  25  133.45   43.16
  -4   7 -24  105.73   39.84
  -4   7 -23   -6.88   14.18
  -4   7 -22  129.53   41.21
  -4   7 -21   84.48   30.72
  -4   7 -20  101.13   34.78
   7   4 -20   64.27   38.28
  -4   7 -19   56.13   24.76
   7   4 -19  106.04   44.11
  -4   7 -18  368.49   61.45
   7   4 -18  400.87   76.41
  -4   7 -17   72.02   26.50
   7   4 -17   79.76   35.24
  -4   7 -16  143.70   43.80
   7   4 -16  163.82   50.88
   7  -4  16  134.56   33.77
   7   4 -15  270.47   55.28
  -4   7 -15  306.63   53.95
   7  -4  15  225.77   35.67
  -4   7 -14  113.72   31.10
   7   4 -14  133.58   37.27
   7  -4  14  112.72   24.70
   7   4 -13   -7.12   15.66
   7  -4  13    7.41    4.92
  -4   7 -13   11.80   10.88
   7   4 -12  305.66   54.53
   7  -4  12  414.78   43.80
  -4   7 -12  306.47   51.37
   7   4 -11    2.33   10.15
  -4   7 -11   20.93   15.08
  -4   7 -10  549.50   67.94
   7   4 -10  511.99   68.82
  -4   7  -9  634.85   73.56
   7   4  -9  613.36   73.65
   7   4  -8   48.91   16.47
  -4   7  -8   63.93   25.02
   7   4  -7  404.48   25.47
  -4   7  -7  347.33   50.78
   7   4  -7  460.26   62.43
   7   4  -6   27.39   14.60
  -4   7  -6   10.90    9.13
   7   4  -6   11.77    3.14
   7   4  -5   89.99   29.23
   4   7   5  118.04   35.55
  -4   7  -5   61.51   22.68
   7   4  -4   72.76   18.44
  -4   7  -4   85.33   21.43
   4   7   4   66.17   22.17
  -7  -4  -3  663.52   56.70
  -4   7  -3  820.24   75.00
   4   7   3  732.44   73.94
   7   4  -3  832.83   74.09
  -7  -4  -2  799.82   61.96
   4   7   2  737.12   75.10
   7   4  -2  830.03   70.22
   4   7   1  281.93   47.72
  -7  -4  -1  194.53   35.55
   7   4  -1  296.10   43.95
  -7  -4   0  408.92   48.09
   4   7   0  379.38   53.37
   7   4   0  435.92   47.11
   7   4   1  246.05   38.82
  -7  -4   1  291.20   44.88
   4   7  -1  273.40   55.37
  -7  -4   2  772.80   73.21
   7   4   2  719.29   58.14
   4   7  -2  796.36   83.15
   7   4   3  725.20   58.13
   4   7  -3  671.39   75.65
   7   4   4   64.24   16.98
   4   7  -4   42.70   17.34
  -7   4  -5  124.94   24.21
   7   4   5   96.82   23.79
   4   7  -5   98.91   35.85
  -7   4  -6   -2.80    6.86
   7   4   6    6.83    4.56
   4   7  -6  -14.19   19.01
  -7   4  -7  403.89   39.29
   7   4   7  409.14   39.76
   4   7  -7  396.24   64.84
   7   4   8   31.87    9.73
  -7   4  -8   41.28   13.08
   4   7  -8   14.93   11.23
   7   4   9  550.00   47.31
  -7   4  -9  717.88   54.90
   4   7  -9  637.94   79.52
  -7   4 -10  523.80   46.05
   4   7 -10  477.35   71.76
  -7   4 -11   21.43   12.18
   4   7 -11   18.99   19.05
   4   7 -12  301.82   61.28
  -7   4 -12  386.36   40.79
   4   7 -13   58.06   30.36
  -7   4 -13    2.59    5.51
   7   4  14  140.62   39.32
  -7   4 -14  136.65   25.57
   4   7 -14  133.35   37.04
   7   4  15  254.28   54.14
   4   7 -15  264.81   56.75
  -7   4 -15  257.68   36.11
  -7   4 -16  149.62   30.57
   4   7 -16  196.38   47.75
   7   4  16  142.29   44.89
  -7   4 -17  100.46   23.99
   4   7 -17   54.01   26.87
   7   4  17  149.25   44.87
  -7   4 -18  257.89   44.41
   4   7 -18  350.79   69.83
   7   4  18  329.78   65.40
   4   7 -19   70.04   32.06
   7   4  19   85.55   35.15
   4   7 -20   86.40   41.19
   7   4  20  118.70   43.51
   4   7 -21   70.39   31.21
   7   4  21  125.98   48.43
   4   7 -22   73.36   33.38
   7   4  22  116.39   38.01
   4   7 -23   -8.55   28.89
   7   4  23    7.89   12.69
   4   7 -24  122.06   48.75
   7   4  24  133.72   44.91
   7   4  25  103.24   33.56
   4   7 -25  133.28   50.99
   7   4  26  147.30   55.72
   4   7 -26  101.26   49.18
   7   4  27   13.43   22.38
   4   7 -27  -31.89   26.11
   7   4  28   89.95   45.04
   7   4  29   27.02   31.63
  -4   7  30   35.32   39.46
   7   4  30   63.52   40.12
  -4   7  31   52.51   31.37
  -4   7  32   17.16   19.34
  -4   7  33   58.56   41.46
   5   7  30   96.40   48.51
   5   7  29   48.22   17.64
  -7   5  29   24.66   23.65
  -7   5  28   38.36   24.93
   5   7  28   33.18   36.74
   5   7  27  181.88   63.72
  -7   5  27  219.88   57.89
   5   7  26   32.36   27.92
   5   7  25  133.46   53.20
  -5   7 -25  232.07   59.20
  -5   7 -24   33.97   25.10
  -5   7 -23  229.17   55.20
  -5   7 -22   97.53   27.42
   7   5 -22   79.58   39.41
  -5   7 -21    1.26    8.41
   7   5 -21   44.07   22.55
  -5   7 -20   -0.84   14.68
   7   5 -20   43.77   28.69
  -5   7 -19   10.40   13.04
   7   5 -19   34.18   27.97
   7   5 -18  123.33   38.50
  -5   7 -18  155.02   39.72
   7   5 -17   94.97   37.88
  -5   7 -17  123.76   36.29
   7   5 -16   -8.10   13.60
  -5   7 -16   -1.48   14.69
  -5   7 -15  234.31   46.40
   7   5 -15  255.46   59.00
   7   5 -14    6.83    9.24
   7  -5  14   44.92   16.86
  -5   7 -13  450.48   60.81
   7  -5  13  478.82   53.42
   7   5 -13  440.77   70.15
   7   5 -12   63.73   31.37
  -5   7 -12  -15.94   15.71
   7   5 -11  674.89   50.56
  -5   7 -11  598.06   70.08
   7   5 -11  670.67   82.26
   7   5 -10  576.67   44.65
  -5   7 -10  564.12   73.19
   7   5 -10  647.18   80.70
   7   5  -9  191.54   23.69
   7   5  -9  116.25   31.90
  -5   7  -9  142.93   34.64
   7   5  -8   40.74   11.08
   7   5  -8   11.98   15.66
  -5   7  -8   15.64   13.47
   7   5  -7   45.61   23.39
  -5   7  -7   25.49    8.43
   5   7   7   37.45   17.30
   5   7   6  222.97   40.69
  -5   7  -6  253.38   41.70
   7   5  -6  323.57   51.39
   7   5  -5    3.27   11.81
   5   7   5    0.74   10.60
  -5   7  -5   -5.55   14.15
   7   5  -4   74.74   28.63
   5   7   4   49.41   20.83
  -5   7  -4   82.65   29.19
   7   5  -3  250.14   40.69
  -5   7  -3  211.72   38.71
   5   7   3  197.65   35.20
  -7  -5  -3  235.74   37.82
   5   7   2 1122.45   90.42
  -7  -5  -2 1034.58   78.56
   7   5  -2 1226.93   90.94
   7   5  -1  972.18   79.01
   5   7   1  978.48   83.81
  -7  -5  -1  946.69   77.69
  -7  -5   0  -13.24    9.98
   7   5   0  122.57   36.43
   5   7   0   60.16   37.75
   5   7  -1 1021.86   92.71
   7   5   1 1002.58   78.16
   7   5   2 1068.86   80.09
   5   7  -2 1172.83   98.05
   5   7  -3  206.49   42.73
   7   5   3  188.68   33.95
   7   5   4   94.15   26.53
   5   7  -4   25.98   32.54
  -7   5  -5   -2.34    6.48
   7   5   5    5.61    6.62
   5   7  -5   -0.56   16.50
  -7   5  -6  242.17   36.05
   7   5   6  256.05   38.27
   5   7  -6  227.09   51.30
  -7   5  -7   16.88    6.53
   7   5   7   43.01   13.66
   5   7  -7   17.46   18.29
   7   5   8   37.43   14.03
  -7   5  -8   45.09   16.26
   5   7  -8   86.69   37.01
   5   7  -9  131.96   37.29
   7   5   9  143.37   27.57
  -7   5  -9  102.03   23.21
   7   5  10  510.50   51.23
  -7   5 -10  622.17   58.27
   5   7 -10  714.76   89.18
  -7   5 -11  695.50   60.18
   5   7 -11  586.12   83.96
   5   7 -12   22.39   26.03
  -7   5 -12    6.99    6.52
  -7   5 -13  481.20   51.61
   5   7 -13  495.22   77.11
   5   7 -14   67.84   33.17
  -7   5 -14   70.90   19.80
   5   7 -15  194.78   52.59
  -7   5 -15  254.59   38.51
  -7   5 -16   -3.33    4.82
   5   7 -16   -7.01   12.63
   5   7 -17  127.01   45.84
  -7   5 -17  108.41   25.71
  -7   5 -18  137.33   31.13
   5   7 -18  143.55   45.04
   7   5  18  169.23   46.88
  -7   5 -19   21.75   14.94
   5   7 -19   26.33   22.73
   7   5  19   27.75   18.96
   5   7 -20   43.63   18.38
   7   5  20    3.58   12.18
  -7   5 -20   15.27   11.98
   5   7 -21    1.27   11.84
   7   5  21   15.81   21.26
   5   7 -22  112.25   38.26
   7   5  22  117.93   41.99
   5   7 -23  185.28   59.29
   7   5  23  135.44   46.24
   5   7 -24   -5.76   16.96
   7   5  24  -27.79   25.33
   7   5  25  231.36   68.27
   5   7 -25  156.06   59.89
   5   7 -26   57.27   34.51
   7   5  26   26.88   26.19
   7   5  27   72.73   38.38
   5   7 -27  130.07   58.70
   7   5  28   -5.41   17.84
   7   5  29   53.22   42.21
   7   5  30   64.19   39.79
  -5   7  30   86.01   35.31
  -5   7  31   20.00   12.91
  -5   7  32   13.94   23.56
  -5   7  33  -42.99   30.92
  -7   6  30   23.78   28.40
   6   7  29  129.87   54.47
  -7   6  29   65.48   33.20
   6   7  28  102.71   48.17
   6   7  27   57.81   34.22
   6   7  26  175.06   62.43
   6   7  25   93.96   40.55
   6   7  24  176.58   55.20
   7   6 -24  367.22   87.86
  -6   7 -23  139.56   40.62
   7   6 -23   94.02   56.84
  -6   7 -22   11.22   21.26
   7   6 -22   22.99   29.83
  -6   7 -21   45.66   30.66
   7   6 -21   -2.47   18.31
  -6   7 -20   -7.03   11.33
   7   6 -20  -20.84   17.77
   7   6 -19  -20.68   25.45
  -6   7 -19   22.34   14.07
   7   6 -18  -26.31   19.73
  -6   7 -18  -13.16   11.39
   7   6 -17   94.06   34.62
  -6   7 -17   78.13   26.51
   7   6 -16   41.36   23.86
  -6   7 -16   77.85   25.00
   7   6 -15   94.67   36.18
  -6   7 -15   58.43   22.76
  -6   7 -14  179.89   38.34
   7   6 -14  213.00   59.49
   7   6 -13  414.29   72.59
   7   6 -13  325.17   40.98
  -6   7 -13  346.79   53.94
   7   6 -12  236.41   34.44
   7   6 -12  256.19   55.39
  -6   7 -12  218.24   40.98
   7   6 -11  915.57   63.51
  -6   7 -11 1111.67   95.29
   7   6 -11 1175.11  113.83
   7   6 -10  153.97   25.01
   7   6 -10  128.12   37.83
  -6   7 -10  161.78   35.39
   7   6  -9   96.86   35.95
  -6   7  -9   70.80   23.14
   7   6  -8   29.78   23.25
  -6   7  -8   21.01   14.52
   6   7   8    6.30    6.15
   7   6  -7   58.75   33.12
   6   7   7   17.14   16.91
  -6   7  -7   35.92   22.11
   7   6  -6  131.66   33.27
   6   7   6  103.62   27.41
  -6   7  -6  137.21   29.91
   7   6  -5   26.91   22.49
  -6   7  -5    6.36   10.44
   6   7   5    3.39   12.54
   6   7   4  287.36   44.29
  -6   7  -4  257.93   42.80
   7   6  -4  278.74   48.58
   6   7   3  151.15   36.33
   7   6  -3  215.06   51.60
   7   6  -2  387.61   56.89
   6   7   2  388.81   55.56
   7   6  -1 1550.82  109.86
   6   7   1 1553.70  113.94
   7   6   0  265.28   43.79
   6   7   0  284.82   49.25
   6   7  -1 1583.67  115.82
   7   6   1 1394.09  102.14
   6   7  -2  415.62   59.32
   7   6   2  476.27   56.33
   6   7  -3  237.39   55.21
   7   6   3  140.48   38.28
   7   6   4  238.50   40.73
   6   7  -4  263.28   49.73
  -7   6  -5   21.35   12.49
   7   6   5    4.56    6.40
   6   7  -5   22.31   19.37
  -7   6  -6  113.42   25.22
   7   6   6  111.23   26.97
   6   7  -6  150.69   37.19
   6   7  -7   59.00   25.49
   7   6   7   23.73   14.91
  -7   6  -7   37.99   17.25
   7   6   8    0.88    4.69
  -7   6  -8   -3.97   13.09
   6   7  -9   45.00   28.62
   7   6   9   58.91   16.58
  -7   6  -9   49.99   20.06
   6   7 -10  162.81   46.31
   7   6  10  159.30   30.14
  -7   6 -10  170.98   33.30
   6   7 -11  773.88   67.52
  -7   6 -11 1064.88   87.46
   6   7 -11 1001.78  118.54
   6   7 -12  296.24   69.31
  -7   6 -12  310.63   44.09
   6   7 -13  341.15   70.05
  -7   6 -13  328.24   48.01
  -7   6 -14  126.27   28.11
   6   7 -14  183.31   50.71
  -7   6 -15   59.57   20.10
   6   7 -15   28.49   21.89
   6   7 -16  119.25   40.76
  -7   6 -16   94.90   26.75
   6   7 -17  128.46   43.80
  -7   6 -17  132.57   30.64
   6   7 -18   30.95   21.22
  -7   6 -18   -0.88    7.07
  -7   6 -19    1.62   11.62
   6   7 -19  -26.76   28.55
   7   6  20    9.43   17.29
  -7   6 -20    4.15    7.53
   6   7 -20    0.55   18.27
   7   6  21  -20.27   26.46
  -7   6 -21   14.65    8.25
   6   7 -21  -14.66   22.28
   7   6  22   39.42   20.07
   6   7 -22   24.74   27.42
   7   6  23  140.90   55.93
   6   7 -23   81.27   35.97
   7   6  24  161.59   59.86
   6   7 -24  205.14   70.92
   7   6  25   63.54   44.83
   6   7 -25   11.75   21.73
   7   6  26  219.12   64.85
   6   7 -26  211.17   75.24
   7   6  27  143.62   55.97
   6   7 -27   39.47   36.82
   7   6  28   71.48   42.14
   7   6  29   92.84   46.64
  -6   7  30   11.56   25.56
  -6   7  31   57.44   26.00
  -6   7  32   47.61   33.96
   7   7   0  117.54   34.91
   7   7   1  699.47   76.99
   7   7  -1  615.23   75.03
   7   7   2  672.69   76.53
   7   7  -2  614.01   76.88
   7   7  -3  128.42   35.56
   7   7   3   99.27   27.83
  -7   7  -4   99.14   28.09
   7   7   4   85.84   26.09
   7   7  -4   86.05   29.41
   7   7   5  116.83   29.49
  -7   7  -5   85.99   24.81
   7   7  -5  104.26   34.37
   7   7  -6   35.43   21.99
   7   7   6    9.34    9.12
  -7   7  -6   38.29   20.88
   7   7  -7    6.01    8.23
  -7   7  -7    4.86    9.85
   7   7   7  -23.57   13.54
   7   7  -8  200.40   50.04
   7   7   8  155.16   34.10
  -7   7  -8  132.60   30.40
   7   7  -9   66.93   30.41
   7   7   9   23.77   11.72
  -7   7  -9   43.35   16.99
   7   7  10  788.58   77.17
  -7   7 -10  933.67   84.90
   7   7 -10  872.14  104.06
   7   7 -11  482.93   49.30
  -7   7 -11  425.55   56.87
   7   7 -11  462.15   77.61
   7   7 -12    5.15    6.79
   7   7 -12   28.81   20.18
  -7   7 -12   11.81    9.02
   7   7 -13  362.85   70.67
   7   7 -13  404.71   48.84
  -7   7 -13  392.92   53.86
   7   7 -14   52.65   28.77
  -7   7 -14   64.96   23.44
  -7   7 -15  187.07   37.09
   7   7 -15  244.66   56.42
   7   7 -16   -0.58   21.75
  -7   7 -16    2.44   10.16
   7   7 -17   23.02   18.18
  -7   7 -17   15.77    7.40
  -7   7 -18  140.15   30.70
   7   7 -18  136.00   42.76
  -7   7 -19    5.70    6.42
   7   7 -19   38.50   28.26
  -7   7 -20  -10.39    7.50
   7   7 -20  -12.04   23.77
   7   7 -21   27.01   22.39
  -7   7 -21    6.80    5.78
   7   7  22   34.65   26.35
   7   7 -22   64.03   39.20
   7   7 -23   79.74   44.19
   7   7  23   51.60   37.44
   7   7  24   -5.79   13.88
   7   7 -24   26.88   38.34
   7   7  25   51.32   15.26
   7   7 -25   78.73   38.17
   7   7  26   -7.99   24.50
   7   7 -26   32.26   29.20
   7   7  27   84.37   33.96
   7   7  28   28.73   33.38
   7   7  29  147.68   58.18
  -7   7  30   62.29   34.80
  -8   0   0  806.12   49.84
   0   8   0 1012.68   95.33
  -8   0   0  808.35   55.65
  -8   0  -1  357.41   35.01
  -8   0   1  335.34   29.40
   0   8  -1  339.66   52.36
   0   8   1  364.28   53.33
  -8   0  -1  350.03   32.74
  -8   0   1  351.44   37.94
  -8   0  -2   55.39   12.57
  -8   0   2   85.41   21.85
  -8   0  -2   67.40   16.66
  -8   0   2   85.76   13.69
   0   8  -2   69.58   27.63
  -8   0  -3  689.54   55.54
  -8   0   3  658.09   33.98
   0   8  -3  556.02   68.99
  -8   0  -3  630.56   37.07
  -8   0   3  641.04   56.52
  -8   0  -4    1.24    8.21
  -8   0  -4    6.27    6.12
   0   8  -5   78.80   29.24
   0   8  -6 1256.42  109.99
   8   0   7   20.23   11.24
   0   8  -7   -1.41    7.06
   8   0   8   47.23   19.56
   0   8  -8   58.03   26.66
   8   0   9    3.29    6.36
   0   8  -9    3.08    7.78
   8   0  10  120.36   33.66
   0   8 -10  136.31   37.43
   8   0  11  237.08   44.17
   0   8 -11  232.11   49.55
  -8   0  12  152.57   24.79
   8   0  12  182.87   42.63
   0   8 -12  156.48   43.56
  -8   0  13   56.52   16.67
   8   0  13   38.43   25.82
   8   0  13   37.02    7.33
   0   8 -13   56.28   29.74
   0   8 -14  228.78   48.16
  -8   0  14  221.57   31.72
   8   0  14  247.44   51.59
   8   0  14  249.91   23.05
   8   0  15   83.50   33.86
  -8   0  15   85.19   21.81
   0   8 -15   25.24   18.94
   8   0  15   55.33   12.25
   8   0  16  139.11   39.01
  -8   0  16  120.80   27.74
   0   8 -16  124.50   39.90
   8   0  16  108.47   20.66
   0   8 -17  -21.32   24.99
  -8   0  17   22.70   15.89
   8   0  17   14.37   14.32
   0   8 -18   54.44   30.92
  -8   0  18   33.30   11.22
   8   0  18   22.52   15.30
   0   8 -19   10.12   11.28
  -8   0  19   16.72   16.94
   8   0  19  -20.64   16.52
   0   8 -20   -0.06   14.70
   8   0  20   -2.31    9.25
  -8   0  20  -14.01   15.53
   0   8 -21  -33.66   22.76
   8   0  21   15.54   17.97
  -8   0  21  -16.91   16.77
   0   8 -22  -30.68   22.92
   8   0  22   22.06   18.09
  -8   0  22    4.74    9.72
   0   8 -23  113.19   45.02
   8   0  23   84.91   39.27
  -8   0  23  158.74   41.87
   0   8 -24   62.48   32.12
   8   0  24   27.50   20.40
  -8   0  24   47.45   22.47
   0   8 -25  114.59   49.84
   8   0  25  192.10   65.45
   0   8 -26   28.77   16.18
   8   0  26   65.73   30.13
   0   8 -27    0.04   16.20
   0   8 -28   53.72   33.87
   0   8 -29   20.50   35.12
   0   8  30   13.14   12.20
   0   8  31   18.07   28.37
   1   8  31  -36.88   36.39
   1   8  30   44.86   34.39
  -1   8 -29   51.57   38.29
  -1   8 -28   93.87   54.72
  -1   8 -27   -6.81   20.09
  -1   8 -26   47.31   38.05
  -1   8 -25   25.17   23.57
  -8   1  25    2.18   12.58
  -1   8 -24   97.99   41.89
  -8   1  24   51.92   27.98
  -1   8 -23   91.39   41.43
  -8   1  23  102.66   31.87
  -1   8 -22   47.89   19.44
  -8   1  22   62.08   26.01
  -1   8 -21   23.25   26.69
  -8   1  21    8.05   11.25
  -1   8 -20   58.96   30.97
  -8   1  20   28.25   16.73
  -1   8 -19   13.74    9.24
  -8   1  19   41.05   18.70
  -1   8 -18    5.53   15.92
   8  -1  18   39.17   23.96
  -8   1  18   14.30   12.18
  -1   8 -17  185.55   47.38
   8  -1  17  100.42   33.39
  -8   1  17  127.59   29.81
  -1   8 -16   79.72   32.69
   8  -1  16  113.78   20.59
   8  -1  16   59.10   23.78
  -1   8 -15    5.02   10.43
   8  -1  15    8.57    4.30
   8  -1  15   12.09   14.21
  -1   8 -14  171.97   43.61
   8  -1  14  144.11   18.40
   8  -1  13   15.47    5.38
  -1   8 -13   21.24   16.07
  -1   8 -12  259.29   54.08
  -1   8 -11  189.29   45.78
  -1   8 -10  638.82   80.37
  -1   8  -9  173.86   45.16
  -1   8  -8  223.55   46.90
  -1   8  -7   18.77   16.93
  -1   8  -6   42.16   22.90
  -1   8  -5  144.68   36.73
   8   1  -5  170.74   33.38
  -8  -1  -4  374.96   25.31
  -1   8  -4  348.64   54.75
   8   1  -4  412.25   47.38
  -8   1   3  603.20   57.82
   8   1  -3  607.48   57.09
  -8  -1  -3  621.27   42.64
  -1   8  -3  923.95   90.16
  -8   1   2   39.47   12.77
   8   1  -2   49.45   17.96
  -1   8  -2   28.78    7.08
   1   8   2   10.97   13.94
  -8  -1  -2   30.96    9.17
   8   1  -1  571.78   49.79
  -8   1   1  501.73   49.09
   1   8   1  592.37   75.80
  -8  -1  -1  551.84   46.47
  -1   8  -1  768.88   82.89
  -8   1   0  224.05   28.14
  -8   1   0  249.33   30.52
   1   8   0  143.73   32.85
  -1   8   0  167.17   36.29
  -8  -1   0  263.60   32.48
  -8   1  -1  525.10   48.45
   1   8  -1  659.57   79.86
  -8   1  -1  525.83   41.23
  -8  -1   1  562.85   54.51
  -8   1  -2   45.50   11.01
  -8  -1   2   39.54   13.52
  -8   1  -2   49.53   15.17
   1   8  -2   27.35    8.70
  -8   1  -3  663.21   59.15
   8   1   3  624.31   54.30
   1   8  -3  721.26   82.71
  -8   1  -3  551.51   34.52
  -8  -1   3  769.42   65.93
  -8   1  -4  495.66   51.68
   8   1   4  449.75   46.51
   1   8  -4  432.69   60.68
  -8   1  -4  425.99   25.65
   8   1   5  199.16   34.51
   1   8  -5  279.40   53.73
   8   1   6   26.82   11.05
   1   8  -6   11.53    7.66
   8   1   7    3.91    8.21
   1   8  -7   14.77   16.82
   8   1   8  198.14   36.83
   1   8  -8  135.90   34.83
   8   1   9  175.28   43.41
  -8  -1   9  139.15   14.82
   1   8  -9  188.38   49.55
   8   1  10  707.05   76.17
  -8  -1  10  590.02   35.67
   1   8 -10  561.75   75.74
  -8  -1  11  199.51   23.70
   8   1  11  259.41   49.86
   1   8 -11  243.53   53.58
  -8  -1  12  234.44   28.34
   8   1  12  295.56   53.23
   1   8 -12  219.99   49.49
  -8  -1  13   27.02   10.44
   8   1  13   57.80   24.49
   1   8 -13  -16.49   21.39
   8   1  13   21.29    6.90
   1   8 -14  132.86   40.52
  -8  -1  14  150.62   25.25
   8   1  14  162.48   41.07
   8   1  14  143.66   18.27
  -8  -1  15   13.29    8.32
   8   1  15    5.15   11.25
   1   8 -15   30.15   25.46
   8   1  15   -0.33    3.05
  -8  -1  16  110.48   24.61
   8   1  16  129.66   40.62
   1   8 -16   74.36   29.86
   8   1  16   92.57   17.93
   1   8 -17   98.07   33.15
  -8  -1  17   81.46   21.64
   8   1  17  145.27   43.14
   1   8 -18   17.49   19.37
  -8  -1  18    6.39    9.20
   1   8 -19   10.02    8.00
  -8  -1  19   30.88   15.42
   8   1  19   -2.50   10.92
   1   8 -20   29.82   19.73
  -8  -1  20   45.74   20.58
   8   1  20   18.98   25.97
   1   8 -21   12.71   12.62
  -8  -1  21  -19.01    9.52
   1   8 -22   43.67   30.35
  -8  -1  22   37.34   19.97
   8   1  22   10.12   14.48
   1   8 -23  108.14   44.69
  -8  -1  23   85.97   30.92
   8   1  23   75.29   31.64
   1   8 -24   69.92   35.17
  -8  -1  24   92.74   33.75
   8   1  24   69.65   35.24
   1   8 -25   30.91   30.41
   8   1  25    0.68   20.97
   1   8 -26   24.45   27.31
   8   1  26  -28.05   25.73
   8   1  27  -26.83   33.55
   1   8 -27   -7.23   15.66
   8   1  28   45.41   25.43
   1   8 -28    0.04   28.22
   8   1  29   -0.29   13.01
   1   8 -29   27.64   28.18
   8   1  30  120.70   51.69
  -1   8  31   14.02   11.84
   2   8  30   58.19   36.47
   2   8  29   77.21   51.89
  -2   8 -28  -14.90   17.72
  -2   8 -27   29.84   34.11
  -2   8 -26   -4.00   18.51
  -8   2  26   -6.26   14.82
  -2   8 -25   42.15   28.77
  -8   2  25   42.58   31.71
  -2   8 -24    6.02   13.94
  -8   2  24    7.47   10.43
  -2   8 -23   85.49   39.87
  -8   2  23  103.57   36.79
  -2   8 -22  173.30   48.00
  -8   2  22  184.52   43.02
  -2   8 -21   27.25   28.02
  -8   2  21   -5.39    8.71
  -2   8 -20    6.93   14.79
  -8   2  20    2.08    8.69
  -2   8 -19   11.49   17.70
  -2   8 -18  111.79   35.16
  -2   8 -17  118.59   41.04
  -2   8 -16    9.31    7.82
   8  -2  16   -2.22    5.93
  -2   8 -15   98.98   30.47
   8  -2  15  114.16   19.93
  -2   8 -14   40.04   25.86
   8  -2  14   23.67    8.05
   8   2 -13    3.23    7.63
  -2   8 -13   25.00   22.18
   8   2 -12   23.68   15.28
  -2   8 -12   21.99   21.37
   8   2 -11  169.38   42.64
  -2   8 -11  125.16   35.29
   8   2 -10  484.49   67.63
  -2   8 -10  540.53   74.78
   8   2  -9  292.92   52.10
  -2   8  -9  290.00   51.63
   8   2  -8   21.82    9.90
  -2   8  -8   33.56   22.07
   8   2  -7  352.46   50.33
  -2   8  -7  407.76   61.65
   8   2  -6  796.86   75.35
  -2   8  -6  924.67   89.94
   8   2  -5  162.27   30.92
  -2   8  -5  204.89   43.50
   8   2  -4   65.72   25.69
  -2   8  -4   92.02   29.94
  -8  -2  -4   51.63   13.67
   8   2  -3  803.97   63.51
   2   8   3  850.68   86.25
  -8  -2  -3  910.43   52.18
  -2   8  -3  814.86   82.30
   8   2  -2  132.72   27.42
  -8  -2  -2  215.80   31.78
   2   8   2  199.57   44.19
  -2   8  -2  269.72   49.74
   8   2  -1   64.12   16.37
   2   8   1   58.41   22.62
  -2   8  -1   60.45   20.13
  -8  -2  -1   54.99   16.60
   8   2   0   26.00   11.72
   8   2   0   31.27   11.42
   2   8   0   64.11   25.80
  -8  -2   0   88.60   24.74
   8   2   1   74.57   15.10
   8   2   1   71.44   14.18
   2   8  -1   48.16   19.24
  -8  -2   1   67.04   19.04
   8   2   2  127.98   20.64
   8   2   2  168.23   27.16
  -8  -2   2  239.07   37.93
   2   8  -2  244.21   54.98
   8   2   3  938.67   62.74
  -8   2  -3  963.53   73.27
   2   8  -3  907.38   87.42
   8   2   3  812.34   45.35
  -8  -2   3  959.05   76.24
   8   2   4   52.03   19.28
   8   2   4   32.81    9.20
   2   8  -4   40.42   24.33
   8   2   5  201.89   33.38
   8   2   5  188.92   17.52
   2   8  -5  180.62   45.11
   8   2   6  774.72   68.76
   2   8  -6  819.09   92.58
  -8   2  -6  889.13   35.25
   8   2   6  623.62   27.91
   8   2   7  459.85   54.14
   2   8  -7  324.11   55.39
   8   2   8   23.62   12.80
   2   8  -8   54.64   28.32
   8   2   9  286.54   47.47
   2   8  -9  236.05   49.33
   8   2  10  561.59   68.08
   2   8 -10  585.17   81.21
   8   2  11  206.94   41.54
   8   2  11  149.56   13.81
   8   2  11  124.69   11.43
   2   8 -11  186.06   44.47
   8   2  12   49.54   24.58
   8   2  12   30.07    6.21
   2   8 -12   13.91   15.47
   8   2  13   27.98   15.09
   2   8 -13    3.92    8.86
   8   2  13   29.90    7.57
   8   2  14   23.51   18.15
   2   8 -14   35.12   13.45
   8   2  14   36.15    9.48
   8   2  15  101.85   37.05
   2   8 -15   40.00   17.46
   8   2  15  121.10   21.31
   2   8 -16   -4.38   17.97
   8   2  16   21.25   10.81
   8   2  16    6.23   14.24
   2   8 -17   67.65   27.08
   8   2  17   95.60   33.35
   2   8 -18  158.72   45.76
   8   2  18  168.58   46.35
   2   8 -19   17.97   19.39
   8   2  19   16.23   32.67
   2   8 -20   12.01   19.07
   8   2  20  -22.03   26.47
   2   8 -21   -0.03    8.36
   8   2  21   40.66   27.34
   2   8 -22  212.98   57.40
   8   2  22  226.54   62.59
   2   8 -23  139.79   53.18
   8   2  23  129.77   46.84
   2   8 -24   21.39   12.83
   8   2  24    6.63   19.67
   2   8 -25   20.23   17.89
   8   2  25   -9.60   22.47
   2   8 -26    3.52   22.11
   8   2  26  -16.74   30.65
   8   2  27    3.71   17.76
   2   8 -27   62.55   44.95
   8   2  28   -7.32   19.35
   2   8 -28  -49.66   32.28
   8   2  29   36.70   32.91
   2   8 -29   -8.99   16.92
   8   2  30   60.53   34.87
  -2   8  31  -11.55   13.29
   3   8  30   13.89   21.14
   3   8  29   57.93   47.71
   3   8  28   12.44   14.90
  -3   8 -28   25.22   33.51
  -3   8 -27   38.76   33.41
  -3   8 -26   30.92   35.63
  -8   3  26   26.77   18.67
  -3   8 -25  -18.66   18.02
  -8   3  25   -1.73   17.10
  -3   8 -24   26.33   28.99
  -8   3  24    9.55   14.54
  -3   8 -23   95.34   33.61
  -8   3  23   17.87   17.28
  -3   8 -22   70.64   35.53
  -3   8 -21    4.94   19.92
  -3   8 -20   75.93   33.54
  -3   8 -19   27.26   21.71
  -3   8 -18  103.67   38.69
  -3   8 -17   43.16   21.75
  -3   8 -16   25.38   21.56
   8  -3  16   35.26   12.63
   8   3 -16   -9.44   17.42
  -3   8 -15  -17.51    8.23
   8   3 -15   -8.30   13.46
   8  -3  15    6.76    6.68
   8   3 -14  -18.34   15.71
   8  -3  14    1.61    5.37
  -3   8 -14   -7.68   16.41
   8   3 -13   10.91   11.44
  -3   8 -13   -3.47   13.65
   8   3 -12   26.70   17.29
  -3   8 -12   22.61   16.36
   8   3 -11    5.74    7.87
  -3   8 -11   19.88   10.46
   8   3 -10  216.94   46.39
  -3   8 -10  260.84   49.19
   8   3  -9   19.08   17.70
  -3   8  -9   13.15   14.83
   8   3  -8  286.62   48.37
  -3   8  -8  355.81   56.98
  -3   8  -7  853.89   89.42
   8   3  -7  726.84   75.99
  -3   8  -6  765.79   79.89
   8   3  -6  733.42   71.26
   8   3  -5   16.89   16.38
  -3   8  -5   28.79   20.86
   3   8   4  374.12   57.33
  -3   8  -4  364.62   53.23
  -8  -3  -4  367.09   34.47
   8   3  -4  357.70   47.08
   8   3  -3  107.56   32.29
  -3   8  -3   69.89   26.87
  -8  -3  -3   58.44   17.48
   3   8   3  102.62   33.69
   8   3  -2  339.24   22.63
  -3   8  -2  326.86   48.91
  -8  -3  -2  314.21   36.82
   3   8   2  283.94   47.59
   8   3  -2  310.24   39.45
   8   3  -1  324.38   27.37
  -8  -3  -1  396.39   45.75
   3   8   1  353.72   59.54
   8   3  -1  301.66   40.08
   8   3   0   39.67   12.42
   8   3   0   30.44    8.09
   3   8   0    5.75    7.62
  -8  -3   0   18.98   11.62
   8   3   1  373.90   36.35
  -8  -3   1  298.09   45.96
   3   8  -1  384.93   58.97
   8   3   1  342.41   39.35
   8   3   2  336.86   34.56
   3   8  -2  333.45   54.12
  -8  -3   2  341.36   45.79
   8   3   2  352.84   37.26
   8   3   3   51.94   21.23
   8   3   3   51.38   18.02
   3   8  -3   83.38   33.82
   8   3   4  372.96   41.58
   3   8  -4  368.53   62.07
   8   3   4  341.10   32.66
   8   3   5    9.20   10.01
   3   8  -5   27.70   28.97
   8   3   5   13.39   11.18
   8   3   6  852.85   70.99
   3   8  -6  850.20   90.82
  -8   3  -6  630.04   40.86
   8   3   6  699.87   43.35
   8   3   7  753.17   72.52
   8   3   7  601.08   42.13
  -8   3  -7  846.70   46.51
   3   8  -7  794.63   94.45
   8   3   8  316.23   47.02
  -8   3  -8  292.00   26.14
   8   3   8  257.26   26.79
   3   8  -8  264.77   51.81
   8   3   9    8.80    8.98
   8   3   9   20.70    5.25
   3   8  -9    6.66   24.10
  -8   3  -9   21.19    7.11
   8   3  10  308.68   49.77
   8   3  10  279.85   25.32
   3   8 -10  282.10   56.41
  -8   3 -10  308.87   26.19
  -8   3 -11   34.42    8.23
   8   3  11   18.06   11.93
   8   3  11   32.17    7.98
   3   8 -11   35.05   16.73
   3   8 -12   10.05   15.73
  -8   3 -12   19.12    6.55
   8   3  12   21.74    8.14
   3   8 -13   41.33   30.55
  -8   3 -13   19.31    8.38
   8   3  13   16.59    5.99
   8   3  13   -9.66   12.88
   8   3  14    1.61    4.57
   3   8 -14    9.61   11.67
   8   3  14  -24.00   20.41
   3   8 -15   -9.06   12.06
   8   3  15    7.88    4.11
   8   3  15   -1.98   13.60
   8   3  16   43.83   15.52
   3   8 -16   17.92   14.34
   8   3  16   58.50   26.74
   3   8 -17    2.93   16.70
   8   3  17    9.61   10.96
   3   8 -18  150.42   44.30
   8   3  18  186.45   52.22
   3   8 -19    8.23   11.45
   8   3  19   97.25   39.51
   3   8 -20   60.06   24.30
   8   3  20  104.03   42.43
   3   8 -21   -3.84   13.69
   8   3  21    5.46   21.30
   3   8 -22  121.57   47.63
   8   3  22  127.62   45.22
   3   8 -23   65.39   36.87
   8   3  23   44.59   29.89
   3   8 -24    1.81   14.21
   8   3  24   27.29   24.87
   3   8 -25  -19.46   20.33
   8   3  25    6.29   13.56
   3   8 -26   36.45   31.70
   8   3  26   42.12   18.93
   8   3  27   -5.85   31.40
   3   8 -27    9.89   16.70
   8   3  28   18.90   21.22
   3   8 -28   34.43   39.08
   8   3  29    8.86   17.55
   3   8 -29   31.07   27.26
   8   3  30    8.72   19.07
  -3   8  31   40.09   35.27
  -3   8  32  -27.81   28.36
   4   8  30   53.02   39.35
   4   8  29   58.49   57.04
   4   8  28   -6.86   19.96
   4   8  27   37.46   30.03
  -8   4  27   15.18   23.32
  -4   8 -27   19.58   16.61
  -4   8 -26   11.47   24.23
  -8   4  26   -9.91   15.59
  -4   8 -25   55.31   25.98
  -8   4  25   70.24   32.25
  -4   8 -24  121.37   41.78
  -4   8 -23  178.47   53.04
  -4   8 -22   42.45   15.89
  -4   8 -21   45.53   23.91
  -4   8 -20  234.17   50.79
  -4   8 -19   76.67   35.88
   8   4 -19  166.00   56.13
  -4   8 -18  171.82   41.81
   8   4 -18  145.10   45.37
  -4   8 -17  195.58   47.85
   8   4 -17  192.74   59.60
  -4   8 -16  253.98   52.79
   8   4 -16  239.12   54.52
  -4   8 -15    1.03   16.32
   8   4 -15   40.30   25.88
   8  -4  15   27.16   14.18
   8   4 -14    5.24   12.96
  -4   8 -14   10.61   11.50
   8   4 -13   60.41   25.82
  -4   8 -13    0.41   17.69
   8   4 -12   68.43   29.03
  -4   8 -12   77.87   27.71
   8   4 -11   77.67   25.91
  -4   8 -11  113.93   31.95
   8   4 -10   17.54   15.28
  -4   8 -10   29.44   15.67
   8   4  -9  332.31   53.87
  -4   8  -9  363.35   60.77
  -4   8  -8 1067.69   99.60
   8   4  -8  934.76   93.05
   8   4  -7   25.88   15.46
  -4   8  -7    7.24   11.98
   8   4  -6  184.80   42.16
   4   8   6  134.56   35.87
  -4   8  -6  133.06   37.24
   8   4  -5  126.50   26.75
   4   8   5   74.12   25.65
  -4   8  -5  127.80   30.87
   4   8   4  404.53   58.50
  -4   8  -4  498.12   65.23
   8   4  -4  462.32   60.21
   8   4  -3   74.83   20.74
  -4   8  -3   59.93   14.94
  -8  -4  -3  110.49   23.03
   4   8   3   52.83   18.98
   8   4  -2  131.49   30.33
  -4   8  -2  114.46   32.92
   4   8   2   89.52   23.93
  -8  -4  -2   90.58   23.29
   8   4  -1  180.47   32.49
  -8  -4  -1  166.63   32.15
   4   8   1  164.43   35.76
  -8  -4   0  300.50   44.75
   4   8   0  204.86   53.09
   8   4   0  177.01   42.25
   8   4   1  235.56   33.53
   4   8  -1  188.99   40.99
  -8  -4   1  193.35   35.83
   4   8  -2  147.23   44.87
   8   4   2  130.55   26.96
   4   8  -3   91.38   31.08
   8   4   3   96.09   20.26
   8   4   4  341.78   39.66
   4   8  -4  395.94   67.76
   8   4   5   90.16   20.98
   4   8  -5  150.50   39.20
   8   4   6  148.88   27.94
  -8   4  -6  154.80   25.21
   4   8  -6  193.44   50.66
  -8   4  -7   14.16    5.14
   8   4   7   24.19    8.36
   4   8  -7   28.46   16.61
   4   8  -8 1042.14  113.08
  -8   4  -8 1023.04   62.28
   8   4   8  947.86   61.68
   8   4   9  337.39   34.63
  -8   4  -9  348.23   35.09
   4   8  -9  286.35   53.69
   8   4  10   20.05    9.50
  -8   4 -10   42.54   11.04
   4   8 -10   11.39    8.46
   4   8 -11   83.14   31.68
  -8   4 -11  114.65   19.82
   8   4  11  118.54   20.99
   8   4  11  108.90   30.89
   8   4  12  125.75   34.53
  -8   4 -12   86.15   18.68
   4   8 -12   84.91   35.01
   8   4  13   18.37   11.59
   4   8 -13   46.89   23.88
  -8   4 -13   16.61    6.11
   8   4  14   17.74   12.15
  -8   4 -14   27.78   10.20
   4   8 -14   27.60   19.50
   8   4  15   25.41   22.41
   4   8 -15   44.97   26.86
  -8   4 -15   27.50   10.29
   8   4  16  309.94   61.82
  -8   4 -16  261.63   36.92
   4   8 -16  189.15   50.67
   8   4  17  205.78   57.93
  -8   4 -17  114.41   28.61
   4   8 -17  229.46   58.71
   8   4  18  166.25   45.77
   4   8 -18  116.77   42.11
   8   4  19  122.56   47.71
   4   8 -19  108.83   40.63
   8   4  20  258.72   65.82
   4   8 -20  152.38   46.23
   8   4  21   77.06   39.22
   4   8 -21   33.37   27.33
   8   4  22   25.68   30.12
   4   8 -22   -7.61   14.43
   8   4  23  170.63   60.13
   4   8 -23  130.69   52.59
   8   4  24   99.32   42.55
   4   8 -24  124.25   49.11
   8   4  25   86.02   37.63
   4   8 -25   86.92   40.47
   8   4  26    9.43   21.17
   4   8 -26   -3.07   10.68
   8   4  27   76.80   47.54
   4   8 -27    9.89   20.04
   4   8 -28    3.01   12.04
   8   4  28  -27.86   31.63
   8   4  29  101.36   44.88
   4   8 -29   36.19   38.29
   8   4  30   -2.37   12.02
  -4   8  31   15.67   23.05
  -4   8  32   34.16   32.05
   5   8  29    5.91   24.35
   5   8  28   99.20   43.31
  -8   5  27    2.93   14.86
   5   8  27    0.49   16.05
  -5   8 -25   73.62   35.47
  -5   8 -24   93.16   38.40
  -5   8 -23  -18.35   20.74
   8   5 -22  237.51   64.71
  -5   8 -22  171.28   47.07
   8   5 -21   96.66   50.22
  -5   8 -21  128.04   37.63
   8   5 -20   36.50   33.80
  -5   8 -20   31.78   11.04
   8   5 -19   58.64   31.28
  -5   8 -19   99.87   32.56
   8   5 -18  144.41   48.70
  -5   8 -18  139.75   42.07
   8   5 -17   20.51   13.13
  -5   8 -17   43.53   23.27
  -5   8 -16  127.10   38.76
   8   5 -16  216.32   56.21
  -5   8 -15   90.09   33.10
   8   5 -15  157.44   46.22
   8   5 -14  304.94   63.97
  -5   8 -14  321.15   56.49
   8   5 -13   45.15   25.53
  -5   8 -13   -8.44   12.01
   8   5 -12  119.47   39.33
  -5   8 -12   61.92   22.28
   8   5 -11    2.64   15.27
  -5   8 -11   17.48   20.95
   8   5 -10  141.66   38.84
  -5   8 -10  116.26   31.39
  -5   8  -9 1004.81   97.22
   8   5  -9  882.90   93.40
   8   5  -8   64.57   10.79
   8   5  -8   70.23   26.38
  -5   8  -8   68.87   23.19
   8   5  -7  225.07   45.73
  -5   8  -7  199.90   40.81
   5   8   7  222.29   42.92
   8   5  -7  224.14   19.67
   8   5  -6  148.41   35.43
  -5   8  -6  130.88   32.69
   5   8   6  152.82   36.11
   8   5  -5   91.13   34.26
  -5   8  -5   83.39   28.10
   5   8   5   74.75   28.66
   8   5  -4    3.37   10.16
  -5   8  -4    5.40   14.28
   5   8   4   10.48   10.58
  -8  -5  -3  363.65   46.85
  -5   8  -3  398.84   58.01
   5   8   3  329.58   54.17
   8   5  -3  400.69   55.17
  -8  -5  -2  652.39   63.59
   5   8   2  632.42   72.91
   8   5  -2  654.51   66.61
   5   8   1  167.50   47.41
  -8  -5  -1  103.39   30.52
   8   5  -1  214.48   47.36
   8   5   0  805.32   74.48
   5   8   0  931.70   90.13
   8   5   1  206.28   41.94
   5   8  -1  125.46   47.77
   8   5   2  643.50   61.73
   5   8  -2  698.08   81.77
   8   5   3  387.04   48.50
   5   8  -3  378.75   63.09
   8   5   4   19.21    4.68
   5   8  -4    8.30   19.40
  -8   5  -5   51.08   17.58
   5   8  -5   95.12   44.19
   8   5   5   98.53   25.33
  -8   5  -6  142.83   25.50
   5   8  -6  137.44   39.40
   8   5   6  127.54   28.37
   8   5   7  248.72   37.30
  -8   5  -7  259.98   35.51
   5   8  -7  284.07   60.61
   8   5   8   70.66   18.29
  -8   5  -8   72.47   17.11
   5   8  -8   28.55   16.50
  -8   5  -9  952.32   68.84
   8   5   9  802.90   63.11
   5   8  -9  954.05  112.78
   5   8 -10  110.84   33.50
   8   5  10   97.67   21.42
  -8   5 -10  112.94   23.64
   5   8 -11   37.13   24.99
   8   5  11   22.36   10.46
  -8   5 -11   20.71   10.02
  -8   5 -12  124.02   23.54
   5   8 -12   93.75   38.27
   8   5  12  132.87   24.60
  -8   5 -13   12.75    5.23
   5   8 -13   24.96   30.60
   5   8 -14  405.73   76.69
  -8   5 -14  348.98   42.23
   5   8 -15  121.70   38.17
  -8   5 -15  167.59   30.45
  -8   5 -16  154.09   28.75
   5   8 -16  128.57   44.34
   8   5  16  171.80   45.94
  -8   5 -17   21.52    7.56
   5   8 -17   42.31   24.33
   8   5  17   21.97   18.10
   5   8 -18  109.21   44.67
  -8   5 -18  141.99   34.19
   8   5  18  129.76   44.95
   5   8 -19   87.75   35.95
  -8   5 -19  108.57   25.59
   8   5  19  132.29   40.74
   5   8 -20   -0.49   12.06
   8   5  20   52.72   27.52
   5   8 -21  108.88   40.92
   8   5  21  129.07   45.10
   5   8 -22  204.59   58.58
   8   5  22  125.94   48.40
   5   8 -23   33.02   30.54
   8   5  23   -3.65   13.06
   5   8 -24   41.53   13.30
   8   5  24  100.87   51.27
   5   8 -25   35.60   30.33
   8   5  25   75.64   42.85
   8   5  26  118.90   50.79
   5   8 -26  100.32   51.43
   8   5  27   16.98   36.02
   5   8 -27   44.44   44.84
   8   5  28   65.89   41.13
   5   8 -28   74.61   45.11
   8   5  29  -30.66   39.01
  -5   8  31   34.44   28.01
  -5   8  32    8.55   12.19
   6   8  29   49.64   42.76
  -8   6  28   20.24   12.29
   6   8  28   75.19   28.77
   6   8  27   26.41   37.83
   6   8  26  124.25   50.58
   6   8  25  118.51   49.55
   8   6 -24   45.37   39.51
  -6   8 -23  119.05   40.39
   8   6 -23   97.44   49.60
  -6   8 -22   35.28   13.34
   8   6 -22   11.78   18.23
  -6   8 -21   -8.75   12.70
   8   6 -21   58.71   37.25
  -6   8 -20   41.05   27.91
   8   6 -20   77.26   30.97
   8   6 -19  -15.37   19.53
  -6   8 -19   26.25   22.09
   8   6 -18   31.59   18.98
  -6   8 -18   76.60   30.07
  -6   8 -17   47.43   27.64
   8   6 -17   56.15   27.44
   8   6 -16   26.01   19.70
  -6   8 -16   50.97   23.43
   8   6 -15   86.12   41.80
  -6   8 -15  113.04   31.79
   8   6 -14  413.76   71.74
  -6   8 -14  378.56   61.54
   8   6 -13   16.73   23.56
  -6   8 -13   49.44   21.22
   8   6 -12  111.19   22.23
   8   6 -12  208.64   53.50
  -6   8 -12   98.81   34.16
   8   6 -11   62.19   15.62
   8   6 -11   65.89   32.33
  -6   8 -11   79.89   30.61
   8   6 -10  365.23   67.31
   8   6 -10  313.56   32.88
  -6   8 -10  322.00   59.98
   8   6  -9  157.15   40.94
   8   6  -9  132.37   19.83
   6   8   9  121.58   32.73
  -6   8  -9  125.94   31.24
   6   8   8  486.61   64.35
  -6   8  -8  472.82   63.43
   8   6  -8  491.11   69.09
   8   6  -7  -12.30   15.78
  -6   8  -7    3.64   10.48
   6   8   7   -1.06    7.39
   8   6  -6  164.26   45.43
  -6   8  -6  158.35   38.76
   6   8   6  112.07   31.90
   8   6  -5   16.52   12.06
   6   8   5   51.32   19.12
  -6   8  -5   28.50   15.03
   8   6  -4   80.85   26.55
   6   8   4   64.12   23.48
  -6   8  -4  101.44   28.67
   8   6  -3   21.41   14.20
   6   8   3   40.19   19.93
   6   8   2 3258.84  168.28
   8   6  -2 3469.73  165.95
   6   8   1    4.28   13.49
   8   6  -1   -9.07   12.28
   6   8   0  465.20   73.73
   8   6   0  579.37   70.61
   8   6   1    3.05   12.74
   6   8  -1   19.21    8.84
   6   8  -2 3148.02  176.45
   8   6   2 3397.34  155.21
   8   6   3   11.21    7.23
   6   8  -3   68.02   28.72
   8   6   4  140.38   33.34
   6   8  -4   51.57   38.08
  -8   6  -5   62.12   19.19
   6   8  -5   62.05   25.67
   8   6   5   49.19   18.80
  -8   6  -6  119.78   28.39
   6   8  -6  159.03   49.79
   8   6   6  134.34   30.59
  -8   6  -7   -1.96    4.78
   8   6   7   -4.24    6.23
   6   8  -7    4.65   20.11
   8   6   8  558.95   57.49
  -8   6  -8  550.71   56.60
   6   8  -8  551.11   78.74
   6   8  -9  124.77   41.28
   8   6   9  143.96   28.52
  -8   6  -9  141.71   30.86
   8   6  10  309.32   45.46
  -8   6 -10  372.76   50.13
   6   8 -10  319.17   73.67
   6   8 -11   73.76   33.90
   8   6  11   73.31   22.39
  -8   6 -11   56.21   16.26
   6   8 -12  109.34   37.64
   8   6  12  104.09   24.35
  -8   6 -12  109.79   28.73
   6   8 -13   49.71   35.86
  -8   6 -13   25.14   15.55
   6   8 -14  441.74   81.14
  -8   6 -14  478.63   56.37
  -8   6 -15   96.50   23.42
   6   8 -15   67.28   43.26
   6   8 -16    8.53   13.22
  -8   6 -16   32.31   13.15
   6   8 -17    6.28   15.07
  -8   6 -17   79.91   25.22
  -8   6 -18   59.09   18.93
   6   8 -18   22.01   16.67
   8   6  19   27.45   21.61
  -8   6 -19   14.29   13.86
   6   8 -19   20.61   17.75
   8   6  20   37.00   23.71
   6   8 -20   86.72   39.00
   8   6  21    8.31   12.31
   6   8 -21    4.63   20.19
   8   6  22    8.86    9.68
   6   8 -22   14.21   24.23
   8   6  23   93.63   46.59
   6   8 -23   73.31   32.20
   8   6  24  -23.59   21.07
   6   8 -24   -1.58   24.77
   6   8 -25   83.45   44.99
   8   6  25  164.54   61.56
   8   6  26  142.45   58.22
   6   8 -26  106.00   55.66
   8   6  27   93.50   45.26
   6   8 -27   83.55   50.29
   8   6  28   -1.71   19.60
   6   8 -28    0.10   26.95
   8   6  29   62.58   36.47
  -6   8  31    1.37   15.29
  -6   8  32   58.69   42.96
   7   8  28  103.57   51.07
   7   8  27    5.80   26.84
   7   8  26   24.91   15.74
   7   8  25   69.84   33.32
   8   7 -25   50.34   32.54
   7   8  24   40.10   27.40
   8   7 -24   52.44   44.70
   8   7 -23  -15.31   21.92
   8   7 -22   91.12   47.92
  -7   8 -21   49.61   24.62
   8   7 -21   80.13   38.58
   8   7 -20  -19.60   20.00
  -7   8 -20   35.34   24.84
   8   7 -19   11.68   23.59
  -7   8 -19   29.81   18.29
  -7   8 -18  127.58   36.77
   8   7 -18   95.00   39.23
  -7   8 -17   -9.57   17.67
   8   7 -17  -31.51   22.71
  -7   8 -16   49.06   26.28
   8   7 -16  101.37   38.93
   8   7 -15   45.73   27.10
  -7   8 -15   90.67   31.46
   8   7 -14  160.86   45.06
  -7   8 -14  211.71   42.78
   8   7 -13   37.13   15.31
   8   7 -13   40.15   25.34
  -7   8 -13   56.30   24.19
   8   7 -12  144.49   26.25
   8   7 -12  199.88   49.26
  -7   8 -12  149.18   36.02
   8   7 -11   62.54   29.78
   8   7 -11   61.56   16.01
   7   8  11   31.01   14.06
  -7   8 -11   42.95   19.48
   8   7 -10  214.89   49.18
   8   7 -10  193.67   28.75
   7   8  10  139.74   33.12
  -7   8 -10  194.79   41.84
  -7   8  -9  572.79   72.77
   7   8   9  499.73   67.09
   8   7  -9  643.14   87.88
   8   7  -8   15.45   22.98
   7   8   8    5.65    7.77
  -7   8  -8    7.13    7.59
   8   7  -7  275.19   58.85
  -7   8  -7  206.05   41.40
   7   8   7  195.73   42.97
   8   7  -6    9.51   10.27
   7   8   6   12.90    5.90
  -7   8  -6    6.16   10.16
   8   7  -5  161.09   39.29
  -7   8  -5  172.97   37.60
   7   8   5  114.79   31.02
   7   8   4  217.89   41.97
  -7   8  -4  172.46   36.11
   8   7  -4  187.96   41.78
   7   8   3  534.77   70.13
   8   7  -3  410.46   67.23
   7   8   2  862.87   87.96
   8   7  -2  832.18   85.90
   7   8   1  289.00   60.83
   8   7  -1  364.66   63.89
   8   7   0  706.30   79.05
   7   8   0  717.58   79.85
   8   7   1  374.42   64.76
   7   8  -1  326.27   62.54
   8   7   2  777.92   81.10
   7   8  -2  820.82   92.22
   8   7   3  478.55   64.17
   7   8  -3  379.17   69.09
   7   8  -4  272.81   53.96
   8   7   4  199.12   42.65
  -8   7  -5  180.33   38.09
   7   8  -5  189.13   46.67
   8   7   5  154.11   37.80
   8   7   6    9.39    8.14
  -8   7  -6   12.60    8.85
   7   8  -6   24.95   17.82
   7   8  -7  267.94   58.31
  -8   7  -7  261.32   43.73
   8   7   7  306.28   47.92
   7   8  -8    7.88   10.12
   8   7   8   16.13    8.56
  -8   7  -8   15.08    9.66
  -8   7  -9  643.61   69.58
   8   7   9  538.38   63.80
   7   8  -9  683.46   94.98
   7   8 -10  177.43   48.51
   8   7  10  178.97   37.32
  -8   7 -10  192.02   38.10
   7   8 -11   72.22   34.20
   8   7  11   68.35   22.64
  -8   7 -11   35.07   17.57
   7   8 -12  169.71   51.34
   8   7  12   91.17   24.45
  -8   7 -12  154.07   33.06
   7   8 -13   43.13   30.24
   8   7  13   39.69   17.56
  -8   7 -13   41.87   18.13
   7   8 -14  139.05   44.70
  -8   7 -14  201.46   37.34
  -8   7 -15   63.37   22.49
   7   8 -15   71.29   31.85
  -8   7 -16   71.70   28.17
   7   8 -16   43.76   29.02
  -8   7 -17   -7.77    8.16
   7   8 -17   18.92    9.53
   7   8 -18  133.80   48.89
  -8   7 -18   89.44   28.95
  -8   7 -19   45.71   20.11
   7   8 -19   28.38   23.18
   7   8 -20   -1.50   12.75
   7   8 -21   51.20   37.05
   8   7  21   24.38   11.12
   7   8 -22  110.29   48.20
   8   7  22   60.41   36.62
   7   8 -23    2.95   11.66
   8   7  23   -7.15   11.23
   7   8 -24   28.32   27.29
   8   7  24   39.29   28.56
   8   7  25   61.89   36.35
   7   8 -25   11.68   16.74
   8   7  26   71.25   40.33
   7   8 -26   48.67   30.23
   7   8 -27   27.04   34.35
   8   7  27    2.70   18.95
   8   7  28   63.80   37.19
   7   8 -28   66.00   46.61
   8   8   0  725.50   85.38
   8   8  -1  128.64   36.73
   8   8   1  152.80   35.56
   8   8   2  111.74   34.33
   8   8  -2   99.25   33.18
   8   8  -3  389.11   68.98
   8   8   3  403.10   65.00
   8   8  -4  965.83  103.17
   8   8   4  869.58   89.93
  -8   8  -4  803.82   78.90
  -8   8  -5   -1.73    6.42
   8   8  -5   21.81   19.44
   8   8   5   20.67   14.97
   8   8   6  195.23   44.28
  -8   8  -6  116.41   32.35
   8   8  -7   14.69    8.45
  -8   8  -7  -16.01   16.44
   8   8   7    9.01   10.22
   8   8   8  445.36   60.95
  -8   8  -8  428.28   58.85
   8   8  -8  489.54   80.27
   8   8  -9   65.54   28.82
   8   8   9  144.93   33.54
  -8   8  -9  104.97   30.71
   8   8 -10   37.24   23.40
   8   8  10   48.48   22.38
  -8   8 -10   15.90   16.35
   8   8 -11   80.17   31.87
   8   8 -11   44.29   15.01
   8   8  11    3.95   10.80
  -8   8 -11   25.97   10.43
   8   8 -12    1.74    5.54
   8   8  12   -9.58   15.16
  -8   8 -12   15.18   10.58
   8   8 -13    9.05   20.45
   8   8  13   19.72   18.11
  -8   8 -13    7.45    9.07
   8   8 -14   37.10   27.02
  -8   8 -14   43.46   22.18
   8   8 -15  -12.56   16.69
  -8   8 -15   16.44   12.92
  -8   8 -16  132.93   36.67
   8   8 -16  128.04   50.32
  -8   8 -17  176.57   45.21
   8   8 -17  219.18   60.61
   8   8 -18   10.31   11.17
  -8   8 -18   39.56   17.99
  -8   8 -19   68.26   24.49
   8   8 -19    6.69   19.61
   8   8 -20  135.32   48.16
   8   8 -21    3.08   16.67
   8   8 -22   26.94   31.99
   8   8 -23   66.50   40.99
   8   8  23   61.59   35.29
   8   8  24   24.10   11.03
   8   8 -24   29.69   33.50
   8   8  25   32.70   24.72
   8   8 -25   41.96   50.31
   8   8  26   -7.77   12.83
   8   8 -26   23.65   28.32
   8   8  27   79.50   43.12
   8   8 -27   27.73   43.66
   8   8  28  -37.87   37.78
  -9   0   0  131.51   23.11
  -9   0   0  132.76   21.39
   0   9   0  106.76   30.96
  -9   0   1  818.07   49.28
  -9   0  -1  802.20   56.46
   0   9  -1 1096.98  112.11
  -9   0  -1  841.11   58.51
  -9   0   1  922.13   67.88
  -9   0   2  204.86   31.60
  -9   0   2  199.97   21.70
  -9   0  -2  215.48   30.67
   0   9  -2  173.62   37.18
  -9   0  -2  182.97   23.52
  -9   0  -3  136.01   25.99
  -9   0   3  113.46   14.86
   0   9  -3  104.51   35.30
  -9   0  -3  110.71   17.34
  -9   0  -4   20.63   16.11
  -9   0   4    3.50    2.29
   0   9  -4   -4.80    8.82
  -9   0  -4    4.92    3.97
   0   9  -5   14.02   15.88
   0   9  -6  972.58  101.00
   0   9  -7  316.75   60.14
   0   9  -8  556.12   78.27
   9   0   9  219.34   45.22
   0   9  -9  248.19   57.63
   9   0  10  553.60   70.72
   0   9 -10  422.54   70.90
   9   0  11   69.69   27.30
  -9   0  11   54.69   14.70
   0   9 -11   28.21   30.91
  -9   0  12    9.75    5.70
   9   0  12   25.02   16.61
   0   9 -12   -2.14   20.37
  -9   0  13  170.18   25.71
   9   0  13  204.80   48.54
   0   9 -13  166.44   47.31
   9   0  14  -13.64   12.24
  -9   0  14   -4.12    5.89
   0   9 -14  -13.23   15.30
  -9   0  15  196.52   31.32
   9   0  15  185.57   45.93
   0   9 -15  148.25   42.66
  -9   0  16   19.39    9.76
   9   0  16   -0.27    8.51
   0   9 -16    7.14    9.65
  -9   0  17    2.99    5.63
   9   0  17    9.11   17.79
   0   9 -17   14.43   10.44
   9   0  18  -18.75   25.66
  -9   0  18   -2.20    4.28
   0   9 -18  -12.99   29.42
   9   0  19  -21.17   26.65
  -9   0  19    5.20    6.91
   0   9 -19   23.19   10.90
   9   0  20   18.75   14.92
  -9   0  20   29.85   15.60
   0   9 -20   29.57   21.41
   9   0  21   66.75   33.99
  -9   0  21   47.24   22.35
   0   9 -21   50.72   29.44
   9   0  22   15.36   10.83
  -9   0  22   37.66   21.78
   0   9 -22   61.51   30.67
   9   0  23  -18.88   28.77
   0   9 -23  -11.42   22.76
   9   0  24   99.00   44.44
   0   9 -24  111.61   49.02
   0   9 -25   96.67   46.72
   0   9 -26   60.14   39.25
   0   9 -27   62.59   43.35
   0   9 -28  -31.09   25.58
   0   9 -29   43.20   39.15
   0   9 -30   24.60   26.40
  -1   9 -30    1.56   25.39
  -1   9 -29   42.96   40.51
  -1   9 -28   17.62   29.87
  -1   9 -27   36.48   33.19
  -1   9 -26   15.68   17.70
  -1   9 -25   23.05    8.92
  -1   9 -24   12.25   19.35
  -1   9 -23    8.58   15.36
  -9   1  22   24.35   15.92
  -1   9 -22   69.59   36.38
  -9   1  21   51.52   24.51
  -1   9 -21   54.19   37.27
  -9   1  20   18.29    7.29
  -1   9 -20   -8.52    9.65
  -9   1  19   15.96   12.26
  -1   9 -19   32.88   20.15
  -9   1  18   40.52   15.85
  -1   9 -18   -5.92   22.60
  -9   1  17   50.30   19.76
  -1   9 -17   10.10   13.32
  -9   1  16  103.22   24.81
  -1   9 -16   85.67   36.40
  -1   9 -15  125.26   40.70
  -1   9 -14   19.78   15.39
  -1   9 -13   69.01   29.58
  -1   9 -12   16.12   12.01
  -1   9 -11  104.29   34.27
  -1   9 -10  607.80   85.65
  -1   9  -9    0.69    9.46
  -1   9  -8   22.66   23.23
  -1   9  -7  353.53   60.88
  -1   9  -6   -7.83   11.06
  -1   9  -5   29.25   10.19
  -1   9  -4  589.43   75.90
  -9  -1  -4  583.09   36.20
  -9  -1  -3  620.27   46.49
  -1   9  -3  818.54   86.20
  -9   1   2   87.00   25.77
   1   9   2  167.83   45.39
  -1   9  -2  190.49   50.15
  -9  -1  -2   61.19   20.53
  -9   1   1  368.53   36.87
  -1   9  -1  273.61   47.76
   1   9   1  276.33   50.66
  -9  -1  -1  376.94   39.35
  -9   1   1  350.72   38.85
  -9   1   0   -8.72    5.05
  -9   1   0    5.61    7.47
  -1   9   0    9.26   14.52
   1   9   0   -4.06   14.85
  -9  -1   0    0.07    4.16
  -9   1  -1  367.98   40.36
   1   9  -1  318.95   55.01
  -9  -1   1  370.95   42.42
  -9   1  -1  350.78   34.44
  -9   1  -2   60.04   16.41
  -9  -1   2  138.13   30.55
  -9   1  -2   50.46   19.16
   1   9  -2  137.04   50.80
  -9   1  -3  896.62   69.29
   1   9  -3  734.57   82.92
  -9   1  -3  764.44   43.66
   1   9  -4  513.69   72.83
  -9   1  -4  514.11   31.82
   9   1   5   46.87   16.02
   1   9  -5   51.68   24.95
   9   1   6   -1.88    9.33
   1   9  -6   -3.51   16.44
   9   1   7  433.47   56.04
   1   9  -7  414.19   68.86
   9   1   8   39.59   18.56
   1   9  -8  -11.09   11.65
   9   1   9   23.80   14.08
   1   9  -9   19.90   13.48
   9   1  10  646.55   77.56
   1   9 -10  611.39   90.67
   9   1  11  168.61   41.25
   1   9 -11  118.73   37.26
  -9  -1  12   28.69    7.05
   1   9 -12   -3.09   10.94
  -9  -1  13   52.34   13.33
   9   1  13   41.66   18.78
   1   9 -13   28.97   10.28
  -9  -1  14   19.63    8.35
   9   1  14   26.44   13.93
   1   9 -14    1.59    8.48
  -9  -1  15  103.29   22.47
   9   1  15  119.81   36.45
   1   9 -15   47.54   21.24
  -9  -1  16   87.15   19.58
   9   1  16   88.37   34.03
   1   9 -16   72.72   26.73
  -9  -1  17   19.97   10.79
   9   1  17    0.37   10.20
   1   9 -17   20.39    7.76
  -9  -1  18   32.25   10.47
   9   1  18   44.51   19.51
   1   9 -18   -2.24    9.50
  -9  -1  19   36.56   14.88
   9   1  19    9.29   21.75
   1   9 -19   32.68   27.52
  -9  -1  20    6.77    6.56
   9   1  20   -2.49   18.15
   1   9 -20   32.96   23.61
  -9  -1  21   86.19   27.52
   9   1  21   25.45   25.99
   1   9 -21   55.89   30.39
   9   1  22   15.48   15.56
   1   9 -22   37.97   27.99
   9   1  23   36.45   27.89
   1   9 -23   75.30   41.93
   9   1  24   -8.86   21.94
   1   9 -24   61.40   36.65
   9   1  25   68.24   41.48
   1   9 -25   42.30   39.91
   9   1  26   31.81   28.12
   1   9 -26    0.67   17.12
   9   1  27   82.00   39.08
   1   9 -27   40.04   34.30
   9   1  28  -10.49   31.10
   1   9 -28   25.52   26.07
   9   1  29    0.70   20.60
   1   9 -29   20.46   30.30
   1   9 -30    9.85   25.00
   2   9  30   81.46   42.76
  -2   9 -30   21.44   32.74
  -2   9 -29    3.39   21.99
  -2   9 -28   -2.25   20.83
  -2   9 -27  -36.01   25.92
  -2   9 -26   29.91   26.32
  -2   9 -25    9.54   19.23
  -2   9 -24   11.32   11.66
  -9   2  23   -9.90   17.20
  -2   9 -23   21.75    7.93
  -9   2  22   49.72   23.08
  -2   9 -22   70.98   29.38
  -9   2  21   42.62   20.71
  -2   9 -21    3.71   16.83
  -9   2  20  139.20   34.46
  -2   9 -20  204.05   52.76
  -2   9 -19   12.24   20.46
  -2   9 -18  150.27   44.42
  -2   9 -17   46.18   26.15
  -2   9 -16   80.88   33.07
  -2   9 -15   -6.76   15.99
  -2   9 -14   35.00   19.57
  -2   9 -13   26.14   22.48
  -2   9 -12   56.12   26.46
   9   2 -11  109.47   34.44
  -2   9 -11   64.71   28.96
   9   2 -10  592.58   74.37
  -2   9 -10  562.45   78.28
   9   2  -9  269.67   51.19
  -2   9  -9  253.39   55.78
   9   2  -8  217.66   43.85
  -2   9  -8  209.72   46.02
   9   2  -7   27.89   20.08
  -2   9  -7   -2.04    7.38
   9   2  -6  566.00   62.60
  -2   9  -6  466.14   64.45
   9   2  -5  601.52   65.40
  -2   9  -5  853.37   91.56
   9   2  -4  326.34   44.46
  -2   9  -4  322.85   53.14
  -9  -2  -4  321.06   30.11
   9   2  -3  173.81   43.23
   2   9   3  200.44   48.33
  -9  -2  -3  210.20   30.43
  -2   9  -3  345.82   61.59
   9   2  -2   32.16   14.02
  -9   2   2   17.67    9.89
   2   9   2   13.18    9.40
  -2   9  -2   27.62   15.18
  -9  -2  -2   33.84   13.63
   9   2  -1  179.76   30.45
  -9   2   1  160.35   26.76
  -2   9  -1  173.92   40.89
   2   9   1  163.86   42.86
  -9  -2  -1  102.93   25.16
   9   2   0   52.02   15.30
  -9   2   0   42.62   13.46
   2   9   0    0.06   14.39
  -9  -2   0   29.25   14.61
   9   2   1  151.95   24.92
   2   9  -1  159.71   42.56
  -9  -2   1  118.14   25.97
   9   2   2   12.96    7.98
  -9   2  -2    6.80    8.87
   9   2   2   35.76   11.16
   2   9  -2    5.79   12.76
  -9  -2   2    0.01    7.23
   9   2   3  102.70   19.46
   9   2   3  124.12   30.50
   9   2   4  318.82   41.47
   9   2   4  293.30   25.59
   2   9  -4  268.80   55.46
   9   2   5  618.38   63.72
   2   9  -5  675.01   89.12
   9   2   5  510.45   30.82
   9   2   6  609.74   63.18
  -9   2  -6  447.49   24.67
   2   9  -6  584.74   80.68
  -9   2  -6  525.45   24.77
   9   2   7   -3.63   10.76
   2   9  -7   28.30   25.73
   9   2   8  208.53   38.17
   2   9  -8  162.98   44.82
   9   2   9  235.55   46.72
   2   9  -9  196.33   53.40
   9   2  10  591.20   71.34
   2   9 -10  508.12   76.90
   9   2  11  119.61   38.29
   2   9 -11   90.05   37.37
   9   2  12   84.23   26.11
   2   9 -12   90.33   34.89
   9   2  13  -13.05   14.12
   2   9 -13    6.88   16.84
   9   2  14   48.15   24.44
   2   9 -14   20.47   20.04
   9   2  15    4.77   10.06
   2   9 -15   -0.03   12.99
   9   2  15    0.24    3.58
   9   2  16  106.49   35.03
   2   9 -16   95.36   32.16
   9   2  17   51.56   30.82
   2   9 -17   18.14   19.13
   9   2  18  107.75   38.44
   2   9 -18  112.34   50.72
   9   2  19   73.41   30.00
   2   9 -19   62.08   35.58
   9   2  20  194.28   53.31
   2   9 -20  166.28   53.44
   9   2  21   13.60   25.16
   2   9 -21   42.22   29.45
   9   2  22   78.49   41.11
   2   9 -22  105.84   43.59
   9   2  23   17.89   22.54
   2   9 -23  -14.84   11.14
   9   2  24   20.90   21.87
   2   9 -24  -12.24   10.50
   9   2  25  -13.30   29.96
   2   9 -25  -12.70   25.13
   9   2  26  -16.53   25.62
   2   9 -26    0.82   18.26
   9   2  27   -8.62   30.00
   2   9 -27   -8.11   22.75
   9   2  28  -21.03   21.46
   2   9 -28   36.40   30.86
   9   2  29  -79.74   42.72
   2   9 -29  -49.77   33.34
   2   9 -30   29.34   45.68
  -3   9 -28  -20.81   20.29
  -3   9 -27    2.31   21.22
  -3   9 -26    1.01   11.48
  -3   9 -25   12.43   18.26
  -9   3  24   13.31   19.90
  -3   9 -24   -1.99   24.56
  -9   3  23   37.22   26.51
  -3   9 -23   11.78   16.90
  -9   3  22    4.32   10.29
  -3   9 -22    9.98   16.66
  -3   9 -21  278.73   67.44
  -3   9 -20   27.99   23.69
  -3   9 -19  146.56   45.91
  -3   9 -18   26.53   26.17
  -3   9 -17  189.10   46.81
  -3   9 -16   29.00   14.34
   9   3 -15   84.27   37.39
  -3   9 -15  107.19   37.35
   9   3 -14   -6.88   11.25
  -3   9 -14   33.27   24.88
   9   3 -13    5.17   12.07
  -3   9 -13   -6.00   20.93
   9   3 -12   -0.49    8.34
  -3   9 -12    2.34    8.56
   9   3 -11   23.63   15.64
  -3   9 -11   10.46   17.75
   9   3 -10   79.69   29.21
  -3   9 -10   85.57   35.52
   9   3  -9  263.27   48.65
  -3   9  -9  244.55   52.73
   9   3  -8   80.33   29.57
  -3   9  -8   40.67   19.52
   9   3  -7  261.50   45.56
  -3   9  -7  273.34   52.77
   9   3  -6   -5.59    9.67
  -3   9  -6   -6.78   15.35
   3   9   5  355.82   60.37
  -3   9  -5  324.48   54.87
   9   3  -5  351.53   48.45
   9   3  -4   71.06   28.24
   3   9   4  124.75   39.20
  -9  -3  -4   87.45   21.28
  -3   9  -4  185.74   42.94
   9   3  -3  104.10   24.46
  -3   9  -3  127.27   33.92
   3   9   3  131.01   35.69
  -9  -3  -3  127.08   23.10
   9   3  -2  123.66   28.54
  -3   9  -2  170.57   44.68
   3   9   2  110.31   37.90
  -9  -3  -2  183.04   32.90
   9   3  -1   12.80    7.13
   9   3  -1    9.48    5.12
   3   9   1   20.92   11.72
  -3   9  -1   -2.90   17.32
  -9  -3  -1   12.66    9.89
   9   3   0   27.51   12.13
   9   3   0   23.97   10.15
   3   9   0   50.52   28.36
  -9  -3   0   25.69   16.90
   9   3   1    5.59    8.95
   9   3   1    7.16    7.05
   3   9  -1   19.14    8.45
  -9  -3   1    7.43    8.54
   9   3   2   75.68   19.55
   9   3   2   85.34   19.79
   3   9  -2  125.98   43.90
   9   3   3  159.00   26.34
   9   3   3  143.99   22.75
   3   9  -3  120.18   36.84
   9   3   4  125.78   31.20
   9   3   4   87.77   18.87
   3   9  -4  172.18   49.79
   9   3   5  392.66   47.09
   9   3   5  353.18   31.88
   3   9  -5  425.91   64.78
   9   3   6    6.20    6.14
   9   3   6    3.06    5.79
  -9   3  -6    5.71    3.50
   3   9  -6    7.54   16.61
   9   3   7  258.97   41.54
  -9   3  -7  243.23   23.16
   3   9  -7  316.25   56.23
   9   3   7  257.12   23.94
   9   3   8   73.68   27.94
   3   9  -8   75.10   35.46
   9   3   8   38.29    8.87
  -9   3  -8   45.71    9.37
   9   3   9  341.60   52.70
   9   3   9  275.23   21.57
   3   9  -9  297.01   62.53
  -9   3  -9  303.00   22.28
   9   3  10  103.56   31.90
  -9   3 -10   69.41    9.83
   3   9 -10   66.46   26.98
   9   3  10   69.59   10.94
   9   3  11   20.93   11.48
  -9   3 -11   20.64    4.85
   3   9 -11   33.48   21.36
   9   3  11   24.10    7.22
   9   3  12    3.10    4.20
   9   3  12   -9.25   13.33
   9   3  12    2.31    2.58
   9   3  13    5.62    2.58
   3   9 -13    2.30   12.21
   9   3  13    6.94    2.39
   9   3  13   20.41   18.14
   3   9 -14   53.73   26.54
   9   3  14   18.37    5.86
   9   3  14   41.43   11.29
   9   3  14   36.54   22.41
   9   3  15   71.92   24.44
   3   9 -15   67.97   32.84
   9   3  16   35.95   26.92
   3   9 -16  -22.60   21.95
   9   3  17  233.95   55.84
   3   9 -17  172.06   56.16
   9   3  18   11.95   13.15
   3   9 -18   25.13   23.90
   9   3  19  230.08   59.84
   3   9 -19  132.49   40.94
   9   3  20    2.11   15.94
   3   9 -20  -19.90   25.55
   9   3  21  484.90   91.29
   3   9 -21  308.48   78.13
   9   3  22    2.78   16.89
   3   9 -22  -24.57   26.93
   9   3  23    7.58   21.76
   3   9 -23  -19.24   19.49
   9   3  24   30.61   27.12
   3   9 -24  -16.16   20.71
   9   3  25  -11.45   21.26
   3   9 -25    6.04   22.69
   9   3  26   14.66   12.78
   3   9 -26  -15.29   19.59
   9   3  27   28.30   27.17
   3   9 -27  -69.34   37.95
   9   3  28   23.80   32.60
   3   9 -28    5.77   38.22
   9   3  29   22.00   31.35
   3   9 -29   23.70   33.06
   3   9 -30  -16.63   21.38
   4   9  29   69.45   42.10
  -4   9 -27   12.55   14.18
  -4   9 -26   38.33   28.16
  -4   9 -25   13.80    8.31
  -4   9 -24   47.34   24.66
  -4   9 -23   13.82   18.99
  -4   9 -22  267.16   61.39
  -4   9 -21   82.88   37.69
  -4   9 -20  174.86   48.72
  -4   9 -19   25.81    7.71
   9   4 -18  245.60   64.98
  -4   9 -18  226.86   53.38
   9   4 -17   48.84   29.14
  -4   9 -17    6.54   10.42
   9   4 -16  156.75   47.75
  -4   9 -16  134.25   43.22
   9   4 -15  158.82   45.14
  -4   9 -15  139.70   40.02
   9   4 -14   14.98   11.28
  -4   9 -14   21.56   22.11
   9   4 -13  -19.32   20.81
  -4   9 -13   22.49   18.52
   9   4 -12   23.28   13.49
  -4   9 -12   18.81   13.32
   9   4 -11   37.81   19.75
  -4   9 -11   38.32   16.57
   9   4 -10  186.33   43.35
  -4   9 -10  146.77   39.39
   9   4  -9   71.67   29.66
  -4   9  -9  106.59   35.17
  -4   9  -8  416.21   64.65
   9   4  -8  415.65   60.01
   9   4  -7   65.18   31.58
  -4   9  -7   46.29   23.61
   9   4  -6  199.40   41.85
   4   9   6  118.97   35.82
  -4   9  -6  153.54   37.13
   9   4  -5   44.43   19.02
   4   9   5    2.37    5.87
  -4   9  -5   15.26   19.24
   4   9   4  334.32   55.58
  -4   9  -4  423.02   63.42
  -9  -4  -4  428.69   44.83
   9   4  -4  397.31   52.78
   9   4  -3   93.81   33.99
   4   9   3   41.16   24.06
  -4   9  -3   34.71   23.76
  -9  -4  -3   23.39   17.82
   9   4  -3   72.54   11.77
   9   4  -2  107.86   23.63
   4   9   2   77.68   23.22
  -4   9  -2   87.69   30.30
  -9  -4  -2  115.54   24.57
   9   4  -2  138.66   16.65
   9   4  -1   12.06   15.80
   9   4  -1   34.80   10.83
   4   9   1   24.16   21.01
  -9  -4  -1   10.02   10.30
   9   4   0   31.26   13.25
   4   9   0   29.81   15.57
  -9  -4   0   57.81   20.85
   9   4   1   22.59   15.12
   4   9  -1   23.63   22.89
   9   4   2  115.13   22.51
   4   9  -2   97.50   31.42
   9   4   3   63.47   24.18
   4   9  -3   57.31   44.63
   4   9  -4  406.16   65.82
   9   4   4  409.15   41.73
   4   9  -5   29.03   29.41
   9   4   5   16.43   10.50
   9   4   6  201.13   36.94
   9   4   6  207.63   27.72
  -9   4  -6  189.95   26.20
   4   9  -6  146.10   37.89
   9   4   7   85.06   24.77
  -9   4  -7   70.64   15.91
   4   9  -7   46.72   29.79
   9   4   7   58.55   15.76
   9   4   8  453.00   58.13
   9   4   8  342.54   36.14
  -9   4  -8  367.76   35.29
   4   9  -8  350.99   63.37
   9   4   9   96.57   28.96
  -9   4  -9   86.59   16.99
   4   9  -9   65.37   29.34
   9   4   9   90.76   18.93
   9   4  10  211.48   41.26
   9   4  10  193.72   26.51
  -9   4 -10  215.99   25.03
   4   9 -10  179.21   51.05
  -9   4 -11   25.45    8.35
   9   4  11   -0.53    6.28
   9   4  11   31.50    8.03
   4   9 -11   52.21   23.00
  -9   4 -12   31.16    9.98
   4   9 -12   34.96   25.15
   9   4  12   37.68   11.20
   9   4  12   38.03   17.49
  -9   4 -13    2.19    2.95
   4   9 -13  -12.90   13.15
   9   4  13   12.75    8.00
   9   4  13   -1.71   15.23
   4   9 -14   -5.13   15.12
  -9   4 -14   13.98   11.53
   9   4  14   -2.49    8.74
   9   4  14    8.54   11.54
   9   4  15  192.28   47.33
   4   9 -15  123.68   49.14
  -9   4 -15  156.24   22.74
   9   4  16  109.12   43.17
   4   9 -16   82.44   32.51
   9   4  17   -6.28    8.14
   4   9 -17  -18.49   17.07
   9   4  18  363.24   72.20
   4   9 -18  235.95   59.09
   9   4  19  102.91   38.40
   4   9 -19   49.21   33.18
   9   4  20  148.64   44.87
   4   9 -20  142.40   50.64
   9   4  21   29.60   23.62
   4   9 -21   65.98   30.72
   9   4  22  233.13   66.04
   4   9 -22  120.54   47.40
   9   4  23   56.92   31.52
   4   9 -23  -25.46   38.40
   9   4  24   80.11   43.13
   4   9 -24   -9.49   20.25
   9   4  25    7.57   23.49
   4   9 -25   -6.75   20.47
   9   4  26   -2.68   14.45
   4   9 -26   49.36   33.53
   9   4  27   22.37   19.61
   4   9 -27   -4.88   17.50
   9   4  28   23.07   31.04
   4   9 -28   17.30   21.56
   9   4  29   32.63   30.04
   4   9 -29  -65.29   38.78
   4   9 -30   18.53   26.19
   5   9  29   56.86   42.23
   5   9  28  -59.17   32.29
  -5   9 -25   44.50   30.41
  -5   9 -24   17.14    9.58
  -5   9 -23   82.53   38.34
  -5   9 -22    4.25   11.30
   9   5 -21  181.34   59.38
  -5   9 -21  165.96   47.48
   9   5 -20   13.13   15.23
  -5   9 -20    4.56   11.62
   9   5 -19  187.20   58.80
  -5   9 -19  182.70   51.77
   9   5 -18   43.11   29.56
  -5   9 -18   44.23   23.46
   9   5 -17  112.82   46.96
  -5   9 -17   39.30   28.50
   9   5 -16  107.01   40.47
  -5   9 -16  108.49   31.97
   9   5 -15  382.05   73.31
  -5   9 -15  345.20   60.76
   9   5 -14   23.42   20.15
  -5   9 -14  -18.66   14.36
   9   5 -13   46.21   26.94
  -5   9 -13   78.03   28.09
   9   5 -12  -16.26    8.43
  -5   9 -12   29.81   13.98
   9   5 -11  126.33   34.19
  -5   9 -11  219.69   47.96
   9   5 -10  333.76   62.45
  -5   9 -10  338.97   62.72
   9   5  -9  136.81   35.81
  -5   9  -9  187.56   43.28
   9   5  -8   30.02   13.54
   5   9   8   33.60   21.04
  -5   9  -8   26.68   18.82
   9   5  -7  351.77   56.25
   5   9   7  263.45   51.93
  -5   9  -7  274.09   51.90
   9   5  -6  180.30   41.92
  -5   9  -6  171.33   40.20
   5   9   6  131.88   35.21
   9   5  -5  116.97   31.63
  -5   9  -5  155.61   39.48
   5   9   5  133.17   36.93
   5   9   4  179.32   43.29
  -5   9  -4  285.35   51.81
   9   5  -4  281.18   50.94
   9   5  -3    1.89   10.50
  -5   9  -3    4.96   10.71
   5   9   3   -0.69   15.42
  -9  -5  -3   -8.60   13.62
   9   5  -2  132.48   32.88
  -9  -5  -2  143.03   30.46
   5   9   2   96.69   29.23
   9   5  -1   59.90   20.26
   5   9   1   33.41   18.28
   9   5   0  107.02   26.94
   5   9   0   89.47   29.32
   9   5   1   31.80   13.46
   5   9  -1   87.91   25.32
   9   5   2  185.31   33.31
   5   9  -2  142.85   41.90
   9   5   3   12.74   10.25
   5   9  -3    4.58   12.36
   9   5   4  228.43   37.01
   5   9  -4  239.84   57.98
   5   9  -5  155.55   41.75
   9   5   5  123.82   27.45
  -9   5  -6  158.53   27.80
   5   9  -6  181.19   45.31
   9   5   6  140.12   28.98
   9   5   7  237.41   37.84
  -9   5  -7  257.63   34.15
   5   9  -7  246.43   56.67
  -9   5  -8   58.61   16.57
   5   9  -8   55.93   30.59
   9   5   8   64.85   19.17
   9   5   9  197.77   31.99
  -9   5  -9  155.65   25.15
   5   9  -9  125.81   40.56
   9   5  10  300.31   36.55
  -9   5 -10  299.03   37.02
   5   9 -10  325.23   73.52
   5   9 -11  186.65   48.90
   9   5  11  225.52   30.43
  -9   5 -11  178.70   26.43
   5   9 -12   18.60   19.28
  -9   5 -12   19.40    7.38
   9   5  12   38.09   12.16
  -9   5 -13   56.07   15.96
   5   9 -13   58.57   27.98
   9   5  13   53.63   16.09
   9   5  13   73.22   24.46
   5   9 -14    5.64   16.67
  -9   5 -14   -0.09    7.14
   9   5  14   13.99   14.56
   9   5  14    0.02    6.58
   9   5  15  363.91   68.25
   5   9 -15  330.45   71.56
  -9   5 -15  330.85   40.01
   9   5  16  151.70   45.45
   5   9 -16  106.57   39.38
  -9   5 -16  122.05   24.08
   9   5  17   55.48   31.50
   5   9 -17   75.74   39.29
  -9   5 -17   53.66   19.89
   9   5  18   77.88   34.64
   5   9 -18   33.13   26.62
   9   5  19  198.37   52.48
   5   9 -19  206.97   59.20
   9   5  20   13.31   11.58
   5   9 -20   -4.59   26.57
   9   5  21  194.15   54.59
   5   9 -21  125.59   48.77
   9   5  22   24.60   22.17
   5   9 -22   75.24   38.87
   9   5  23   58.28   33.52
   5   9 -23   35.47   30.48
   9   5  24   10.32   14.24
   5   9 -24    2.74   16.68
   9   5  25   -3.26   16.36
   5   9 -25  -25.80   24.22
   9   5  26   14.87   27.35
   5   9 -26   -9.96   17.46
   9   5  27  102.44   49.60
   5   9 -27  135.50   61.12
   5   9 -28   -5.36   14.85
   9   5  28   -2.29   22.77
   5   9 -29   35.80   30.17
   9   5  29   -4.79   12.38
   5   9 -30   28.07   32.20
   6   9  28   18.72   15.19
   6   9  27   85.74   43.75
   9   6 -23   33.25   38.55
  -6   9 -23   26.91   18.83
   9   6 -22   19.14   24.88
  -6   9 -22   11.73   13.85
   9   6 -21   35.54   27.02
  -6   9 -21    4.43    8.57
   9   6 -20   66.99   39.64
  -6   9 -20   69.23   30.77
   9   6 -19   28.13   25.03
  -6   9 -19   31.85   12.98
   9   6 -18  127.96   47.49
  -6   9 -18   89.71   34.32
   9   6 -17   12.62   19.25
  -6   9 -17   48.71   26.03
   9   6 -16   16.78   24.76
  -6   9 -16   39.78   19.94
   9   6 -15  275.63   63.10
  -6   9 -15  270.70   54.29
   9   6 -14   18.37   24.58
  -6   9 -14    1.19   10.75
   9   6 -13  184.56   51.72
  -6   9 -13  219.42   50.52
   9   6 -12   32.12   28.67
  -6   9 -12   26.63   20.58
   9   6 -11  377.28   70.56
  -6   9 -11  348.65   64.80
   9   6 -10   33.18   25.40
   6   9  10   24.60   21.44
  -6   9 -10   26.60   13.99
   9   6  -9   10.95   11.88
   9   6  -9   34.64    8.53
   6   9   9   51.77   23.21
  -6   9  -9   15.20    8.94
   9   6  -8  197.21   46.58
   6   9   8  142.02   36.66
  -6   9  -8  135.79   34.95
   9   6  -8  174.48   18.54
   9   6  -7  254.19   51.60
   6   9   7  185.71   45.43
  -6   9  -7  198.58   43.93
   9   6  -6  217.23   44.85
   6   9   6  159.88   36.54
  -6   9  -6  174.62   40.80
   9   6  -5   52.30   28.74
   6   9   5   59.59   28.46
  -6   9  -5   47.33   26.55
   9   6  -4  255.13   47.94
  -6   9  -4  221.43   42.13
   6   9   4  222.85   42.00
   9   6  -3  -11.66   15.48
   6   9   3    8.67   10.48
  -6   9  -3    4.95   15.47
   9   6  -2   76.52   25.63
   6   9   2   87.50   28.25
   6   9   1  496.28   72.49
   9   6  -1  551.03   65.98
   9   6   0   16.91   10.14
   6   9   0   -5.39    9.14
   9   6   1  546.23   65.27
   6   9  -1  507.90   72.99
   6   9  -2   40.38   18.21
   9   6   2   57.21   17.98
   6   9  -3   12.63   22.08
   9   6   3  -20.90   19.91
   9   6   4  200.41   38.92
   6   9  -4  206.64   47.41
  -9   6  -5   52.68   17.78
   9   6   5   67.87   24.16
   6   9  -5  138.78   45.30
  -9   6  -6  177.17   32.48
   9   6   6  189.95   36.46
   6   9  -6  230.74   53.39
  -9   6  -7  197.24   35.17
   6   9  -7  230.37   54.80
   9   6   7  179.78   39.18
  -9   6  -8  183.06   31.64
   9   6   8  167.57   34.38
   6   9  -8  189.14   55.25
   9   6   9   35.12   15.70
  -9   6  -9   32.31   14.58
   6   9  -9   39.95   26.25
   6   9 -10   56.79   33.17
   9   6  10   20.77   10.65
  -9   6 -10   36.47   14.93
   9   6  11  307.85   43.06
  -9   6 -11  442.90   52.31
   6   9 -11  486.95   81.48
   6   9 -12   11.84   15.81
   9   6  12    6.55   10.60
  -9   6 -12   -0.25   11.06
  -9   6 -13  224.39   37.05
   6   9 -13  157.68   48.10
   9   6  13  200.96   33.40
   6   9 -14   19.12   18.50
  -9   6 -14   -2.27    8.33
   9   6  14    7.70   10.57
   6   9 -15  285.99   64.46
   9   6  15  258.74   39.71
  -9   6 -15  281.94   40.73
   9   6  16   36.30   24.28
  -9   6 -16   21.68   12.67
   6   9 -16   43.82   29.02
   9   6  17   61.34   29.31
   6   9 -17   41.35   34.23
  -9   6 -17   41.70   16.81
   9   6  18  107.73   40.63
   6   9 -18  139.74   50.77
   9   6  19  -14.97   13.94
   6   9 -19   41.40   25.18
   9   6  20  154.50   49.10
   6   9 -20   91.30   40.16
   9   6  21   60.95   37.03
   6   9 -21   23.39   26.36
   9   6  22   35.68   23.01
   6   9 -22   32.18   26.98
   9   6  23   -4.57   10.67
   6   9 -23   -8.41   16.37
   9   6  24   65.05   43.80
   6   9 -24   85.39   45.89
   9   6  25   40.28   37.73
   6   9 -25   29.14   24.61
   9   6  26   53.25   37.29
   6   9 -26   40.14   17.73
   9   6  27  118.75   53.54
   6   9 -27   75.35   44.89
   9   6  28   45.11   30.56
   6   9 -28   18.78   29.40
   6   9 -29    2.74   16.14
   7   9  28   58.83   37.55
   7   9  27  118.87   57.69
   7   9  26   37.03   29.72
   9   7 -25   39.03   36.61
   9   7 -24   27.11   40.63
   9   7 -23    1.50   10.42
   9   7 -22   22.64   22.94
   9   7 -21  119.00   56.47
  -7   9 -21   42.50   22.70
   9   7 -20    1.60   12.83
  -7   9 -20    2.07   15.41
   9   7 -19   25.59   16.13
  -7   9 -19   49.75   26.34
  -7   9 -18   22.40   16.54
   9   7 -18   37.60   31.83
   9   7 -17   78.10   36.28
  -7   9 -17   62.64   30.40
   9   7 -16   59.73   31.05
  -7   9 -16    9.69   18.37
   9   7 -15   67.96   32.91
  -7   9 -15   82.77   29.77
   9   7 -14   -6.25   19.87
  -7   9 -14   -0.44   16.50
   9   7 -13  170.15   50.75
  -7   9 -13  117.13   33.90
   9   7 -12   15.36   13.28
   7   9  12  -13.95    9.54
  -7   9 -12   17.35   17.47
   9   7 -11  105.99   38.98
   9   7 -11   96.67   17.83
   7   9  11   78.82   28.33
  -7   9 -11   95.25   31.72
   9   7 -10  205.70   54.35
   9   7 -10  157.66   24.49
   7   9  10  181.90   41.83
  -7   9 -10  188.02   50.59
   9   7  -9  128.21   40.35
   9   7  -9  109.52   18.11
   7   9   9  116.66   34.77
  -7   9  -9   93.79   29.92
   9   7  -8   61.06   24.65
  -7   9  -8   71.20   28.08
   7   9   8   61.67   27.14
   9   7  -7  261.64   54.78
  -7   9  -7  266.20   49.11
   7   9   7  300.60   54.63
   7   9   6   31.14   17.83
  -7   9  -6   35.67   17.12
   9   7  -5   86.70   31.98
   7   9   5  124.83   34.81
  -7   9  -5   72.69   26.62
   9   7  -4  124.29   36.69
   7   9   4  119.63   32.94
  -7   9  -4  109.27   33.59
   9   7  -3   37.06   25.09
   7   9   3   99.91   29.69
   9   7  -2  129.48   39.61
   7   9   2  114.05   37.27
   9   7  -1  348.18   55.02
   7   9   1  267.93   57.77
   7   9   0  109.13   38.47
   9   7   0  161.12   38.64
   7   9  -1  355.14   57.81
   9   7   1  300.05   51.87
   7   9  -2  105.64   43.22
   9   7   2  148.52   38.01
   9   7   3   51.93   19.77
   7   9  -3   43.72   18.76
   9   7   4  103.26   29.74
   7   9  -4   42.40   22.28
  -9   7  -5   99.57   25.43
   9   7   5  102.09   30.94
   7   9  -5  101.27   33.34
  -9   7  -6   16.51   13.24
   7   9  -6   73.30   27.56
   9   7   6   61.06   24.57
  -9   7  -7  292.19   44.92
   7   9  -7  279.99   56.39
   9   7   7  288.64   45.89
   9   7   8   91.36   27.42
  -9   7  -8   54.01   18.74
   7   9  -8   56.67   24.48
   7   9  -9  146.54   44.99
   9   7   9  124.10   30.12
  -9   7  -9   96.71   26.44
   7   9 -10  217.74   57.38
   9   7  10  183.71   37.14
  -9   7 -10  248.62   43.23
   7   9 -11   85.08   38.90
   9   7  11  114.65   29.45
  -9   7 -11   96.46   26.73
   7   9 -12   40.63   27.44
   9   7  12   12.81   13.95
  -9   7 -12  -15.71   13.30
   7   9 -13  135.61   44.36
   9   7  13  132.99   30.22
  -9   7 -13  111.50   28.09
   9   7  14   -4.57   11.47
  -9   7 -14    7.92    5.15
   7   9 -15   67.58   39.19
  -9   7 -15  106.80   27.97
   9   7  15   92.92   29.19
  -9   7 -16   11.58    8.60
   7   9 -16    3.73   21.14
   9   7  16   14.12   13.90
   7   9 -17  108.17   43.10
  -9   7 -17   46.88   22.45
   7   9 -18   -0.22   23.04
   9   7  19   50.71   25.24
   7   9 -19   52.47   31.54
   9   7  20  -14.63   25.39
   7   9 -20    7.07   15.47
   9   7  21   72.36   34.64
   7   9 -21    3.49   14.80
   9   7  22   35.37   20.17
   7   9 -22   13.99   23.10
   9   7  23   30.87   25.39
   7   9 -23    2.86   12.29
   9   7  24   65.11   37.54
   7   9 -24   24.11   16.30
   9   7  25   45.63   39.92
   7   9 -25   47.59   43.71
   7   9 -26   22.29   21.35
   9   7  26  -32.22   33.41
   9   7  27   10.34   14.95
   7   9 -27   40.35   43.97
   9   7  28   45.17   29.47
   7   9 -28   11.80   23.01
   8   9  27  -86.10   44.35
   8   9  26    7.67   14.76
   9   8 -26   91.18   50.98
   9   8 -25    5.58   25.86
   8   9  25   11.23   18.92
   9   8 -24    2.11   23.84
   9   8 -23   31.75   28.18
   9   8 -22   24.03   21.35
   9   8 -21   81.44   40.20
   9   8 -20  178.22   56.13
   9   8 -19   26.28   20.53
  -8   9 -19   41.92   20.56
  -8   9 -18   46.22   27.01
   9   8 -18   82.96   35.36
   9   8 -17    4.64   12.55
  -8   9 -17   37.79   20.67
   9   8 -16   25.48   26.66
  -8   9 -16   86.02   31.63
   9   8 -15  -10.69   20.37
  -8   9 -15   -4.69    7.40
   9   8 -14   -2.26    9.90
   8   9  14   25.14   16.86
  -8   9 -14  -10.20   10.39
   9   8 -13   22.29   18.11
   8   9  13    1.59    8.61
  -8   9 -13  -14.26   17.67
   9   8 -12   26.22   20.54
   8   9  12    7.17   11.16
  -8   9 -12   -7.05   14.23
   9   8 -11   -3.67   14.93
   8   9  11   21.24   17.06
  -8   9 -11   29.86   21.21
   9   8 -10  106.74   34.84
   8   9  10   86.46   31.21
  -8   9 -10   77.10   26.47
   9   8  -9  335.61   65.81
  -8   9  -9  321.19   56.15
   8   9   9  300.28   53.29
   9   8  -8  180.69   44.26
   8   9   8  151.08   37.60
  -8   9  -8  160.77   40.51
   9   8  -7  370.17   68.57
  -8   9  -7  274.09   50.54
   8   9   7  214.37   45.74
   9   8  -6  202.61   50.36
  -8   9  -6  177.01   41.79
   8   9   6  178.37   41.87
   9   8  -5  253.92   53.86
  -8   9  -5  206.82   42.86
   8   9   5  264.42   51.44
   9   8  -4  185.95   43.77
  -8   9  -4  139.49   35.27
   8   9   4  122.59   34.67
   8   9   3   50.48   26.84
   9   8  -3  118.78   41.06
   8   9   2   59.57   25.11
   9   8  -2  141.86   38.13
   9   8  -1  290.91   56.41
   8   9   1  195.30   46.40
   9   8   0    1.41   14.62
   8   9   0   19.70   17.25
   9   8   1  251.92   50.99
   8   9  -1  259.86   53.07
   9   8   2   84.23   29.85
   8   9  -2   82.25   33.48
   9   8   3   66.91   30.41
   8   9  -3   79.29   33.77
   8   9  -4   94.77   29.36
   9   8   4  121.14   33.67
  -9   8  -5  185.36   39.55
   8   9  -5  269.21   57.88
   9   8   5  215.78   46.26
  -9   8  -6  195.91   39.31
   9   8   6  187.99   38.89
   8   9  -6  201.21   48.33
   8   9  -7  375.72   73.44
  -9   8  -7  289.04   50.53
   9   8   7  364.72   58.34
   8   9  -8  142.56   44.57
  -9   8  -8  122.13   33.11
   9   8   8  119.66   29.54
   8   9  -9  280.29   63.64
  -9   8  -9  344.75   52.42
   9   8   9  335.59   53.02
   8   9 -10  138.60   44.79
   9   8  10  132.58   31.99
  -9   8 -10  103.26   27.86
   8   9 -11   11.85   17.49
   9   8  11    3.17    9.60
  -9   8 -11   20.04   16.97
   8   9 -12   12.11   16.35
   9   8  12   -5.82   13.21
  -9   8 -12   16.72   12.94
   8   9 -13  -26.67   27.59
   9   8  13    8.87   11.56
  -9   8 -13   -4.35    6.09
   8   9 -14  -13.55   16.22
   9   8  14   12.69   13.29
  -9   8 -14   14.90   13.17
  -9   8 -15    8.48   16.88
   8   9 -15    3.35   16.33
   9   8  15   -2.93   10.78
   8   9 -16   26.81   16.44
  -9   8 -16   77.20   30.05
   9   8  16   75.58   31.27
   8   9 -17    2.26   22.28
  -9   8 -17   38.02   22.33
   8   9 -18   63.85   34.86
   8   9 -19   11.03   15.83
   8   9 -20  105.36   42.29
   9   8  21   15.35   23.48
   8   9 -21   39.87   36.63
   9   8  22  113.49   50.83
   8   9 -22   45.79   36.39
   9   8  23   14.49   20.53
   8   9 -23   13.04   23.09
   9   8  24   17.12   20.25
   8   9 -24   30.91   28.78
   9   8  25    6.99   18.46
   8   9 -25   15.16   15.03
   9   8  26   37.07   42.39
   8   9 -26   12.28   18.85
   9   8  27   11.75   24.52
   8   9 -27   37.05   38.35
   8   9 -28   83.97   51.76
   9   9   0   30.09   15.88
   9   9   1   23.94   21.95
   9   9  -1   -0.54   13.53
   9   9   2  136.15   37.50
   9   9  -2  195.72   47.53
   9   9  -3    1.27   10.49
   9   9   3   -4.14    8.49
  -9   9  -4   87.33   29.58
   9   9  -4  152.09   45.22
   9   9   4   80.63   33.17
   9   9   5  424.70   69.42
  -9   9  -5  423.76   61.28
   9   9  -5  446.40   75.06
  -9   9  -6   31.50   16.91
   9   9   6  102.40   31.52
   9   9   7  444.93   66.20
  -9   9  -7  494.19   67.32
   9   9  -7  538.70   85.98
   9   9  -8   77.96   35.26
   9   9   8   53.32   26.16
  -9   9  -8   75.14   28.72
   9   9  -9  360.34   74.03
   9   9   9  378.19   59.20
  -9   9  -9  293.15   52.23
   9   9 -10   -2.44    8.69
   9   9  10   -8.86   16.72
  -9   9 -10   -2.14    7.50
   9   9 -11  -12.89   13.87
   9   9  11  -34.70   24.07
  -9   9 -11    2.35   13.80
   9   9 -12   -2.25   14.73
   9   9  12   19.12   19.15
  -9   9 -12  -13.35   20.91
   9   9 -13   78.33   36.36
   9   9  13   74.10   26.79
  -9   9 -13   49.58   20.38
   9   9 -14   26.47   29.14
   9   9  14   -6.47   14.71
  -9   9 -14   -1.63   15.15
   9   9 -15   10.94   19.10
   9   9  15   19.08   15.31
  -9   9 -15   22.25   21.12
  -9   9 -16   20.09   18.26
   9   9 -16   -8.82   22.40
   9   9  16  -24.34   17.95
   9   9 -17    2.99   15.07
  -9   9 -17  -13.91    5.91
   9   9  17   13.51   17.70
   9   9 -18   42.47   34.39
   9   9 -19   92.19   42.69
   9   9 -20    5.66   20.74
   9   9 -21  327.80   80.91
   9   9 -22   39.49   31.40
   9   9  23   33.65   25.19
   9   9 -23    1.79    9.97
   9   9  24   -2.60   17.82
   9   9 -24  -25.44   25.31
   9   9  25  -23.11   21.93
   9   9 -25   21.86   29.88
   9   9 -26   -6.86   19.27
   9   9  26  -13.02   14.63
   9   9  27   41.96   38.44
   9   9 -27   -1.22   12.53
 -10   0   0  234.12   30.42
   0  10   0  410.76   69.23
 -10   0   0  265.31   37.95
 -10   0  -1   74.50   16.91
 -10   0   1   96.31   22.44
 -10   0   1   75.53   15.65
 -10   0  -1   80.13   17.74
   0  10   1  102.56   33.53
   0  10  -1   44.75   14.96
 -10   0   2  466.17   35.62
 -10   0  -2  480.81   49.36
   0  10  -2  578.62   83.00
   0  10   2  719.37   94.90
 -10   0  -2  475.77   42.07
 -10   0   3   17.62    7.37
   0  10  -3    8.13   11.81
 -10   0  -3    9.30    3.56
 -10   0   4    8.18    3.28
   0  10  -4   23.33   27.03
 -10   0  -4    3.78    6.90
 -10   0   5    9.17    3.53
   0  10  -5    3.98   15.65
   0  10  -6  433.24   74.35
   0  10  -7   26.41   16.94
   0  10  -8  792.19  100.03
   0  10  -9  283.68   60.82
 -10   0  10  500.77   30.36
   0  10 -10  564.76   87.74
 -10   0  11  284.09   25.37
   0  10 -11  273.53   59.72
 -10   0  12  226.00   25.46
   0  10 -12  287.59   72.00
  10   0  13   48.26   29.84
 -10   0  13   18.70   11.33
   0  10 -13   10.80   18.32
 -10   0  14  404.16   39.05
  10   0  14  407.01   71.90
   0  10 -14  404.32   74.62
 -10   0  15  141.60   24.31
  10   0  15  159.97   44.79
   0  10 -15  116.73   42.96
  10   0  16   28.56   15.99
 -10   0  16   35.89   10.70
   0  10 -16   16.97   17.10
  10   0  17   21.76   30.33
 -10   0  17    9.20    6.93
   0  10 -17   27.46   26.70
 -10   0  18   12.27   12.08
   0  10 -18   -3.82    8.92
  10   0  19  124.98   43.08
 -10   0  19  102.36   26.85
   0  10 -19  100.46   42.27
  10   0  20   55.47   28.05
   0  10 -20   35.23   23.22
   0  10 -21    5.37   10.19
   0  10 -22   17.54   21.34
   0  10 -23   54.43   35.79
   0  10 -24  -27.41   23.15
   0  10 -25  114.22   48.38
   0  10 -26   16.86   17.51
   0  10 -27  -34.21   26.65
   0  10 -28   84.03   44.77
   0  10 -29   10.33   20.58
   0  10 -30   23.54   43.86
   0  10 -31   25.18   35.27
  -1  10 -31   14.05   10.66
  -1  10 -30   20.28   37.48
  -1  10 -29   41.91   27.61
  -1  10 -28   63.86   43.65
  -1  10 -27   10.76   16.37
  -1  10 -26   18.92   20.10
  -1  10 -25   38.80   29.17
  -1  10 -24   47.78   31.92
  -1  10 -23  -64.74   33.15
  -1  10 -22   27.79   16.60
  -1  10 -21   17.25   17.01
  -1  10 -20   36.87   20.72
 -10   1  19  117.97   29.70
  -1  10 -19  159.37   51.22
 -10   1  18   28.31   13.85
  -1  10 -18   10.97   15.71
 -10   1  17   70.27   21.29
  -1  10 -17   76.63   33.53
 -10   1  16  139.29   29.88
  -1  10 -16   76.16   33.73
  -1  10 -15   34.66   21.01
  -1  10 -14  237.21   53.69
  -1  10 -13   49.93   26.41
  -1  10 -12  355.42   67.22
  -1  10 -11    5.63   13.02
  -1  10 -10  111.63   37.69
  -1  10  -9  530.07   81.22
  -1  10  -8   42.39   23.33
  -1  10  -7  369.00   66.35
  -1  10  -6    6.91   12.32
  -1  10  -5  -12.95   21.63
 -10  -1  -5   10.78    3.31
 -10  -1  -4  237.15   24.72
  -1  10  -4  218.07   44.02
 -10  -1  -3  434.20   42.40
   1  10   3  654.80   84.65
  -1  10  -3  656.05   86.05
 -10   1   2  391.66   37.28
 -10  -1  -2  296.42   35.01
  -1  10  -2  273.74   52.75
   1  10   2  388.24   64.26
 -10   1   1   32.21   16.89
 -10   1   1    9.13    7.81
   1  10   1   65.75   33.22
  -1  10  -1   64.74   33.77
 -10  -1  -1   34.63   15.88
 -10   1   0  307.73   36.58
  -1  10   0  303.21   55.17
   1  10   0  270.49   51.70
 -10  -1   0  314.03   39.24
 -10   1   0  310.13   37.64
 -10   1  -1   15.80   12.98
 -10  -1   1   24.92   15.60
 -10   1  -1    9.42   13.13
   1  10  -1   24.59   28.29
 -10   1  -2  392.27   44.89
   1  10  -2  282.36   50.16
 -10   1  -2  369.92   36.68
   1  10  -3  480.94   77.17
 -10   1  -3  423.29   36.67
   1  10  -4  223.58   47.60
 -10   1  -4  223.42   23.31
 -10   1  -5    3.53    4.45
   1  10  -5   31.32   25.53
   1  10  -6   12.99   11.20
  10   1   7  369.70   55.25
   1  10  -7  348.36   70.97
  10   1   8   49.85   20.11
   1  10  -8   73.00   36.40
  10   1   9  461.73   62.69
   1  10  -9  423.99   76.24
  10   1  10  105.67   32.42
   1  10 -10   90.92   32.90
  10   1  11   51.28   25.36
   1  10 -11   29.40   20.88
  10   1  12  410.57   65.85
   1  10 -12  406.47   75.00
  10   1  13   12.92   14.54
   1  10 -13   15.68   13.93
  10   1  14  243.94   54.05
   1  10 -14  220.30   54.17
  10   1  15   49.29   28.55
   1  10 -15   14.70   12.43
  10   1  16  113.42   35.04
   1  10 -16  121.11   43.16
  10   1  17   48.36   22.46
   1  10 -17   56.16   26.01
  10   1  18  -23.66   22.04
   1  10 -18    6.06    9.73
  10   1  19  158.55   46.90
   1  10 -19  105.32   44.21
  10   1  20   36.29   20.70
   1  10 -20    4.94   11.52
  10   1  21    7.95   15.36
   1  10 -21   28.55   17.32
  10   1  22   14.26   18.29
   1  10 -22   45.53   34.65
  10   1  23   30.10   24.23
   1  10 -23   -9.01   17.35
  10   1  24   50.35   36.83
   1  10 -24  109.26   47.80
  10   1  25  -29.64   33.28
   1  10 -25   58.62   36.09
  10   1  26    7.75   20.57
   1  10 -26   22.60   27.44
  10   1  27   22.20   31.03
   1  10 -27    2.78   11.59
   1  10 -28   55.98   37.46
   1  10 -29    9.50   13.27
   1  10 -30    5.56   31.76
   1  10 -31   22.24   26.17
  -2  10 -30    0.95    9.75
  -2  10 -29   80.64   43.61
  -2  10 -28   10.76   14.93
  -2  10 -27   33.46   31.80
  -2  10 -26   -6.05   20.59
  -2  10 -25   46.74   30.83
  -2  10 -24   43.66   33.54
  -2  10 -23  -11.12   23.88
  -2  10 -22   16.09   23.05
  -2  10 -21  110.22   45.51
 -10   2  20  273.67   47.12
  -2  10 -20  231.45   60.36
 -10   2  19    9.97   10.61
  -2  10 -19    1.71    9.87
  -2  10 -18   35.47   27.63
  -2  10 -17  256.42   57.00
  -2  10 -16   42.26   24.36
  -2  10 -15  111.02   41.10
  -2  10 -14    8.69   12.49
  -2  10 -13   40.72   31.39
  -2  10 -12    0.13   13.39
  -2  10 -11  218.43   50.85
  -2  10 -10   51.03   27.44
  -2  10  -9   30.63   15.08
  10   2  -8  478.60   66.78
  -2  10  -8  602.03   84.47
  10   2  -7    9.79   10.01
  -2  10  -7   -6.15   15.64
  -2  10  -6   40.18   28.55
  10   2  -6   25.64   23.26
  10   2  -5  375.24   51.18
  -2  10  -5  388.71   62.16
  10   2  -4  774.74   76.11
   2  10   4  898.62   97.36
 -10  -2  -4  858.68   53.55
  -2  10  -4  904.19   98.98
  10   2  -3  312.01   42.87
 -10  -2  -3  321.64   35.22
   2  10   3  300.57   54.13
  -2  10  -3  282.51   51.24
  10   2  -2   37.18   20.78
   2  10   2   28.43   29.56
  -2  10  -2   33.74   26.07
 -10  -2  -2   25.13   17.00
 -10   2   1   95.17   19.83
  10   2  -1   76.48   20.70
  -2  10  -1   80.59   28.37
   2  10   1   84.20   29.63
 -10  -2  -1   68.61   20.13
 -10   2   0   90.83   19.60
  10   2   0   94.48   20.89
   2  10   0   78.79   26.69
  -2  10   0   49.84   18.27
 -10  -2   0   73.26   21.27
 -10   2  -1   97.96   20.11
 -10   2  -1   66.13   19.02
  10   2   1   70.27   18.23
   2  10  -1   65.08   25.77
 -10  -2   1   88.22   24.29
 -10   2  -2   28.98   12.65
   2  10  -2   35.69   34.93
  10   2   2   17.60   12.40
  10   2   3  292.05   30.59
 -10   2  -3  291.17   29.87
  10   2   3  313.40   40.15
   2  10  -3  269.41   56.57
  10   2   4  738.30   65.60
   2  10  -4  745.40   96.34
 -10   2  -4  718.67   45.71
  10   2   5  341.50   45.88
   2  10  -5  403.91   68.11
 -10   2  -5  337.30   25.72
 -10   2  -6   11.76    5.88
  10   2   6    1.84   15.79
 -10   2  -6   21.63    6.99
   2  10  -6   45.44   31.66
  10   2   7   18.30    8.92
   2  10  -7   34.21   15.90
  10   2   8  411.14   57.33
   2  10  -8  413.39   71.70
  10   2   9   60.28   22.64
   2  10  -9   87.57   37.71
  10   2  10   38.89   16.92
   2  10 -10   44.86   28.00
  10   2  11  203.47   43.94
   2  10 -11  279.76   61.98
  10   2  12    9.15    9.48
   2  10 -12    1.66    9.75
  10   2  13   51.53   30.15
   2  10 -13   34.24   17.35
  10   2  14   32.00   18.75
   2  10 -14   18.48   14.61
  10   2  15  145.81   43.66
   2  10 -15  107.50   45.53
  10   2  16   86.13   34.78
   2  10 -16   20.85   12.51
  10   2  17  276.66   64.78
   2  10 -17  331.69   68.94
  10   2  18   35.46   14.67
   2  10 -18   51.39   32.08
  10   2  19  107.51   40.18
   2  10 -19   11.70   10.69
  10   2  20  287.97   70.24
   2  10 -20  179.06   57.20
  10   2  21  110.52   43.05
   2  10 -21   85.02   40.43
  10   2  22   13.25   14.73
   2  10 -22  -13.92   10.19
  10   2  23   60.23   36.65
   2  10 -23   19.40   29.37
  10   2  24   45.88   32.48
   2  10 -24   47.60   28.24
  10   2  25   41.21   35.05
   2  10 -25  -10.83   23.92
  10   2  26   13.16   18.79
   2  10 -26  -48.07   31.40
  10   2  27   -3.01   18.87
   2  10 -27  -54.68   34.16
  10   2  28   22.40   24.07
   2  10 -28  -24.14   24.39
  10   2  29   82.10   47.02
   2  10 -29   79.85   53.07
   2  10 -30    5.04   20.24
   2  10 -31  -15.77   21.86
  -3  10 -28   15.73   39.33
  -3  10 -27  -39.56   27.06
  -3  10 -26   18.34   22.58
  -3  10 -25    0.04   14.88
  -3  10 -24   41.88   32.29
  -3  10 -23   10.37   14.98
  -3  10 -22  220.85   62.56
  -3  10 -21   66.01   30.57
  -3  10 -20  172.68   55.68
  -3  10 -19   45.20   32.80
  -3  10 -18   12.73   20.58
  -3  10 -17  126.82   42.40
  -3  10 -16   62.45   32.64
  -3  10 -15  100.69   37.15
  10   3 -14  108.40   36.61
  -3  10 -14  101.81   36.52
  10   3 -13  229.93   51.56
  -3  10 -13  160.23   44.81
  10   3 -12   48.48   22.13
  -3  10 -12   65.22   29.61
  10   3 -11   -5.77   15.22
  -3  10 -11   23.08   23.16
  10   3 -10  165.25   41.45
  -3  10 -10  134.32   38.54
  10   3  -9   68.78   27.20
  -3  10  -9   48.29   26.63
  10   3  -8  136.72   36.00
  -3  10  -8  158.42   43.14
  10   3  -7   28.69   23.56
  -3  10  -7    0.90   10.38
  10   3  -6  313.89   49.25
  -3  10  -6  256.83   53.27
  10   3  -5   31.24   22.73
   3  10   5   19.21   19.41
  -3  10  -5   36.19   19.57
  10   3  -4   72.23   20.21
 -10  -3  -4  112.13   20.96
   3  10   4   37.46   20.69
  -3  10  -4  122.08   34.06
  10   3  -3  111.79   29.55
 -10  -3  -3  130.06   27.18
   3  10   3  161.15   43.74
  -3  10  -3  199.72   49.59
  10   3  -2  104.01   25.14
 -10  -3  -2  128.95   26.24
  -3  10  -2   77.36   25.33
   3  10   2  100.64   33.21
  10   3  -1   68.27   21.06
  -3  10  -1   42.52   20.69
   3  10   1  110.62   35.91
 -10  -3  -1   83.54   24.06
  10   3   0    9.83    4.72
  10   3   0   17.66    8.77
   3  10   0   11.76    9.53
 -10  -3   0   21.87   12.97
  10   3   1   72.58   20.12
   3  10  -1   58.05   30.31
  10   3   1  104.20   21.50
  10   3   2  106.00   20.53
  10   3   2  138.66   24.41
   3  10  -2  124.55   38.31
  10   3   3  118.30   27.74
  10   3   3   64.09   16.25
   3  10  -3  115.60   38.33
  10   3   4  100.76   23.25
  10   3   4   91.58   16.12
   3  10  -4   90.43   37.01
  10   3   5   44.42   20.45
  10   3   5   27.39   10.07
   3  10  -5   25.66   25.72
  10   3   6  272.76   43.06
 -10   3  -6  265.94   25.84
   3  10  -6  229.79   55.29
  10   3   6  252.37   24.05
  10   3   7   15.48    4.97
  10   3   7   24.20   12.58
 -10   3  -7   28.65    8.10
   3  10  -7   19.38   26.25
  10   3   8  202.95   38.17
 -10   3  -8  138.15   14.70
  10   3   8  145.20   13.35
   3  10  -8  200.22   50.28
  10   3   9   64.25   26.44
   3  10  -9   62.02   30.48
  10   3  10  151.93   37.33
   3  10 -10  129.56   38.41
  10   3  11  -16.07   19.77
   3  10 -11  -26.17   28.38
  10   3  12   42.02   18.19
   3  10 -12   51.85   24.57
  10   3  13  131.52   39.16
   3  10 -13  129.16   47.75
  10   3  14  112.83   36.77
   3  10 -14  112.38   40.48
  10   3  15  147.91   42.20
   3  10 -15  172.79   52.83
  10   3  16   26.80   19.30
   3  10 -16   96.53   41.49
  10   3  17   76.96   27.35
   3  10 -17  132.34   47.21
  10   3  18  105.17   46.82
   3  10 -18   81.02   44.48
  10   3  19   66.98   31.38
   3  10 -19   46.19   24.40
  10   3  20  185.78   61.54
   3  10 -20  203.04   66.87
  10   3  21   84.05   35.91
   3  10 -21   85.56   43.33
  10   3  22  226.46   64.04
   3  10 -22  251.86   67.37
  10   3  23    0.59   12.90
   3  10 -23   11.99   20.61
  10   3  24    8.86   21.55
   3  10 -24   20.49   31.00
  10   3  25    5.55   12.47
   3  10 -25   15.84   19.21
  10   3  26    7.53   19.29
   3  10 -26   -4.28   28.99
  10   3  27   -6.01   28.34
   3  10 -27    4.64   15.22
  10   3  28   19.74   17.40
   3  10 -28  -36.25   29.13
  10   3  29   21.60   36.49
   3  10 -29  -30.24   27.56
   3  10 -30   48.84   42.90
  -4  10 -27   -0.11   21.84
  -4  10 -26   21.10   19.69
  -4  10 -25   41.48   31.83
  -4  10 -24   -0.03   11.16
  -4  10 -23  134.12   50.20
  -4  10 -22   84.78   32.84
  -4  10 -21  -38.65   24.19
  -4  10 -20  -12.71   22.61
  -4  10 -19   74.16   40.77
  -4  10 -18   71.56   34.20
  10   4 -17  140.47   54.04
  -4  10 -17  126.21   43.20
  10   4 -16   34.21   26.34
  -4  10 -16   22.97   12.73
  10   4 -15  116.57   46.37
  -4  10 -15   51.01   32.60
  10   4 -14   18.53   15.41
  -4  10 -14    5.96   21.41
  10   4 -13    1.46   12.68
  -4  10 -13   -4.58   18.21
  10   4 -12   58.99   23.73
  -4  10 -12   57.62   25.68
  10   4 -11  259.46   53.03
  -4  10 -11  236.54   50.81
  10   4 -10   52.94   25.65
  -4  10 -10   80.11   38.18
  10   4  -9  181.28   41.30
  -4  10  -9  202.77   47.84
  10   4  -8    3.46   13.61
  -4  10  -8   32.78   24.18
  10   4  -7   14.73   14.14
  -4  10  -7   29.07    9.39
   4  10   7   -2.77   17.91
   4  10   6  387.41   70.43
  -4  10  -6  474.34   73.53
  10   4  -6  375.12   59.10
  10   4  -5   70.78   21.71
   4  10   5   71.87   22.28
  -4  10  -5   36.27   18.30
  10   4  -4   70.52   27.60
 -10  -4  -4   75.76   23.80
   4  10   4   77.52   31.92
  -4  10  -4  138.23   38.74
   4  10   3  479.13   71.36
 -10  -4  -3  525.89   52.72
  -4  10  -3  451.13   65.98
  10   4  -3  462.30   57.08
  10   4  -2  142.11   33.84
  -4  10  -2   61.53   28.22
 -10  -4  -2   82.53   27.32
   4  10   2  115.77   39.65
  10   4  -2  145.46   17.82
  10   4  -1   44.53   15.40
 -10  -4  -1    8.18    5.80
   4  10   1   65.94   30.64
  10   4  -1   54.54   11.78
  10   4   0   20.19   10.54
   4  10   0   55.57   27.34
  10   4   0   51.98   14.24
  10   4   1   45.82   16.56
  10   4   1   74.12   17.15
   4  10  -1   33.10   23.29
  10   4   2  164.67   29.95
  10   4   2  150.63   28.98
   4  10  -2  134.79   47.99
  10   4   3  589.01   54.37
   4  10  -3  577.86   81.25
  10   4   3  489.15   48.43
  10   4   4   37.85   19.14
  10   4   4   35.70   17.84
   4  10  -4   68.00   37.95
  10   4   5   92.30   23.21
  10   4   5   72.78   18.25
   4  10  -5   61.04   27.13
  10   4   6  410.17   55.42
 -10   4  -6  440.51   42.53
  10   4   6  314.38   34.38
   4  10  -6  327.87   70.43
  10   4   7   17.12   11.81
 -10   4  -7   25.39    8.98
  10   4   7   25.92   10.61
   4  10  -7   14.97   10.23
  10   4   8   14.59   15.05
   4  10  -8   25.68   26.56
 -10   4  -8   10.34    7.48
  10   4   8   10.22    7.36
  10   4   9  202.35   41.36
 -10   4  -9  166.78   21.82
  10   4   9  151.43   19.82
   4  10  -9  147.83   40.59
  10   4  10   60.28   23.35
  10   4  10   59.92   12.37
 -10   4 -10   64.22   13.56
   4  10 -10    3.73   12.91
  10   4  11  273.63   50.70
  10   4  11  227.03   26.57
 -10   4 -11  277.07   24.65
   4  10 -11  221.50   55.22
  10   4  12   55.04   25.48
 -10   4 -12   68.75   11.48
  10   4  12   59.50   13.31
   4  10 -12   70.00   35.28
 -10   4 -13    7.92    7.11
  10   4  13    8.63    8.92
  10   4  13   -6.48   17.06
   4  10 -14   35.14   31.02
  10   4  14   22.06    9.43
  10   4  14   51.04   22.41
  10   4  15   34.48   21.49
   4  10 -15   85.74   41.57
  10   4  16    1.05    9.84
   4  10 -16   25.90   20.13
  10   4  17  171.48   51.97
   4  10 -17  148.06   47.66
  10   4  18   64.65   33.07
   4  10 -18  169.84   60.76
  10   4  19   26.93   25.44
   4  10 -19   42.79   37.13
  10   4  20    1.00   17.59
   4  10 -20   17.19   13.06
  10   4  21    4.49   19.79
   4  10 -21   17.79   14.43
  10   4  22   82.25   37.03
   4  10 -22   65.09   34.82
  10   4  23  192.09   63.74
   4  10 -23  122.73   50.35
  10   4  24   -5.95   27.90
   4  10 -24  -14.26   19.06
  10   4  25  -65.63   36.76
   4  10 -25   26.45   25.72
  10   4  26    0.64   26.41
   4  10 -26  -44.18   31.06
  10   4  27   54.78   31.41
   4  10 -27  -47.46   33.00
  10   4  28   45.45   31.31
   4  10 -28   -8.13   16.82
   4  10 -29   57.32   41.60
   4  10 -30   22.84   18.57
  -5  10 -25   -3.86   23.57
  -5  10 -24   66.99   29.31
  -5  10 -23   55.99   24.46
  -5  10 -22   22.00   21.39
  -5  10 -21   29.65   20.61
  10   5 -20   95.29   42.06
  -5  10 -20   78.95   34.78
  10   5 -19   -4.71   11.41
  -5  10 -19    5.25   14.07
  10   5 -18   79.91   44.71
  -5  10 -18   59.12   29.11
  10   5 -17   39.89   23.73
  -5  10 -17   99.74   34.44
  10   5 -16   69.77   33.12
  -5  10 -16   34.82   22.95
  10   5 -15   34.46   25.51
  -5  10 -15    7.77   15.19
  10   5 -14  120.24   44.94
  -5  10 -14  108.88   36.69
  10   5 -13   56.55   27.06
  -5  10 -13   12.50   14.49
  10   5 -12   78.68   33.84
  -5  10 -12   48.17   22.36
  10   5 -11   78.02   30.66
  -5  10 -11   83.29   31.62
  10   5 -10  127.79   35.58
  -5  10 -10  153.15   43.78
  10   5  -9  117.16   39.48
  -5  10  -9   72.95   36.00
  10   5  -8   24.36    8.20
  -5  10  -8   55.90   26.48
   5  10   8   40.75   28.22
  10   5  -7  127.15   39.17
   5  10   7  123.03   39.37
  -5  10  -7   48.60   29.27
  -5  10  -6    2.76   11.86
   5  10   6   -3.15   13.35
   5  10   5  370.97   62.97
  -5  10  -5  487.30   70.27
  10   5  -5  402.14   59.96
  10   5  -4   84.82   27.78
   5  10   4   73.60   28.26
  -5  10  -4  100.73   29.40
  10   5  -4  110.52   11.03
  10   5  -3  103.39   32.45
 -10  -5  -3   41.83   20.23
  -5  10  -3   24.33   20.32
   5  10   3   63.47   27.24
  10   5  -2  148.74   33.77
  -5  10  -2  173.97   40.68
   5  10   2  153.95   38.40
  10   5  -1  202.69   39.24
   5  10   1  138.88   42.66
  10   5   0  -14.72   16.11
   5  10   0  -19.78   16.32
  10   5   1  183.23   36.35
   5  10  -1  181.41   42.81
  10   5   2  157.02   28.35
   5  10  -2  239.44   52.60
  10   5   3   78.26   23.49
   5  10  -3   61.35   35.38
  10   5   4  100.36   23.04
   5  10  -4  127.76   37.19
  10   5   5  328.86   41.04
   5  10  -5  230.36   54.87
 -10   5  -6   34.74   13.72
  10   5   6   19.46   10.72
   5  10  -6  -16.46   28.72
 -10   5  -7   92.61   22.11
   5  10  -7   63.47   36.40
  10   5   7   50.94   17.94
  10   5   8   41.85   19.57
 -10   5  -8   29.41    9.97
   5  10  -8   20.34   18.68
  10   5   8   43.70   16.30
  10   5   9   72.15   27.85
 -10   5  -9   89.89   21.12
   5  10  -9   97.58   39.34
  10   5   9   66.66   19.06
  10   5  10  178.73   43.13
   5  10 -10  106.08   39.33
 -10   5 -10  141.78   25.49
  10   5  10  141.88   27.90
  10   5  11  118.03   35.61
 -10   5 -11   95.76   19.56
   5  10 -11   58.15   18.02
  10   5  11  107.69   22.84
   5  10 -12   69.83   29.42
 -10   5 -12   69.54   15.64
  10   5  12   61.44   15.60
  10   5  12   72.37   20.62
 -10   5 -13   64.46   16.29
   5  10 -13   75.72   36.21
  10   5  13   64.65   16.98
  10   5  13   38.72   23.41
 -10   5 -14  118.99   21.10
   5  10 -14  187.59   54.79
  10   5  14  156.45   26.11
  10   5  14  141.51   41.07
   5  10 -15   16.68   18.29
  10   5  15    9.56    8.69
  10   5  15  -15.51   19.99
  10   5  16   43.33   28.67
   5  10 -16   27.54   16.26
  10   5  17   91.83   36.37
   5  10 -17  113.71   43.38
  10   5  18  101.28   41.48
   5  10 -18   44.47   31.50
  10   5  19   53.33   32.17
   5  10 -19    9.32   17.78
  10   5  20   21.67   28.26
   5  10 -20   38.78   23.02
  10   5  21    4.56   11.17
   5  10 -21  -13.53   21.08
  10   5  22   44.79   34.03
   5  10 -22   39.20   28.70
  10   5  23   27.04   16.14
   5  10 -23   34.26   18.24
  10   5  24   82.05   46.34
   5  10 -24   57.85   42.43
  10   5  25  -15.66   20.93
   5  10 -25  -22.06   22.90
  10   5  26   13.75   15.81
   5  10 -26  -34.21   28.52
  10   5  27   -8.61   22.42
   5  10 -27   -9.86   18.08
   5  10 -28  -15.93   21.20
  10   5  28   55.04   39.99
   5  10 -29    7.84   41.42
  -6  10 -23   21.92   26.50
  10   6 -22  101.64   44.96
  -6  10 -22   57.40   25.14
  10   6 -21   10.97   31.14
  -6  10 -21   50.21   30.25
  10   6 -20   46.45   28.64
  -6  10 -20   21.92   15.03
  10   6 -19  111.97   44.88
  -6  10 -19   79.12   33.55
  10   6 -18   49.67   37.60
  -6  10 -18   85.40   35.42
  -6  10 -17   40.76   31.76
  10   6 -17   69.79   42.10
  10   6 -16   15.98   12.24
  -6  10 -16   76.36   28.72
  10   6 -15   59.81   31.54
  -6  10 -15    9.11   15.97
  10   6 -14  225.44   57.13
  -6  10 -14  197.25   50.12
  10   6 -13   67.77   40.67
  -6  10 -13   44.14   22.70
  -6  10 -12  488.99   80.66
  10   6 -12  499.35   79.89
  10   6 -11  185.20   49.99
  -6  10 -11  142.15   41.78
  10   6 -10   24.06   20.05
   6  10  10   49.64   20.35
  -6  10 -10   63.76   26.35
  10   6  -9  125.01   38.77
   6  10   9   47.16   23.06
  -6  10  -9  124.27   38.43
  10   6  -8   10.23   14.78
   6  10   8   -5.12    7.97
  -6  10  -8   17.41   18.00
  10   6  -7   -9.17   16.05
  -6  10  -7   27.98   17.37
   6  10   7    1.36   18.36
   6  10   6  360.43   63.30
  -6  10  -6  457.84   71.42
  10   6  -6  366.44   62.79
  10   6  -5   79.74   24.06
  -6  10  -5   38.16   23.93
   6  10   5   85.87   30.12
  10   6  -4   90.01   30.73
  -6  10  -4   60.63   26.27
   6  10   4   95.41   35.14
  10   6  -3   86.02   26.23
   6  10   3   89.04   31.84
  -6  10  -3   80.97   27.86
  10   6  -2   73.35   29.64
   6  10   2  106.92   33.59
  10   6  -1   20.79   15.11
   6  10   1   26.83   22.96
   6  10   0  796.61  101.42
  10   6   0  921.27   85.16
  10   6   1    7.07    5.35
   6  10  -1   14.56   21.22
  10   6   2  119.64   29.95
   6  10  -2   52.60   28.54
   6  10  -3   69.41   28.71
  10   6   3  116.88   29.43
   6  10  -4  112.45   44.40
  10   6   4   75.55   23.25
  10   6   5   57.48   17.87
   6  10  -5   66.74   31.83
 -10   6  -6  440.92   52.33
  10   6   6  295.95   47.34
   6  10  -6  259.62   70.33
 -10   6  -7   -0.63    5.83
  10   6   7    3.98    8.57
   6  10  -7  -12.72   23.63
 -10   6  -8   20.15   13.91
  10   6   8   27.76   15.39
   6  10  -8   30.57   27.71
  10   6   9  111.62   26.98
   6  10  -9   84.68   32.31
 -10   6  -9  101.57   23.85
 -10   6 -10   46.15   15.88
  10   6  10   37.54   18.26
   6  10 -10   42.67   37.10
   6  10 -11  177.53   50.46
  10   6  11  187.05   30.85
 -10   6 -11  175.70   30.76
  10   6  12  448.47   49.03
 -10   6 -12  477.67   55.29
   6  10 -12  611.24   98.14
   6  10 -13   74.16   38.05
 -10   6 -13   63.81   17.96
  10   6  13   83.33   23.02
   6  10 -14  326.99   69.87
  10   6  14  347.18   64.77
  10   6  14  228.07   35.87
 -10   6 -14  267.72   36.98
   6  10 -15   72.07   33.85
  10   6  15   52.87   16.32
  10   6  15   92.47   35.73
  10   6  16   75.30   35.58
   6  10 -16   96.81   48.04
  10   6  17   75.04   38.51
   6  10 -17   45.79   35.20
  10   6  18  124.77   43.95
   6  10 -18  145.16   53.14
  10   6  19   70.61   38.32
   6  10 -19   80.24   36.53
  10   6  20  -20.57   18.25
   6  10 -20  -29.73   28.80
  10   6  21   33.53   20.33
   6  10 -21   46.51   27.68
  10   6  22   71.40   39.30
   6  10 -22   -6.50   12.08
  10   6  23   98.71   44.45
   6  10 -23   81.75   40.69
  10   6  24   49.21   34.72
   6  10 -24   31.34   26.32
  10   6  25   75.33   49.30
   6  10 -25   29.66   31.11
  10   6  26   43.12   45.43
   6  10 -26   43.30   33.44
  10   6  27   54.34   35.44
   6  10 -27   28.36   34.27
  10   6  28   15.82   37.34
   6  10 -28  136.90   62.93
   7  10  27  -16.52   18.93
  10   7 -24   11.95   31.99
  10   7 -23   60.42   33.16
  10   7 -22   81.47   38.99
  10   7 -21   27.30   24.81
  -7  10 -21   -1.29   12.28
  10   7 -20  116.65   55.80
  -7  10 -20  132.64   46.60
  -7  10 -19    9.03    6.88
  10   7 -19    4.30   12.24
  10   7 -18  130.84   45.48
  -7  10 -18   62.51   30.63
  10   7 -17   -4.60   13.77
  -7  10 -17    4.93   13.84
  10   7 -16   99.75   46.98
  -7  10 -16   51.08   22.64
  10   7 -15   34.19   25.33
  -7  10 -15   12.23   15.66
  10   7 -14  132.09   43.92
  -7  10 -14  125.59   36.77
  10   7 -13   11.69   10.22
  -7  10 -13   -7.61   16.51
  10   7 -12  182.93   48.55
   7  10  12  123.73   42.22
  -7  10 -12  127.73   40.65
  10   7 -11  334.77   72.55
   7  10  11  336.07   60.72
  -7  10 -11  344.82   65.45
  10   7 -10  152.47   44.29
   7  10  10  172.47   43.03
  -7  10 -10  185.74   46.72
  10   7  -9  138.62   44.17
  -7  10  -9   87.59   38.15
   7  10   9   60.85   28.23
  10   7  -9   67.71   13.19
  10   7  -8  128.21   35.62
   7  10   8  144.51   43.85
  -7  10  -8  109.83   39.23
  10   7  -7  267.71   56.65
   7  10   7  225.45   52.60
  -7  10  -7  207.59   52.23
  10   7  -6   14.76   17.05
  -7  10  -6   18.50   19.27
   7  10   6   -0.48   21.08
  10   7  -5  318.84   58.64
  -7  10  -5  303.51   58.63
   7  10   5  299.15   54.94
  10   7  -4  128.13   35.55
  -7  10  -4   98.06   33.54
   7  10   4   95.78   31.13
   7  10   3  268.34   56.44
  -7  10  -3  235.14   48.52
  10   7  -3  341.95   61.75
  10   7  -2   96.58   32.56
   7  10   2  115.01   33.94
  10   7  -1   89.01   27.82
   7  10   1   60.27   39.28
   7  10   0  335.08   62.04
  10   7   0  279.61   49.38
   7  10  -1   99.54   42.57
  10   7   1  114.95   34.62
  10   7   2  118.39   30.79
   7  10  -2  115.48   36.40
   7  10  -3  213.01   61.27
  10   7   3  270.05   48.66
  10   7   4   94.06   27.54
   7  10  -4  146.50   42.68
 -10   7  -5  291.59   46.25
  10   7   5  330.37   53.09
   7  10  -5  369.25   71.19
 -10   7  -6   22.60   13.13
  10   7   6   19.33   15.05
   7  10  -6   26.27   15.38
  10   7   7  273.18   46.68
 -10   7  -7  250.93   42.71
   7  10  -7  309.68   70.76
 -10   7  -8   88.83   24.96
  10   7   8  119.08   34.13
   7  10  -8  133.03   41.55
 -10   7  -9   97.34   27.14
   7  10  -9  224.55   61.86
  10   7   9  100.75   30.20
   7  10 -10  205.35   54.65
 -10   7 -10  162.00   33.52
  10   7  10  194.42   37.94
 -10   7 -11  468.26   57.55
  10   7  11  430.94   53.94
   7  10 -11  515.14   87.52
   7  10 -12  189.41   55.51
  10   7  12  197.05   36.47
 -10   7 -12  172.55   34.66
   7  10 -13   39.23   32.09
  10   7  13   29.88   15.92
 -10   7 -13   36.07   12.48
   7  10 -14  190.66   61.82
 -10   7 -14  192.16   36.33
  10   7  14  199.04   38.09
 -10   7 -15   13.42   10.55
   7  10 -15    4.94   18.00
  10   7  15    7.66    8.58
   7  10 -16   55.61   32.78
  10   7  17    6.03   29.29
   7  10 -17   23.57   23.06
  10   7  18  105.09   39.16
   7  10 -18   98.92   45.77
  10   7  19   42.48   18.70
   7  10 -19    8.21   24.23
  10   7  20  100.76   47.39
   7  10 -20  141.02   53.49
  10   7  21   18.89   11.61
   7  10 -21   12.03   21.27
  10   7  22    7.52   20.61
   7  10 -22   36.63   32.75
  10   7  23   55.04   36.65
   7  10 -23   52.88   39.44
  10   7  24   17.42   18.57
   7  10 -24   -2.71   21.55
  10   7  25   -6.70   18.36
   7  10 -25   31.98   32.97
  10   7  26   38.13   39.41
   7  10 -26   58.76   42.79
  10   7  27  145.71   69.89
   7  10 -27   -5.56   18.86
   8  10  26   22.56   24.85
  10   8 -26   11.72   21.91
  10   8 -25   27.94   40.50
  10   8 -24   56.66   48.33
  10   8 -23   73.16   45.55
  10   8 -22   78.57   38.99
  10   8 -21   10.24   25.49
  10   8 -20   76.93   36.97
  -8  10 -19  111.50   40.47
  10   8 -19  168.66   53.06
  10   8 -18   80.63   38.09
  -8  10 -18   41.42   26.89
  10   8 -17   74.16   36.95
  -8  10 -17   28.20   25.94
  10   8 -16   -4.31   17.56
  -8  10 -16    6.23    7.45
  10   8 -15   37.14   31.71
   8  10  15   24.09   17.28
  -8  10 -15   37.62   17.93
  10   8 -14  -27.03   27.20
   8  10  14   26.29   19.79
  -8  10 -14   15.29   19.50
  10   8 -13   42.26   21.23
   8  10  13   28.97   21.73
  -8  10 -13   28.81   18.26
  10   8 -12   24.62   14.10
   8  10  12   10.74   12.32
  -8  10 -12    2.34    8.83
  10   8 -11  194.24   48.70
   8  10  11  222.50   47.10
  -8  10 -11  170.32   45.24
  10   8 -10  281.99   58.37
   8  10  10  249.60   51.39
  -8  10 -10  246.72   53.96
  10   8  -9  185.08   54.40
   8  10   9  211.47   45.78
  -8  10  -9  126.41   37.86
  10   8  -8  250.26   66.25
   8  10   8  151.92   41.57
  -8  10  -8  129.17   38.80
  10   8  -7  129.86   41.20
  -8  10  -7   67.68   28.55
   8  10   7   85.98   29.83
  -8  10  -6  582.38   77.38
   8  10   6  461.45   71.48
  10   8  -6  560.01   84.25
  10   8  -5   94.99   38.39
   8  10   5   87.21   26.97
  -8  10  -5   74.51   18.19
  10   8  -4  198.26   51.81
  -8  10  -4   39.50   25.16
   8  10   4  137.37   43.92
  10   8  -3  251.04   51.75
   8  10   3  209.35   52.07
  10   8  -2   35.56   21.88
   8  10   2    0.87   18.66
   8  10   1   56.18   30.05
  10   8  -1   88.85   29.53
   8  10   0  198.30   48.66
  10   8   0  155.21   40.34
  10   8   1  103.61   31.43
   8  10  -1  119.35   41.34
   8  10  -2   23.72   21.44
  10   8   2    0.58   11.43
  10   8   3  130.07   38.96
   8  10  -3  121.24   37.52
  10   8   4  155.02   40.52
   8  10  -4  184.23   48.36
 -10   8  -5   72.17   22.98
  10   8   5   64.97   29.84
   8  10  -5   60.04   31.09
   8  10  -6  502.96   86.31
  10   8   6  419.19   65.27
 -10   8  -6  461.87   61.77
 -10   8  -7   82.61   25.35
  10   8   7   74.59   28.66
   8  10  -7   68.03   31.58
 -10   8  -8   82.37   28.41
  10   8   8  205.96   46.03
   8  10  -9  193.75   59.80
 -10   8  -9  112.96   28.67
  10   8   9  159.14   39.90
   8  10 -10  261.09   68.96
  10   8  10  256.90   46.91
 -10   8 -10  206.78   42.49
   8  10 -11  199.14   60.58
  10   8  11  215.44   40.17
 -10   8 -11  122.44   33.85
  10   8  12    0.40    7.93
 -10   8 -12   17.96   10.45
   8  10 -13   90.08   45.86
  10   8  13   35.01   15.90
 -10   8 -13   54.11   21.56
   8  10 -14    0.25   11.07
  10   8  14   17.91   13.24
 -10   8 -14   10.14   11.72
 -10   8 -15   29.61   18.00
   8  10 -15   45.14   25.52
  10   8  15   26.98   17.54
   8  10 -16  -20.07   24.82
   8  10 -17   53.08   21.15
   8  10 -18   80.82   39.88
   8  10 -19  110.11   53.44
  10   8  19  108.99   44.92
   8  10 -20   33.36   26.92
  10   8  20  -11.25   21.27
   8  10 -21   52.30   37.25
  10   8  21   78.41   41.20
   8  10 -22   72.23   47.80
  10   8  22   71.70   40.89
   8  10 -23   95.67   45.77
  10   8  23   48.82   38.63
   8  10 -24   -4.55   15.90
  10   8  24  -79.67   40.69
   8  10 -25   12.90   21.62
  10   8  25   57.44   33.45
   8  10 -26   11.95   33.56
  10   8  26   -2.90   23.65
  10   8  27   22.48   18.87
   8  10 -27    9.09   36.89
   9  10  26  -65.27   44.92
  10   9 -26   31.64   36.82
   9  10  25    8.97   27.02
  10   9 -25   28.28   41.48
  10   9 -24    4.25   17.68
  10   9 -23   43.14   34.50
  10   9 -22  129.04   51.14
  10   9 -21   54.61   48.48
  10   9 -20   13.72   22.27
  10   9 -19   44.70   18.73
  10   9 -18  163.97   61.89
  10   9 -17   21.17   24.71
  -9  10 -17   52.53   23.44
   9  10  17    2.17   10.14
  10   9 -16   20.04   10.49
   9  10  16    6.11    9.35
  -9  10 -16   27.36   20.73
  10   9 -15  -31.98   27.08
   9  10  15   20.20   19.58
  -9  10 -15    3.58    8.97
  10   9 -14  -26.89   21.03
   9  10  14   34.28   22.39
  -9  10 -14   13.74   16.70
  10   9 -13    2.64   11.36
   9  10  13  -17.72   19.91
  -9  10 -13   -1.56   11.54
  10   9 -12    0.92   14.59
   9  10  12   35.73   21.22
  -9  10 -12   26.99   20.32
  10   9 -11  -34.44   32.90
   9  10  11   -1.33   12.36
  -9  10 -11   11.77   17.31
  10   9 -10   67.68   36.52
   9  10  10   54.36   22.62
  -9  10 -10   82.47   30.26
  10   9  -9   15.10    9.36
  -9  10  -9   11.03   17.72
   9  10   9   39.28   25.30
  10   9  -8   48.66   27.85
   9  10   8  116.73   37.00
  -9  10  -8   64.34   23.96
  10   9  -7  263.04   65.10
   9  10   7  189.20   45.60
  -9  10  -7  249.98   52.64
  10   9  -6  286.59   63.12
  -9  10  -6  264.38   52.51
   9  10   6  267.58   58.21
  10   9  -5  348.58   66.96
  -9  10  -5  268.73   52.03
   9  10   5  293.03   62.35
  10   9  -4  183.09   46.88
  -9  10  -4  152.25   38.39
   9  10   4  162.41   48.02
  10   9  -3  164.49   45.53
   9  10   3   75.76   31.04
   9  10   2   22.44   21.84
  10   9  -2    7.15    7.59
   9  10   1  -40.80   31.84
  10   9  -1   24.95   19.00
  10   9   0   36.05   12.99
   9  10   0   36.40   14.12
  10   9   1  -61.22   26.26
   9  10  -1    3.94    9.75
  10   9   2   25.00   20.63
   9  10  -2   -3.38   13.46
   9  10  -3  145.63   39.53
  10   9   3   82.37   34.33
   9  10  -4  118.63   33.94
  10   9   4  119.80   42.77
 -10   9  -5  306.75   55.50
   9  10  -5  354.27   72.71
  10   9   5  262.59   59.23
 -10   9  -6  246.34   47.35
  10   9   6  270.72   57.71
   9  10  -6  262.29   64.47
   9  10  -7  293.98   67.03
 -10   9  -7  234.06   46.79
  10   9   7  175.49   48.61
   9  10  -8   67.46   38.21
 -10   9  -8   59.51   20.67
  10   9   8   64.11   30.46
   9  10  -9    9.68   18.17
 -10   9  -9   11.08   12.72
  10   9   9   46.18   24.31
   9  10 -10  110.51   46.38
  10   9  10   57.69   26.75
 -10   9 -10   58.89   25.73
   9  10 -11   23.72   31.58
  10   9  11   11.10   11.19
 -10   9 -11   30.83   20.62
   9  10 -12   63.06   36.50
  10   9  12   65.78   24.87
 -10   9 -12   34.15   19.45
   9  10 -13   -2.15   30.16
  10   9  13   -6.98    7.83
 -10   9 -13    2.60   12.82
   9  10 -14  -16.65   10.40
  10   9  14    1.88    9.95
   9  10 -15   -7.09   16.21
  10   9  15  -30.60   21.14
 -10   9 -15   -5.47    5.67
   9  10 -16   14.55   12.89
   9  10 -17  -13.45   24.74
   9  10 -18   52.77   29.57
   9  10 -19   62.98   32.52
   9  10 -20   77.20   41.16
  10   9  21   21.25   23.08
   9  10 -21   33.84   31.23
  10   9  22   68.04   42.91
   9  10 -22   53.06   30.55
  10   9  23  -55.01   34.10
   9  10 -23    6.15   19.06
  10   9  24   -1.60   15.72
   9  10 -24  -21.07   23.90
  10   9  25  -27.41   26.30
   9  10 -25   54.55   40.61
  10   9  26   -1.23   11.74
   9  10 -26   47.91   41.58
  10  10   0   25.29   17.50
  10  10   1    7.60   13.01
  10  10  -1   14.77    7.64
  10  10  -2    1.58   10.35
  10  10   2    3.79   11.03
  10  10   3   99.85   42.24
  10  10  -3  184.16   49.64
 -10  10  -4  282.17   53.55
  10  10   4  236.95   61.08
  10  10  -4  313.52   68.50
  10  10  -5  114.13   44.29
 -10  10  -5  100.88   30.88
  10  10   5  103.96   41.62
  10  10  -6  247.68   61.01
 -10  10  -6   98.57   33.65
  10  10   6  152.84   48.67
  10  10  -7   26.05   13.28
 -10  10  -7    6.42   11.25
  10  10   7   60.44   30.38
  10  10  -8   12.17   24.37
 -10  10  -8    2.72   11.02
  10  10   8    6.40   11.26
  10  10  -9   82.40   38.77
  10  10   9   77.96   31.73
 -10  10  -9   55.57   26.33
  10  10 -10   53.33   33.50
  10  10  10    0.32    9.03
 -10  10 -10   33.59   24.73
  10  10 -11   86.03   34.75
  10  10  11   78.24   29.35
 -10  10 -11  112.30   36.16
  10  10 -12   22.75   34.08
  10  10  12   22.51   14.47
 -10  10 -12   -3.85    6.94
  10  10 -13  -28.72   23.15
  10  10  13    1.86   13.46
 -10  10 -13    1.72   11.25
  10  10 -14    0.04   21.47
  10  10  14  -17.89   11.92
 -10  10 -14   -3.58   11.61
  10  10 -15   -7.64   23.54
  10  10  15   -5.60   12.61
  10  10 -16  -10.24   25.78
  10  10 -17  187.33   59.83
  10  10 -18  -23.46   19.97
  10  10 -19   65.43   43.65
  10  10 -20  111.81   50.51
  10  10 -21   90.65   47.96
  10  10 -22    5.18   16.82
  10  10 -23   86.43   38.93
  10  10  23   -8.45   14.15
  10  10 -24  -35.44   29.98
  10  10  24    2.09   14.18
  10  10  25   64.89   25.32
  10  10 -25   57.17   39.98
 -11   0   0  204.90   32.09
   0  11   0  186.20   43.34
 -11   0   1  527.41   43.03
   0  11  -1  828.62  100.62
   0  11   1  885.83  100.96
 -11   0  -1  619.88   55.22
 -11   0   2  124.53   19.63
   0  11   2   90.89   32.98
   0  11  -2   71.51   26.32
 -11   0  -2   77.62   15.65
 -11   0   3   74.50   14.28
   0  11  -3   76.98   32.91
 -11   0  -3   43.23   13.40
 -11   0   4  113.13   14.48
   0  11  -4   95.59   33.00
 -11   0  -4   80.15   16.39
 -11   0  -5   14.10    5.98
   0  11  -5    7.79   12.26
   0  11  -6   -1.17    9.36
   0  11  -7   17.59   30.08
   0  11  -8   -1.19   21.49
   0  11  -9   81.32   37.11
   0  11 -10   88.81   38.94
 -11   0  11 1355.74   46.53
   0  11 -11 1386.39  142.14
 -11   0  12  116.08   15.63
   0  11 -12  113.75   43.78
 -11   0  13  278.69   27.34
   0  11 -13  294.38   70.27
 -11   0  14   36.07   12.57
   0  11 -14   37.60   25.65
 -11   0  15   71.52   16.27
   0  11 -15   60.68   33.40
   0  11 -16  129.94   45.89
   0  11 -17  142.88   43.15
   0  11 -18   20.51   25.29
   0  11 -19    4.33   17.74
   0  11 -20   27.93   31.36
   0  11 -21   -3.14    9.68
   0  11 -22   -3.54   16.53
   0  11 -23   83.56   43.29
   0  11 -24  182.52   59.74
   0  11 -25    3.62   15.49
   0  11 -26  116.45   54.02
   0  11 -27   26.36   21.24
   0  11 -28  -35.27   28.08
   0  11 -29  152.26   63.85
   0  11 -30   31.28   48.22
   0  11 -31    0.05   16.31
  -1  11 -31    3.55   22.31
  -1  11 -30    7.05    9.70
  -1  11 -29   46.46   43.18
  -1  11 -28  -40.61   29.23
  -1  11 -27  117.00   55.57
  -1  11 -26   40.56   41.12
  -1  11 -25   66.08   33.55
  -1  11 -24  -46.71   29.68
  -1  11 -23   27.78   23.21
  -1  11 -22  120.38   50.73
  -1  11 -21   62.10   42.22
  -1  11 -20   26.91   22.56
  -1  11 -19   55.38   38.63
  -1  11 -18   19.74   22.44
  -1  11 -17   55.48   27.69
 -11   1  16   22.00   11.49
  -1  11 -16   59.84   29.79
 -11   1  15  183.41   29.22
  -1  11 -15  194.17   53.59
  -1  11 -14    0.18   17.96
  -1  11 -13  475.64   81.45
  -1  11 -12   42.90   31.92
  -1  11 -11  313.10   65.73
  -1  11 -10  780.82  104.70
  -1  11  -9   93.95   31.49
  -1  11  -8   40.04   28.51
  -1  11  -7    8.86   18.96
  -1  11  -6   10.92   19.44
 -11  -1  -5   -0.53    2.39
  -1  11  -5   16.21   20.45
 -11  -1  -4   -0.21    3.34
  -1  11  -4  -16.26   15.05
   1  11   4   -0.59   11.37
 -11   1   3  310.05   32.31
 -11  -1  -3  234.44   32.53
  -1  11  -3  276.88   53.71
   1  11   3  307.86   58.85
 -11   1   2  508.56   44.61
 -11  -1  -2  506.68   50.77
   1  11   2  783.35   95.67
  -1  11  -2  653.63   92.78
 -11   1   1  814.38   59.07
 -11  -1  -1  702.73   60.08
  -1  11  -1  742.71   90.90
   1  11   1  748.33   89.96
 -11   1   0    5.76   13.22
 -11   1   0   19.22   10.99
  -1  11   0   -7.81   15.25
 -11  -1   0    7.90   15.57
 -11   1  -1  833.86   65.60
  -1  11   1  783.12   92.67
   1  11  -1  735.87   91.52
 -11   1  -1  772.86   58.61
   1  11  -2  666.74   91.66
 -11   1  -2  523.10   46.00
   1  11  -3  330.14   63.22
 -11   1  -3  310.00   32.33
 -11   1  -4   -1.25    5.60
   1  11  -4   21.30   22.11
   1  11  -5   20.75   24.93
 -11   1  -5    3.55    2.83
   1  11  -6   10.68   21.98
   1  11  -7    7.76   10.15
   1  11  -8   40.51   31.25
  11   1   9   79.81   27.76
   1  11  -9   36.61   32.78
  11   1  10  830.73   91.39
   1  11 -10  822.43  110.47
  11   1  11  233.62   50.36
   1  11 -11  231.74   57.44
  11   1  12   18.30   27.22
   1  11 -12   12.25   27.09
  11   1  13  570.82   80.44
   1  11 -13  549.33   91.29
  11   1  14    9.94    9.05
   1  11 -14   -1.19   12.00
  11   1  15  187.22   48.80
   1  11 -15  120.26   42.59
  11   1  16    3.10   14.62
   1  11 -16   -2.73   11.88
  11   1  17   59.14   29.16
   1  11 -17   99.93   44.53
  11   1  18   -3.00   20.66
   1  11 -18    4.42   10.15
  11   1  19   -0.86    9.72
   1  11 -19    8.68   24.88
  11   1  20   10.21   18.46
   1  11 -20    9.86   20.30
  11   1  21    0.04   15.13
   1  11 -21   19.63   20.34
  11   1  22  110.21   42.66
   1  11 -22   83.74   47.88
  11   1  23   54.17   41.63
   1  11 -23  -30.32   25.05
  11   1  24  -11.77   16.78
   1  11 -24    4.56   11.68
   1  11 -25  123.80   56.33
   1  11 -26   41.58   22.78
   1  11 -27   71.59   50.37
   1  11 -28  -73.44   39.93
   1  11 -29   58.80   44.71
   1  11 -30  -22.90   24.29
   1  11 -31   39.43   39.84
  -2  11 -30    2.52   16.77
  -2  11 -29   12.01   25.06
  -2  11 -28   12.94   22.38
  -2  11 -27   -1.74   15.81
  -2  11 -26    9.65   16.73
  -2  11 -25    1.47   10.93
  -2  11 -24   17.95   25.64
  -2  11 -23  -15.20   18.16
  -2  11 -22   34.77   28.47
  -2  11 -21  118.69   43.24
  -2  11 -20   71.46   47.50
  -2  11 -19   46.25   24.48
  -2  11 -18   24.69   24.32
  -2  11 -17  -19.18   22.20
  -2  11 -16  109.60   42.92
  -2  11 -15  181.29   54.26
  -2  11 -14   71.07   31.31
  -2  11 -13   39.67   21.87
  -2  11 -12  176.32   47.66
  -2  11 -11    6.77   17.20
  -2  11 -10  121.37   37.00
  -2  11  -9  318.32   69.44
  -2  11  -8  102.69   38.12
  -2  11  -7   32.15   21.39
  -2  11  -6  -43.77   23.13
 -11  -2  -5   38.45   12.26
   2  11   5   52.24   19.50
  -2  11  -5   21.64   24.97
 -11  -2  -4  150.67   22.35
  -2  11  -4  112.50   34.35
   2  11   4  159.63   40.82
 -11  -2  -3  788.20   60.43
   2  11   3  753.26   96.43
  -2  11  -3  762.44   99.69
   2  11   2  191.19   44.58
  -2  11  -2  160.16   42.74
 -11  -2  -2  130.42   29.00
   2  11   1   39.30   30.95
  -2  11  -1   19.61   21.96
 -11  -2  -1   46.15   22.16
 -11   2   0  513.26   50.57
 -11  -2   0  460.38   55.05
  -2  11   0  418.32   68.93
   2  11   0  463.43   74.55
 -11   2   0  579.34   55.81
 -11   2  -1    8.42   11.47
   2  11  -1   43.12   35.47
  -2  11   1   38.24   28.18
 -11   2  -2  162.18   24.82
   2  11  -2   86.17   36.58
   2  11  -3  709.20  100.39
 -11   2  -3  569.34   45.45
 -11   2  -4  141.89   19.95
   2  11  -4  121.88   39.48
  11   2   5   24.68   16.07
 -11   2  -5   24.73    9.55
   2  11  -5   44.03   32.69
 -11   2  -6    7.35    4.00
  11   2   6   13.70   10.64
 -11   2  -6    2.41    1.88
   2  11  -6   -6.22   15.98
  11   2   7   72.30   28.06
   2  11  -7   49.61   28.97
  11   2   8  138.87   33.40
   2  11  -8  113.24   42.60
  11   2   9  319.97   54.58
   2  11  -9  294.73   68.58
  11   2  10  119.14   34.27
   2  11 -10   98.49   37.31
  11   2  11    1.58   11.46
   2  11 -11   29.57   34.27
  11   2  12  233.14   50.71
   2  11 -12  152.95   49.38
  11   2  13   71.92   32.63
   2  11 -13   47.67   26.41
  11   2  14   74.66   27.13
   2  11 -14  101.55   43.48
  11   2  15  215.96   53.17
   2  11 -15  145.03   59.02
  11   2  16  190.97   53.38
   2  11 -16  180.08   53.81
  11   2  17   -7.19   28.97
   2  11 -17    4.44   15.72
  11   2  18   50.88   31.90
   2  11 -18   -6.44   24.12
  11   2  19   25.37   16.62
   2  11 -19   31.21   26.30
  11   2  20   15.43   23.16
   2  11 -20   38.54   40.10
  11   2  21   75.69   31.95
   2  11 -21   96.92   47.04
  11   2  22   45.70   34.09
   2  11 -22   83.63   41.38
  11   2  23   27.26   21.06
   2  11 -23   18.95   12.90
  11   2  24   57.71   43.77
   2  11 -24   29.77   32.31
  11   2  25   27.87   33.03
   2  11 -25   10.00   21.98
  11   2  26  103.06   50.09
   2  11 -26   17.04   20.62
  11   2  27  -10.84   11.64
   2  11 -27   14.03   21.56
  11   2  28   -1.32   27.90
   2  11 -28   27.28   27.04
   2  11 -29    6.55   20.37
   2  11 -30    9.66   30.48
  -3  11 -28    3.68   11.80
  -3  11 -27   41.46   49.59
  -3  11 -26    9.78   21.56
  -3  11 -25   20.57   21.57
  -3  11 -24   17.98   12.32
  -3  11 -23   49.69   30.62
  -3  11 -22    8.28   16.48
  -3  11 -21   70.65   42.16
  -3  11 -20   16.76   24.75
  -3  11 -19   87.44   49.80
  -3  11 -18  145.99   43.74
  -3  11 -17   42.39   27.55
  -3  11 -16   90.68   37.10
  -3  11 -15  344.87   73.64
  -3  11 -14   36.67   26.46
  -3  11 -13  193.17   48.59
  11   3 -12   61.85   26.66
  -3  11 -12   38.90   22.36
  11   3 -11   71.20   31.30
  -3  11 -11   50.80   32.48
  11   3 -10   71.12   28.64
  -3  11 -10   67.42   31.12
  11   3  -9  132.49   38.34
  -3  11  -9  208.40   53.37
  11   3  -8   22.07   16.79
  -3  11  -8   -7.76   15.99
  -3  11  -7  164.08   41.57
  11   3  -7  226.78   45.87
  -3  11  -6   12.22   18.03
   3  11   6   -8.87   15.86
  11   3  -6   32.52   23.11
  11   3  -5  262.11   46.57
   3  11   5  300.93   60.24
  -3  11  -5  381.29   63.20
  11   3  -4   63.04   24.85
   3  11   4   35.19   28.13
 -11  -3  -4   77.88   20.41
  -3  11  -4  128.87   40.17
  11   3  -3   59.00   19.50
  -3  11  -3   19.82   14.13
   3  11   3   23.14   18.65
 -11  -3  -3   41.32   12.02
  11   3  -2  213.63   39.44
   3  11   2  288.70   61.56
  -3  11  -2  462.27   70.92
 -11  -3  -2  327.13   48.31
  11   3  -1  265.22   38.84
 -11  -3  -1  277.20   45.46
   3  11   1  200.85   48.33
  -3  11  -1  220.97   49.68
  11   3   0   94.66   25.39
   3  11   0  115.93   44.30
  -3  11   0  150.10   46.62
  11   3   1  212.45   33.43
   3  11  -1  225.56   51.13
  11   3   2  178.60   29.52
  11   3   2  208.62   33.53
   3  11  -2  278.19   64.87
  11   3   3   24.94   12.66
  11   3   3   35.75   11.99
   3  11  -3    5.82    8.01
  11   3   4   29.95   13.85
  11   3   4   33.28   12.30
   3  11  -4   51.81   26.93
  11   3   5  326.54   45.75
  11   3   5  322.52   30.14
   3  11  -5  306.87   62.18
  11   3   6   25.83    9.15
  11   3   6   36.18   19.33
 -11   3  -6   16.56    6.97
   3  11  -6   25.99   31.98
  11   3   7  216.10   40.40
 -11   3  -7  131.45   14.84
   3  11  -7  226.30   55.95
 -11   3  -7  190.36   17.36
  11   3   8    3.91   12.48
   3  11  -8    2.41   10.46
  11   3   9  216.82   43.91
   3  11  -9  168.06   48.29
  11   3  10   39.90   23.64
   3  11 -10   82.41   41.68
  11   3  11   79.27   20.18
   3  11 -11   33.21   29.73
  11   3  12   57.65   23.13
   3  11 -12   39.42   26.50
  11   3  13  197.08   47.31
   3  11 -13  129.01   40.42
  11   3  14   47.25   24.29
   3  11 -14   37.74   30.39
  11   3  15  405.31   75.03
   3  11 -15  327.61   72.34
  11   3  16  158.41   43.32
   3  11 -16  158.30   54.05
  11   3  17   63.82   28.48
   3  11 -17   76.95   32.61
  11   3  18  113.81   44.16
   3  11 -18   99.63   48.11
  11   3  19   40.50   28.07
   3  11 -19   -3.76   10.65
  11   3  20  -19.66   30.94
   3  11 -20  -15.31   18.39
  11   3  21  124.11   48.30
   3  11 -21   68.01   40.33
  11   3  22   37.11   12.90
   3  11 -22   -6.48   22.34
  11   3  23   36.97   30.15
   3  11 -23    2.81   14.93
  11   3  24   -7.19   14.86
   3  11 -24   18.56   13.37
  11   3  25   -2.97   21.08
   3  11 -25   36.88   36.46
  11   3  26  -24.08   28.65
   3  11 -26   12.27   19.00
  11   3  27   70.90   48.88
   3  11 -27   53.74   41.78
  11   3  28   13.83   13.51
   3  11 -28    9.09   18.14
   3  11 -29    0.05   15.83
  -4  11 -26    4.28   12.11
  -4  11 -25    5.03   24.64
  -4  11 -24   37.11   28.55
  -4  11 -23   83.32   42.55
  -4  11 -22   70.24   43.26
  -4  11 -21    1.72   17.18
  -4  11 -20   48.85   36.76
  -4  11 -19  -35.03   23.47
  -4  11 -18   47.70   27.98
  -4  11 -17   92.55   41.30
  11   4 -16  222.63   62.70
  -4  11 -16  191.65   55.67
  11   4 -15    5.41   21.61
  -4  11 -15  -12.92   14.20
  11   4 -14  171.56   49.91
  -4  11 -14  161.08   44.96
  11   4 -13  111.67   37.22
  -4  11 -13   84.00   35.99
  11   4 -12   19.89   17.11
  -4  11 -12   44.80   21.37
  11   4 -11  115.70   37.58
  -4  11 -11   75.09   35.97
  11   4 -10  235.14   50.51
  -4  11 -10  296.15   64.07
  11   4  -9   51.27   27.11
  -4  11  -9   25.88   25.84
  11   4  -8   60.11   24.70
  -4  11  -8   45.60   28.11
   4  11   8   52.96   18.79
  11   4  -7  131.32   36.43
   4  11   7   81.26   32.54
  -4  11  -7  173.16   48.04
  11   4  -6   -0.64    5.85
   4  11   6   10.46   13.92
  -4  11  -6    1.96    8.97
  11   4  -5  113.71   30.38
  -4  11  -5  146.80   40.35
   4  11   5   94.04   32.04
  11   4  -4  187.54   36.77
   4  11   4  195.28   49.11
  -4  11  -4  145.55   40.96
 -11  -4  -4  214.55   32.17
  11   4  -3  178.46   37.52
  -4  11  -3  264.65   55.80
 -11  -4  -3  185.41   34.85
   4  11   3  196.89   48.91
  11   4  -2  197.40   36.35
  -4  11  -2  218.16   49.44
 -11  -4  -2  224.42   36.76
   4  11   2  269.33   54.57
  11   4  -1  160.81   33.99
   4  11   1  188.14   49.67
  -4  11  -1  244.81   54.03
  11   4  -1  213.23   26.13
  11   4   0  128.47   27.49
   4  11   0  140.48   48.53
  11   4   0  180.81   25.64
  11   4   1  207.98   35.29
  11   4   1  220.73   31.77
   4  11  -1  183.13   49.12
  11   4   2  267.48   35.96
  11   4   2  265.79   37.30
   4  11  -2  258.95   57.54
  11   4   3  224.27   35.83
  11   4   3  164.60   29.31
   4  11  -3  195.93   58.94
  11   4   4  160.27   29.13
  11   4   4  175.72   26.96
   4  11  -4  146.10   38.89
  11   4   5  186.07   35.96
  11   4   5  109.63   20.78
   4  11  -5  154.20   51.57
  11   4   6   -2.07    3.30
  11   4   6   -0.95    6.21
 -11   4  -6    4.44    3.73
   4  11  -6    4.49   20.33
  11   4   7  109.19   18.46
  11   4   7  119.99   31.64
 -11   4  -7  122.28   21.43
   4  11  -7   89.04   41.05
  11   4   8   53.47   10.72
  11   4   8   55.97   23.56
 -11   4  -8   40.25    9.44
   4  11  -8    6.82   17.16
  11   4   9   20.53   18.51
  11   4   9   12.81    5.50
 -11   4  -9   17.03    7.60
   4  11  -9   43.17   32.88
  11   4  10  245.49   48.10
  11   4  10  195.13   17.95
 -11   4 -10  210.62   19.32
   4  11 -10  208.14   57.00
  11   4  11  142.62   40.26
   4  11 -11  119.62   46.09
  11   4  12   30.42   20.53
   4  11 -12   35.48   19.32
  11   4  13  136.21   39.55
   4  11 -13  123.26   53.27
  11   4  14   93.37   29.32
   4  11 -14   34.42   33.73
  11   4  15   -4.91   24.53
   4  11 -15   72.65   42.11
  11   4  16  236.25   62.63
   4  11 -16  164.02   57.81
  11   4  17  134.86   44.14
   4  11 -17   92.71   40.17
  11   4  18    0.59   20.56
   4  11 -18   38.70   27.70
  11   4  19   32.18   25.41
   4  11 -19    5.84   21.52
  11   4  20   56.68   41.44
   4  11 -20  110.98   43.30
  11   4  21  -20.46   20.31
   4  11 -21 -104.92   44.79
  11   4  22   32.88   34.42
   4  11 -22   19.18   24.73
  11   4  23   57.47   38.22
   4  11 -23   24.19   17.90
  11   4  24   30.47   28.22
   4  11 -24   26.53   13.17
  11   4  25   -1.39   10.55
   4  11 -25    8.24   18.67
  11   4  26   37.01   26.21
   4  11 -26  127.58   53.24
  11   4  27  -32.62   28.31
   4  11 -27  -33.62   28.57
  11   4  28   12.77   24.47
   4  11 -28   26.40   40.73
   4  11 -29  -61.37   38.92
  -5  11 -25   18.58   17.16
  -5  11 -24   87.94   37.55
  -5  11 -23   39.54   32.65
  -5  11 -22   15.10   16.63
  -5  11 -21   45.87   31.83
  -5  11 -20  -10.99   19.27
  11   5 -19   38.16   30.15
  -5  11 -19   21.79   22.92
  11   5 -18   43.00   34.82
  -5  11 -18   16.57   23.41
  11   5 -17   -5.82   18.05
  -5  11 -17   34.99   16.41
  11   5 -16  234.19   62.58
  -5  11 -16  193.11   47.87
  11   5 -15   31.49   31.99
  -5  11 -15   12.52   19.47
  11   5 -14   68.59   28.63
  -5  11 -14   86.43   38.12
  11   5 -13  311.23   66.42
  -5  11 -13  289.35   60.21
  11   5 -12   54.73   29.72
  -5  11 -12   23.11   21.26
  11   5 -11   84.53   32.44
  -5  11 -11   73.83   32.88
  11   5 -10   61.93   27.29
  -5  11 -10   14.03   14.97
  11   5  -9  -15.17   19.83
   5  11   9  -10.05   11.76
  -5  11  -9    8.18   12.21
  11   5  -8  149.92   39.00
  -5  11  -8  218.84   53.67
   5  11   8  166.31   46.31
  11   5  -7   -0.21   12.57
  -5  11  -7   10.38    7.16
   5  11   7   22.09   17.86
  11   5  -6   10.57   13.32
  -5  11  -6   10.24   11.44
   5  11   6  -18.56   18.14
  11   5  -5   20.99   12.97
  -5  11  -5   11.00   16.05
   5  11   5  -15.79   17.60
   5  11   4  480.46   78.42
 -11  -5  -4  457.97   53.36
  -5  11  -4  502.79   75.29
  11   5  -4  481.64   64.05
  11   5  -3   12.32   11.66
   5  11   3   30.27   21.43
  -5  11  -3    6.29    8.57
  11   5  -3   16.44    4.75
  11   5  -2   99.20   32.98
  11   5  -2  110.62   16.54
  -5  11  -2   -0.02   12.33
   5  11   2   60.42   33.24
  11   5  -1  395.18   35.80
   5  11   1  325.21   60.92
  11   5  -1  355.78   51.18
  11   5   0  382.75   38.68
   5  11   0  359.13   70.38
  11   5   0  344.94   55.42
  11   5   1  336.73   39.00
   5  11  -1  403.83   70.25
  11   5   1  350.03   46.94
  11   5   2  118.40   25.05
  11   5   2   92.10   27.51
   5  11  -2   97.82   39.85
  11   5   3   42.77   16.46
  11   5   3   45.92   17.63
   5  11  -3    6.91   11.02
  11   5   4  534.03   58.67
   5  11  -4  431.59   79.23
  11   5   4  440.10   49.66
  11   5   5   -0.83    5.85
  11   5   5   18.23   14.73
   5  11  -5   32.42   25.71
  11   5   6    0.26    4.14
  11   5   6   14.61    7.28
 -11   5  -6    5.14    9.20
   5  11  -6   -5.85   11.26
  11   5   7   17.44    5.23
 -11   5  -7   25.38   11.75
   5  11  -7   -8.00   22.65
  11   5   7   20.74   11.04
  11   5   8  167.20   38.93
 -11   5  -8  218.42   31.49
   5  11  -8  228.82   60.02
  11   5   8  144.88   23.77
  11   5   9   23.04   14.27
  11   5   9    0.31    4.11
   5  11  -9  -23.69   32.17
 -11   5  -9    3.73    3.45
  11   5  10   67.61   28.91
   5  11 -10   42.01   22.45
  11   5  10   39.23   12.58
 -11   5 -10   31.44   12.54
  11   5  11   75.18   22.27
   5  11 -11   69.37   33.71
 -11   5 -11   62.16   13.98
  11   5  11   64.15   16.18
  11   5  12  100.17   31.47
 -11   5 -12   94.93   17.01
   5  11 -12   78.78   37.56
  11   5  12   51.89   13.68
  11   5  13  319.11   61.40
   5  11 -13  255.34   64.82
  11   5  14   51.26   23.62
   5  11 -14   67.16   37.70
  11   5  15   41.91   27.76
   5  11 -15   62.64   35.68
  11   5  16  139.75   42.80
   5  11 -16  194.09   61.11
  11   5  17   55.26   27.93
   5  11 -17   45.62   32.17
  11   5  18  -15.56   12.23
   5  11 -18   13.39   22.11
  11   5  19   27.86   23.71
   5  11 -19   18.85   17.09
  11   5  20   16.10   18.99
   5  11 -20   -6.34   19.21
  11   5  21   48.62   41.97
   5  11 -21   82.14   38.52
  11   5  22   -3.02   14.15
   5  11 -22   -9.64   16.74
  11   5  23   17.26   22.72
   5  11 -23   24.22   22.78
  11   5  24   37.86   32.29
   5  11 -24   21.28   38.70
  11   5  25   72.12   49.34
   5  11 -25   72.76   40.76
  11   5  26    1.75   14.78
   5  11 -26  -51.68   34.62
  11   5  27  136.64   59.10
   5  11 -27   39.90   40.74
   5  11 -28    6.59   15.77
  -6  11 -23  -64.28   31.40
  -6  11 -22   73.99   32.91
  11   6 -21   30.83   26.65
  -6  11 -21   13.13   16.42
  11   6 -20   38.46   38.72
  -6  11 -20   18.90   20.21
  11   6 -19    5.68   24.73
  -6  11 -19   -7.67   16.44
  11   6 -18   28.51   24.76
  -6  11 -18  -14.56   20.72
  11   6 -17  104.81   43.41
  -6  11 -17   65.93   35.01
  11   6 -16   62.67   36.27
  -6  11 -16   85.81   37.47
  11   6 -15  235.65   58.71
  -6  11 -15  151.55   44.61
  11   6 -14   46.00   31.10
  -6  11 -14   28.57   19.26
  11   6 -13   60.72   31.49
  -6  11 -13   66.73   31.79
  11   6 -12  122.79   41.25
  -6  11 -12   96.62   36.59
  11   6 -11   -2.59    9.16
   6  11  11   31.14   24.63
  -6  11 -11   31.25   31.67
  11   6 -10  -23.46   21.69
   6  11  10    8.14   13.87
  -6  11 -10   12.20   15.33
  11   6  -9   51.61   24.32
   6  11   9   40.38   19.82
  -6  11  -9   45.06   31.85
  11   6  -8   23.67   18.72
   6  11   8   23.68   11.43
  -6  11  -8   12.95   16.76
  11   6  -7  236.40   54.35
   6  11   7  161.62   47.53
  -6  11  -7  237.83   53.41
  11   6  -6    7.60    8.38
  -6  11  -6  -10.20   12.48
   6  11   6   22.64   11.00
  11   6  -5  207.28   45.25
  -6  11  -5  283.71   57.30
   6  11   5  157.91   45.76
  11   6  -4  -24.00   23.49
  -6  11  -4  -36.43   20.76
   6  11   4   24.59   21.42
   6  11   3  357.86   65.02
  -6  11  -3  369.62   63.91
  11   6  -3  392.66   60.34
  11   6  -2   26.11   18.35
   6  11   2   48.13   28.05
  -6  11  -2   30.62   19.16
  11   6  -1  297.70   50.62
   6  11   1  313.96   60.70
  11   6   0  154.37   36.31
   6  11   0  176.82   47.83
  11   6   1  287.69   48.44
   6  11  -1  254.60   58.67
  11   6   2   55.20   21.61
   6  11  -2   53.06   22.08
   6  11  -3  361.44   72.90
  11   6   3  384.34   52.11
  11   6   4  -14.03   12.69
   6  11  -4   -8.96    9.41
  11   6   5  219.30   38.54
   6  11  -5  249.84   63.96
 -11   6  -6   21.17   11.81
   6  11  -6   17.10   18.72
  11   6   6   23.80   12.90
 -11   6  -7  163.75   31.81
   6  11  -7  122.58   50.25
  11   6   7  156.91   29.37
 -11   6  -8   19.29    9.18
  11   6   8   12.45   11.57
   6  11  -8   38.85   19.22
   6  11  -9   54.90   37.71
  11   6   9   33.75   19.03
 -11   6  -9   51.25   19.48
  11   6  10   -3.64   16.84
   6  11 -10   39.18   28.90
 -11   6 -10    8.23   10.65
  11   6  10    0.86    6.10
  11   6  11    9.08    7.73
 -11   6 -11   -3.15    7.37
   6  11 -11   26.89   27.25
  11   6  11   15.98    9.00
  11   6  12  108.75   35.60
   6  11 -12  146.06   48.22
  11   6  12  112.59   27.98
 -11   6 -12   95.50   21.06
  11   6  13   92.79   35.57
   6  11 -13  147.27   49.80
  11   6  13   59.91   18.93
  11   6  14   67.80   32.30
   6  11 -14   79.46   38.54
  11   6  15  248.37   56.74
   6  11 -15  209.79   61.73
  11   6  16   54.80   27.28
   6  11 -16   58.74   36.18
  11   6  17   52.78   30.89
   6  11 -17   34.80   42.88
  11   6  18   -1.71   17.09
   6  11 -18   13.60   12.43
  11   6  19    6.56    9.62
   6  11 -19   36.48   32.52
  11   6  20   30.31   27.08
   6  11 -20    2.73    9.98
  11   6  21   25.11   23.67
   6  11 -21  -11.02   26.45
  11   6  22   69.79   39.14
   6  11 -22   30.96   24.48
  11   6  23   29.67   28.44
   6  11 -23    2.80   13.92
  11   6  24   64.27   38.98
   6  11 -24   16.06   31.03
  11   6  25   55.66   36.56
   6  11 -25    4.69   15.93
  11   6  26  103.39   50.01
   6  11 -26    4.15   22.16
  11   6  27   55.21   37.74
   6  11 -27   43.53   41.82
  11   7 -23   11.22   24.00
  11   7 -22   -5.08   20.93
  11   7 -21   87.38   41.33
  -7  11 -21    3.39    9.84
  11   7 -20   -8.04   17.86
  -7  11 -20   10.46   17.42
  11   7 -19  -27.07   30.25
  -7  11 -19   25.98   21.46
  11   7 -18    3.88   26.19
  -7  11 -18   15.81   18.03
  11   7 -17   82.33   43.86
  -7  11 -17   30.48   24.41
  11   7 -16  241.26   61.88
  -7  11 -16  184.86   49.14
  11   7 -15  122.82   43.17
  -7  11 -15   49.61   33.37
  11   7 -14   30.41   31.53
   7  11  14    8.39    9.16
  -7  11 -14  -17.86   16.87
  11   7 -13  149.46   50.83
   7  11  13  192.45   54.34
  -7  11 -13  225.37   56.09
  11   7 -12   31.33   22.98
   7  11  12   20.01   24.33
  -7  11 -12   65.79   32.49
  11   7 -11   44.91   25.54
   7  11  11   64.09   33.88
  -7  11 -11   24.28   19.79
  11   7 -10   -0.99   12.33
   7  11  10    0.03    8.81
  -7  11 -10   12.04   17.15
  11   7  -9   -7.38    8.09
  -7  11  -9   -5.85   18.40
   7  11   9   26.31   17.27
  11   7  -8  192.98   50.85
  -7  11  -8  206.63   55.33
   7  11   8  119.64   39.83
  11   7  -7   12.22    9.08
   7  11   7  -15.81   18.47
  -7  11  -7  -13.56   18.35
  11   7  -6   48.13   26.95
   7  11   6   39.76   21.49
  -7  11  -6   30.84   21.07
  11   7  -5   23.39   15.03
  -7  11  -5   19.06   16.47
   7  11   5   22.78   13.12
  11   7  -4  336.56   61.07
  -7  11  -4  380.46   63.93
   7  11   4  290.92   62.48
  11   7  -3   38.49   19.42
  -7  11  -3   65.81   30.51
   7  11   3   61.41   26.90
  11   7  -2  213.84   49.26
   7  11   2  195.56   55.49
  11   7  -1  357.26   59.42
   7  11   1  360.96   67.17
  11   7   0   79.09   26.16
   7  11   0  115.49   42.45
   7  11  -1  352.56   69.64
  11   7   1  335.24   54.74
  11   7   2  218.38   42.39
   7  11  -2  214.85   60.27
  11   7   3   51.50   21.78
   7  11  -3   59.45   23.86
  11   7   4  300.75   48.16
   7  11  -4  322.15   69.67
  11   7   5   45.84   23.37
   7  11  -5   48.46   23.23
 -11   7  -6   39.30   20.64
  11   7   6   20.66   11.91
   7  11  -6   38.81   29.44
 -11   7  -7    8.58    7.00
   7  11  -7   32.96   23.98
  11   7   7   23.66   10.28
 -11   7  -8  196.14   37.13
   7  11  -8  167.48   49.73
  11   7   8  143.01   35.47
 -11   7  -9   -5.85   10.30
  11   7   9    4.76    6.07
  11   7  10   17.63   12.41
 -11   7 -10    4.19   13.55
   7  11 -11   77.82   38.46
  11   7  11   53.20   25.62
 -11   7 -11   52.55   19.98
   7  11 -12   43.50   27.07
 -11   7 -12   59.47   26.39
  11   7  12   36.25   20.73
   7  11 -13  243.08   62.07
  11   7  13  208.26   37.13
  11   7  14   12.57    7.77
   7  11 -14   19.54   27.38
  11   7  15  159.74   48.65
   7  11 -15   82.77   48.27
  11   7  16  312.88   68.15
   7  11 -16  150.19   56.55
  11   7  17   87.55   37.49
   7  11 -17   32.77   17.55
  11   7  18   36.05   20.69
   7  11 -18    7.28   13.77
  11   7  19   -8.26   25.19
   7  11 -19   21.51   21.98
  11   7  20  -19.53   31.40
   7  11 -20   -4.81   18.38
  11   7  21   50.36   45.53
   7  11 -21   44.62   35.25
  11   7  22    7.45   15.97
   7  11 -22    2.39   24.55
  11   7  23   45.51   31.84
   7  11 -23  -14.51   19.63
  11   7  24   34.09   33.93
   7  11 -24   34.38   46.56
  11   7  25   47.83   34.48
   7  11 -25   48.63   35.47
  11   7  26   24.62   22.45
   7  11 -26   22.78   19.11
  11   7  27   92.58   49.79
   7  11 -27   52.08   46.94
  11   8 -25  -81.32   44.13
  11   8 -24   33.14   33.19
  11   8 -23   49.79   39.57
  11   8 -22   70.98   42.05
  11   8 -21   66.83   41.80
  11   8 -20   37.74   17.58
  11   8 -19   29.54   31.35
  -8  11 -19   16.99   20.31
  -8  11 -18   69.77   39.33
  11   8 -18  119.29   51.38
  11   8 -17  157.94   48.75
   8  11  17   96.36   42.47
  -8  11 -17   99.56   40.82
  11   8 -16   92.87   44.90
   8  11  16  145.03   48.01
  -8  11 -16   45.61   31.12
  11   8 -15   35.01   29.70
   8  11  15   13.02   15.19
  -8  11 -15   -7.27   18.04
  11   8 -14    3.42   14.41
   8  11  14   15.78   23.91
  -8  11 -14    6.75   10.18
  11   8 -13   -7.90   30.78
   8  11  13   38.60   24.48
  -8  11 -13   26.23   23.06
  11   8 -12  159.26   52.16
   8  11  12  220.71   53.57
  -8  11 -12  134.75   39.91
  11   8 -11   31.14   27.24
   8  11  11   26.97   10.47
  -8  11 -11   34.31   22.76
  11   8 -10    4.56    9.54
   8  11  10  -26.47   19.82
  -8  11 -10   10.34   12.70
  11   8  -9  108.73   40.43
   8  11   9   93.30   33.75
  -8  11  -9   86.41   38.33
  11   8  -8   13.00    9.23
   8  11   8    6.11    9.66
  -8  11  -8    3.27   15.26
  11   8  -7   64.37   29.41
   8  11   7   60.67   26.90
  -8  11  -7   80.80   34.25
  11   8  -6   26.23    8.78
   8  11   6   -9.97   22.06
  -8  11  -6   -1.89    7.43
  11   8  -5  288.59   57.95
   8  11   5  274.03   59.96
  -8  11  -5  244.22   55.28
  11   8  -4   68.08   29.11
  -8  11  -4   45.38   23.81
   8  11   4   49.03   28.76
  11   8  -3  165.25   47.87
  -8  11  -3  104.22   35.77
   8  11   3   84.54   33.74
  11   8  -2  145.46   40.18
   8  11   2  123.26   47.48
  11   8  -1  132.40   36.42
   8  11   1  151.32   47.55
   8  11   0   42.67   26.91
  11   8   0   13.98   15.73
   8  11  -1  163.52   45.47
  11   8   1  117.34   33.52
   8  11  -2   84.86   33.06
  11   8   2   98.50   26.82
  11   8   3  124.46   34.77
   8  11  -3  122.66   46.51
  11   8   4   39.00   17.23
   8  11  -4   30.04   10.49
 -11   8  -5  265.13   46.48
  11   8   5  226.16   47.13
   8  11  -5  238.07   61.97
 -11   8  -6   21.78   15.62
   8  11  -6   -9.38   20.96
  11   8   6    9.20    9.25
 -11   8  -7   68.84   22.30
  11   8   7   39.52   23.75
   8  11  -7   38.62   25.86
 -11   8  -8   -2.11   11.14
   8  11  -8  -29.94   26.31
  11   8   8   -0.61    9.95
   8  11  -9  123.91   53.00
 -11   8  -9  104.27   28.42
  11   8   9   61.23   23.11
   8  11 -10    9.39   25.49
 -11   8 -10   25.41   19.38
  11   8  10   40.29   20.03
   8  11 -11  109.27   49.45
  11   8  11   80.63   29.33
 -11   8 -11   72.31   27.69
   8  11 -12  197.20   59.43
  11   8  12  264.23   48.79
 -11   8 -12  236.84   43.41
   8  11 -13   26.90   26.37
  11   8  13    8.94    7.58
   8  11 -14   16.14   23.09
   8  11 -15   -6.68   23.39
   8  11 -16   58.31   27.51
  11   8  17  139.37   49.47
   8  11 -17   63.29   35.82
  11   8  18   70.01   44.60
   8  11 -18   96.44   43.57
  11   8  19   46.55   33.64
   8  11 -19    0.82   23.58
  11   8  20    4.95   24.18
   8  11 -20    4.93   18.75
  11   8  21   50.18   31.70
   8  11 -21   58.42   43.87
  11   8  22   57.56   37.27
   8  11 -22   29.13   37.45
  11   8  23    3.99   13.83
   8  11 -23   65.30   40.45
  11   8  24   15.76   21.28
   8  11 -24   29.18   13.13
  11   8  25   -1.00   12.40
   8  11 -25   45.17   42.56
  11   8  26   34.87   30.60
   8  11 -26   20.17   21.40
  11   9 -25   37.13   39.14
  11   9 -24   25.68   21.92
  11   9 -23   26.78   30.99
  11   9 -22  -32.87   37.79
  11   9 -21  132.60   49.46
  11   9 -20   26.17   33.18
  11   9 -19   52.53   41.93
  11   9 -18   51.79   33.84
  11   9 -17   10.70   27.49
   9  11  17  -16.67   12.36
  -9  11 -17   46.55   32.57
  11   9 -16   22.54   25.92
   9  11  16   24.15   17.69
  -9  11 -16   44.91   29.28
  11   9 -15   88.18   39.77
   9  11  15   54.23   27.59
  -9  11 -15   66.86   35.19
  11   9 -14   -8.38   15.00
  -9  11 -14    3.31    8.29
  11   9 -13   17.38   17.07
   9  11  13   -5.10   10.74
  -9  11 -13   -5.73   12.37
  11   9 -12   34.08   19.03
   9  11  12    6.91   17.67
  -9  11 -12   23.40   11.86
  11   9 -11   80.82   38.83
   9  11  11   90.83   35.58
  -9  11 -11   62.59   32.05
  11   9 -10  170.31   54.49
   9  11  10  104.88   37.40
  -9  11 -10  147.31   46.18
  11   9  -9    2.05   24.50
  -9  11  -9   28.47   22.39
   9  11   9   33.71   24.97
  11   9  -8  103.91   40.08
  -9  11  -8   84.29   31.60
   9  11   8   98.06   35.00
  11   9  -7   54.58   34.58
  -9  11  -7   41.25   20.15
   9  11   7   23.85   14.41
  11   9  -6   38.05   26.99
  -9  11  -6   23.51   17.69
   9  11   6   56.75   28.58
  11   9  -5   83.11   32.74
  -9  11  -5   89.62   30.21
   9  11   5  166.74   50.52
  11   9  -4  305.71   62.85
  -9  11  -4  184.25   46.75
   9  11   4  220.68   60.68
  11   9  -3   53.08   31.98
  -9  11  -3   58.93   30.08
   9  11   3   53.21   29.55
  11   9  -2  204.64   49.36
   9  11   2  223.86   56.32
  11   9  -1   91.76   34.60
   9  11   1  104.43   43.41
  11   9   0   16.91   11.90
   9  11   0  -12.39   18.26
   9  11  -1   73.46   34.51
  11   9   1   78.33   29.42
   9  11  -2  160.26   48.98
  11   9   2  102.64   32.91
  11   9   3   67.20   26.16
   9  11  -3   44.58   25.89
  11   9   4  249.27   54.20
   9  11  -4  319.32   68.60
 -11   9  -5  110.51   31.40
   9  11  -5  128.95   45.38
  11   9   5   65.11   32.62
 -11   9  -6   32.66   21.68
  11   9   6   39.48   23.25
   9  11  -6   46.69   15.05
 -11   9  -7   36.66   19.18
   9  11  -7   95.42   40.90
  11   9   7   47.66   25.93
   9  11  -8   87.95   43.61
 -11   9  -8   86.88   27.89
  11   9   8   76.54   29.12
   9  11  -9   56.40   35.02
 -11   9  -9   76.59   27.05
  11   9   9   43.71   25.82
   9  11 -10  177.07   58.78
 -11   9 -10  125.14   36.11
  11   9  10  119.32   34.33
   9  11 -11  167.54   56.13
 -11   9 -11  106.82   32.36
  11   9  11  123.07   39.33
   9  11 -12  -17.87   19.49
 -11   9 -12  -17.92   14.61
   9  11 -13   17.68   20.02
  11   9  13    4.30   15.52
   9  11 -14   17.86   12.55
   9  11 -15   89.68   45.06
   9  11 -16   33.69   27.19
   9  11 -17   63.61   51.33
   9  11 -18   86.02   34.43
   9  11 -19   37.33   21.59
  11   9  19  126.06   47.61
   9  11 -20   36.43   36.95
  11   9  20   41.34   26.73
   9  11 -21   79.00   47.42
  11   9  21  272.62   76.03
   9  11 -22    9.64   21.54
  11   9  22   39.87   29.54
   9  11 -23  -27.00   26.37
  11   9  23   20.67   18.09
   9  11 -24  -58.75   37.72
  11   9  24  -62.81   37.35
   9  11 -25   28.53   35.09
  11   9  25   52.93   40.36
  10  11  25   25.14   25.72
  11  10 -24   51.85   48.88
  11  10 -23   43.54   37.83
  11  10 -22   16.78   19.57
  11  10 -21   41.48   29.50
  11  10 -20   64.51   37.70
  11  10 -19   25.31   26.07
  11  10 -18   45.00   28.22
  11  10 -17   -4.48   23.98
  11  10 -16   89.96   44.40
  11  10 -15   35.64    9.74
  10  11  15   19.06   17.32
  11  10 -14   42.89   34.98
  10  11  14   63.32   23.05
 -10  11 -14   40.43   22.50
  11  10 -13   36.35   25.50
  10  11  13   -7.66   16.25
 -10  11 -13    3.44   13.08
  11  10 -12   34.49   14.43
  10  11  12    9.38    8.16
 -10  11 -12   29.43   17.11
  11  10 -11    1.16   14.73
  10  11  11   17.18   15.10
 -10  11 -11    5.55    8.44
  11  10 -10   95.09   41.55
  10  11  10   84.40   36.40
 -10  11 -10  101.69   38.57
  11  10  -9  383.51   77.69
  10  11   9  363.35   68.56
 -10  11  -9  432.01   71.56
  11  10  -8   97.96   48.62
 -10  11  -8   27.10   12.38
  10  11   8   56.08   31.43
  11  10  -7   54.82   29.07
 -10  11  -7   25.19   17.60
  10  11   7   32.16   24.68
  11  10  -6   26.59   29.71
 -10  11  -6   60.74   27.92
  10  11   6   58.54   29.57
  11  10  -5  106.71   39.30
 -10  11  -5   75.08   30.43
  10  11   5   75.96   35.40
  11  10  -4   80.78   34.82
 -10  11  -4   48.98   27.31
  10  11   4   85.60   40.93
  10  11   3  372.87   75.82
  11  10  -3  456.19   80.40
  10  11   2  130.51   42.43
  11  10  -2  100.97   37.75
  11  10  -1   82.17   35.41
  10  11   1   39.66   17.36
  11  10   0   73.92   31.13
  10  11   0   64.61   23.18
  10  11  -1   78.62   25.70
  11  10   1   45.96   20.52
  11  10   2  114.08   39.11
  10  11  -2   27.29   18.83
  10  11  -3  499.58   83.96
  11  10   3  448.22   72.55
 -11  10  -4   69.38   24.31
  11  10   4  121.45   42.56
  10  11  -4  113.44   40.17
 -11  10  -5  121.53   39.33
  11  10   5  117.61   37.68
  10  11  -5  147.67   51.31
  10  11  -6   87.34   34.83
 -11  10  -6   83.44   28.61
  11  10   6   70.11   36.47
 -11  10  -7    4.33   10.46
  11  10   7   20.63    9.11
  10  11  -8   91.33   44.17
 -11  10  -8   51.66   24.70
  11  10   8   41.26   28.80
  10  11  -9  333.70   81.16
 -11  10  -9  392.47   63.09
  11  10   9  299.42   61.97
  10  11 -10  152.36   53.30
 -11  10 -10   89.37   32.50
  11  10  10  123.61   44.71
 -11  10 -11    2.11    9.33
  11  10  11   33.50   25.04
  10  11 -12    8.11   24.89
  11  10  12   40.30   24.63
 -11  10 -12   10.95   12.65
  10  11 -13  -22.56   21.64
  11  10  13   10.50   12.37
  10  11 -14   34.23   26.20
  10  11 -15    4.84   15.37
  10  11 -16   55.19   30.24
  10  11 -17   43.02   30.43
  10  11 -18   54.57   41.03
  10  11 -19   89.53   44.73
  10  11 -20   87.07   59.97
  11  10  21   42.17   29.22
  10  11 -21   66.23   44.01
  11  10  22    0.58   10.33
  10  11 -22  -48.92   34.18
  11  10  23    5.82   16.69
  10  11 -23  -21.43   24.17
  11  10  24   32.03   38.35
  10  11 -24   42.58   37.02
  11  10  25    0.70   24.63
  11  11   0    1.62   16.11
  11  11  -1  129.04   43.10
  11  11   1  131.33   41.37
  11  11   2  599.82   90.78
  11  11  -2  555.28   89.35
  11  11   3   42.04   26.62
  11  11  -3   59.08   32.98
 -11  11  -4  105.70   40.63
  11  11   4   94.24   39.79
  11  11  -5   -9.50   16.86
 -11  11  -5   17.25   13.99
  11  11   5   17.97   21.48
  11  11  -6  447.86   89.11
 -11  11  -6  306.78   61.34
  11  11   6  328.11   67.40
  11  11  -7  137.91   49.91
 -11  11  -7  117.34   37.22
  11  11   7   77.32   36.35
  11  11  -8  119.10   51.79
 -11  11  -8   54.69   24.58
  11  11   8   46.31   29.96
  11  11  -9   15.61   22.41
 -11  11  -9   54.47   25.98
  11  11   9   62.28   40.23
  11  11 -10  134.69   49.41
 -11  11 -10  133.60   41.31
  11  11  10  134.84   43.67
  11  11 -11  150.32   54.02
  11  11  11  177.14   52.57
 -11  11 -11   93.79   36.19
  11  11 -12   16.40   12.26
  11  11  12    0.16   14.85
 -11  11 -12   35.98   23.88
  11  11 -13   65.05   40.89
  11  11  13   77.93   30.88
  11  11 -14    6.25   20.30
  11  11 -15  138.23   51.87
  11  11 -16   10.69   34.39
  11  11 -17   62.21   35.44
  11  11 -18  180.35   65.41
  11  11 -19   75.98   48.35
  11  11 -20   12.44   21.74
  11  11 -21   60.06   40.31
  11  11 -22   44.26   51.12
  11  11  23   52.27   38.36
  11  11 -23  128.59   59.36
  11  11  24   33.93   34.44
   0  12   0 2446.38  179.99
 -12   0   0 2133.50  112.98
 -12   0  -1  -13.36   15.65
   0  12   1   -2.38   16.91
   0  12  -1   -2.19   17.71
   0  12   2   43.65   30.91
 -12   0  -2    6.21   12.46
   0  12   3    2.00   15.28
   0  12  -3   21.07   10.43
 -12   0  -3   13.52    9.40
   0  12  -4   79.30   36.53
 -12   0  -4   72.51   17.67
 -12   0  -5   -1.06    2.82
   0  12  -5  -27.08   23.03
   0  12  -6    5.64    9.68
   0  12  -7  -69.66   31.56
   0  12  -8   49.96   23.98
   0  12  -9  -12.12   20.44
   0  12 -10   28.30   33.68
   0  12 -11  135.14   45.28
   0  12 -12  891.92  118.65
   0  12 -13    6.12   15.11
   0  12 -14  -23.06   17.84
   0  12 -15   -1.59    9.96
   0  12 -16  342.00   72.92
   0  12 -17  -35.54   27.56
   0  12 -18   -3.40   14.38
   0  12 -19   22.14   22.07
   0  12 -20   -9.14   13.58
   0  12 -21   28.91   28.90
   0  12 -22    0.04   10.07
   0  12 -23   76.90   66.92
   0  12 -24  167.94   71.26
   0  12 -25  152.97   65.68
   0  12 -26    7.08   24.55
   0  12 -27   44.25   43.87
   0  12 -28  123.98   60.61
   0  12 -29    3.07   12.89
   0  12 -30    0.05   21.01
  -1  12 -31   -0.05   21.56
  -1  12 -30    0.97   16.88
  -1  12 -29   13.49   15.73
  -1  12 -28   61.23   46.65
  -1  12 -27   25.24   31.45
  -1  12 -26   86.45   52.87
  -1  12 -25   -9.76   16.30
  -1  12 -24  112.12   52.43
  -1  12 -23  106.47   42.84
  -1  12 -22   62.01   46.28
  -1  12 -21   15.24   18.26
  -1  12 -20   63.16   47.73
  -1  12 -19    3.93   17.78
  -1  12 -18   49.87   31.58
  -1  12 -17  130.86   47.93
  -1  12 -16   44.68   35.79
  -1  12 -15  138.26   47.19
  -1  12 -14  181.58   54.94
  -1  12 -13  157.95   49.97
  -1  12 -12  151.03   46.78
  -1  12 -11  541.59   92.21
  -1  12 -10  155.92   46.87
  -1  12  -9   54.90   34.55
  -1  12  -8    1.94   12.75
  -1  12  -7   18.84   14.06
  -1  12  -6  -32.50   21.52
 -12   1   5   12.57    4.84
 -12  -1  -5    4.83    3.22
  -1  12  -5   28.02   23.47
 -12   1   4  127.16   19.89
   1  12   4   97.70   31.41
 -12  -1  -4  128.01   21.08
  -1  12  -4  113.37   36.46
 -12   1   3   -7.12    6.84
   1  12   3  -25.21   25.21
  -1  12  -3   24.01   22.49
 -12  -1  -3    7.32    9.54
 -12   1   2  230.70   30.76
   1  12   2  148.07   43.61
  -1  12  -2  239.29   54.52
 -12  -1  -2  170.02   29.11
 -12   1   1  991.83   67.06
   1  12   1 1260.34  127.05
  -1  12  -1 1165.74  125.14
 -12  -1  -1 1011.43   77.46
 -12   1   0   47.84   14.79
  -1  12   0   51.61   32.37
   1  12   0    4.93   10.41
 -12   1  -1  988.67   74.21
  -1  12   1 1298.55  126.36
   1  12  -1 1062.69  119.94
 -12   1  -1  960.30   71.18
 -12   1  -2  164.16   27.06
  -1  12   2  150.23   41.79
   1  12  -2  185.53   48.89
 -12   1  -3    3.81    7.32
   1  12  -3   14.38   20.19
   1  12  -4  135.47   42.34
 -12   1  -4  141.86   21.05
 -12   1  -5    9.84    6.65
   1  12  -5   20.75   26.25
   1  12  -6   27.25   19.01
   1  12  -7   -6.46   19.38
   1  12  -8   34.78   29.88
   1  12  -9  100.22   47.92
   1  12 -10  116.85   43.99
   1  12 -11  453.65   85.91
   1  12 -12  128.59   44.67
   1  12 -13  166.05   55.22
  12   1  14  140.20   43.75
   1  12 -14   77.96   38.49
  12   1  15  155.26   45.32
   1  12 -15  218.09   64.53
  12   1  16   36.85   27.15
   1  12 -16   45.14   22.45
  12   1  17  197.23   55.27
   1  12 -17   98.08   38.63
  12   1  18   10.17   11.05
   1  12 -18   25.04   26.44
  12   1  19   -2.70   17.76
   1  12 -19   16.94   16.45
   1  12 -20   52.82   40.17
   1  12 -21   53.40   42.81
   1  12 -22   60.18   43.59
   1  12 -23   86.28   48.32
   1  12 -24  178.57   66.72
   1  12 -25   19.07   21.44
   1  12 -26   80.46   47.28
   1  12 -27   18.67   24.70
   1  12 -28  -62.61   37.79
   1  12 -29   21.50   47.74
   1  12 -30    4.84   25.84
  -2  12 -29    4.81   13.67
  -2  12 -28    6.86   10.82
  -2  12 -27    9.26   17.69
  -2  12 -26   41.03   27.04
  -2  12 -25    8.01   18.08
  -2  12 -24    9.09   14.20
  -2  12 -23   35.59   34.65
  -2  12 -22   47.46   30.01
  -2  12 -21   38.69   33.11
  -2  12 -20  160.59   63.02
  -2  12 -19    0.18   28.99
  -2  12 -18   30.94   23.96
  -2  12 -17   15.44   30.46
  -2  12 -16   86.19   44.35
  -2  12 -15   62.38   35.18
  -2  12 -14  258.34   65.83
  -2  12 -13   67.28   27.65
  -2  12 -12   82.31   40.02
  -2  12 -11  227.84   62.26
  -2  12 -10  267.43   65.54
  -2  12  -9   31.96   27.43
  -2  12  -8  141.52   44.96
  -2  12  -7    5.93   15.65
  -2  12  -6   50.10   35.33
   2  12   6   33.30   20.68
   2  12   5   95.32   32.38
 -12  -2  -5   76.39   13.98
  -2  12  -5   25.82   20.55
   2  12   4  166.11   49.84
  -2  12  -4  208.27   60.30
 -12  -2  -4  213.62   32.03
 -12  -2  -3   69.41   18.25
   2  12   3  101.20   34.21
  -2  12  -3    8.56   11.81
 -12   2   2  358.79   42.98
 -12  -2  -2  391.82   52.54
   2  12   2  327.02   69.72
  -2  12  -2  373.02   70.51
 -12   2   1   42.64   12.87
  -2  12  -1   55.48   27.71
   2  12   1   22.76   18.72
 -12  -2  -1   23.47   13.25
  -2  12   0  824.01  109.01
   2  12   0  804.61  104.59
 -12   2  -1   40.45   13.51
   2  12  -1   49.36   28.24
  -2  12   1   44.53   24.45
   2  12  -2  365.68   73.48
 -12   2  -2  360.89   41.52
 -12   2  -3   44.55   12.83
   2  12  -3   33.20   22.95
   2  12  -4  236.75   64.68
 -12   2  -4  160.62   25.53
 -12   2  -5  109.08   17.00
   2  12  -5   77.04   30.42
 -12   2  -6   49.68   10.91
   2  12  -6   45.23   33.88
  12   2   7   17.42   14.64
   2  12  -7   89.89   38.13
  12   2   8  112.23   36.21
   2  12  -8   92.68   42.25
  12   2   9   65.32   22.98
   2  12  -9   75.59   30.06
  12   2  10  293.09   55.76
   2  12 -10  306.08   72.69
  12   2  11  241.91   50.01
   2  12 -11  162.68   46.22
  12   2  12   39.58   24.49
   2  12 -12   32.17   27.92
  12   2  13   33.23   20.60
   2  12 -13   56.93   35.17
  12   2  14  307.48   62.45
   2  12 -14  305.22   71.90
  12   2  15  -10.57   17.16
   2  12 -15   25.71   20.68
  12   2  16   66.80   18.61
   2  12 -16  -37.06   32.50
  12   2  17   22.41   10.96
   2  12 -17   41.92   37.08
  12   2  18   17.44   23.11
   2  12 -18   20.61   15.23
  12   2  19   -2.57   14.25
   2  12 -19   -8.99   28.93
  12   2  20  198.82   57.49
   2  12 -20  177.32   60.36
  12   2  21   58.63   37.42
   2  12 -21   50.13   34.65
  12   2  22   93.20   42.32
   2  12 -22   49.60   36.67
  12   2  23   15.99   31.94
   2  12 -23   42.71   42.28
  12   2  24   39.94   30.61
   2  12 -24    7.00   16.91
  12   2  25   29.01   39.87
   2  12 -25   99.06   55.20
  12   2  26   94.02   45.79
   2  12 -26   68.04   42.95
   2  12 -27    9.30   16.93
   2  12 -28  -22.56   24.12
   2  12 -29   22.59   28.92
  -3  12 -28    6.23   17.61
  -3  12 -27   73.14   45.76
  -3  12 -26   42.49   37.34
  -3  12 -25   28.45   22.40
  -3  12 -24   23.17   33.29
  -3  12 -23   45.93   39.28
  -3  12 -22   43.09   29.18
  -3  12 -21   18.23   12.42
  -3  12 -20  147.17   52.16
  -3  12 -19   39.11   25.86
  -3  12 -18   29.14   20.26
  -3  12 -17   50.56   34.67
  -3  12 -16   17.32   16.55
  -3  12 -15  219.38   56.99
  -3  12 -14   71.36   35.33
  -3  12 -13  418.17   80.60
  -3  12 -12   66.78   42.47
  -3  12 -11  117.21   45.16
  -3  12 -10   65.89   34.46
  12   3  -9   37.30   25.31
  -3  12  -9    7.58    9.09
  12   3  -8  130.07   37.04
  -3  12  -8  139.55   46.40
   3  12   7    1.30    9.28
  -3  12  -7  -16.60   18.65
  12   3  -7   31.51   31.81
  -3  12  -6  240.18   54.57
   3  12   6  257.65   55.71
  12   3  -6  319.08   51.74
  -3  12  -5   84.55   38.70
   3  12   5  130.47   42.27
  12   3  -5  156.30   42.17
  -3  12  -4  188.34   51.72
   3  12   4  168.27   45.00
 -12  -3  -4  208.18   29.15
  12   3  -4  193.55   37.78
 -12  -3  -3   26.17   10.88
   3  12   3   10.68   13.22
  -3  12  -3    9.97    8.58
  12   3  -3    5.42   11.20
  -3  12  -2   -8.66   14.95
 -12  -3  -2    7.89    8.66
  12   3  -2   14.76    7.00
  12   3  -1  631.45   63.49
  -3  12  -1  701.26   95.39
   3  12   1  675.67   94.78
   3  12   0  111.09   38.01
  -3  12   0  115.59   36.88
  12   3   0   85.69   23.01
  12   3   1  554.16   55.04
   3  12  -1  725.42   99.90
 -12   3  -2    5.08    5.83
  12   3   2    2.24    7.95
  12   3   3   12.30    5.65
 -12   3  -3   10.40    5.09
   3  12  -3   54.23   31.15
  12   3   4  206.04   35.82
 -12   3  -4  184.36   25.98
   3  12  -4  211.27   56.96
  12   3   5  141.37   36.17
 -12   3  -5   87.33   17.58
   3  12  -5   70.39   48.94
  12   3   6  228.15   42.07
 -12   3  -6  240.96   23.97
   3  12  -6  205.39   51.51
 -12   3  -7    0.08    2.08
  12   3   7    7.96   21.14
 -12   3  -7    1.87    4.86
   3  12  -7   12.43   13.36
  12   3   8  139.00   32.74
   3  12  -8  185.44   52.37
  12   3   9   27.55   16.77
   3  12  -9   20.60   28.27
  12   3  10   65.18   23.83
   3  12 -10    6.48   15.55
  12   3  11   91.32   32.68
   3  12 -11    8.28   36.39
  12   3  12   14.20   21.55
   3  12 -12  -40.65   42.47
  12   3  13  448.25   75.15
   3  12 -13  436.88   86.31
  12   3  14   61.36   32.14
   3  12 -14    1.54   12.44
  12   3  15  277.87   60.82
   3  12 -15  178.49   59.84
  12   3  16   10.10   13.62
   3  12 -16   -5.22   13.55
  12   3  17   64.79   27.62
   3  12 -17   51.38   22.13
  12   3  18   10.67   24.78
   3  12 -18   13.29   21.56
  12   3  19  109.94   43.97
   3  12 -19   54.90   31.92
  12   3  20  139.72   50.63
   3  12 -20  142.98   51.02
  12   3  21   17.72   12.13
   3  12 -21   29.25   21.99
  12   3  22   48.83   26.92
   3  12 -22   90.60   47.39
  12   3  23    1.01   14.03
   3  12 -23   36.26   24.46
  12   3  24   44.56   37.04
   3  12 -24   22.17   26.54
  12   3  25   94.72   47.90
   3  12 -25   68.32   43.73
  12   3  26   -6.06   13.54
   3  12 -26   35.73   45.35
  12   3  27   21.57   30.51
   3  12 -27   15.56   14.87
   3  12 -28  -78.75   43.23
  -4  12 -26   -0.04   22.03
  -4  12 -25  115.98   53.56
  -4  12 -24    6.77   18.91
  -4  12 -23   39.84   37.25
  -4  12 -22   42.88   33.59
  -4  12 -21    8.44   20.70
  -4  12 -20   12.82   24.59
  -4  12 -19   87.23   41.99
  -4  12 -18  132.33   46.88
  -4  12 -17    2.35   13.95
  -4  12 -16   -5.49   13.99
  -4  12 -15   21.72   14.67
  12   4 -14   69.66   29.97
  -4  12 -14   89.85   41.13
  12   4 -13  151.52   46.70
  -4  12 -13  154.60   50.43
  12   4 -12  210.66   52.30
  -4  12 -12  153.49   54.51
  12   4 -11   13.57   15.53
  -4  12 -11    2.96    9.55
  12   4 -10   62.09   29.11
  -4  12 -10   71.32   36.29
  12   4  -9    1.53   15.30
   4  12   9   11.25   10.68
  12   4  -8   48.26   28.01
   4  12   8   25.83   13.28
  -4  12  -8   22.19   13.44
  12   4  -7   10.72    8.87
  -4  12  -7  -10.72   12.12
  12   4  -6  251.84   47.77
   4  12   6  187.95   48.41
  -4  12  -6  339.03   67.42
  -4  12  -5  -25.64   24.17
   4  12   5    4.98    8.78
  12   4  -4   74.31   31.80
  -4  12  -4   18.29   13.61
 -12  -4  -4   25.20   15.67
   4  12   4   32.58   28.46
  12   4  -3  176.82   36.69
   4  12   3  164.35   47.01
  -4  12  -3  114.09   37.97
 -12  -4  -3  149.29   29.02
  12   4  -2  105.39   30.06
  -4  12  -2   58.54   25.94
   4  12   2  136.89   45.98
  12   4  -1    0.50    6.77
   4  12   1   -9.67   11.32
   4  12   0  278.28   64.29
  -4  12   0  354.86   74.50
  12   4   0  253.26   41.72
  12   4   1   -3.29    9.33
  12   4   1    0.36    3.60
   4  12  -1  -20.44   21.80
  12   4   2  117.36   24.89
  12   4   2   53.10   16.85
   4  12  -2  118.83   50.15
  12   4   3  164.65   30.28
  12   4   3  137.18   26.45
   4  12  -3  219.47   53.19
  12   4   4   86.86   28.17
  12   4   4   62.44   18.17
   4  12  -4   81.80   47.38
  12   4   5   30.24   10.77
  12   4   5   29.60   10.86
   4  12  -5   17.14    9.49
  12   4   6  262.63   44.65
 -12   4  -6  264.27   32.76
   4  12  -6  233.70   63.37
  12   4   6  236.29   27.42
  12   4   7    0.91    4.99
  12   4   7  -21.91   17.07
 -12   4  -7    3.71    5.22
   4  12  -7    1.05   16.88
  12   4   8   54.63    9.88
  12   4   8   67.75   23.72
 -12   4  -8   36.96    9.94
   4  12  -8   57.88   35.33
  12   4   9   33.61   17.34
  12   4   9   16.77    5.67
   4  12  -9  -15.33   32.10
 -12   4  -9    6.86    3.20
  12   4  10   52.67   25.23
   4  12 -10   23.36   25.13
  12   4  11   32.69   17.63
   4  12 -11   24.37   10.83
  12   4  12   90.17   40.99
   4  12 -12  157.37   64.07
  12   4  13  130.94   40.52
   4  12 -13  168.01   57.11
  12   4  14   64.38   30.19
   4  12 -14   87.85   39.00
  12   4  15   99.41   37.06
   4  12 -15    3.39   11.39
  12   4  16   22.22   26.70
   4  12 -16  -47.53   34.09
  12   4  17   15.52   16.82
   4  12 -17   71.17   37.31
  12   4  18  135.44   52.49
   4  12 -18  220.24   63.40
  12   4  19   68.10   33.71
   4  12 -19   87.40   41.04
  12   4  20   -3.89   25.10
   4  12 -20    7.76   14.34
  12   4  21    2.70   12.48
   4  12 -21   44.51   30.34
  12   4  22    4.08   10.96
   4  12 -22   31.61   21.17
  12   4  23   43.67   29.37
   4  12 -23    4.67   10.81
  12   4  24   53.91   43.91
   4  12 -24  -37.21   29.37
  12   4  25  109.59   60.90
   4  12 -25  106.30   55.99
  12   4  26   42.99   32.59
   4  12 -26   18.06   31.89
  12   4  27    9.57   14.22
   4  12 -27   47.71   48.74
   4  12 -28  -13.17   32.27
  -5  12 -24    8.34   22.82
  -5  12 -23   36.77   36.51
  -5  12 -22   35.67   26.18
  -5  12 -21  -24.94   21.00
  -5  12 -20  -42.78   26.69
  -5  12 -19   20.54   21.94
  -5  12 -18    6.64   13.31
  12   5 -17   19.17   17.45
  -5  12 -17   31.08   23.06
  12   5 -16   35.41   32.69
  -5  12 -16   34.75   23.20
  12   5 -15   48.08   35.57
  -5  12 -15   22.92   19.63
  12   5 -14   56.84   31.30
  -5  12 -14   76.90   31.17
  12   5 -13  151.89   46.46
  -5  12 -13  202.72   57.24
  12   5 -12  101.67   40.40
  -5  12 -12   98.58   41.89
  12   5 -11   46.67   30.15
  -5  12 -11   59.83   35.11
  12   5 -10    1.13   12.48
   5  12  10   -4.44   13.22
  -5  12 -10   -5.83   15.86
  12   5  -9   50.51   25.39
   5  12   9   57.19   31.98
  -5  12  -9  100.03   39.96
  12   5  -8   10.62   12.28
   5  12   8  -22.08   26.85
  -5  12  -8   -3.18   16.62
  12   5  -7   39.12   23.68
  -5  12  -7   21.43   18.55
   5  12   7   46.53   22.75
  12   5  -6   10.38    9.57
  -5  12  -6    0.62    9.13
   5  12   6   -1.52    9.45
  12   5  -5  177.95   43.98
   5  12   5  143.39   46.28
  -5  12  -5  212.88   52.76
  12   5  -4   18.60   16.74
   5  12   4    6.03   14.77
 -12  -5  -4    2.56    7.20
  -5  12  -4    1.64   17.46
  -5  12  -3  352.23   67.35
   5  12   3  297.36   63.58
  12   5  -3  316.87   55.76
  12   5  -2  103.04   30.18
  -5  12  -2   98.93   38.95
   5  12   2  116.78   38.77
  12   5  -1  251.35   46.33
  -5  12  -1  315.55   67.93
   5  12   1  207.83   55.36
  12   5  -1  240.59   28.68
  12   5   0   43.62   20.27
  12   5   0   36.01   12.22
   5  12   0   40.14   22.19
  12   5   1  250.70   34.39
  12   5   1  202.76   36.61
   5  12  -1  232.90   63.14
  12   5   2  104.06   24.34
  12   5   2  119.65   27.95
   5  12  -2   51.48   32.17
  12   5   3  369.97   48.86
   5  12  -3  333.03   71.81
  12   5   3  304.00   43.42
  12   5   4   17.59   13.79
  12   5   4   10.84    6.22
   5  12  -4   21.34   19.81
  12   5   5  204.81   38.48
  12   5   5  172.32   28.60
   5  12  -5  134.71   51.85
  12   5   6  -11.70    8.62
  12   5   6   20.09   13.40
 -12   5  -6   -6.92    7.59
   5  12  -6  -14.61   27.78
  12   5   7   48.16   15.80
  12   5   7   57.90   21.97
 -12   5  -7   59.12   18.75
   5  12  -7   44.18   26.47
  12   5   8   17.22    9.03
  12   5   8   -2.35   14.13
 -12   5  -8   -5.88    6.05
  12   5   9  102.75   31.73
  12   5   9   50.35   11.97
   5  12  -9   15.54   16.90
 -12   5  -9   35.30   11.39
  12   5  10    6.59   10.31
  12   5  10   16.24    7.74
   5  12 -10  -29.03   31.07
  12   5  11   45.77   23.58
   5  12 -11   67.26   39.76
  12   5  12   72.31   26.27
   5  12 -12   19.76   26.31
  12   5  13  181.05   46.59
   5  12 -13  139.49   50.72
  12   5  14  107.31   33.52
   5  12 -14   55.62   32.44
  12   5  15  173.07   49.96
   5  12 -15  145.22   57.07
  12   5  16   36.99   23.60
   5  12 -16   82.73   41.93
  12   5  17   33.32   24.97
   5  12 -17   -2.36   14.71
  12   5  18   53.53   31.44
   5  12 -18   -7.94   11.17
  12   5  19   45.30   29.87
   5  12 -19   68.63   38.97
  12   5  20    4.60   16.21
   5  12 -20   24.80   15.30
  12   5  21   47.61   35.17
   5  12 -21   28.21   24.60
  12   5  22    8.42   11.86
   5  12 -22   26.43   32.20
  12   5  23  -57.47   34.53
   5  12 -23   -0.05   13.03
  12   5  24   59.04   43.50
   5  12 -24   37.13   34.98
  12   5  25   44.20   34.76
   5  12 -25   74.60   50.04
  12   5  26  -22.33   24.24
   5  12 -26   28.31   37.80
  12   5  27   60.76   36.90
   5  12 -27   52.44   45.80
  -6  12 -22   13.21   17.44
  -6  12 -21   20.14   28.74
  12   6 -20    7.43   17.73
  -6  12 -20   22.73   21.89
  12   6 -19   27.42   35.69
  -6  12 -19    3.22   17.48
  12   6 -18   15.66   13.91
  -6  12 -18   39.77   22.58
  12   6 -17    7.90   29.64
  -6  12 -17   -4.31    7.69
  12   6 -16  -17.70   24.79
  -6  12 -16    0.06    9.90
  12   6 -15   26.76   21.83
  -6  12 -15   30.77   16.51
  12   6 -14  368.17   80.56
  -6  12 -14  348.76   72.53
  12   6 -13    5.41    8.60
  -6  12 -13   17.53   12.43
  12   6 -12   -4.03   13.26
   6  12  12    8.86   16.82
  12   6 -11  -27.11   23.49
   6  12  11   20.01   29.46
  -6  12 -11   21.49   20.63
  12   6 -10   49.71   24.44
   6  12  10   36.93   29.18
  -6  12 -10   79.36   36.72
  12   6  -9   13.06    8.58
   6  12   9   -1.51   14.68
  12   6  -8    7.57   14.58
   6  12   8    5.73   11.54
  12   6  -7   23.49   20.88
   6  12   7    6.71   20.25
  -6  12  -7   12.03   20.55
  12   6  -6  311.39   61.71
  -6  12  -6  372.83   66.62
   6  12   6  256.64   62.34
  12   6  -5   17.21    9.16
   6  12   5   -9.74   20.14
  -6  12  -5    7.93    9.26
  12   6  -4   56.39   23.82
  -6  12  -4   29.71   19.75
   6  12   4   40.24   23.74
  12   6  -3   32.72   11.58
  12   6  -3   15.82    5.30
  -6  12  -3   10.47   13.01
   6  12   3   15.38    9.32
  12   6  -2  446.18   37.29
  -6  12  -2  473.84   77.39
   6  12   2  432.80   79.31
  12   6  -2  409.83   63.87
  12   6  -1   46.85   25.41
  12   6  -1   18.40    8.39
   6  12   1   -9.09   20.77
  -6  12  -1    9.11   11.78
  12   6   0  235.99   32.02
  12   6   0  242.18   43.77
   6  12   0  158.76   52.75
  12   6   1   14.67    7.04
  12   6   1   34.40   18.33
   6  12  -1   26.08   20.21
  12   6   2  469.63   52.33
   6  12  -2  342.60   78.88
  12   6   2  448.04   57.17
  12   6   3   30.89   13.16
  12   6   3   27.34   16.73
   6  12  -3  -14.71   20.64
  12   6   4   99.27   28.22
  12   6   4   54.25   20.14
   6  12  -4   79.60   37.18
  12   6   5    4.32    8.64
  12   6   5    1.26    9.05
   6  12  -5  -18.17   25.26
  12   6   6  281.11   49.66
 -12   6  -6  363.32   46.14
   6  12  -6  322.06   76.13
  12   6   6  282.22   41.38
  12   6   7    0.77    7.79
  12   6   7   -6.40   13.72
 -12   6  -7  -13.43    8.20
   6  12  -7  -13.35   20.33
  12   6   8   -0.04    5.94
 -12   6  -8    7.53    5.68
   6  12  -8   -4.83   18.63
  12   6   8   10.56   10.60
  12   6   9   -1.02   11.22
   6  12  -9   -1.42   18.03
 -12   6  -9   40.20   15.76
  12   6   9   24.81   12.50
  12   6  10   37.88   24.40
   6  12 -10   18.08   33.85
 -12   6 -10   37.95   15.59
  12   6  10   31.69   11.69
  12   6  11   42.02   19.60
   6  12 -11    3.69   21.93
  12   6  12   22.85   18.30
   6  12 -12   47.42   38.43
  12   6  13   39.43   21.09
   6  12 -13   19.08   31.59
  12   6  14  437.42   76.89
   6  12 -14  345.78   94.63
  12   6  15    0.78   12.57
   6  12 -15   15.94   21.38
  12   6  16   18.84   19.01
   6  12 -16   57.12   33.01
  12   6  17  -10.03   17.10
   6  12 -17   39.19   31.19
  12   6  18    9.12   12.42
   6  12 -18   -3.43   10.11
  12   6  19   25.60   27.17
   6  12 -19   -3.12   14.30
  12   6  20   33.86   27.84
   6  12 -20   10.52   17.28
  12   6  21  -19.85   22.51
   6  12 -21    2.68   14.04
  12   6  22   36.14   35.58
   6  12 -22   29.29   26.80
  12   6  23   39.67   33.51
   6  12 -23   47.49   38.78
  12   6  24    5.78   15.35
   6  12 -24    6.41   16.11
  12   6  25   37.23   40.03
   6  12 -25  -14.77   20.98
  12   6  26   77.23   51.47
   6  12 -26   69.87   47.97
  12   7 -22   31.10   38.22
  12   7 -21   22.58   27.94
  12   7 -20  -53.25   33.30
  -7  12 -20  -11.67   18.86
  12   7 -19    3.78   23.10
  -7  12 -19   12.10   18.26
  12   7 -18   41.60   27.64
  -7  12 -18  -28.37   28.71
  12   7 -17   15.86   12.45
  -7  12 -17   15.50    9.50
  12   7 -16   13.04   24.49
  -7  12 -16  -12.84   12.63
  12   7 -15  319.61   72.18
   7  12  15  188.95   54.23
  -7  12 -15  204.03   55.49
  12   7 -14   69.62   41.48
   7  12  14  116.85   51.60
  -7  12 -14   58.89   30.25
  12   7 -13  152.74   52.61
   7  12  13  178.22   52.71
  -7  12 -13  229.53   61.38
  12   7 -12   77.59   35.82
   7  12  12   21.15   16.83
  -7  12 -12   63.21   28.79
  12   7 -11   34.20   24.27
   7  12  11    7.78   19.79
  -7  12 -11   40.48   29.28
  12   7 -10    8.34   12.20
   7  12  10   20.20   21.29
  -7  12 -10   10.44   12.89
  12   7  -9  100.67   35.60
  -7  12  -9  125.81   41.26
   7  12   9  108.65   46.58
  12   7  -8   19.80   15.04
  -7  12  -8   15.22   15.57
   7  12   8    1.86    9.20
  12   7  -7   61.25   25.40
  -7  12  -7   88.16   36.37
   7  12   7   38.78   12.04
  12   7  -6   28.45   22.08
  -7  12  -6   -7.57   10.99
   7  12   6   48.59   32.99
  12   7  -5  258.44   55.24
   7  12   5  238.15   57.91
  -7  12  -5  277.70   62.42
  12   7  -5  242.01   18.50
  12   7  -4   14.41   16.68
  -7  12  -4  -11.48   22.48
   7  12   4    6.54   12.11
  12   7  -3  227.84   51.55
  -7  12  -3  310.46   63.56
   7  12   3  240.62   57.27
  12   7  -2   98.38   30.99
  -7  12  -2   98.66   36.21
   7  12   2  121.22   44.82
  12   7  -1  349.37   57.78
   7  12   1  321.74   74.73
  12   7   0   67.32   28.48
   7  12   0   49.09   33.55
   7  12  -1  309.04   75.12
  12   7   1  366.70   57.35
  12   7   2   72.34   28.78
   7  12  -2   83.14   35.56
  12   7   3  252.85   45.30
   7  12  -3  245.21   61.86
  12   7   4   22.29   13.32
   7  12  -4   -5.22   16.74
  12   7   5  227.65   41.78
   7  12  -5  198.56   66.07
 -12   7  -6   33.76   14.35
   7  12  -6   -6.73   17.16
  12   7   6   28.44   15.53
 -12   7  -7   89.60   25.78
  12   7   7   49.24   23.04
   7  12  -7   47.24   37.70
 -12   7  -8    0.70    8.85
   7  12  -8    4.53   10.85
  12   7   8    4.10   10.37
 -12   7  -9  107.25   26.92
  12   7   9   95.40   27.01
   7  12  -9  105.19   47.46
  12   7  10   -1.33   15.71
   7  12 -10   -6.43   25.29
  12   7  10   27.97   16.89
 -12   7 -10   17.60   10.34
   7  12 -11   45.22   34.45
  12   7  11   11.21   13.61
   7  12 -12   51.56   40.57
  12   7  12   97.63   34.67
   7  12 -13  227.69   73.59
  12   7  13  229.81   54.42
   7  12 -14   28.26   27.83
  12   7  14   75.82   32.44
   7  12 -15  254.63   67.39
  12   7  15  279.51   63.97
   7  12 -16   14.57   16.73
  12   7  16   14.97   28.55
   7  12 -17    2.55   18.63
  12   7  17   -2.38   26.43
   7  12 -18    1.54   13.91
  12   7  18   11.15   25.05
   7  12 -19  -11.52   28.59
  12   7  19   15.58   21.38
   7  12 -20  -15.68   11.39
  12   7  20   66.68   36.94
   7  12 -21   -2.73   21.43
  12   7  21   -2.37   20.83
   7  12 -22   -1.66   16.15
  12   7  22   30.99   31.24
   7  12 -23  -18.64   22.65
  12   7  23   38.59   29.19
   7  12 -24   60.57   42.31
  12   7  24   38.72   34.42
   7  12 -25   88.19   55.60
  12   7  25   55.20   36.51
   7  12 -26  113.89   59.37
  12   7  26   87.45   53.99
  12   8 -24   42.45   41.28
  12   8 -23   23.18   18.07
  12   8 -22   18.65   25.78
  12   8 -21    4.93   17.95
  12   8 -20   31.16   24.42
  12   8 -19   45.86   30.42
  12   8 -18   59.04   37.75
  -8  12 -18   27.50   25.11
   8  12  18   44.45   28.67
   8  12  17   10.21   10.29
  -8  12 -17    6.33   21.77
  12   8 -16   37.96   31.97
   8  12  16   50.91   31.87
  -8  12 -16   21.65   22.30
  12   8 -15  -23.82   21.21
   8  12  15   59.16   45.95
  -8  12 -15   16.20   28.25
  12   8 -14  150.04   49.11
   8  12  14   90.51   38.76
  -8  12 -14  115.91   41.01
  12   8 -13   -2.67   23.08
   8  12  13   32.50   36.37
  -8  12 -13   15.84   21.12
  12   8 -12  153.87   49.31
   8  12  12   63.54   27.73
  -8  12 -12  165.68   52.07
  12   8 -11   54.62   30.33
   8  12  11   58.89   32.54
  -8  12 -11   85.15   38.53
  12   8 -10   54.09   28.55
   8  12  10   25.64   22.94
  -8  12 -10   46.06   30.44
  12   8  -9   25.85   15.88
   8  12   9    1.81   28.94
  -8  12  -9   14.69    7.45
  12   8  -8   56.29   32.33
   8  12   8   31.35   27.08
  -8  12  -8   17.05   21.37
  12   8  -7   18.52   20.15
  -8  12  -7   -6.42   18.48
   8  12   7  -16.23   27.74
  12   8  -6  172.53   47.22
   8  12   6  177.25   50.57
  -8  12  -6  201.04   52.06
  12   8  -5   98.78   37.31
  -8  12  -5   62.77   29.11
   8  12   5   70.48   26.92
  12   8  -4   24.73   21.53
  -8  12  -4   -4.61    8.37
   8  12   4   -6.77   13.46
  12   8  -3   67.36   28.36
  -8  12  -3   71.05   32.36
   8  12   3   67.06   34.88
  -8  12  -2  281.57   62.40
   8  12   2  235.17   66.85
  12   8  -2  412.77   69.61
  12   8  -1   25.55   19.26
   8  12   1    3.45    9.36
  12   8   0  261.07   54.13
   8  12   0  268.48   65.93
  12   8   1    6.28   13.58
   8  12  -1    0.22   11.63
  12   8   2  300.86   56.05
   8  12  -2  369.24   75.26
   8  12  -3   39.26    9.45
  12   8   3   77.58   29.18
  12   8   4   32.31   16.11
   8  12  -4    6.80   18.18
 -12   8  -5  120.72   32.07
  12   8   5  115.95   31.28
   8  12  -5   73.13   34.84
 -12   8  -6  179.58   36.93
  12   8   6  156.54   38.05
   8  12  -6  196.04   57.74
 -12   8  -7    6.91    9.74
   8  12  -7   28.12   26.77
  12   8   7    4.38    9.18
 -12   8  -8    9.46    9.66
  12   8   8   27.52   18.99
 -12   8  -9    9.19   11.19
   8  12  -9   24.77   22.33
  12   8   9   23.54   16.96
   8  12 -10   64.63   43.91
  12   8  10   32.90   19.54
 -12   8 -10   57.74   25.39
   8  12 -11   57.32   38.97
   8  12 -12  141.52   48.29
   8  12 -13   11.39   14.79
   8  12 -14  108.80   45.14
  12   8  14  119.95   45.34
   8  12 -15   82.31   43.83
  12   8  15   29.86   31.71
   8  12 -16   55.04   33.13
  12   8  16   73.05   35.82
   8  12 -17   41.32   29.55
  12   8  17   64.61   34.81
   8  12 -18   18.68   15.73
  12   8  18   58.55   31.43
   8  12 -19   16.78   20.24
  12   8  19    3.98   16.96
   8  12 -20   16.36   34.69
  12   8  20  -26.06   24.96
   8  12 -21    1.00   19.84
  12   8  21  -16.91   22.55
   8  12 -22   30.12   30.31
  12   8  22   14.04   26.94
   8  12 -23   59.49   40.13
  12   8  23   93.67   47.85
   8  12 -24   35.05   27.78
  12   8  24   36.88   37.24
   8  12 -25   51.81   40.40
  12   8  25   73.93   43.50
  12   9 -24  110.22   54.35
  12   9 -23   23.82   22.44
  12   9 -22   37.21   34.85
  12   9 -21    3.96   23.20
  12   9 -20   34.33   26.79
  12   9 -19  -21.97   22.76
  12   9 -18  -10.44   24.89
  12   9 -17   11.73   18.80
   9  12  17   16.41   15.44
  12   9 -16    1.41   10.47
   9  12  16   31.14   22.17
  -9  12 -16   -0.47   12.37
  12   9 -15   78.91   42.12
   9  12  15   72.72   33.26
  -9  12 -15   88.15   33.49
  12   9 -14   15.65   26.79
   9  12  14   57.85   39.29
  -9  12 -14  -10.26   21.66
  12   9 -13  132.67   52.53
   9  12  13  138.86   44.77
  -9  12 -13  153.01   52.52
  12   9 -12    4.28   13.79
   9  12  12    8.01   17.51
  -9  12 -12   -8.61   16.76
  12   9 -11  104.01   45.70
   9  12  11  102.55   36.75
  -9  12 -11  115.80   42.81
   9  12  10   12.70   13.01
  -9  12 -10   40.09   25.02
  12   9  -9   75.53   34.93
  -9  12  -9   12.46   18.10
   9  12   9   74.69   32.83
  12   9  -8   -4.54   14.69
  -9  12  -8    8.20   10.88
   9  12   8   40.24   26.46
  12   9  -7   44.31   24.61
  -9  12  -7   84.63   35.08
   9  12   7   70.05   33.77
  12   9  -6   32.24   24.92
  -9  12  -6   76.49   29.85
   9  12   6   53.72   28.95
  12   9  -5    8.43   15.04
   9  12   5    8.73   12.83
  12   9  -4   35.94   20.92
  -9  12  -4   35.80   12.91
   9  12   4   13.04   17.56
  12   9  -3  194.65   48.64
  -9  12  -3  112.95   40.27
   9  12   3  148.34   52.20
  12   9  -2   43.16   27.16
   9  12   2   18.13   18.45
  12   9  -1  572.43   81.41
   9  12   1  374.28   82.11
  12   9   0  -30.48   28.90
   9  12   0   -0.31    9.25
  12   9   1  432.48   71.21
   9  12  -1  492.27   86.30
  12   9   2   13.68   11.25
   9  12  -2   -5.95   23.66
   9  12  -3  171.68   47.75
  12   9   3  130.03   34.15
   9  12  -4   22.65   14.44
  12   9   4   32.11   17.95
 -12   9  -5   25.69   15.32
   9  12  -5   44.17   32.84
  12   9   5   33.50   17.20
 -12   9  -6   37.98   20.49
  12   9   6   33.78   21.20
   9  12  -6   34.37   26.25
 -12   9  -7  107.24   33.77
  12   9   7   56.41   24.05
   9  12  -7  122.05   48.62
 -12   9  -8    8.41    7.96
   9  12  -8   13.30   25.23
  12   9   8   26.49   23.34
   9  12  -9  114.24   49.29
 -12   9  -9   55.62   24.60
  12   9   9   27.30   22.71
   9  12 -10   17.26   18.37
  12   9  10   67.41   35.64
 -12   9 -10   29.24   18.90
   9  12 -11  158.37   58.90
  12   9  11   89.90   30.14
   9  12 -12  -28.30   18.90
   9  12 -13  100.78   50.09
   9  12 -14   52.01   35.87
   9  12 -15  124.32   57.82
   9  12 -16   -5.88   15.09
   9  12 -17  -41.62   30.21
  12   9  17   18.61   23.03
   9  12 -18   71.78   45.19
  12   9  18   88.29   40.00
   9  12 -19    5.01   17.88
  12   9  19    5.40   17.91
   9  12 -20    3.46   20.97
  12   9  20   48.05   33.51
   9  12 -21  -10.25   11.37
  12   9  21  -61.22   35.38
   9  12 -22    9.38   29.14
  12   9  22   38.80   25.46
   9  12 -23   26.61   36.82
  12   9  23  -21.66   23.18
   9  12 -24   27.82   29.97
  12   9  24    0.82   15.21
  12   9  25   86.59   53.50
  12  10 -23   72.64   43.84
  12  10 -22  -50.78   35.27
  12  10 -21   28.78   38.27
  12  10 -20   51.29   31.85
  12  10 -19   72.15   44.27
  12  10 -18   18.31   20.00
  12  10 -17  -19.77   21.83
  12  10 -16   77.49   41.53
  12  10 -15   18.66   13.00
  10  12  15   89.79   43.42
  12  10 -14  238.84   63.50
  10  12  14  188.61   51.28
 -10  12 -14  185.19   52.76
  10  12  13   54.63   36.82
 -10  12 -13   42.13   30.83
  12  10 -12   68.81   37.85
  10  12  12   56.69   25.74
 -10  12 -12  101.80   40.86
  12  10 -11   34.05   26.28
  10  12  11    0.86   18.60
 -10  12 -11   42.21   25.15
  12  10 -10  126.70   46.44
  10  12  10  112.00   40.57
 -10  12 -10  116.62   41.64
  12  10  -9   -1.33   16.12
  10  12   9   -9.16   10.96
 -10  12  -9   10.32   11.04
  12  10  -8   54.50   35.61
 -10  12  -8   73.89   32.12
  10  12   8   92.20   36.22
  12  10  -7   66.37   34.72
 -10  12  -7   18.15   13.17
  10  12   7   67.03   35.62
  12  10  -6  112.19   45.16
 -10  12  -6   75.39   36.28
  10  12   6   30.40   24.21
 -10  12  -5    9.88   13.56
  10  12   5    2.07   21.58
  12  10  -4   45.78   22.71
 -10  12  -4   80.77   34.35
  10  12   4   53.83   30.47
  12  10  -3   90.42   38.86
 -10  12  -3   73.69   35.33
  10  12   3   37.91   28.61
  12  10  -2  199.00   50.82
  10  12   2  267.39   65.67
  12  10  -1   14.81   18.19
  10  12   1   40.50   26.02
  12  10   0  536.34   79.57
  10  12   0  433.17   83.92
  10  12  -1   -3.52   20.16
  12  10   1   24.88   21.08
  12  10   2  246.67   58.89
  10  12  -2  182.53   57.14
  12  10   3   48.74   26.31
  10  12  -3   57.29   32.97
  10  12  -4   92.84   44.51
  12  10   4   42.52   24.72
 -12  10  -5   52.19   23.73
  12  10   5   12.39   14.23
  10  12  -5   16.33   22.86
 -12  10  -6   16.75   12.13
  10  12  -6   49.66   32.08
  12  10   6   11.17   18.94
  10  12  -7   31.22   20.60
 -12  10  -7   19.10    9.25
  12  10   7   30.27   22.14
  10  12  -8  123.50   43.94
 -12  10  -8   64.40   25.24
  12  10   8   82.30   32.88
  10  12  -9   35.30   27.92
 -12  10  -9   21.24   15.47
  12  10   9   24.73   27.70
  10  12 -10  157.72   58.07
  12  10  10  108.22   36.80
 -12  10 -10  113.19   35.22
  10  12 -11    2.28   10.02
  10  12 -12  135.83   54.32
  10  12 -13  -19.92   19.55
  10  12 -14  262.69   70.04
  10  12 -15   72.99   51.01
  10  12 -16    3.76   12.12
  10  12 -17   42.17   15.40
  10  12 -18   -5.06   19.28
  10  12 -19   22.07   16.80
  12  10  19   69.41   42.38
  10  12 -20   59.46   40.82
  12  10  20   43.48   35.60
  10  12 -21    9.17   18.31
  12  10  21   35.25   35.75
  10  12 -22   23.49   27.08
  12  10  22  -37.40   29.29
  10  12 -23   51.99   33.46
  12  10  23   41.51   31.57
  12  10  24   -9.21   17.64
  12  11 -22    5.65   15.52
  12  11 -21   53.24   34.58
  12  11 -20  -56.46   36.58
  12  11 -19    3.85   18.90
  12  11 -18   18.53   24.16
  12  11 -17   21.13   18.37
  12  11 -16   42.86   37.21
  12  11 -15   -4.32   15.42
  12  11 -14   82.75   27.24
  12  11 -13  166.12   63.96
  11  12  13  156.09   44.71
  12  11 -12   42.04   25.41
  11  12  12   69.39   43.77
 -11  12 -12   45.23   26.48
  12  11 -11  159.86   58.18
 -11  12 -11  240.49   61.36
  11  12  11  188.49   51.80
  12  11 -10   88.80   42.34
 -11  12 -10  119.13   43.66
  11  12  10   84.55   45.23
  12  11  -9   73.24   36.87
 -11  12  -9   27.96   14.80
  11  12   9   26.02   18.83
  12  11  -8   36.76   23.75
 -11  12  -8   -5.18    8.80
  11  12   8   -0.03   16.75
  12  11  -7   68.88   36.36
 -11  12  -7   29.05   23.49
  11  12   7   -4.30   25.24
  12  11  -6   -8.92   17.76
 -11  12  -6   33.17   22.13
  11  12   6   37.96   25.46
  12  11  -5   93.46   40.32
 -11  12  -5   94.62   35.36
  11  12   5   94.64   39.41
  12  11  -4   24.42   27.71
 -11  12  -4   14.75   13.85
  11  12   4   -8.84   20.12
  12  11  -3   63.34   35.76
 -11  12  -3   25.74   18.88
  11  12   3   33.09   19.18
  12  11  -2  101.98   37.64
  11  12   2    6.17   11.89
  11  12   1  568.68   94.84
  12  11  -1  518.59   90.81
  12  11   0   47.88   31.15
  11  12   0   40.50   33.19
  11  12  -1  638.35   98.68
  12  11   1  706.86   99.61
  11  12  -2   60.29   31.94
  12  11   2  115.70   41.31
  12  11   3   41.30   29.26
  11  12  -3   53.34   32.38
 -12  11  -4   -2.57    9.91
  12  11   4   34.27   19.03
  11  12  -4   -5.01   18.69
 -12  11  -5  123.13   36.16
  11  12  -5  118.50   44.77
  12  11   5  124.50   42.76
  11  12  -6   -4.51   11.44
 -12  11  -6   28.51   24.64
  12  11   6   52.07   26.48
  11  12  -7   37.94   25.61
 -12  11  -7   18.33    9.86
  12  11   7   29.71   20.55
  11  12  -8   21.19   18.13
 -12  11  -8   16.61   11.52
  12  11   8  -16.36   10.62
  11  12  -9  114.86   55.10
 -12  11  -9   51.11   26.51
  12  11   9   60.65   28.30
  11  12 -10   62.75   38.82
  12  11  10   41.68   36.08
 -12  11 -10   91.93   34.25
  11  12 -11  202.40   60.85
  11  12 -12   65.46   33.49
  11  12 -13  173.22   63.16
  11  12 -14  118.03   47.85
  11  12 -15   34.43   29.13
  11  12 -16   21.98   13.78
  11  12 -17   69.76   39.33
  11  12 -18    9.28   37.68
  11  12 -19  -67.40   39.36
  11  12 -20   -6.33   15.81
  11  12 -21   16.84   15.63
  12  11  21   31.65   24.38
  11  12 -22   16.70   29.37
  12  11  22    6.49   27.21
  12  11  23    6.51   15.89
  12  12   0 1344.81  144.37
  12  12  -1   10.56   18.12
  12  12   1   23.56   21.67
  12  12  -2  291.31   71.28
  12  12   2  175.94   51.68
 -12  12  -3   15.10   17.33
  12  12   3  -16.30   23.97
  12  12  -3   -3.26   17.26
  12  12  -4  137.56   50.18
 -12  12  -4   90.93   36.89
  12  12   4   97.70   38.28
 -12  12  -5   19.15   19.00
  12  12   5  -13.68   25.75
  12  12  -6  -12.15   16.82
 -12  12  -6  -10.43   17.55
  12  12   6   23.68   22.81
  12  12  -7   41.74   32.80
 -12  12  -7   43.77   22.33
  12  12   7   33.36   24.84
  12  12  -8   33.48   37.84
 -12  12  -8   -1.42   14.74
  12  12   8   40.86   26.54
  12  12  -9   -4.50   15.34
 -12  12  -9   -0.11   12.60
  12  12   9  -11.51    8.58
  12  12 -10   42.76   34.39
 -12  12 -10   32.40   26.05
  12  12  10   19.28   18.01
  12  12 -11   47.46   37.90
  12  12 -12  728.30  121.55
  12  12 -13   45.65   38.61
  12  12 -14   30.27   35.11
  12  12 -15   41.61   37.56
  12  12 -16   92.17   48.24
  12  12 -17    0.05   14.09
  12  12 -18   24.14   30.07
  12  12 -19   37.91   29.16
  12  12 -20   64.58   44.96
  12  12 -21   65.43   44.29
  12  12  22  -35.68   29.56
   0  13   0  130.10   39.80
   0  13  -1  566.92   90.25
   0  13   1  544.09   86.64
 -13   0  -1  545.79   56.67
   0  13   2   48.33   21.98
   0  13  -2   72.18   30.94
 -13   0  -2   39.57   11.72
   0  13   3   69.84   36.09
   0  13  -3   71.90   40.97
 -13   0  -3   24.06   17.11
   0  13   4   62.83   30.58
   0  13  -4  137.12   50.51
 -13   0  -4   68.04   19.11
 -13   0  -5    4.87    3.98
   0  13  -5   51.76   26.78
   0  13  -6  -11.65    9.34
   0  13  -7   28.27   33.22
   0  13  -8    2.92   17.92
   0  13  -9   53.60   34.81
   0  13 -10   34.77   29.88
   0  13 -11  157.43   54.69
   0  13 -12   39.88   13.80
   0  13 -13  161.59   58.79
   0  13 -14   89.37   42.98
   0  13 -15  142.07   49.05
   0  13 -16   92.06   49.03
   0  13 -17   75.67   39.97
   0  13 -18   65.95   37.47
   0  13 -19  126.30   49.68
   0  13 -20   95.54   45.36
   0  13 -21   74.03   42.15
   0  13 -22   55.08   39.64
   0  13 -23  107.57   51.68
   0  13 -24  118.42   60.52
   0  13 -25   13.25   31.03
   0  13 -26   32.38   31.09
   0  13 -27   47.98   42.18
   0  13 -28   20.21   20.89
   0  13 -29   27.42   31.84
  -1  13 -30    1.75   22.11
  -1  13 -29  -11.65   18.81
  -1  13 -28    8.55   23.56
  -1  13 -27   21.92   40.73
  -1  13 -26   38.79   46.56
  -1  13 -25   29.37   39.49
  -1  13 -24    0.04   17.23
  -1  13 -23   73.56   40.77
  -1  13 -22   60.17   35.63
  -1  13 -21   34.69   25.39
  -1  13 -20   35.32   27.45
  -1  13 -19   44.37   23.63
  -1  13 -18  114.48   42.66
  -1  13 -17   69.40   40.80
  -1  13 -16   46.24   37.72
  -1  13 -15  256.76   64.29
  -1  13 -14   16.02   28.93
  -1  13 -13  267.11   67.30
  -1  13 -12   31.54   32.29
  -1  13 -11  191.64   57.53
  -1  13 -10   55.66   40.03
  -1  13  -9   -0.30   17.46
  -1  13  -8   -8.70   19.59
  -1  13  -7    2.82   14.53
 -13   1   6   16.99    6.64
  -1  13  -6   36.99   25.95
 -13   1   5    0.75    3.23
 -13  -1  -5    8.41    4.59
  -1  13  -5    2.97   11.35
   1  13   5   -7.74   21.71
 -13   1   4   14.78    8.12
 -13  -1  -4   26.26    9.22
   1  13   4   26.53   16.50
  -1  13  -4   17.82   23.83
 -13   1   3  277.21   32.59
 -13  -1  -3  182.48   33.27
   1  13   3  285.08   65.68
  -1  13  -3  249.80   61.47
 -13   1   2  174.01   28.00
   1  13   2  195.25   51.69
  -1  13  -2  221.75   57.57
 -13  -1  -2  159.42   33.73
 -13   1   1  378.99   41.98
 -13  -1  -1  287.94   41.82
   1  13   1  319.39   67.62
  -1  13  -1  332.68   67.76
 -13   1   0   29.96   16.17
  -1  13   0    3.66   12.08
   1  13   0   43.32   29.53
   1  13  -1  336.50   66.94
  -1  13   1  334.20   66.82
 -13   1  -1  307.97   40.56
  -1  13   2  178.79   49.69
   1  13  -2  197.12   57.87
 -13   1  -2  211.99   33.72
   1  13  -3  261.48   61.70
  -1  13   3  209.11   54.46
 -13   1  -3  252.79   32.02
   1  13  -4  -11.41   14.97
 -13   1  -4    8.92    5.06
 -13   1  -5    6.16    3.57
   1  13  -5    8.23   17.73
   1  13  -6   29.56   23.03
   1  13  -7  -24.25   20.85
   1  13  -8   -0.13   22.13
   1  13  -9   64.32   34.33
   1  13 -10  122.04   45.04
   1  13 -11  159.30   47.33
   1  13 -12  -19.49   18.18
   1  13 -13  214.73   58.14
   1  13 -14   58.65   35.30
   1  13 -15  172.85   59.95
   1  13 -16   -0.38   32.28
   1  13 -17   60.75   27.99
   1  13 -18  120.30   46.73
   1  13 -19    4.54   10.34
   1  13 -20   39.25   29.88
   1  13 -21   -3.93   15.76
   1  13 -22  138.39   58.34
   1  13 -23   72.05   53.55
   1  13 -24    5.30   19.84
   1  13 -25   14.12   28.03
   1  13 -26   32.67   38.90
   1  13 -27   55.04   40.91
   1  13 -28    0.49   12.17
  -2  13 -29    1.56   15.47
  -2  13 -28   37.59   46.87
  -2  13 -27    1.03   27.12
  -2  13 -26    8.90   25.03
  -2  13 -25    4.69   14.87
  -2  13 -24   28.49   31.07
  -2  13 -23  -41.57   29.00
  -2  13 -22   10.76   23.30
  -2  13 -21   92.53   49.80
  -2  13 -20    1.06   12.33
  -2  13 -19  156.82   56.63
  -2  13 -18   13.19   27.51
  -2  13 -17   18.12   22.73
  -2  13 -16   11.70   14.23
  -2  13 -15   24.93   25.86
  -2  13 -14   63.90   36.16
  -2  13 -13   24.13   26.14
  -2  13 -12  153.86   51.09
  -2  13 -11   45.79   33.60
  -2  13 -10  158.89   49.64
  -2  13  -9  220.99   61.04
  -2  13  -8   22.45   23.23
  -2  13  -7   42.17   24.35
  -2  13  -6   -1.81   13.44
   2  13   6   -9.44   24.36
  -2  13  -5   14.58   17.22
   2  13   5    5.39   10.02
 -13  -2  -5   26.15   12.87
 -13  -2  -4   16.93    8.59
   2  13   4    3.80   14.37
  -2  13  -4   49.23   32.57
 -13   2   3  450.14   46.83
 -13  -2  -3  495.28   50.95
  -2  13  -3  485.73   86.31
   2  13   3  539.60   87.57
 -13   2   2  155.90   28.71
   2  13   2  184.22   48.77
  -2  13  -2  139.92   39.20
 -13  -2  -2  133.64   30.11
  -2  13  -1   -1.35   11.21
   2  13   1   12.20   18.09
   2  13   0   71.60   29.88
  -2  13   0   18.28   15.38
  -2  13   1   33.76   24.16
   2  13  -1   38.07   35.17
 -13   2  -2  161.57   28.25
  -2  13   2  102.10   36.78
   2  13  -2  173.90   49.49
   2  13  -3  486.43   84.81
 -13   2  -3  470.73   45.68
 -13   2  -4   60.50   15.83
   2  13  -4   44.88   32.47
 -13   2  -5   17.76   10.70
   2  13  -5    8.81   22.74
   2  13  -6  -15.52   28.86
 -13   2  -6    5.09    3.36
   2  13  -7   38.19   37.36
   2  13  -8    5.60   12.13
   2  13  -9  186.91   61.77
   2  13 -10  120.67   45.91
  13   2  11   34.89   24.28
   2  13 -11  -16.47   23.31
  13   2  12  152.76   39.28
   2  13 -12  126.24   44.43
  13   2  13   67.93   29.92
   2  13 -13   20.92   28.12
  13   2  14   78.14   34.37
   2  13 -14   27.86   31.72
  13   2  15  -22.72   27.61
   2  13 -15  -20.45   11.88
  13   2  16   67.33   35.63
   2  13 -16    1.29   23.55
  13   2  17  -12.55   24.38
   2  13 -17   11.35   20.46
  13   2  18  -20.38   13.76
   2  13 -18   26.98   24.52
  13   2  19   89.98   37.26
   2  13 -19  126.28   54.99
  13   2  20   17.24   29.17
   2  13 -20   30.61   38.80
  13   2  21   91.29   46.11
   2  13 -21   42.33   34.39
  13   2  22   16.01   17.20
   2  13 -22   -7.68   13.34
   2  13 -23   -3.44   27.53
   2  13 -24   87.15   49.36
   2  13 -25  -20.65   23.01
   2  13 -26    4.34   29.70
   2  13 -27  -22.56   24.55
   2  13 -28   72.85   53.67
  -3  13 -27    3.72    9.85
  -3  13 -26  -17.71   20.65
  -3  13 -25   24.75   27.23
  -3  13 -24    6.42   20.85
  -3  13 -23   44.90   33.54
  -3  13 -22   44.44   34.77
  -3  13 -21   60.15   34.08
  -3  13 -20   -8.57    8.82
  -3  13 -19   80.52   41.19
  -3  13 -18   68.44   33.72
  -3  13 -17   47.97   32.02
  -3  13 -16    3.37   17.44
  -3  13 -15   75.52   33.87
  -3  13 -14   31.07   28.96
  -3  13 -13   60.38   28.45
  -3  13 -12   40.87   35.24
  -3  13 -11  135.10   47.38
  -3  13 -10   29.91   27.64
  -3  13  -9   50.01   30.11
   3  13   8   67.08   36.66
  -3  13  -8   22.02   16.64
   3  13   7   53.19   30.45
  -3  13  -7   16.49   15.52
   3  13   6   24.19   22.54
  -3  13  -6   30.73   28.42
   3  13   5   90.97   35.44
  -3  13  -5   76.00   31.65
  -3  13  -4   62.55   36.77
   3  13   4  113.03   42.54
 -13  -3  -4  113.29   25.43
 -13  -3  -3   55.60   16.38
   3  13   3   54.19   26.04
  -3  13  -3   22.74   15.36
  -3  13  -2  196.49   51.01
 -13  -3  -2  292.70   44.63
   3  13   2  300.87   65.28
  -3  13  -1  163.61   46.27
   3  13   1  122.93   42.56
  -3  13   0    6.41   10.35
   3  13   0   24.42   28.97
   3  13  -1  137.45   41.50
  -3  13   1  164.88   48.11
   3  13  -2  260.53   62.69
 -13   3  -2  241.64   35.68
 -13   3  -3   42.98   14.32
   3  13  -3   49.77   28.12
 -13   3  -4   90.96   19.79
   3  13  -4  111.05   49.84
 -13   3  -5   90.14   16.70
   3  13  -5  103.65   46.21
  13   3   6   35.88   22.53
   3  13  -6   26.49   22.16
  13   3   7   22.83   13.96
 -13   3  -7   15.14    4.47
  13   3   8   83.83   29.79
   3  13  -8   12.72   26.80
  13   3   9   55.56   25.40
   3  13  -9   27.79   15.94
  13   3  10   64.81   29.82
   3  13 -10   20.18   17.22
  13   3  11  171.38   43.19
   3  13 -11  125.38   54.84
  13   3  12   56.32   29.25
   3  13 -12   30.56   18.31
  13   3  13   55.91   27.69
   3  13 -13   27.90   25.51
  13   3  14   42.98   22.90
   3  13 -14   75.38   38.38
  13   3  15   93.39   36.05
   3  13 -15   95.52   42.93
  13   3  16   20.28   14.16
   3  13 -16   19.97   26.32
  13   3  17   41.65   30.91
   3  13 -17   66.95   41.82
  13   3  18   56.52   33.49
   3  13 -18   63.54   42.65
  13   3  19   73.23   36.03
   3  13 -19   49.41   39.83
  13   3  20    7.74   26.44
   3  13 -20   20.16   27.15
  13   3  21   71.26   40.04
   3  13 -21   38.69   30.99
  13   3  22   18.52   20.53
   3  13 -22   37.51   34.36
  13   3  23   27.06   27.92
   3  13 -23   68.88   45.81
  13   3  24   78.41   48.58
   3  13 -24  -18.24   22.10
  13   3  25    0.05   17.46
   3  13 -25  -23.05   24.73
  13   3  26  -50.70   35.25
   3  13 -26    0.05   15.50
  13   3  27   19.55   23.97
   3  13 -27   41.75   38.72
  -4  13 -26   -1.55   10.47
  -4  13 -25  -37.76   27.64
  -4  13 -24   62.91   37.68
  -4  13 -23   51.96   42.17
  -4  13 -22   61.71   39.91
  -4  13 -21  -41.78   27.95
  -4  13 -20   10.24   23.11
  -4  13 -19    3.40   21.65
  -4  13 -18  142.99   50.49
  -4  13 -17  142.49   52.77
  -4  13 -16   18.96   16.78
  -4  13 -15  -19.28   23.28
  -4  13 -14  -23.15   24.59
  -4  13 -13    3.68   10.72
  13   4 -12   24.62   25.20
  -4  13 -12   10.58   23.32
  13   4 -11   36.19   26.10
  -4  13 -11   52.58   31.99
  13   4 -10   45.57   28.53
   4  13  10   56.30   31.85
  -4  13 -10   43.34   25.52
  13   4  -9  -14.91   21.68
   4  13   9    9.94   15.04
  -4  13  -9   -5.38   14.73
   4  13   8   -6.34   13.27
  -4  13  -8   49.82   32.12
  13   4  -8   15.66   18.07
   4  13   7   47.53   25.55
  -4  13  -7  112.40   43.03
  13   4  -7   83.22   31.31
   4  13   6  -16.13   22.52
  -4  13  -6  -29.51   21.09
  13   4  -6    0.96    9.79
  -4  13  -5  114.59   43.74
   4  13   5  106.34   40.65
  13   4  -5  149.70   37.33
  13   4  -4   21.37   12.62
 -13  -4  -4   31.39   12.58
   4  13   4   27.00   13.14
  -4  13  -4   18.20    9.06
  13   4  -3  283.48   50.11
  -4  13  -3  138.06   46.86
 -13  -4  -3  204.16   40.03
   4  13   3  222.45   61.07
  13   4  -2  126.02   30.65
  -4  13  -2  108.54   36.54
   4  13   2   82.77   26.03
  13   4  -1  191.22   37.48
  -4  13  -1  342.21   67.24
   4  13   1  235.65   62.39
  13   4   0   31.95   12.73
  -4  13   0   -5.87   13.71
   4  13   0    0.37   16.35
  13   4   1  224.96   37.60
   4  13  -1  242.28   65.05
  13   4   2  139.15   27.73
   4  13  -2  118.04   45.01
  13   4   3  307.95   42.75
 -13   4  -3  193.89   32.93
  13   4   3  258.39   36.49
   4  13  -3  278.83   69.70
  13   4   4   25.39   13.07
 -13   4  -4   12.46    6.97
  13   4   4   24.10   11.00
   4  13  -4   82.24   40.52
  13   4   5  200.36   38.76
  13   4   5  144.37   24.93
   4  13  -5  133.20   51.49
  13   4   6   10.34   11.53
  13   4   6    7.00    5.16
   4  13  -6   -5.69   12.29
  13   4   7   80.70   26.31
 -13   4  -7   67.69   13.74
   4  13  -7   82.28   41.58
  13   4   8   -5.01   20.29
   4  13  -8  -19.28   18.30
  13   4   9    0.77   15.78
   4  13  -9  -75.14   35.75
  13   4  10   96.21   33.63
   4  13 -10   87.33   46.98
  13   4  11   65.03   24.21
   4  13 -11   38.45   27.39
  13   4  12   11.14   20.33
   4  13 -12   19.36   20.32
  13   4  13   30.61   17.12
   4  13 -13   -3.30   11.07
  13   4  14   26.68    8.80
   4  13 -14   63.64   37.43
  13   4  15    1.72    7.61
   4  13 -15   39.21   28.50
  13   4  16   -8.36   16.66
   4  13 -16   13.92   29.59
  13   4  17  151.92   45.35
   4  13 -17   91.18   48.08
  13   4  18  123.99   46.49
   4  13 -18  104.72   61.05
  13   4  19  -15.06   25.19
   4  13 -19   -9.52   17.35
  13   4  20   26.33   24.61
   4  13 -20    0.71   10.89
  13   4  21   16.97   15.07
   4  13 -21  -38.97   39.98
  13   4  22   14.39   11.22
   4  13 -22   36.74   29.69
  13   4  23   52.22   33.00
   4  13 -23   99.78   48.93
  13   4  24   39.40   36.68
   4  13 -24   13.97   34.60
  13   4  25   25.70   17.11
   4  13 -25  -37.13   30.71
  13   4  26   35.17   27.11
   4  13 -26   29.30   30.41
   4  13 -27   25.12   38.37
  -5  13 -24   54.79   40.25
  -5  13 -23    6.52   22.23
  -5  13 -22   33.27   32.76
  -5  13 -21    2.80   21.34
  -5  13 -20    4.97   18.28
  -5  13 -19    8.94    9.85
  -5  13 -18   17.01   17.45
  -5  13 -17    3.27   13.37
  13   5 -16  186.00   59.37
  -5  13 -16  201.65   57.59
  13   5 -15  128.01   50.95
  -5  13 -15  120.93   42.16
  13   5 -14   32.56   30.40
  -5  13 -14   51.87   40.19
  13   5 -13   70.17   39.10
  -5  13 -13   76.55   37.69
  13   5 -12   68.88   33.62
  -5  13 -12   54.32   29.53
  13   5 -11   20.70   20.59
   5  13  11    4.89   18.99
  -5  13 -11    1.58   10.60
  13   5 -10   17.98   17.77
   5  13  10   13.54   23.62
  -5  13 -10   42.00   31.72
  13   5  -9   35.08   21.81
   5  13   9    8.28    9.49
  -5  13  -9   10.85   12.20
  13   5  -8   77.93   31.97
   5  13   8  104.72   39.86
  -5  13  -8   87.00   32.76
  13   5  -7    1.88    8.67
  -5  13  -7  -20.43   18.86
   5  13   7  -24.49   21.69
  13   5  -6   -1.82   12.25
   5  13   6  -25.45   24.47
  13   5  -5   17.94   17.94
  -5  13  -5   -2.75   17.55
   5  13   5    7.24    8.58
  13   5  -4  250.07   50.37
   5  13   4  195.80   56.80
  -5  13  -4  245.12   55.28
  13   5  -3   25.23   12.96
  -5  13  -3   16.62   13.19
   5  13   3   -0.91   26.72
  -5  13  -2  167.12   51.90
   5  13   2  264.77   68.81
  13   5  -2  377.81   57.87
  13   5  -1  215.13   41.26
  -5  13  -1  272.01   62.09
   5  13   1  182.84   50.12
  13   5   0   56.96   23.54
  13   5   0   91.81   21.09
  -5  13   0   79.76   35.48
   5  13   0   68.69   37.72
  13   5   1  175.57   28.52
  13   5   1  224.57   38.34
   5  13  -1  201.34   53.89
  13   5   2  418.05   47.38
  13   5   2  404.68   51.29
   5  13  -2  276.41   81.39
  13   5   3   16.50    8.16
  13   5   3   34.96   14.39
   5  13  -3    8.64   16.97
  13   5   4  285.87   45.53
  13   5   4  242.58   34.62
   5  13  -4  196.50   59.92
  13   5   5    4.21    7.50
  13   5   5    9.57    9.12
   5  13  -5   15.23   25.83
  13   5   6    7.68    8.35
  13   5   6    3.61    7.73
 -13   5  -6   22.45   11.74
   5  13  -6  -10.16   15.95
  13   5   7   -1.78    5.45
  13   5   7  -20.40   13.12
 -13   5  -7   -4.59    5.53
   5  13  -7   12.18   16.76
  13   5   8  116.26   32.09
  13   5   8   90.07   16.25
   5  13  -8   63.87   30.32
  13   5   9   33.72   19.05
   5  13  -9   23.52   28.56
  13   5  10   -5.39    8.92
   5  13 -10   11.46   22.07
  13   5  11    5.05   14.82
   5  13 -11  -39.98   33.83
  13   5  12  101.70   33.52
   5  13 -12   26.53   24.94
  13   5  13  127.57   42.06
   5  13 -13   77.18   40.86
  13   5  14   36.49   16.24
   5  13 -14   47.03   40.49
  13   5  15  224.71   58.89
   5  13 -15  197.40   66.14
  13   5  16  191.44   53.64
   5  13 -16  150.84   56.32
  13   5  17   34.59   24.94
   5  13 -17  109.48   47.17
  13   5  18   -7.60   18.09
   5  13 -18   18.95   30.40
  13   5  19   32.99   27.46
   5  13 -19  -80.48   40.83
  13   5  20  -16.83   23.53
   5  13 -20   10.32   14.91
  13   5  21  -12.82   37.16
   5  13 -21   29.81   21.55
  13   5  22    5.04   19.41
   5  13 -22   -3.58   14.04
  13   5  23   74.63   46.58
   5  13 -23   35.72   33.42
  13   5  24   95.14   43.14
   5  13 -24   64.44   45.93
  13   5  25   71.10   45.07
   5  13 -25   30.10   30.23
  13   5  26    8.00   31.06
   5  13 -26  -14.72   21.08
  -6  13 -22   -0.04   21.60
  -6  13 -21   12.39   18.23
  -6  13 -20    3.35    9.40
  -6  13 -19   27.62   13.84
  13   6 -18   39.70   29.25
  -6  13 -18   51.39   25.43
  13   6 -17   -6.30   19.46
  -6  13 -17   42.93   24.70
  13   6 -16   33.76   23.03
  -6  13 -16   14.04    8.74
  13   6 -15  100.80   43.34
  -6  13 -15  141.64   48.09
  13   6 -14  103.89   43.79
   6  13  14  116.94   55.84
  -6  13 -14   96.96   45.28
  13   6 -13  134.08   48.58
   6  13  13  158.52   54.07
  -6  13 -13  101.42   38.57
  13   6 -12   60.71   37.54
   6  13  12   74.82   46.44
  -6  13 -12   15.61   23.68
  13   6 -11   33.44   27.33
   6  13  11   18.75   19.82
  -6  13 -11   64.06   38.38
  13   6 -10   11.00   10.40
   6  13  10   50.90   29.53
  -6  13 -10   10.49   23.96
  13   6  -9   31.60   24.21
   6  13   9   63.82   32.69
  -6  13  -9   93.67   42.20
  13   6  -8   25.99   21.21
  -6  13  -8  -13.05   20.87
   6  13   8   10.72   12.90
  13   6  -7   55.89   32.76
   6  13   7   36.37   23.25
  -6  13  -7   69.79   34.58
  13   6  -6   48.26   19.45
   6  13   6   37.86   30.60
  -6  13  -6    4.77   19.70
  13   6  -5  101.96   35.06
   6  13   5   94.46   36.65
  -6  13  -5  120.88   41.04
  13   6  -4   21.26   22.48
  -6  13  -4   -4.19    8.79
   6  13   4  -11.62   27.10
  13   6  -3   65.43   25.53
   6  13   3   87.18   35.07
  -6  13  -3   56.89   29.12
  13   6  -2   12.18   15.42
  13   6  -2   13.41    6.46
  -6  13  -2   34.25   26.65
   6  13   2  -14.85   23.66
  13   6  -1  210.38   44.13
  13   6  -1  256.84   31.30
  -6  13  -1  185.13   52.05
   6  13   1  230.21   60.54
  13   6   0   40.73   14.35
  13   6   0   52.29   20.21
   6  13   0   16.63   17.88
  13   6   1  265.94   38.03
  13   6   1  229.37   44.39
   6  13  -1  197.64   61.42
  13   6   2    0.71    7.47
  13   6   2    5.95    7.32
   6  13  -2   -3.86   18.60
  13   6   3   91.06   24.12
  13   6   3   84.79   22.62
   6  13  -3   77.42   40.67
  13   6   4    4.88    9.67
  13   6   4   -0.96    5.60
   6  13  -4  -12.83   27.59
  13   6   5  106.35   29.30
  13   6   5   84.99   22.80
   6  13  -5   42.53   34.61
  13   6   6   60.86   17.65
  13   6   6   85.07   28.25
 -13   6  -6   30.67   13.34
   6  13  -6   15.14   10.69
  13   6   7   31.99   11.83
  13   6   7   52.52   18.24
 -13   6  -7   36.35   16.22
   6  13  -7   21.58   15.62
  13   6   8    7.18    6.25
  13   6   8   31.46   12.08
   6  13  -8    3.68   13.59
  13   6   9   40.81   24.88
   6  13  -9   41.02   29.25
  13   6  10   22.35   12.57
   6  13 -10   15.75   10.02
  13   6  11   38.93   27.38
   6  13 -11  111.37   48.00
  13   6  12   52.36   28.95
   6  13 -12   22.70   26.42
  13   6  13  135.13   41.16
   6  13 -13  185.23   60.18
  13   6  14  118.11   40.32
   6  13 -14  187.19   60.66
  13   6  15  140.77   46.84
   6  13 -15  154.84   55.55
  13   6  16   14.31   19.38
   6  13 -16   -2.95   27.03
  13   6  17   10.14   25.98
   6  13 -17    8.55   23.70
  13   6  18   -1.19   14.26
   6  13 -18   84.38   51.22
  13   6  19    9.65   10.46
   6  13 -19  -30.35   21.94
  13   6  20   -3.77   17.22
   6  13 -20    0.32   19.04
  13   6  21   -1.20   16.86
   6  13 -21   -4.78   32.67
  13   6  22   16.49   22.98
   6  13 -22  -61.39   37.87
  13   6  23   24.84   25.26
   6  13 -23    0.20   29.63
  13   6  24   54.12   38.39
   6  13 -24   29.06   36.30
  13   6  25   74.78   49.85
   6  13 -25   30.48   40.24
  13   6  26   75.61   60.91
  13   7 -21  -28.61   25.94
  13   7 -20  -41.50   30.04
  -7  13 -20  -20.21   19.26
  13   7 -19  -52.28   32.74
  -7  13 -19  -32.39   24.02
  13   7 -18  -31.24   30.88
  -7  13 -18   17.82   21.64
  13   7 -17   20.38   26.26
  -7  13 -17   32.36   21.10
  13   7 -16   70.43   32.92
   7  13  16   64.53   31.68
  -7  13 -16   57.64   28.77
  13   7 -15    4.13   12.59
   7  13  15   50.53   34.90
  -7  13 -15   88.66   38.99
  13   7 -14   -2.36   14.86
   7  13  14   45.19   31.51
  -7  13 -14   30.89   19.35
  13   7 -13  132.26   46.22
   7  13  13  184.60   62.84
  -7  13 -13  156.02   47.97
  13   7 -12  141.68   47.70
   7  13  12   45.01   28.80
  -7  13 -12   73.03   39.51
  13   7 -11   55.08   29.14
   7  13  11   34.88   25.31
  -7  13 -11   75.99   36.68
  13   7 -10   13.78   13.27
   7  13  10    7.69   11.02
  -7  13 -10   12.07   13.12
  13   7  -9   35.77   29.54
   7  13   9  -11.14   15.96
  -7  13  -9   10.91   15.62
  13   7  -8  113.21   41.48
   7  13   8  114.73   42.28
  -7  13  -8  209.69   56.21
  13   7  -7   -6.06   16.72
   7  13   7   -4.26   22.87
  -7  13  -7   11.18   13.18
  13   7  -6  -22.56   20.01
  -7  13  -6   -9.86   13.48
   7  13   6   16.43   13.54
  13   7  -5    2.66   12.87
   7  13   5   -4.21   11.11
  -7  13  -5  -17.54   18.22
  13   7  -4  160.27   41.74
  -7  13  -4  125.63   45.68
   7  13   4  131.27   43.40
  13   7  -3   50.43   27.27
  -7  13  -3   34.18   26.77
   7  13   3   32.28   22.24
  13   7  -2   41.49   20.29
  13   7  -2   56.12   13.87
  -7  13  -2    7.21    8.04
   7  13   2   41.87   28.33
  13   7  -1   64.96   26.15
  13   7  -1  100.74   20.66
  -7  13  -1   92.97   37.74
   7  13   1   95.68   36.54
  13   7   0  284.56   37.12
  13   7   0  289.61   51.94
   7  13   0  196.37   60.67
  13   7   1   86.21   22.66
  13   7   1   90.30   28.16
   7  13  -1   81.30   31.76
  13   7   2   75.52   21.56
  13   7   2   26.98   10.98
   7  13  -2   86.53   37.76
  13   7   3   65.91   21.27
  13   7   3   57.99   20.58
   7  13  -3   37.17   21.00
  13   7   4  183.16   38.91
  13   7   4  100.77   28.82
   7  13  -4  132.34   53.23
  13   7   5  -15.71   16.65
  13   7   5   -7.04   15.44
   7  13  -5  -18.25   16.97
  13   7   6   10.30   11.44
  13   7   6  -12.35    9.34
 -13   7  -6   -2.79    6.70
  13   7   7   18.03   11.67
  13   7   7   12.30   15.75
 -13   7  -7   -2.07    7.36
   7  13  -7    6.53   24.98
  13   7   8   85.94   23.33
  13   7   8   91.68   34.08
 -13   7  -8  110.22   29.59
   7  13  -8   81.23   55.71
  13   7   9   10.47   11.55
   7  13  -9    4.78   14.74
  13   7  10    8.96   10.59
   7  13 -10   32.71   36.42
  13   7  11  109.68   39.18
   7  13 -11   52.38   35.62
   7  13 -12  207.99   63.38
  13   7  12   71.92   34.85
   7  13 -13  179.03   58.67
  13   7  13  141.27   41.85
   7  13 -14    2.28   16.33
  13   7  14   40.29   26.48
   7  13 -15   -2.99   25.17
  13   7  15   27.02   27.65
   7  13 -16   77.62   48.17
  13   7  16   92.54   33.33
   7  13 -17   90.88   47.59
  13   7  17   53.67   30.80
   7  13 -18   14.23   22.80
  13   7  18    5.19   18.62
   7  13 -19    4.79   25.77
  13   7  19   17.18   27.66
   7  13 -20  -19.68   19.94
  13   7  20    0.16   15.25
   7  13 -21    1.12   27.38
  13   7  21   36.94   31.96
   7  13 -22  -60.11   38.06
  13   7  22  -15.84   20.28
   7  13 -23    0.26   12.35
  13   7  23   31.80   24.43
   7  13 -24  -24.73   26.61
  13   7  24   41.76   39.94
  13   7  25   28.41   32.31
  13   8 -22  -26.39   26.06
  13   8 -21    3.88   22.02
  13   8 -20   30.44   38.28
  13   8 -19  -12.16   12.28
   8  13  19   35.97   15.82
  13   8 -18   19.03   18.38
   8  13  18   28.98   20.21
  -8  13 -18   -0.99   11.04
  13   8 -17   39.01   29.81
   8  13  17   32.26   23.66
  -8  13 -17   87.05   38.15
  13   8 -16   33.63   28.76
   8  13  16   42.88   28.83
  -8  13 -16   10.63   14.34
  13   8 -15    1.63   11.47
   8  13  15   -9.89   19.32
  -8  13 -15   28.92   16.16
  13   8 -14   88.55   40.37
   8  13  14  120.91   55.64
  -8  13 -14   86.63   40.10
  13   8 -13    9.12   21.56
   8  13  13    7.54   11.35
  13   8 -12   74.39   39.73
   8  13  12   68.26   40.53
  -8  13 -12   93.96   38.73
  13   8 -11   55.60   29.02
   8  13  11   14.78   11.85
  -8  13 -11   45.87   28.78
  13   8 -10   36.83   22.99
   8  13  10  -22.15   23.58
  -8  13 -10   18.88   22.86
  13   8  -9   42.60   31.68
   8  13   9   46.48   31.20
  -8  13  -9   31.98   32.51
  -8  13  -8   13.92   13.06
   8  13   8   15.79   12.24
  13   8  -7  148.58   43.72
   8  13   7   93.18   38.10
  -8  13  -7  140.85   47.48
  13   8  -6   42.78   23.47
  -8  13  -6  -32.10   30.03
   8  13   6   -2.25   20.99
  13   8  -5   32.89   14.76
  -8  13  -5   46.36   27.79
   8  13   5   21.00   21.44
  13   8  -4   19.28   22.49
  -8  13  -4   22.55   20.24
   8  13   4   21.53   29.10
  13   8  -3   88.19   36.80
  -8  13  -3   79.15   32.80
   8  13   3   31.75   16.55
  13   8  -2  120.33   36.58
  -8  13  -2  102.85   40.98
   8  13   2  123.54   47.94
  13   8  -1  128.42   37.62
   8  13   1  118.95   52.30
  13   8   0  128.03   33.51
   8  13   0  114.24   44.13
  13   8   1  163.86   40.85
   8  13  -1  154.63   52.00
  13   8   2  113.72   34.06
   8  13  -2  127.89   45.01
  13   8   3   31.95   19.52
   8  13  -3   18.76   17.49
  13   8   4   17.04   18.86
   8  13  -4  -24.80   20.84
  13   8   5   34.59   14.57
 -13   8  -5   36.36   18.24
   8  13  -5   45.36   27.49
 -13   8  -6    8.42    8.93
  13   8   6    4.56    8.35
   8  13  -6   -5.00   17.26
 -13   8  -7  159.62   37.08
  13   8   7  111.10   29.20
   8  13  -7  171.12   55.07
 -13   8  -8   42.09   18.37
   8  13  -8   15.07   13.28
  13   8   8   15.59    7.27
   8  13  -9   14.08   23.78
  13   8  10   23.39   16.04
   8  13 -10   12.58   23.65
   8  13 -11  126.65   53.92
  13   8  11   27.79   26.97
   8  13 -12   -6.85   18.73
  13   8  12   89.26   33.32
   8  13 -13   46.03   33.57
  13   8  13   -9.35    8.25
   8  13 -14   82.01   42.62
  13   8  14  110.85   43.37
   8  13 -15   -4.55   13.39
  13   8  15   18.79   21.00
   8  13 -16   15.93   17.75
  13   8  16   65.50   34.60
   8  13 -17   74.71   38.59
  13   8  17   44.79   28.72
   8  13 -18   53.06   41.71
  13   8  18   26.94   20.90
   8  13 -19  -12.56   38.14
  13   8  19  -30.76   29.54
   8  13 -20  -10.14   28.91
  13   8  20   10.27   14.54
   8  13 -21   67.02   43.75
  13   8  21    5.15   24.43
   8  13 -22  -59.78   38.21
  13   8  22   27.25   25.30
   8  13 -23   20.90   28.16
  13   8  23   71.82   47.04
   8  13 -24  -33.60   30.19
  13   8  24   21.59   30.24
  13   8  25   23.12   31.80
  13   9 -23   74.45   51.92
  13   9 -22   35.04   37.22
  13   9 -21   64.56   45.65
  13   9 -20   23.01   36.72
  13   9 -19   47.66   28.42
  13   9 -18   33.52   30.43
  13   9 -17   67.22   38.84
   9  13  17   30.51   30.23
  13   9 -16   83.44   43.30
   9  13  16   48.99   31.92
  -9  13 -16   19.82   21.82
  13   9 -15   17.01   15.20
   9  13  15   31.64   25.42
  -9  13 -15    5.20   17.24
  13   9 -14   -9.27   22.66
   9  13  14    7.39   18.92
  -9  13 -14  -32.30   22.52
  13   9 -13   87.94   36.43
   9  13  13  147.07   52.84
  -9  13 -13   92.32   36.92
  13   9 -12   50.56   24.70
   9  13  12   35.48   29.87
  -9  13 -12   59.80   36.84
  13   9 -11   30.62   23.24
   9  13  11   57.11   36.99
  -9  13 -11   17.10   13.70
  13   9 -10  -32.69   23.68
   9  13  10    0.82   17.44
  -9  13 -10   23.00   17.25
  13   9  -9   32.68   16.41
   9  13   9   17.82   15.83
  -9  13  -9   20.32   22.26
   9  13   8    7.96   12.58
  -9  13  -8   14.95   12.86
  13   9  -7   56.57   26.76
  -9  13  -7  109.69   40.39
   9  13   7  118.21   44.31
  13   9  -6   33.02   23.44
  -9  13  -6   18.06   15.57
   9  13   6   33.56   33.55
  13   9  -5    4.55   11.80
  -9  13  -5   -3.31   18.88
   9  13   5  -24.42    9.40
  13   9  -4  254.68   57.36
  -9  13  -4  236.63   59.59
   9  13   4  226.61   61.41
  13   9  -3   64.09   31.24
  -9  13  -3   66.23   30.30
   9  13   3   -3.81   10.95
  13   9  -2   98.51   38.57
  -9  13  -2   28.04   24.85
   9  13   2   53.31   33.85
  13   9  -1  166.70   43.40
   9  13   1   48.58   35.78
  13   9   0  273.75   57.44
   9  13   0  232.34   72.95
  13   9   1   84.91   32.41
   9  13  -1  101.14   46.30
  13   9   2   91.90   32.14
   9  13  -2   93.15   41.17
  13   9   3   43.14   23.18
   9  13  -3  -12.71   22.49
   9  13  -4  199.36   58.66
  13   9   4  155.36   41.26
 -13   9  -5   20.97    7.80
   9  13  -5   18.67   24.81
  13   9   5    4.47    8.46
 -13   9  -6   23.89   14.09
   9  13  -6   21.14   18.90
  13   9   6   25.07   20.21
 -13   9  -7   93.38   29.71
  13   9   7  145.40   37.32
   9  13  -7  164.07   52.63
 -13   9  -8   25.54   19.07
  13   9   8   62.92   26.75
   9  13  -8   93.20   46.08
   9  13  -9   61.96   35.56
   9  13 -10   39.35   34.94
   9  13 -11   15.16   38.49
   9  13 -12  107.07   52.87
   9  13 -13  112.46   50.01
   9  13 -14    8.07   31.61
  13   9  14    4.55   18.61
   9  13 -15   44.55   35.57
  13   9  15   29.35   14.90
   9  13 -16    4.70   27.16
  13   9  16    5.28    9.41
   9  13 -17  -22.33   25.55
  13   9  17   57.87   36.09
   9  13 -18   15.11   30.89
  13   9  18   49.84   30.33
   9  13 -19   52.44   34.06
  13   9  19   83.14   36.45
   9  13 -20   36.48   26.68
  13   9  20  -30.78   25.85
   9  13 -21   33.27   26.97
  13   9  21   70.88   44.73
   9  13 -22   76.41   41.29
  13   9  22   30.09   27.88
   9  13 -23   31.70   41.76
  13   9  23   10.67   27.76
  13   9  24   52.53   42.78
  13  10 -22   73.22   53.11
  13  10 -21   14.10   15.30
  13  10 -20   29.11   27.52
  13  10 -19   27.16   28.82
  13  10 -18    1.45   34.00
  13  10 -17   -6.92   11.09
  13  10 -16    4.95   16.22
  13  10 -15   12.96   22.73
  10  13  15  -14.60   12.85
  13  10 -14    3.70   13.14
 -10  13 -14   37.35   24.99
  13  10 -13   -9.64   16.32
  10  13  13   18.10   18.76
  13  10 -12  102.16   48.16
  10  13  12  143.13   46.10
 -10  13 -12   91.28   40.88
  13  10 -11   31.13   34.99
  10  13  11   34.27   20.46
 -10  13 -11   32.03   28.30
  10  13  10   30.25   20.36
 -10  13 -10    2.84   13.74
  13  10  -9   12.59   22.00
  10  13   9   48.58   32.33
 -10  13  -9   55.23   30.77
  13  10  -8    0.64   17.62
 -10  13  -8   12.31    9.68
  10  13   8   19.26   26.77
  13  10  -7   44.52   26.29
 -10  13  -7  104.71   39.67
  10  13   7   59.82   41.64
  13  10  -6  -19.35   18.66
 -10  13  -6  -28.58   20.86
  10  13   6   24.41   33.89
  13  10  -5  138.54   46.50
 -10  13  -5   47.37   25.28
  10  13   5   57.45   36.42
  13  10  -4   49.57   25.47
 -10  13  -4   87.06   33.90
  10  13   4  108.88   45.85
  13  10  -3  180.25   47.38
 -10  13  -3  223.79   56.48
  10  13   3  145.59   60.27
  13  10  -2   66.70   30.19
 -10  13  -2   22.24   16.02
  10  13   2   36.68   29.24
  13  10  -1   89.30   35.09
  10  13   1  113.08   45.61
  13  10   0   73.05   30.14
  10  13   0   72.87   37.30
  13  10   1   29.78   18.29
  10  13  -1   45.26   28.62
  10  13  -2   12.60   17.43
  13  10   2   46.90   24.32
  10  13  -3  244.56   65.09
  13  10   3  240.28   56.22
  13  10   4   59.05   28.13
  10  13  -4   59.68   32.01
 -13  10  -5   83.26   32.09
  13  10   5  103.47   34.53
  10  13  -5   85.26   45.89
 -13  10  -6   -3.71    8.92
  10  13  -6  -33.71   34.06
  13  10   6    8.01   10.35
 -13  10  -7  114.00   35.41
  13  10   7  111.04   36.88
  10  13  -7   71.79   37.01
  10  13  -8    6.88   12.70
 -13  10  -8   20.96   13.58
  13  10   8  -10.34   12.79
  10  13  -9   67.33   44.83
  10  13 -10   11.99   14.66
  10  13 -11   52.59   39.76
  10  13 -12   77.85   53.57
  10  13 -13   40.65   28.06
  10  13 -14   42.05   38.64
  10  13 -15   48.90   40.32
  13  10  16   25.65   26.32
  10  13 -16   21.66   25.33
  13  10  17   30.61   28.35
  10  13 -17   -3.07   10.58
  13  10  18    6.46   18.17
  10  13 -18  -83.14   43.79
  13  10  19   68.82   43.32
  10  13 -19   68.10   41.16
  13  10  20    7.23   17.75
  10  13 -20   10.29   26.03
  13  10  21    8.67   21.23
  10  13 -21   26.32   28.75
  13  10  22   47.48   31.93
  10  13 -22   35.35   32.24
  13  10  23  -26.28   26.12
  13  11 -21   13.12   26.61
  13  11 -20    4.69   12.54
  13  11 -19   44.15   34.32
  13  11 -18   55.36   39.77
  13  11 -17   33.78   36.53
  13  11 -16   -4.78   11.86
  13  11 -15  123.23   55.34
  13  11 -14   17.83   23.06
  13  11 -13  106.01   52.99
  13  11 -12   43.56   30.09
  11  13  12   31.26   23.33
 -11  13 -12   49.76   27.90
  13  11 -11   78.17   36.39
  11  13  11   70.14   36.17
 -11  13 -11   68.19   31.65
  13  11 -10  116.75   49.63
  11  13  10   64.33   37.41
 -11  13 -10   88.94   40.01
  13  11  -9   29.51   17.48
 -11  13  -9   48.90   29.57
  11  13   9   33.10   35.09
  13  11  -8   59.61   32.59
 -11  13  -8   35.97   25.03
  11  13   8   48.06   33.38
  13  11  -7   43.50   29.66
 -11  13  -7   19.71    8.85
  11  13   7   38.47   36.21
  13  11  -6  154.21   50.19
 -11  13  -6  151.95   47.44
  11  13   6   42.88   28.99
  13  11  -5   72.97   31.23
 -11  13  -5   57.49   28.99
  11  13   5   96.79   46.08
  13  11  -4  107.69   40.46
 -11  13  -4   60.71   32.41
  11  13   4   60.97   35.89
  13  11  -3  103.80   40.89
 -11  13  -3   60.52   32.51
  11  13   3  137.65   47.30
  13  11  -2  147.67   46.23
  11  13   2  191.83   48.91
  13  11  -1   98.02   38.62
  11  13   1   92.37   39.36
  13  11   0  192.03   52.47
  11  13   0  231.79   62.76
  13  11   1  162.46   49.48
  11  13  -1  123.37   51.75
  13  11   2  145.61   43.03
  11  13  -2  176.07   57.97
  13  11   3  142.23   44.32
  11  13  -3   83.45   32.54
 -13  11  -4   75.66   35.23
  13  11   4   70.86   31.69
  11  13  -4   86.24   39.80
 -13  11  -5   40.33   17.43
  11  13  -5   60.11   30.12
  13  11   5   45.47   29.10
  11  13  -6   79.25   39.32
 -13  11  -6  102.05   34.68
  13  11   6   44.85   22.11
  11  13  -7   14.93   14.40
 -13  11  -7   12.73   12.97
  13  11   7   42.54   24.91
  11  13  -8  131.76   49.01
  13  11   8   53.10   27.45
  11  13  -9   11.62   18.08
  11  13 -10  138.61   60.59
  11  13 -11   92.10   41.51
  11  13 -12   62.66   41.83
  11  13 -13  212.96   66.85
  11  13 -14    6.24   23.09
  11  13 -15   41.52   24.25
  11  13 -16  -19.44   17.68
  11  13 -17   -2.73   22.46
  13  11  18   66.58   39.22
  11  13 -18   44.45   39.50
  13  11  19    0.04   13.71
  11  13 -19    1.43   31.49
  13  11  20   -0.05   12.54
  11  13 -20   28.14   33.08
  13  11  21   10.32   21.62
  11  13 -21   29.24   45.66
  13  11  22   21.45   24.92
  13  11  23  101.13   59.15
  13  12 -20   22.61   30.96
  13  12 -19  -55.04   36.90
  13  12 -18    9.34   28.37
  13  12 -17  -44.07   32.33
  13  12 -16   -7.97   21.35
  13  12 -15   19.21   11.33
  13  12 -14   73.20   42.22
  13  12 -13  176.69   65.06
  13  12 -12   59.77   42.09
  13  12 -11  313.74   81.55
  13  12 -10  -22.14   22.09
  12  13  10   23.36   26.88
  13  12  -9   15.38   20.83
 -12  13  -9   31.10   22.34
  12  13   9   18.67   20.94
  13  12  -8   -3.21   18.07
 -12  13  -8   17.25   14.99
  12  13   8   41.56   30.41
  13  12  -7   29.15   18.44
 -12  13  -7    9.04   12.22
  12  13   7   54.80   28.76
  13  12  -6  -13.96   21.60
 -12  13  -6  -15.49   16.16
  12  13   6    8.38    8.79
  13  12  -5   45.68   29.13
 -12  13  -5   43.11   26.22
  12  13   5   41.42   23.64
  13  12  -4   74.87   30.50
 -12  13  -4   82.39   35.28
  12  13   4   68.56   34.04
  13  12  -3  160.84   52.93
 -12  13  -3  145.77   50.69
  12  13   3  119.06   48.99
  13  12  -2   68.39   31.21
  12  13   2    5.85   12.39
  13  12  -1  471.14   90.17
  12  13   1  544.93   93.14
  13  12   0  189.95   55.94
  12  13   0  129.36   48.77
  13  12   1  457.94   86.84
  12  13  -1  478.16   91.30
  12  13  -2  118.72   46.79
  13  12   2  117.50   42.52
 -13  12  -3  125.40   40.48
  13  12   3  117.64   42.07
  12  13  -3  100.14   46.68
 -13  12  -4   74.54   33.41
  13  12   4   92.96   38.29
  12  13  -4   73.46   43.64
  12  13  -5   38.55   25.04
 -13  12  -5   28.87   19.90
  13  12   5   46.00   33.07
  12  13  -6  -30.60   24.80
 -13  12  -6   19.20   19.83
  13  12   6  -57.11   28.73
  12  13  -7   57.89   30.28
 -13  12  -7   48.00   27.49
  13  12   7   11.60   14.08
  12  13  -8   19.68   27.14
  13  12   8   40.00   27.64
  12  13  -9   39.30   31.88
  12  13 -10   23.27   27.42
  12  13 -11  237.57   72.30
  12  13 -12  108.98   49.45
  12  13 -13  124.42   53.40
  12  13 -14   55.19   34.38
  12  13 -15   -1.84   19.91
  12  13 -16  -51.79   35.04
  12  13 -17    2.69   14.44
  12  13 -18   17.63   11.65
  12  13 -19  -42.23   33.15
  13  12  20   30.12   31.70
  12  13 -20  -41.87   33.26
  13  12  21  -43.40   32.27
  13  12  22    5.28   30.09
  13  13   0  -16.31   28.97
  13  13  -1  182.35   56.88
  13  13   1   74.35   40.95
  13  13  -2  237.08   67.50
  13  13   2  191.49   52.77
  13  13  -3   17.51   17.52
 -13  13  -3   57.84   29.91
  13  13   3    2.33   14.65
 -13  13  -4   -2.33    7.36
  13  13   4    2.40   16.80
  13  13  -5   35.20   30.10
 -13  13  -5   43.21   32.72
  13  13   5   33.78   22.40
  13  13  -6   28.24   28.48
 -13  13  -6   12.54   21.80
  13  13   6  -35.67   24.31
  13  13  -7  -11.25   17.31
 -13  13  -7  -23.02   18.93
  13  13   7  -19.61   27.63
  13  13  -8   68.08   42.76
  13  13   8   48.16   26.27
  13  13  -9  -31.02   25.82
  13  13 -10  119.74   56.59
  13  13 -11   69.36   50.61
  13  13 -12  -57.86   35.33
  13  13 -13   68.04   42.55
  13  13 -14   73.46   48.04
  13  13 -15   -9.89   18.07
  13  13 -16   41.84   32.24
  13  13 -17   20.05   26.47
  13  13 -18    8.44   24.54
  13  13 -19    0.63   11.02
   0  14   0  253.94   61.56
   0  14  -1   55.27   28.43
   0  14   1   72.45   35.37
   0  14   2  462.65   83.39
   0  14  -2  463.66   84.64
   0  14   3  -16.58   16.60
   0  14  -3   -0.36   15.00
   0  14   4   27.98   29.53
   0  14  -4   62.21   48.87
   0  14   5   28.27   31.33
   0  14  -5   -5.23   12.43
   0  14  -6  144.65   48.39
   0  14  -7  244.89   65.97
   0  14  -8  145.60   59.16
   0  14  -9   15.93   30.97
   0  14 -10  202.37   59.11
   0  14 -11   59.91   37.04
   0  14 -12  181.70   62.22
   0  14 -13  -18.03   15.69
   0  14 -14  151.37   54.69
   0  14 -15  -22.39   23.19
   0  14 -16   -5.60   24.20
   0  14 -17   27.18   33.09
   0  14 -18   48.30   28.55
   0  14 -19   22.25   26.22
   0  14 -20   72.66   44.48
   0  14 -21   36.80   42.79
   0  14 -22   46.30   45.11
   0  14 -23   39.25   39.69
   0  14 -24  -80.39   42.12
   0  14 -25  -27.87   26.62
   0  14 -26    0.05   28.13
   0  14 -27    8.08   11.41
   0  14 -28   14.17   23.39
  -1  14 -28   36.75   41.07
  -1  14 -27   -7.69   16.14
  -1  14 -26  -45.82   32.63
  -1  14 -25    3.05   13.74
  -1  14 -24    9.31   13.87
  -1  14 -23    2.06   17.33
  -1  14 -22   60.55   44.58
  -1  14 -21   22.77   30.23
  -1  14 -20   26.49   37.97
  -1  14 -19    9.17   18.29
  -1  14 -18   15.69   13.86
  -1  14 -17    1.09   15.37
  -1  14 -16    7.15   19.81
  -1  14 -15   98.59   41.61
  -1  14 -14   84.32   41.85
  -1  14 -13   12.09   11.11
  -1  14 -12  207.48   65.33
  -1  14 -11   32.93   31.27
  -1  14 -10   52.15   31.26
  -1  14  -9  505.28   97.35
  -1  14  -8   37.26   21.32
  -1  14  -7   71.51   39.72
   1  14   6  112.13   40.89
  -1  14  -6   49.51   22.52
   1  14   5  153.34   49.42
  -1  14  -5  195.66   60.29
  -1  14  -4   37.06   26.74
   1  14   4   77.84   34.43
   1  14   3  126.03   43.19
  -1  14  -3  170.33   54.71
  -1  14  -2  187.45   52.05
   1  14   2  213.79   58.65
   1  14   1   52.24   37.39
  -1  14  -1   44.41   32.47
   1  14   0   73.66   32.25
  -1  14   0  134.61   41.80
  -1  14   1   22.87   26.82
   1  14  -1    8.30   18.84
  -1  14   2  225.18   58.88
   1  14  -2  161.83   47.65
   1  14  -3  275.49   71.14
  -1  14   3  126.61   50.30
  -1  14   4  124.98   48.39
   1  14  -4  102.81   33.17
   1  14  -5  190.28   61.81
   1  14  -6   85.05   36.03
   1  14  -7  155.75   55.07
   1  14  -8   55.19   38.26
   1  14  -9  405.56   87.99
   1  14 -10  103.96   46.86
   1  14 -11   -2.29   13.90
   1  14 -12  106.61   42.43
   1  14 -13   19.08   36.64
   1  14 -14   22.62   27.34
   1  14 -15   79.21   46.43
   1  14 -16   11.14   25.19
   1  14 -17   17.21   20.76
   1  14 -18  -20.80   31.47
   1  14 -19   16.83   16.03
   1  14 -20   36.58   32.56
   1  14 -21  150.69   61.00
   1  14 -22   72.10   40.81
   1  14 -23  -17.09   21.26
   1  14 -24   44.97   37.46
   1  14 -25   35.93   36.75
   1  14 -26  -66.90   39.81
   1  14 -27   45.16   40.07
  -2  14 -28    0.29   11.92
  -2  14 -27    0.05   20.67
  -2  14 -26   -8.48   16.29
  -2  14 -25    0.05   18.98
  -2  14 -24   30.19   31.33
  -2  14 -23    5.04   21.41
  -2  14 -22   46.34   36.48
  -2  14 -21    9.41   16.27
  -2  14 -20  246.95   70.65
  -2  14 -19  -16.43   13.70
  -2  14 -18   -1.16   13.77
  -2  14 -17   60.40   32.71
  -2  14 -16   33.93   28.40
  -2  14 -15    7.32   10.08
  -2  14 -14   -2.83   26.92
  -2  14 -13    6.84   22.14
  -2  14 -12  104.75   45.42
  -2  14 -11   65.23   31.81
  -2  14 -10   45.88   34.55
  -2  14  -9  291.27   70.16
  -2  14  -8  268.83   73.14
   2  14   7   15.56   19.98
  -2  14  -7   13.54   14.79
  -2  14  -6   22.38   34.71
   2  14   6   49.55   12.67
  -2  14  -5   43.64   30.96
   2  14   5   17.12   16.15
   2  14   4  581.97   98.16
  -2  14  -4  493.45   83.38
  -2  14  -3   39.76   23.13
   2  14   3   98.28   34.20
   2  14   2   53.42   33.48
  -2  14  -2   12.50   19.48
   2  14   1   63.79   36.42
  -2  14  -1   84.25   36.25
  -2  14   0   23.03   19.19
   2  14   0   47.82   28.22
  -2  14   1   -3.44   19.48
   2  14  -1  -19.51   20.22
   2  14  -2   27.08   35.84
  -2  14   2   41.95   25.80
  -2  14   3   -0.16   18.09
   2  14  -3  189.98   53.97
   2  14  -4  592.40  106.15
   2  14  -5   24.89   26.41
   2  14  -6  146.97   61.06
   2  14  -7   13.93   12.08
   2  14  -8  296.66   77.44
   2  14  -9  378.90   80.90
   2  14 -10   34.59   39.21
   2  14 -11   38.78   25.71
   2  14 -12   61.27   35.53
   2  14 -13   14.23   17.50
   2  14 -14   -4.45   22.99
   2  14 -15   53.97   40.52
   2  14 -16    4.38   18.09
   2  14 -17   33.14   29.92
   2  14 -18    3.24   18.91
   2  14 -19   19.14   14.16
   2  14 -20  205.04   66.64
   2  14 -21   82.68   42.96
   2  14 -22    7.90   11.47
   2  14 -23   86.97   45.11
   2  14 -24   23.41   24.75
   2  14 -25   19.80   36.64
   2  14 -26  -32.04   29.02
   2  14 -27   30.81   38.87
  -3  14 -27    6.64   19.30
  -3  14 -26   25.73   24.63
  -3  14 -25    1.69   32.18
  -3  14 -24    2.66   17.67
  -3  14 -23   16.98   17.67
  -3  14 -22   17.95   24.84
  -3  14 -21   51.88   36.58
  -3  14 -20   28.48   29.69
  -3  14 -19   19.35   22.07
  -3  14 -18   45.50   44.87
  -3  14 -17   13.03   26.26
  -3  14 -16   42.06   21.89
  -3  14 -15   18.51   13.74
  -3  14 -14  -20.01   15.68
  -3  14 -13   17.93   16.30
  -3  14 -12    7.16   10.07
  -3  14 -11  111.35   43.49
  -3  14 -10    4.46   15.54
   3  14   9   -2.80   14.50
  -3  14  -9   28.65   26.52
   3  14   8   10.71   21.98
  -3  14  -8   44.84   28.32
   3  14   7   63.36   26.32
  -3  14  -7   38.39   34.66
   3  14   6   69.69   22.67
  -3  14  -6   74.76   36.80
   3  14   5   51.59   38.19
  -3  14  -5   49.92   31.32
  -3  14  -4  238.53   61.08
   3  14   4  333.03   71.26
  -3  14  -3  269.06   70.99
   3  14   3  300.14   71.25
   3  14   2  -17.23   28.65
  -3  14  -2  -36.09   24.46
  -3  14  -1   43.00   22.75
   3  14   1   61.12   28.39
  -3  14   0  -24.72   26.29
   3  14   0  -25.34   21.00
  -3  14   1   76.04   33.11
   3  14  -1   70.67   40.34
   3  14  -2  -22.04   30.30
  -3  14   2   63.67   38.29
   3  14  -3  315.78   85.37
   3  14  -4  329.20   77.35
   3  14  -5   72.51   40.43
   3  14  -6  117.71   42.40
   3  14  -7   44.37   43.27
   3  14  -8    7.84   18.43
  14   3   9   34.69   23.09
   3  14  -9   44.88   28.97
  14   3  10   97.29   33.66
   3  14 -10   15.10   21.30
  14   3  11  142.71   44.79
   3  14 -11  146.31   54.08
  14   3  12  -22.06   25.71
   3  14 -12   16.35   21.27
  14   3  13   12.65    7.22
   3  14 -13   37.03   24.43
  14   3  14  -40.54   28.73
   3  14 -14  -60.80   34.69
  14   3  15    0.85    9.90
   3  14 -15   40.09   31.33
  14   3  16   21.54    8.55
   3  14 -16   27.09   26.81
  14   3  17    5.25    9.19
   3  14 -17   20.19   24.85
  14   3  18   42.34   24.15
   3  14 -18   84.49   46.37
  14   3  19   48.32   35.64
   3  14 -19   44.23   35.18
  14   3  20  114.61   50.38
   3  14 -20  108.78   53.29
  14   3  21   50.21   35.97
   3  14 -21   18.91   11.84
  14   3  22   57.16   35.92
   3  14 -22   25.68   29.58
  14   3  23  -22.52   23.76
   3  14 -23  -23.61   24.84
  14   3  24  -42.47   31.67
   3  14 -24  -42.85   32.87
   3  14 -25  -29.75   28.13
   3  14 -26  -33.08   29.48
  -4  14 -25  -33.80   27.08
  -4  14 -24   44.85   34.33
  -4  14 -23   37.58   35.60
  -4  14 -22   67.70   43.81
  -4  14 -21    8.82   15.67
  -4  14 -20   25.58   27.20
  -4  14 -19  -22.17   15.04
  -4  14 -18   27.30   21.26
  -4  14 -17   54.23   35.27
  -4  14 -16   13.13   15.61
  -4  14 -15   15.45   17.05
  -4  14 -14   50.58   31.09
  -4  14 -13   18.68   11.25
  -4  14 -12   35.54   30.36
   4  14  11   41.89   33.27
  -4  14 -11    6.37   15.79
   4  14  10   22.95   14.98
  -4  14 -10   57.44   36.98
   4  14   9   45.55   29.72
  -4  14  -9   57.71   33.12
  14   4  -8   26.40   17.51
   4  14   8  -17.11   20.04
  -4  14  -8  -13.92   23.96
  14   4  -7   18.67   19.73
   4  14   7   -1.43   16.41
  -4  14  -7   35.93   25.34
  14   4  -6   85.65   31.58
  -4  14  -6   44.21   23.18
   4  14   6  115.18   40.45
  14   4  -5   21.33   15.63
   4  14   5   -0.07    9.86
  14   4  -4  114.87   35.17
  -4  14  -4   52.30   34.09
   4  14   4   74.76   36.23
  14   4  -3  281.25   51.38
   4  14   3  274.20   65.20
  -4  14  -3  277.98   64.51
  14   4  -2  100.35   32.16
  -4  14  -2  155.52   50.63
   4  14   2  117.77   49.19
  14   4  -1   26.80   16.29
  -4  14  -1  -15.64   29.19
   4  14   1   44.74   18.71
  14   4   0   -9.64   10.74
  -4  14   0   19.85   18.11
   4  14   0   22.77   19.37
  14   4   1   36.05   14.30
   4  14  -1   13.32   23.70
  -4  14   1   17.72   20.20
  14   4   2   95.85   23.63
   4  14  -2  145.19   57.81
  14   4   3  335.64   42.60
   4  14  -3  337.67   75.44
   4  14  -4   94.06   48.12
  14   4   5   10.41    9.58
   4  14  -5   45.51   29.66
  14   4   6  126.92   33.36
   4  14  -6  137.91   49.96
  14   4   7  -10.25   15.55
   4  14  -7  -27.32   23.18
  14   4   8   29.70   19.72
   4  14  -8  -35.85   26.27
  14   4   9   71.44   23.28
   4  14  -9   11.67   17.95
  14   4  10   59.95   30.08
   4  14 -10   40.92   32.05
  14   4  11   15.61   13.39
   4  14 -11   25.65   19.99
  14   4  12   12.67   21.26
   4  14 -12    4.19   23.32
  14   4  13   11.41   12.54
   4  14 -13   30.37   35.00
  14   4  14    6.93   10.38
   4  14 -14   51.78   42.36
  14   4  15   39.85   26.20
   4  14 -15   17.01   11.38
  14   4  16    3.74    9.98
   4  14 -16   10.67   24.37
  14   4  17   65.62   36.72
   4  14 -17   88.62   50.52
  14   4  18   40.56   31.83
   4  14 -18   28.57   38.40
  14   4  19  175.65   65.15
   4  14 -19   -8.54   13.29
  14   4  20   -9.93   22.87
   4  14 -20  -18.11   24.87
  14   4  21   53.01   40.52
   4  14 -21   17.09   19.57
  14   4  22   64.40   27.83
   4  14 -22   60.65   55.91
  14   4  23   54.62   36.76
   4  14 -23   14.94   32.17
  14   4  24    1.04   10.97
   4  14 -24  -22.53   25.20
  14   4  25   43.89   42.39
   4  14 -25  -37.01   31.12
  14   4  26   14.55   44.38
  -5  14 -24   22.19   32.11
  -5  14 -23    4.74   25.48
  -5  14 -22   10.30   23.91
  -5  14 -21    0.20   13.60
  -5  14 -20   -9.57   21.96
  -5  14 -19   -1.89   19.24
  -5  14 -18   50.98   36.54
  -5  14 -17   16.45   23.94
  -5  14 -16   85.96   39.23
  -5  14 -15   27.55   25.79
  -5  14 -14   93.57   40.65
  14   5 -13   24.54   29.06
   5  14  13   79.54   37.97
  -5  14 -13   28.63   27.78
  14   5 -12   42.80   27.31
   5  14  12   85.33   46.30
  -5  14 -12   58.65   31.55
  14   5 -11   46.16   29.77
   5  14  11   71.37   41.54
  -5  14 -11   55.04   34.70
  14   5 -10    4.04   11.90
   5  14  10    8.20    9.33
  14   5  -9   21.02   18.28
   5  14   9   51.00   29.56
  -5  14  -9   28.86   19.21
  -5  14  -8    7.56   13.20
   5  14   8   23.26   29.19
  14   5  -8   34.61   21.87
  -5  14  -7   48.87   31.99
   5  14   7   66.74   29.43
  14   5  -7   85.19   33.14
  14   5  -6   31.15   25.46
  -5  14  -6   39.05   24.65
   5  14   6   62.40   29.03
  14   5  -5  113.39   35.12
   5  14   5  136.24   46.09
  -5  14  -5   74.38   29.14
  14   5  -4   33.76   18.04
  -5  14  -4   33.80   21.44
   5  14   4   68.81   35.77
  14   5  -3  130.11   37.38
  -5  14  -3  121.14   47.19
   5  14   3  123.78   46.96
  14   5  -2   76.86   25.85
   5  14   2  154.55   43.48
  -5  14  -2  134.65   46.54
  14   5  -1    4.65    9.63
   5  14   1   33.43   26.85
  -5  14  -1   -2.43   13.64
  14   5   0   31.67   18.88
   5  14   0   89.22   32.10
  -5  14   0   32.64   16.44
  14   5   1   12.73    9.36
  -5  14   1   75.06   37.74
   5  14  -1   48.79   32.84
  14   5   2  169.62   31.46
  14   5   2  149.96   32.13
   5  14  -2  214.63   62.40
  14   5   3  173.91   33.46
  14   5   3  141.05   29.44
   5  14  -3  108.86   55.29
  14   5   4   18.24   14.01
  14   5   4   40.08   15.33
   5  14  -4    9.45   24.45
  14   5   5  101.77   28.12
  14   5   5  127.39   24.96
   5  14  -5  142.70   56.36
  14   5   6   10.29   10.30
  14   5   6   37.74   11.21
   5  14  -6   40.95   36.47
  14   5   7  106.67   32.85
   5  14  -7   64.44   34.63
  14   5   8   24.98   10.94
   5  14  -8  -11.19   22.57
  14   5   9   -0.19   12.82
   5  14  -9  -18.85   23.35
  14   5  10   23.76   19.52
   5  14 -10   16.44   18.34
  14   5  11   22.10   19.35
   5  14 -11   11.49   20.12
  14   5  12   57.68   28.08
   5  14 -12  -19.96   27.23
  14   5  13   38.16   26.64
   5  14 -13   32.84   23.61
  14   5  14   61.69   29.76
   5  14 -14   45.02   33.56
  14   5  15   50.19   24.56
   5  14 -15  114.46   51.24
  14   5  16  128.65   44.11
   5  14 -16   26.59   22.44
  14   5  17  -12.58   23.51
   5  14 -17   27.21   15.44
  14   5  18   10.14   14.53
   5  14 -18   -2.77   19.02
  14   5  19   -4.28   19.80
   5  14 -19  -10.98   24.01
  14   5  20   -7.30   14.64
   5  14 -20   24.00   28.17
  14   5  21   -7.59   15.26
   5  14 -21   -9.18   21.85
  14   5  22   48.50   40.34
   5  14 -22   21.89   26.09
  14   5  23   16.85   30.01
   5  14 -23   79.34   45.83
  14   5  24    0.96   24.98
   5  14 -24    4.86   19.71
  14   5  25  -39.56   31.26
   5  14 -25   24.59   44.76
  -6  14 -22    5.32   13.88
  -6  14 -21    5.64   12.41
  -6  14 -20   10.65   15.94
  -6  14 -19    0.23   18.10
  -6  14 -18   12.84   17.67
  14   6 -17   23.51   26.73
  -6  14 -17  -23.12   19.22
  14   6 -16   41.60   27.71
  -6  14 -16   -6.24   12.77
  14   6 -15    4.02   12.54
   6  14  15   40.78   33.78
  -6  14 -15   23.86   32.13
  14   6 -14   52.08   37.23
   6  14  14  116.77   46.05
  -6  14 -14  135.71   47.53
  14   6 -13    5.32   12.65
   6  14  13   11.36   29.73
  -6  14 -13    1.51   15.31
  14   6 -12  157.81   53.88
   6  14  12  127.48   50.42
  -6  14 -12  182.50   57.55
  14   6 -11   28.34   27.97
   6  14  11   31.37   22.14
  -6  14 -11   14.14   15.07
  14   6 -10   41.52   22.65
   6  14  10   40.26   25.03
  -6  14 -10   22.72   26.89
  14   6  -9   23.40   20.21
   6  14   9    9.73   11.45
  -6  14  -9   15.22   12.84
  14   6  -8   -6.13    9.92
  -6  14  -8   34.76   24.85
   6  14   8  -11.15   20.99
  14   6  -7   20.29   17.96
  -6  14  -7   23.24   20.24
   6  14   7  -15.77   19.94
  14   6  -6  187.77   52.67
   6  14   6  233.21   64.48
  -6  14  -6  119.97   42.96
  14   6  -5   28.83   21.95
  -6  14  -5   38.68   22.03
   6  14   5   39.31   23.91
  14   6  -4  112.19   32.87
  -6  14  -4   38.03   32.39
   6  14   4   68.25   37.88
  14   6  -3   80.04   28.69
  -6  14  -3   97.37   39.57
   6  14   3   72.75   26.12
  14   6  -2  150.17   38.87
  -6  14  -2   55.62   30.29
   6  14   2  126.39   47.14
  14   6  -1   12.84   23.14
  -6  14  -1    7.49   19.73
   6  14   1   33.15   22.04
  14   6   0   70.92   25.75
  14   6   0   34.60    9.79
  -6  14   0  -31.46   19.75
   6  14   0   22.03   17.98
  14   6   1   -8.52    8.07
  14   6   1   -2.99   11.44
   6  14  -1    4.39   13.70
  14   6   2  151.49   31.03
  14   6   2  155.21   34.25
   6  14  -2  142.88   52.34
  14   6   3   94.26   28.33
  14   6   3   94.15   23.79
   6  14  -3   71.28   39.98
  14   6   4  105.27   28.53
  14   6   4   75.97   23.26
   6  14  -4   57.65   32.66
  14   6   5   33.17   18.55
  14   6   5   61.84   20.67
   6  14  -5   -3.25   30.35
  14   6   6  231.66   46.74
  14   6   6  227.69   35.52
   6  14  -6  266.04   70.07
  14   6   7  -26.71   17.00
   6  14  -7   -9.15   14.61
  14   6   8   11.13    8.26
   6  14  -8    3.10   20.08
  14   6   9   30.45   18.30
   6  14  -9   45.88   15.19
  14   6  10   38.28   23.47
   6  14 -10   41.45   38.93
  14   6  11   25.36   21.41
   6  14 -11   17.14   18.34
  14   6  12  141.71   44.54
   6  14 -12   78.02   41.86
  14   6  13   32.76   26.01
   6  14 -13   19.12   20.85
  14   6  14  120.74   43.66
   6  14 -14   57.33   39.49
  14   6  15   38.63   25.30
   6  14 -15    8.05   28.18
  14   6  16   21.90   18.19
   6  14 -16   33.31   30.71
  14   6  17    6.59   13.25
   6  14 -17    0.05   18.46
  14   6  18   12.21   20.18
   6  14 -18  -10.77   22.07
  14   6  19   -7.49   14.37
   6  14 -19    6.29   20.34
  14   6  20  -69.45   36.73
   6  14 -20  -61.00   37.93
  14   6  21  -19.53   27.37
   6  14 -21   18.21   26.92
  14   6  22  -20.02   22.10
   6  14 -22  -19.30   23.29
  14   6  23   40.80   28.27
   6  14 -23   14.01   35.68
  14   6  24   18.31   22.60
   6  14 -24   11.92   14.33
  14   6  25    7.24   24.86
  -7  14 -20   -7.83   16.80
  14   7 -19  -35.45   28.33
  -7  14 -19   16.59   23.29
  14   7 -18  -42.07   30.01
   7  14  18   21.54   23.78
  -7  14 -18   -9.48   21.21
  14   7 -17   18.14   16.19
   7  14  17   83.76   38.05
  -7  14 -17   91.58   42.73
  14   7 -16    9.79   20.74
  -7  14 -16   20.96   11.88
  14   7 -15   44.89   13.85
   7  14  15   50.70   35.87
  -7  14 -15   63.15   26.41
  14   7 -14  130.66   51.98
   7  14  14  136.68   53.53
  -7  14 -14  179.48   61.32
  14   7 -13   18.29   27.82
   7  14  13   49.86   37.97
  -7  14 -13   70.64   39.74
  14   7 -12   69.43   36.06
   7  14  12  127.33   53.41
  -7  14 -12   39.61   30.93
  14   7 -11   64.87   29.75
   7  14  11   84.02   35.86
  -7  14 -11   24.92   28.15
  14   7 -10   -1.46    8.90
   7  14  10   -7.27   15.73
  14   7  -9   40.88   26.33
  -7  14  -9   38.72   23.90
   7  14   9    6.34   14.80
  14   7  -8   14.05   15.58
   7  14   8  -21.76   18.36
  -7  14  -8   27.22   20.08
  14   7  -7   54.42   24.27
   7  14   7   86.68   41.53
  -7  14  -7   68.50   34.66
  14   7  -6    9.14   15.81
  -7  14  -6   11.51    7.80
   7  14   6   54.66   34.61
  14   7  -5   96.20   34.04
   7  14   5   46.01   27.55
  -7  14  -5   87.75   39.48
  14   7  -4   26.75   21.53
   7  14   4   32.93   30.48
  -7  14  -4  -10.78   16.96
  14   7  -3   95.23   34.32
   7  14   3  123.69   44.51
  -7  14  -3  101.25   34.13
  14   7  -2   -7.28    7.70
  -7  14  -2    9.11   11.34
   7  14   2  -17.37   26.58
  14   7  -1   45.79   25.69
  -7  14  -1   68.73   35.52
   7  14   1   40.80   28.78
  14   7   0   23.27    6.02
  -7  14   0    4.76   11.35
   7  14   0   49.63   34.65
  14   7   1   52.79   18.97
  14   7   1   60.96   27.65
   7  14  -1   31.05   21.38
  14   7   2   27.24   15.94
  14   7   2   36.38   20.94
   7  14  -2    1.98   10.59
  14   7   3   96.51   27.28
  14   7   3   56.01   21.32
   7  14  -3  136.35   55.85
  14   7   4   18.98   15.00
  14   7   4   48.62   16.04
   7  14  -4   15.59   19.17
  14   7   5  131.06   33.40
  14   7   5  160.10   33.30
   7  14  -5  142.45   59.77
  14   7   6   38.39   13.90
  14   7   6   69.96   19.92
   7  14  -6  -12.05   23.55
  14   7   7   87.37   31.91
   7  14  -7   83.48   46.77
  14   7   8   22.20   14.10
   7  14  -8   -3.40   14.49
  14   7   9   13.98   12.51
   7  14  -9   29.85   15.07
  14   7  10   24.28   21.26
   7  14 -10    6.36   25.92
  14   7  11  101.04   38.73
   7  14 -11   96.15   48.90
  14   7  12   85.79   33.56
   7  14 -12   47.29   29.81
  14   7  13   18.80   27.05
   7  14 -13  107.49   60.64
  14   7  14  129.91   44.39
   7  14 -14   48.20   44.14
  14   7  15   44.54   29.27
   7  14 -15   21.61   22.21
  14   7  16  102.89   43.94
   7  14 -16   18.00   29.30
  14   7  17   47.69   33.18
   7  14 -17  127.06   59.53
  14   7  18   -3.59   10.58
   7  14 -18   -4.81   27.20
  14   7  19   11.97   12.65
   7  14 -19   28.29   26.35
  14   7  20  -60.07   34.67
   7  14 -20    6.61   30.36
  14   7  21   10.82   17.54
   7  14 -21   -8.69   17.77
  14   7  22   38.11   42.52
   7  14 -22  -14.29   24.48
  14   7  23   31.51   36.33
   7  14 -23   49.19   42.61
  14   7  24  109.55   58.51
  14   8 -21   32.58   28.06
  14   8 -20   19.07   26.32
  14   8 -19   -1.92   12.33
  14   8 -18   43.80   38.70
   8  14  18   88.02   42.94
  -8  14 -18   24.46   29.74
  14   8 -17   36.85   25.33
   8  14  17   51.37   33.69
  -8  14 -17   48.98   33.57
  14   8 -16  -23.30   22.67
   8  14  16   30.63   27.75
  -8  14 -16    8.19   22.57
  14   8 -15   57.12   36.44
  -8  14 -15   44.34   30.88
  14   8 -14   -2.93   20.44
   8  14  14   25.19   24.93
  -8  14 -14   27.51   26.63
  14   8 -13   -8.34   16.50
   8  14  13  -12.42    9.72
  -8  14 -13   23.34   19.60
  14   8 -12    3.45   11.65
   8  14  12    6.28    9.26
  -8  14 -12   -5.50   15.51
  14   8 -11   28.20   22.90
   8  14  11   18.41   21.36
  -8  14 -11   15.40   16.84
  14   8 -10  123.36   44.55
   8  14  10   86.35   33.55
  -8  14 -10  130.75   51.00
  14   8  -9   27.77   22.12
   8  14   9    8.03   20.49
  -8  14  -9   22.55   23.21
  14   8  -8   29.27   24.28
  -8  14  -8   36.81   31.56
   8  14   8  -11.64   20.51
  14   8  -7   14.62   10.64
   8  14   7  -17.06   32.23
  -8  14  -7   26.02   21.81
  14   8  -6  142.01   48.33
  -8  14  -6  125.35   48.80
   8  14   6   96.70   39.21
  14   8  -5   61.15   35.16
   8  14   5   85.13   40.76
  -8  14  -5   54.31   29.79
  14   8  -4   20.84   16.71
  -8  14  -4   11.04   10.24
   8  14   4   45.63   34.88
  14   8  -3   14.76   14.24
  -8  14  -3   -2.17   10.47
   8  14   3   -0.14    9.67
  14   8  -2   83.17   33.68
  -8  14  -2   56.09   33.37
   8  14   2   72.49   43.16
  14   8  -1   95.50   36.75
  -8  14  -1   71.42   38.84
   8  14   1  159.59   56.74
  14   8   0  324.44   59.69
   8  14   0  309.63   75.71
  14   8   1  154.92   31.68
  14   8   1   93.85   30.70
   8  14  -1  109.44   42.81
  14   8   2  105.34   29.04
  14   8   2  106.37   29.60
   8  14  -2  114.35   49.05
  14   8   3   27.31   12.62
  14   8   3   26.22   18.34
   8  14  -3   52.78   28.06
  14   8   4   17.85   12.06
  14   8   4   12.35   12.40
   8  14  -4   15.72   29.57
  14   8   5  102.61   28.60
  14   8   5  131.74   33.35
 -14   8  -5  103.07   29.78
   8  14  -5   90.62   39.29
  14   8   6  168.08   40.20
  14   8   6  123.13   30.43
   8  14  -6  126.49   52.31
  14   8   7  -11.35   10.64
   8  14  -7   14.71   16.39
  14   8   8   20.91   11.58
   8  14  -8   10.45   19.28
  14   8   9   26.39   15.58
   8  14  -9  -14.49   33.61
  14   8  10  114.63   36.38
   8  14 -10  134.63   49.50
  14   8  11   13.02   10.78
   8  14 -11  -25.95   17.24
  14   8  12   12.71   15.35
   8  14 -12   63.34   37.75
  14   8  13   -4.17   12.65
   8  14 -13   21.99   34.14
  14   8  14   29.32   26.04
   8  14 -14   34.96   35.59
  14   8  15  114.79   45.07
   8  14 -15  129.31   54.00
  14   8  16  -19.11   19.55
   8  14 -16   22.35   21.09
  14   8  17   31.81   28.34
   8  14 -17   27.83   33.50
  14   8  18   11.00   13.48
   8  14 -18   56.02   40.81
  14   8  19   37.52   36.56
   8  14 -19   41.02   32.01
  14   8  20  -10.23   16.72
   8  14 -20  -31.38   28.70
  14   8  21   29.14   24.40
   8  14 -21   14.42   26.59
  14   8  22   86.65   47.38
   8  14 -22   21.06   27.56
  14   8  23   44.67   32.86
  14   8  24    2.51   17.65
  14   9 -22   18.12   50.22
  14   9 -21    1.21   25.32
  14   9 -20   58.83   48.93
  14   9 -19   10.40   35.68
  14   9 -18   35.07   38.99
  14   9 -17   20.73   22.19
  14   9 -16   -5.68   21.75
  -9  14 -16   32.98   30.87
  14   9 -15  -20.70   14.09
   9  14  15   20.58   21.80
  -9  14 -15  -17.03   12.03
  14   9 -14  -24.49   33.65
   9  14  14    8.88   14.54
  -9  14 -14    4.84   10.01
  14   9 -13  -16.44   21.07
   9  14  13   -1.53   20.92
  -9  14 -13   41.52   31.04
  14   9 -12    2.42   15.93
   9  14  12   -1.98   21.55
  -9  14 -12   -2.91   12.05
  14   9 -11    9.49   25.54
   9  14  11   19.49   16.65
  -9  14 -11    9.28   17.37
  14   9 -10   54.42   32.67
   9  14  10   60.88   31.06
  -9  14 -10   51.58   31.51
  14   9  -9   99.85   35.42
   9  14   9  103.89   42.71
  -9  14  -9   85.03   39.18
  14   9  -8   54.24   29.43
   9  14   8  106.81   41.12
  -9  14  -8   40.43   29.92
  14   9  -7   43.31   26.23
   9  14   7   31.65   35.88
  -9  14  -7   64.17   35.42
  14   9  -6  111.87   42.83
  -9  14  -6   68.56   33.10
   9  14   6   44.03   39.78
  14   9  -5   24.88   19.90
  -9  14  -5   28.31   23.29
   9  14   5   24.81   29.29
  14   9  -4   99.86   37.17
  -9  14  -4   64.80   32.89
   9  14   4  100.09   48.16
  14   9  -3  133.05   42.25
  -9  14  -3   48.30   29.41
   9  14   3  118.19   52.99
  14   9  -2   58.88   31.60
  -9  14  -2   71.62   33.23
   9  14   2   55.90   37.35
  14   9  -1  147.75   42.74
  -9  14  -1   82.68   37.69
   9  14   1  131.55   54.26
  14   9   0  -20.29   15.98
   9  14   0   11.59   26.57
  14   9   1  110.58   40.00
   9  14  -1  101.91   51.50
  14   9   2   96.96   31.10
   9  14  -2   40.32   34.70
  14   9   3  118.04   38.83
   9  14  -3  156.31   59.66
  14   9   4   88.87   28.27
   9  14  -4  104.84   44.26
  14   9   5   52.37   25.97
 -14   9  -5   26.74   19.76
   9  14  -5   61.33   31.21
  14   9   6  103.75   30.26
   9  14  -6  160.63   54.88
   9  14  -7   65.89   40.56
  14   9   8   92.09   32.04
   9  14  -8   48.43   41.22
  14   9   9   69.20   32.84
   9  14  -9   78.01   44.56
  14   9  10   66.14   33.91
   9  14 -10   59.34   29.42
  14   9  11   15.13   21.70
   9  14 -11  -12.95   14.03
  14   9  12   41.44   24.85
   9  14 -12  -19.21   21.71
  14   9  13   -7.98   16.84
   9  14 -13   35.83   34.84
  14   9  14   -2.55   18.97
   9  14 -14   38.92   35.39
  14   9  15  -11.48   21.50
   9  14 -15   28.19   30.60
  14   9  16   56.46   31.23
   9  14 -16   30.27   40.86
  14   9  17   29.01   27.79
   9  14 -17   37.05   29.26
  14   9  18   41.58   34.31
   9  14 -18   -0.05   22.97
  14   9  19   42.55   35.25
   9  14 -19   16.65   25.49
  14   9  20   84.25   42.29
   9  14 -20   33.08   45.34
  14   9  21  -16.32   20.62
   9  14 -21    4.27   19.15
  14   9  22    2.37   24.70
  14   9  23    0.64   10.93
  14  10 -21   62.94   40.74
  14  10 -20  109.66   55.94
  14  10 -19   34.24   35.55
  14  10 -18  -26.02   25.75
  14  10 -17   42.59   31.15
  14  10 -16   20.22   20.60
  14  10 -15    0.72   11.53
  14  10 -14   28.77   28.34
  10  14  14    6.11   11.63
 -10  14 -14  -10.68    9.47
  14  10 -13  -13.35   12.84
  10  14  13  -14.35   15.02
 -10  14 -13   -8.82   18.29
  14  10 -12   62.51   38.53
  10  14  12   57.05   28.64
 -10  14 -12   26.42   26.24
  14  10 -11   41.00   37.56
  10  14  11   58.94   31.53
 -10  14 -11   54.75   33.55
  14  10 -10   27.11   24.45
  10  14  10    6.78   12.83
 -10  14 -10   29.31   21.20
  14  10  -9   64.12   33.25
  10  14   9   67.24   41.56
 -10  14  -9   12.38   27.48
  14  10  -8  213.64   61.30
 -10  14  -8  110.08   43.20
  10  14   8  117.54   45.40
  14  10  -7   24.08   36.32
 -10  14  -7   16.11   17.84
  10  14   7  -14.64   13.58
 -10  14  -6   35.57   26.96
  10  14   6   33.87   26.31
  14  10  -5   14.60   10.66
 -10  14  -5  -16.00   29.82
  10  14   5   51.12   36.54
  14  10  -4  431.68   77.61
 -10  14  -4  494.24   86.46
  10  14   4  307.87   86.21
  14  10  -3   95.40   41.52
 -10  14  -3   86.38   37.13
  10  14   3   55.44   40.45
  14  10  -2   84.05   33.89
 -10  14  -2   56.74   29.05
  10  14   2  115.06   50.02
  14  10  -1   -0.54   12.16
  10  14   1   28.78   30.85
  14  10   0  160.98   43.74
  10  14   0  136.69   49.21
  14  10   1   -2.70   10.34
  10  14  -1   -2.20   15.76
  14  10   2   64.10   30.32
  10  14  -2   15.08   11.59
  14  10   3   50.40   30.36
  10  14  -3   79.11   44.64
  10  14  -4  454.78   92.15
  14  10   4  461.20   71.20
  14  10   5   33.21   23.62
 -14  10  -5   25.74   17.93
  10  14  -5   -6.19   23.52
  14  10   6   46.90   27.53
  10  14  -6  134.75   48.57
  10  14  -7   22.69   26.06
  10  14  -8  156.22   59.35
  10  14  -9  -44.00   30.69
  10  14 -10   87.50   43.66
  10  14 -11    3.84   20.23
  10  14 -12   64.13   42.53
  10  14 -13   -5.56   14.35
  14  10  13    2.75   20.89
  10  14 -14  -13.74   11.08
  14  10  14   -8.60   17.35
  10  14 -15   20.68   23.22
  14  10  15    8.18   11.89
  10  14 -16  -20.91   23.81
  14  10  16   62.23   34.04
  10  14 -17   55.46   46.19
  14  10  17   41.61   30.25
  10  14 -18   15.33   19.62
  14  10  18    3.72   12.75
  10  14 -19   17.56   30.11
  14  10  19   12.33   18.13
  10  14 -20   56.70   44.05
  14  10  20   94.46   45.39
  14  10  21   27.61   26.98
  14  10  22    5.05   20.18
  14  10  23   96.20   62.27
  14  11 -20   -5.18   15.29
  14  11 -19   48.91   50.95
  14  11 -18  -46.52   33.60
  14  11 -17   35.78   42.01
  14  11 -16   80.04   45.20
  14  11 -15   -5.14   17.66
  14  11 -14   27.69   28.39
  14  11 -13   28.38   32.47
  14  11 -12   10.23   22.54
  11  14  12  101.06   46.07
  14  11 -11   36.25   27.15
  11  14  11    3.80   21.67
 -11  14 -11   17.41   27.48
  14  11 -10   45.79   31.29
 -11  14 -10   15.03   21.14
  11  14  10   68.96   42.08
  14  11  -9   83.27   44.30
 -11  14  -9   68.74   38.45
  11  14   9   56.62   34.59
  14  11  -8   15.91   25.15
 -11  14  -8    9.67    8.83
  11  14   8   44.15   38.48
  14  11  -7   49.35   31.21
 -11  14  -7   41.97   31.23
  11  14   7   23.35   22.76
  14  11  -6   76.54   33.76
 -11  14  -6   -1.14   12.09
  11  14   6   19.00   34.71
  14  11  -5  196.75   55.62
 -11  14  -5  144.93   47.05
  11  14   5  121.69   53.27
  14  11  -4   99.19   47.48
 -11  14  -4   62.18   23.61
  11  14   4  134.43   47.54
  14  11  -3  124.71   46.06
 -11  14  -3  140.61   47.36
  11  14   3   83.46   47.52
  14  11  -2   92.64   33.03
 -11  14  -2   91.12   40.77
  11  14   2  131.58   52.42
  14  11  -1  174.65   47.50
  11  14   1  113.26   46.78
  14  11   0   88.04   37.74
  11  14   0   43.26   27.54
  14  11   1  153.13   50.37
  11  14  -1   81.72   44.10
  14  11   2   80.31   36.78
  11  14  -2  110.43   50.50
  14  11   3  111.12   41.82
  11  14  -3  182.41   62.27
 -14  11  -4  137.64   43.79
  14  11   4  149.02   46.09
  11  14  -4   66.84   33.42
 -14  11  -5   98.85   37.10
  11  14  -5  213.75   63.58
  14  11   5  127.29   43.78
  11  14  -6   16.38   10.63
  14  11   6   29.81   20.40
  11  14  -7  113.65   48.84
  11  14  -8  -23.10   23.19
  11  14  -9   89.24   48.01
  11  14 -10   39.37   31.23
  11  14 -11   99.73   54.79
  11  14 -12   59.03   44.57
  11  14 -13   53.70   42.56
  11  14 -14  134.57   52.83
  14  11  15   50.11   33.54
  11  14 -15   53.25   56.34
  14  11  16   29.66   27.58
  11  14 -16    2.88   11.58
  14  11  17  -25.86   23.74
  11  14 -17   10.52   16.31
  14  11  18   35.36   22.88
  11  14 -18  -15.32   24.95
  14  11  19   -1.07   32.43
  11  14 -19   30.98   27.90
  14  11  20   27.65   25.80
  11  14 -20    5.85   14.08
  14  11  21   28.68   35.18
  14  11  22  -57.85   36.98
  14  12 -19    7.59   16.86
  14  12 -18    8.08   25.21
  14  12 -17   35.45   27.80
  14  12 -16    0.48   21.05
  14  12 -15   37.09   39.72
  14  12 -14  111.01   48.87
  14  12 -13    7.02   24.24
  14  12 -12   83.78   48.52
  14  12 -11   24.60   31.38
  14  12 -10   98.45   45.24
  12  14  10   63.47   43.28
  14  12  -9   14.08   27.82
 -12  14  -9   -4.06   12.55
  12  14   9   33.44   25.24
  14  12  -8  178.28   58.57
 -12  14  -8  111.76   41.14
  12  14   8   69.67   36.61
  14  12  -7   18.99   26.63
 -12  14  -7   -2.35   13.17
  12  14   7    5.41   22.91
  14  12  -6   63.92   38.97
 -12  14  -6   86.70   39.15
  12  14   6  111.43   44.41
  14  12  -5   12.70   20.84
 -12  14  -5   20.26   16.48
  12  14   5   38.68   24.12
  14  12  -4   42.33   33.12
 -12  14  -4   26.13   24.41
  12  14   4   37.23   28.95
  14  12  -3   18.84   19.77
 -12  14  -3    1.23   17.40
  12  14   3   -2.30   22.77
  14  12  -2  417.12   84.66
 -12  14  -2  392.32   79.78
  12  14   2  331.13   77.06
  14  12  -1   64.45   33.09
  12  14   1  -10.55   19.31
  14  12   0  202.43   56.73
  12  14   0  215.43   62.02
  14  12   1   34.72   26.61
  12  14  -1  -11.89   13.78
  14  12   2  382.16   74.40
  12  14  -2  454.24   90.50
 -14  12  -3   18.14   13.11
  12  14  -3  -21.45   30.75
  14  12   3   35.98   29.15
 -14  12  -4   14.12    8.72
  14  12   4   32.26   19.40
  12  14  -4  -14.29   18.45
  12  14  -5   14.98   30.74
 -14  12  -5  -12.23   20.13
  14  12   5    7.91   12.21
  12  14  -6   94.68   44.51
  12  14  -7   30.98   29.40
  12  14  -8  189.81   68.13
  12  14  -9   36.34   38.13
  12  14 -10   33.45   45.32
  12  14 -11   60.96   40.79
  12  14 -12  178.99   72.70
  12  14 -13   11.89   18.98
  12  14 -14   79.34   50.46
  12  14 -15   25.44   38.26
  12  14 -16   21.22   24.15
  12  14 -17  -18.01   13.43
  14  12  18   31.08   27.20
  12  14 -18   55.92   44.85
  14  12  19   13.15   11.50
  12  14 -19   13.94   23.77
  14  12  20   36.76   25.02
  14  12  21    0.30   28.40
  14  13 -18   25.06   27.54
  14  13 -17   32.85   24.17
  14  13 -16   41.11   42.28
  14  13 -15  -61.17   38.04
  14  13 -14   34.03   34.96
  14  13 -13    2.57   13.47
  14  13 -12   39.94   32.62
  14  13 -11   72.76   46.81
  14  13 -10  -29.85   26.03
  14  13  -9  192.03   63.19
  14  13  -8   -0.80   32.52
  14  13  -7  155.17   61.46
 -13  14  -7  124.35   49.08
  13  14   7  123.01   47.73
  14  13  -6    9.01   17.85
 -13  14  -6   38.80   31.82
  13  14   6   22.94   23.53
  14  13  -5   21.57   27.22
 -13  14  -5   -6.54   14.45
  13  14   5   -8.33   11.21
  14  13  -4   34.45   31.44
 -13  14  -4   -3.73   13.02
  13  14   4   25.72   24.62
 -13  14  -3   52.77   28.70
  13  14   3  104.46   42.37
  14  13  -2   41.43   35.65
 -13  14  -2   29.82   18.90
  13  14   2   10.04   14.27
  14  13  -1    1.17   13.94
  13  14   1   22.90   31.17
  14  13   0   48.77   28.16
  13  14   0   91.84   38.87
  13  14  -1   23.72   24.39
  14  13   1   25.89   25.83
  14  13   2   22.37   20.36
  13  14  -2   94.18   44.71
  13  14  -3   71.82   35.42
 -14  13  -3   83.30   30.99
  14  13   3   64.11   30.38
  13  14  -4    0.78   10.85
 -14  13  -4  -18.10   19.54
  14  13   4  -19.35   14.72
  13  14  -5   43.61   30.18
 -14  13  -5   24.06   21.09
  14  13   5   26.34   25.94
  13  14  -6    3.70   23.59
  13  14  -7  173.06   61.70
  13  14  -8    4.81   16.18
  13  14  -9  153.34   61.16
  13  14 -10   14.46   21.46
  13  14 -11  -28.34   26.56
  13  14 -12   25.14   31.96
  13  14 -13   39.09   38.84
  13  14 -14   48.36   47.26
  13  14 -15   31.94   16.06
  13  14 -16   27.69   25.60
  13  14 -17  -29.49   28.67
  14  13  19  -44.55   32.16
  14  13  20   43.68   32.22
  14  14   0   -3.16   16.38
  14  14  -1   12.15    9.66
  14  14   1  -14.17   24.49
  14  14  -2   13.62   18.69
 -14  14  -2    6.25    8.93
  14  14  -3    5.44   13.29
 -14  14  -3   -8.08    8.58
  14  14   3   -1.80   17.60
  14  14  -4  144.91   52.43
 -14  14  -4  104.36   43.12
  14  14   4   76.77   36.42
  14  14  -5    8.79   23.05
  14  14   5   26.44   33.49
  14  14  -6   58.93   45.59
  14  14  -7    9.10   24.63
  14  14  -8  195.18   68.07
  14  14  -9   34.20   33.23
  14  14 -10   14.81   32.03
  14  14 -11   35.82   34.00
  14  14 -12   33.99   29.78
  14  14 -13   27.08   38.07
  14  14 -14    6.91   17.08
  14  14 -15   35.78   23.42
  14  14 -16   23.12   25.92
   0  15   0   23.51   25.46
   0  15  -1   57.74   35.68
   0  15   1  174.94   56.56
   0  15   2   15.73   25.41
   0  15  -2   -8.62   14.94
   0  15  -3  133.30   47.85
   0  15   3  206.63   61.53
   0  15  -4   92.06   37.74
   0  15   4  182.68   59.07
   0  15  -5   13.99   11.95
   0  15   5   21.36   31.80
   0  15   6    0.04   12.15
   0  15  -6   -3.23   19.41
   0  15  -7  241.18   79.40
   0  15  -8  393.36   82.90
   0  15  -9   -2.51   12.19
   0  15 -10  -24.29   22.57
   0  15 -11   54.41   31.31
   0  15 -12    5.29   12.80
   0  15 -13  175.44   57.10
   0  15 -14    6.72   18.27
   0  15 -15   14.84   28.84
   0  15 -16  -74.74   39.19
   0  15 -17   -4.41   27.57
   0  15 -18   29.11   19.06
   0  15 -19    2.47   11.01
   0  15 -20   17.66   25.75
   0  15 -21   38.94   37.57
   0  15 -22   86.58   45.68
   0  15 -23   42.88   48.84
   0  15 -24  -90.22   45.63
   0  15 -25   71.06   47.36
   0  15 -26  -21.48   24.55
  -1  15 -27    8.78   33.72
  -1  15 -26   17.93   29.83
  -1  15 -25   31.21   32.72
  -1  15 -24    3.38   17.62
  -1  15 -23   24.73   28.60
  -1  15 -22  -37.66   29.80
  -1  15 -21   49.42   31.41
  -1  15 -20   12.95   12.35
  -1  15 -19    5.55   17.00
  -1  15 -18  142.66   54.73
  -1  15 -17   25.85   36.16
  -1  15 -16  -24.16   23.67
  -1  15 -15  -17.34   25.70
  -1  15 -14    6.80   20.48
  -1  15 -13  108.50   45.97
  -1  15 -12    9.96   24.91
  -1  15 -11  126.06   51.22
  -1  15 -10   -9.22   11.02
  -1  15  -9  114.18   50.65
  -1  15  -8   96.88   43.72
   1  15   7  118.38   44.34
  -1  15  -7   88.76   37.14
   1  15   6   41.50   28.94
  -1  15  -6   85.12   45.95
  -1  15  -5  117.27   42.74
   1  15   5  114.51   42.67
  -1  15  -4   43.26   29.34
   1  15   4  128.03   47.43
   1  15   3   89.96   41.87
  -1  15  -3   81.89   37.70
  -1  15  -2   26.66   25.84
   1  15   2   67.35   33.65
   1  15   1  -33.14   24.44
  -1  15  -1   47.11   32.74
   1  15   0  -25.63   22.05
  -1  15   0  -33.59   28.11
  -1  15   1  -19.17   29.80
   1  15  -1   19.29   16.70
  -1  15   2   43.26   28.41
   1  15  -2   59.39   38.52
  -1  15   3  133.22   45.83
   1  15  -3   60.60   33.88
  -1  15   4   99.55   42.05
   1  15  -4  120.43   50.71
  -1  15   5   87.54   43.42
   1  15  -5   87.75   47.08
   1  15  -6   44.34   42.85
   1  15  -7  117.88   50.88
   1  15  -8   83.01   40.77
   1  15  -9  106.41   40.61
   1  15 -10   64.50   49.02
   1  15 -11  114.49   53.25
   1  15 -12    0.53   15.91
   1  15 -13   66.32   40.71
   1  15 -14   39.62   28.06
   1  15 -15   16.69   18.03
   1  15 -16    7.78   23.14
   1  15 -17   12.91   15.64
   1  15 -18   17.20   21.59
   1  15 -19    7.93   21.07
   1  15 -20   -5.06   14.15
   1  15 -21   67.77   41.50
   1  15 -22   -3.78   13.00
   1  15 -23   61.25   45.50
   1  15 -24    0.05   12.36
   1  15 -25    6.61   18.00
   1  15 -26    1.21   11.93
  -2  15 -27    4.51   20.06
  -2  15 -26   -0.05   18.30
  -2  15 -25   22.45   14.61
  -2  15 -24   73.47   43.21
  -2  15 -23   26.28   20.27
  -2  15 -22   64.17   45.25
  -2  15 -21   17.45   16.19
  -2  15 -20   33.29   36.04
  -2  15 -19   22.62   22.81
  -2  15 -18    9.04   13.26
  -2  15 -17   44.45   32.58
  -2  15 -16  -10.63   27.06
  -2  15 -15   10.42   23.64
  -2  15 -14   18.05   23.72
  -2  15 -13    2.51   12.11
  -2  15 -12    0.90   12.04
  -2  15 -11   40.45   35.56
  -2  15 -10    6.19   14.74
   2  15   9  109.08   42.26
  -2  15  -9  134.33   48.79
   2  15   8   75.34   39.42
  -2  15  -8   74.15   41.79
   2  15   7   39.87   32.85
  -2  15  -7   61.52   37.92
   2  15   6  122.69   45.71
  -2  15  -6  135.91   48.18
   2  15   5   65.03   32.89
  -2  15  -5   49.45   37.10
   2  15   4  268.50   65.79
  -2  15  -4  230.20   59.95
  -2  15  -3   -0.94    9.24
   2  15   3   41.30   31.11
   2  15   2   83.12   40.09
  -2  15  -2   51.43   26.44
   2  15   1  -42.82   27.38
  -2  15  -1    7.53   21.46
  -2  15   0   -9.68   21.53
   2  15   0   35.10   25.41
   2  15  -1  -20.97   26.36
  -2  15   1  -15.51   24.36
  -2  15   2   44.40   20.71
   2  15  -2   42.79   27.30
  -2  15   3   24.89   25.18
   2  15  -3  103.28   54.69
  -2  15   4  240.59   66.12
   2  15  -4  294.50   75.53
   2  15  -5  143.78   62.37
   2  15  -6  283.47   71.59
   2  15  -7   43.97   41.52
   2  15  -8   73.06   37.65
   2  15  -9   56.57   36.42
   2  15 -10   33.24   31.32
   2  15 -11  -47.38   30.34
   2  15 -12  -13.06   24.28
   2  15 -13    1.74   11.07
   2  15 -14   -3.36   17.75
   2  15 -15  -21.89   34.63
   2  15 -16    3.11   11.57
   2  15 -17  -11.06   22.28
   2  15 -18   20.21   26.13
   2  15 -19    1.21   22.03
   2  15 -20   55.80   38.86
   2  15 -21   75.03   45.76
   2  15 -22   52.99   35.78
   2  15 -23    4.23   22.20
   2  15 -24    2.15   23.59
   2  15 -25    0.11   22.86
  -3  15 -27  -36.48   29.76
  -3  15 -26  -54.53   35.53
  -3  15 -25   46.35   32.66
  -3  15 -24  -21.71   23.19
  -3  15 -23   57.67   49.25
  -3  15 -22  -77.21   40.49
  -3  15 -21   48.05   41.27
  -3  15 -20  -11.81   17.73
  -3  15 -19   49.82   33.32
  -3  15 -18  -13.50   18.72
  -3  15 -17   27.29   24.36
  -3  15 -16   -3.82   22.75
  -3  15 -15   -1.31   12.41
  -3  15 -14   -9.73   19.08
  -3  15 -13   -7.25   24.22
  -3  15 -12    0.70   21.10
  -3  15 -11   21.33   25.50
   3  15  10   46.94   36.45
  -3  15 -10   10.95   24.27
   3  15   9   87.40   44.87
  -3  15  -9  224.43   61.93
   3  15   8   24.72   21.10
  -3  15  -8   -0.63   20.39
   3  15   7  151.82   49.10
  -3  15  -7   93.48   41.87
   3  15   6   17.96   22.64
  -3  15  -6   92.69   49.39
   3  15   5  161.55   55.88
  -3  15  -5   43.84   24.89
  -3  15  -4  132.24   43.14
   3  15   4  102.81   46.16
  -3  15  -3   49.07   29.14
   3  15   3   51.06   29.65
   3  15   2  -33.83    9.68
  -3  15  -2  -47.40   29.76
  -3  15  -1   -3.89   11.53
   3  15   1   -2.30   29.09
   3  15   0    7.35   16.26
  -3  15   0    2.24   12.60
  -3  15   1   -4.43   10.47
   3  15  -1  -15.10   29.08
  -3  15   2   -8.21   14.47
   3  15  -2   35.49   27.90
  -3  15   3   90.92   40.38
   3  15  -3   84.73   45.67
   3  15  -4  119.91   53.00
   3  15  -5  137.94   51.01
   3  15  -6  142.12   57.89
   3  15  -7  175.24   54.90
   3  15  -8    7.19   25.10
   3  15  -9  107.12   44.26
   3  15 -10   13.75   14.27
   3  15 -11  -33.88   32.89
   3  15 -12   35.68   31.39
   3  15 -13   -5.07   16.07
   3  15 -14   22.42   25.69
   3  15 -15  -49.01   32.71
   3  15 -16   14.05   29.17
   3  15 -17    1.41   19.35
   3  15 -18  -35.69   35.60
   3  15 -19   94.07   49.20
   3  15 -20   14.04   23.24
   3  15 -21   70.40   43.31
   3  15 -22   -0.05   18.22
   3  15 -23   -4.91   15.41
   3  15 -24    3.19   14.21
   3  15 -25    3.23   17.54
  -4  15 -25   22.28   34.30
  -4  15 -24   32.91   38.78
  -4  15 -23    0.13   27.52
  -4  15 -22   62.57   43.58
  -4  15 -21   71.42   39.58
  -4  15 -20   35.51   30.64
  -4  15 -19  -13.36   12.53
  -4  15 -18   13.69   17.37
  -4  15 -17   12.22   22.44
  -4  15 -16  -16.92   22.56
  -4  15 -15   21.36   23.87
  -4  15 -14    8.63   16.46
  -4  15 -13   73.25   38.62
   4  15  12   56.38   35.89
  -4  15 -12   56.36   34.65
   4  15  11   62.88   37.34
  -4  15 -11   12.35   13.96
   4  15  10   36.95   31.29
  -4  15 -10   40.22   33.35
   4  15   9   31.93   31.12
  -4  15  -9   68.52   42.73
   4  15   8   40.31   25.48
  -4  15  -8   59.25   24.99
  -4  15  -7   79.93   48.32
   4  15   7  134.49   51.49
  -4  15  -6   97.67   43.18
   4  15   6   43.47   37.45
  -4  15  -5   14.74   14.44
   4  15   5  -16.39   26.08
   4  15   4   10.58   12.82
  -4  15  -4   -7.60   20.46
   4  15   3   34.69   26.28
  -4  15  -3   15.99   23.26
  -4  15  -2   87.97   32.60
   4  15   2   85.59   39.66
   4  15   1   12.85   16.75
  -4  15  -1  -34.12   31.51
   4  15   0  -23.86   21.51
  -4  15   0  -26.23   23.02
  -4  15   1   48.56   34.23
   4  15  -1   62.05   33.40
  -4  15   2   99.80   36.88
   4  15  -2  150.64   53.66
   4  15  -3  154.71   57.00
   4  15  -4   63.47   33.60
   4  15  -5  111.94   52.53
   4  15  -6  126.07   49.79
   4  15  -7  100.54   62.75
   4  15  -8   83.84   42.16
  15   4   9   81.06   32.62
   4  15  -9   58.65   36.66
  15   4  10    5.80   10.72
   4  15 -10    6.64   16.25
  15   4  11   38.66   23.91
   4  15 -11    1.46   27.02
  15   4  12   61.94   29.24
   4  15 -12   56.96   31.10
  15   4  13   87.01   33.86
   4  15 -13   49.98   33.83
  15   4  14   -6.35   12.44
   4  15 -14    1.69   21.18
  15   4  15   -4.69   17.64
   4  15 -15    0.54   18.17
  15   4  16   39.43   29.37
   4  15 -16   25.23   24.90
  15   4  17   41.10   37.11
   4  15 -17   34.43   39.04
  15   4  18   98.84   40.69
   4  15 -18   65.72   51.26
  15   4  19  -19.33   16.01
   4  15 -19   14.10   30.76
  15   4  20  122.82   51.65
   4  15 -20   36.73   29.27
  15   4  21   27.74   19.70
   4  15 -21   24.16   23.29
  15   4  22   27.50   34.01
   4  15 -22    1.59   16.28
  15   4  23    2.93   12.27
   4  15 -23   12.33   21.49
  15   4  24    2.75   23.18
   4  15 -24   19.16   23.23
  15   4  25  -76.60   43.28
  -5  15 -23   36.85   40.56
  -5  15 -22   21.63   22.34
  -5  15 -21   24.12   25.46
  -5  15 -20   -6.45   14.28
  -5  15 -19   25.86   20.39
  -5  15 -18   14.92   25.08
  -5  15 -17   18.28   22.47
  -5  15 -16  -11.53   19.54
  -5  15 -15   25.59   21.04
   5  15  14   30.11   20.52
  -5  15 -14   21.19   19.63
   5  15  13   64.80   38.62
  -5  15 -13   59.05   33.19
   5  15  12   -6.99   26.12
  -5  15 -12   34.92   29.35
   5  15  11   37.75   21.95
  -5  15 -11   79.82   42.14
  15   5 -10   31.31   29.00
   5  15  10   25.89   21.89
  -5  15 -10  -18.72   19.84
  15   5  -9   12.38   19.09
   5  15   9  -36.72   19.30
  -5  15  -9   -7.96   14.21
  15   5  -8   47.94   26.41
   5  15   8    5.28   11.54
  -5  15  -8   15.91   17.06
  15   5  -7   34.83   16.85
  -5  15  -7  126.12   43.79
   5  15   7   47.78   34.65
  15   5  -6    6.59   10.50
  -5  15  -6   -1.25    9.40
   5  15   6  -22.68   29.09
  15   5  -5   91.22   33.45
   5  15   5   47.16   21.71
  -5  15  -5   75.08   31.37
  15   5  -4  165.96   42.79
   5  15   4  105.75   45.85
  -5  15  -4   45.37   36.97
  15   5  -3   71.94   26.33
  -5  15  -3   63.82   23.37
   5  15   3   73.26   40.72
  15   5  -2  263.77   49.03
   5  15   2  168.43   58.74
  -5  15  -2  104.55   45.59
  15   5  -1  180.58   38.55
   5  15   1  177.02   52.16
  -5  15  -1  138.96   41.21
  15   5   0   29.03   13.62
   5  15   0   62.30   38.74
  -5  15   0   37.77   24.72
  15   5   1  140.05   30.56
  -5  15   1  145.73   47.04
   5  15  -1  187.23   66.24
  15   5   2  193.80   35.23
  -5  15   2  164.30   56.02
   5  15  -2  220.26   70.82
  15   5   3   84.91   20.09
   5  15  -3   99.93   48.14
   5  15  -4   55.18   38.99
  15   5   5  105.19   30.85
   5  15  -5   58.30   41.67
  15   5   6   -2.88   10.55
   5  15  -6   -4.44   13.22
  15   5   7   58.81   23.10
   5  15  -7   63.58   32.94
  15   5   8   56.45   29.28
   5  15  -8   33.62   31.75
  15   5   9  -20.11   17.47
   5  15  -9  -14.35   17.52
  15   5  10  -11.18    9.09
   5  15 -10   -5.19   13.11
  15   5  11   58.41   26.27
   5  15 -11   78.83   43.03
  15   5  12   34.50   22.13
   5  15 -12   15.99   33.02
  15   5  13   83.20   35.88
   5  15 -13   96.37   50.06
  15   5  14   44.14   25.82
   5  15 -14    0.05   31.17
  15   5  15   -0.30   24.63
   5  15 -15   63.87   43.80
  15   5  16   14.24   16.46
   5  15 -16   63.62   44.74
  15   5  17   13.71   27.44
   5  15 -17   29.89   23.13
  15   5  18    0.08   21.29
   5  15 -18  -83.28   43.69
  15   5  19  125.75   46.04
   5  15 -19   31.48   33.50
  15   5  20   18.10   13.80
   5  15 -20   31.08   30.14
  15   5  21   77.83   48.63
   5  15 -21   38.40   25.12
  15   5  22   -6.24   15.03
   5  15 -22    9.09   18.38
  15   5  23    6.27   18.78
   5  15 -23    9.02   19.94
  15   5  24   40.19   43.18
  -6  15 -21   17.05   15.48
  -6  15 -20    1.92   15.14
  -6  15 -19  -48.51   30.94
  -6  15 -18   22.24   17.18
   6  15  17    6.29   27.50
  -6  15 -17   39.37   37.07
   6  15  16   73.05   44.59
  -6  15 -16  -13.12   12.30
   6  15  15    5.08   19.87
  -6  15 -15   42.47   30.74
  15   6 -14   12.48   18.52
   6  15  14   16.24   26.84
  -6  15 -14   -7.58   12.22
   6  15  13   24.32   22.49
  -6  15 -13   83.64   38.36
  15   6 -12   21.80   27.35
   6  15  12    2.04   11.10
  -6  15 -12  -45.32   29.05
  15   6 -11  -21.47   19.22
   6  15  11   -1.25   11.34
  -6  15 -11   19.22   14.41
  15   6 -10  -28.95   21.67
   6  15  10   25.95   25.70
  -6  15 -10   -1.64   10.10
  15   6  -9  -17.15   12.33
   6  15   9   12.56   25.44
  -6  15  -9   28.89   31.88
  15   6  -8   76.29   35.04
  -6  15  -8   73.04   31.98
   6  15   8  141.59   50.03
  15   6  -7   57.65   33.77
   6  15   7   10.61   22.79
  -6  15  -7   29.55   30.22
  15   6  -6   14.15   16.84
   6  15   6   40.96   34.56
  -6  15  -6   62.17   33.98
  15   6  -5   46.26   24.07
  -6  15  -5   22.97   11.58
   6  15   5   33.63   21.12
  15   6  -4   25.90   17.37
  -6  15  -4   -6.55   19.84
   6  15   4    2.43    9.63
  15   6  -3  205.51   46.12
  -6  15  -3  102.31   42.32
   6  15   3  169.73   54.83
  15   6  -2   20.74   18.02
  -6  15  -2   44.09   26.11
   6  15   2   54.46   27.72
  15   6  -1  257.79   50.14
  -6  15  -1  276.86   70.20
   6  15   1  336.11   82.04
  15   6   0    3.57   14.33
  -6  15   0    9.10   11.37
   6  15   0   26.12   36.17
  15   6   1  258.12   44.55
  -6  15   1  382.17   81.25
   6  15  -1  317.64   76.90
  15   6   2   32.73   15.68
   6  15  -2   48.31   26.21
  15   6   3  201.54   37.61
  15   6   3   84.28   24.53
   6  15  -3  163.66   59.46
  15   6   4   10.65   13.73
  15   6   4   17.39   10.65
   6  15  -4   50.42   34.03
  15   6   5   82.03   26.33
   6  15  -5   50.52   36.08
  15   6   6   76.91   27.30
   6  15  -6   69.72   40.44
  15   6   7   66.46   28.80
   6  15  -7   26.50   26.19
  15   6   8  115.90   33.21
   6  15  -8  110.54   48.74
  15   6   9   47.43   25.28
   6  15  -9   19.59   21.97
  15   6  10   29.68   20.13
   6  15 -10   -2.63   27.62
  15   6  11   41.76   22.74
   6  15 -11   24.68   32.26
  15   6  12   55.07   32.18
   6  15 -12    2.27   17.15
  15   6  13  151.99   47.50
   6  15 -13  145.90   59.31
   6  15 -14   36.96   33.76
  15   6  14   15.35   11.61
   6  15 -15    5.45   23.60
  15   6  15   27.85   29.58
   6  15 -16   -7.42   31.49
  15   6  16  -17.80   18.04
   6  15 -17   22.43   39.16
  15   6  17   32.70   27.42
   6  15 -18   58.09   41.42
  15   6  18   16.91   23.28
   6  15 -19   -2.52   28.49
  15   6  19   -1.43   10.77
   6  15 -20   31.82   38.06
  15   6  20   23.08   25.36
   6  15 -21  -19.09   23.65
  15   6  21   13.20   10.67
   6  15 -22   33.73   37.35
  15   6  22    1.48   12.82
  15   6  23   11.13   20.57
  15   6  24    2.65   12.25
   7  15  20   56.04   38.11
   7  15  19   27.78   25.86
  -7  15 -19   -0.08    9.13
   7  15  18   -3.98    9.68
  -7  15 -18   -2.22    9.50
  15   7 -17   94.51   53.96
   7  15  17   44.61   37.69
  -7  15 -17   16.58   12.93
  15   7 -16   -0.04   27.11
   7  15  16   86.79   40.91
  -7  15 -16   18.35   29.33
  15   7 -15   15.77   23.83
   7  15  15   19.55   26.85
  -7  15 -15    1.27   12.67
  15   7 -14   -4.18   10.26
   7  15  14   28.34   26.14
  -7  15 -14   20.81   24.08
  15   7 -13   38.72   33.86
   7  15  13   76.79   49.55
  -7  15 -13    7.61   17.58
  15   7 -12   27.91   30.23
   7  15  12   34.63   23.32
  -7  15 -12   14.13   20.17
  15   7 -11   29.51   27.43
   7  15  11   41.04   34.75
  -7  15 -11  -10.71   20.98
  15   7 -10   19.90   25.09
   7  15  10   57.47   32.72
  15   7  -9   -9.05   16.72
   7  15   9    0.15   17.41
  -7  15  -9  -19.39   21.25
  15   7  -8  169.66   51.50
  -7  15  -8   81.18   40.53
   7  15   8  110.46   50.84
  15   7  -7   58.56   31.64
  -7  15  -7  111.62   47.98
   7  15   7   81.44   45.16
  15   7  -6   16.97   10.21
   7  15   6   -4.80   21.15
  -7  15  -6  -25.83   21.49
  15   7  -5  -34.65   21.24
  -7  15  -5  -14.71   27.53
   7  15   5   21.18   17.41
  15   7  -4   44.24   18.98
   7  15   4   68.52   39.29
  -7  15  -4   33.23   30.81
  15   7  -3   -5.74   15.28
   7  15   3    9.55   13.09
  -7  15  -3   -8.48   12.54
  15   7  -2   85.23   34.53
  -7  15  -2   49.70   32.35
   7  15   2   79.03   42.34
  15   7  -1  171.86   40.54
  -7  15  -1  226.40   60.21
   7  15   1  133.41   51.76
  15   7   0   91.32   30.16
  -7  15   0   67.18   35.31
   7  15   0   89.45   46.74
  15   7   1  171.78   38.34
   7  15  -1  165.38   62.53
  15   7   2  102.12   30.70
   7  15  -2   46.85   39.45
  15   7   3   -2.84    7.19
   7  15  -3   34.28   30.45
  15   7   4   57.42   22.80
  15   7   4   60.47   21.41
   7  15  -4   67.97   36.30
  15   7   5    7.85    7.05
   7  15  -5   51.34   35.16
  15   7   6    5.26    7.22
   7  15  -6   42.76   26.83
  15   7   7   84.92   28.48
   7  15  -7   42.54   32.57
  15   7   8   57.98   27.04
   7  15  -8  174.49   62.82
  15   7   9   23.23    9.94
   7  15  -9   15.92   19.68
  15   7  10   66.33   33.10
   7  15 -10   78.20   54.85
  15   7  11    2.39   17.26
   7  15 -11  -30.15   26.58
  15   7  12    7.91   21.93
   7  15 -12   59.54   40.83
   7  15 -13   -1.29   28.01
  15   7  13   26.58   17.99
   7  15 -14   48.34   48.90
  15   7  14  -13.22   18.39
   7  15 -15   20.51   34.53
  15   7  15   54.64   31.71
   7  15 -16   15.95   18.63
  15   7  16  -36.47   31.64
   7  15 -17   23.74   25.82
  15   7  17   45.35   34.27
   7  15 -18   26.76   32.35
  15   7  18   18.79   22.56
   7  15 -19  -15.72   25.12
  15   7  19   61.79   36.48
   7  15 -20   38.28   33.27
  15   7  20    5.90   30.92
   7  15 -21   31.55   36.41
  15   7  21   18.94   23.40
   7  15 -22   20.09   32.88
  15   7  22    4.29   18.66
  15   7  23   52.26   34.23
  15   7  24    8.12   25.25
  15   8 -20   89.57   50.70
  15   8 -19   44.46   38.27
  15   8 -18  -36.13   28.80
   8  15  18   55.68   39.80
  15   8 -17   -8.59   18.00
   8  15  17   39.39   36.55
  -8  15 -17    1.81   14.58
  15   8 -16   21.31   25.91
   8  15  16   35.91   43.44
  -8  15 -16   -3.74   21.63
  15   8 -15   -7.27   18.99
   8  15  15  -22.99   22.02
  -8  15 -15   -7.75   16.56
  15   8 -14  -40.09   28.08
   8  15  14   14.97   16.07
  -8  15 -14  -18.53   20.69
  15   8 -13  -74.96   36.62
   8  15  13  -36.80   26.61
  -8  15 -13   -1.85   13.59
   8  15  12  -15.48   12.11
  -8  15 -12   -2.62   13.65
  15   8 -11   34.86   36.13
   8  15  11   -3.96   22.93
  -8  15 -11    2.77   18.25
  15   8 -10  -26.58   21.84
   8  15  10   33.81   14.43
  -8  15 -10   20.91   25.74
  15   8  -9   19.85   14.12
   8  15   9   22.87   18.86
  -8  15  -9   75.92   42.33
  15   8  -8   31.72   21.27
  -8  15  -8   77.79   33.60
   8  15   8   15.66   16.06
  15   8  -7   41.14   25.14
   8  15   7   37.76   25.73
  -8  15  -7   92.34   41.90
  15   8  -6   64.56   26.40
   8  15   6  128.20   57.20
  -8  15  -6   99.07   40.39
  15   8  -5   16.47   20.87
   8  15   5   15.64   16.76
  -8  15  -5   27.13   20.83
  -8  15  -4   -6.41   15.18
   8  15   4   -3.60   10.59
  15   8  -3   41.37   26.30
  -8  15  -3  112.07   44.25
   8  15   3   63.20   43.02
  15   8  -2   21.62   14.70
  -8  15  -2   -1.22    8.55
   8  15   2   24.75   32.85
  15   8  -1   18.70   18.00
  -8  15  -1   29.04   25.01
   8  15   1   52.47   35.09
  15   8   0   27.24   19.40
  -8  15   0   32.06   26.10
   8  15   0   14.56   17.62
  15   8   1   53.25   27.52
   8  15  -1   10.57   31.45
  15   8   2   26.06   17.62
   8  15  -2   60.37   39.30
  15   8   3   44.95   20.64
   8  15  -3   34.31   37.49
  15   8   4   17.00   11.92
   8  15  -4  -14.42   23.36
  15   8   5   40.01   22.12
   8  15  -5   57.64   36.51
  15   8   6  121.40   34.20
   8  15  -6  134.77   51.80
  15   8   7   89.53   30.14
   8  15  -7   55.17   21.98
  15   8   8   61.64   28.56
   8  15  -8   12.92   24.30
  15   8   9   52.30   26.16
   8  15  -9   -7.35   20.90
  15   8  10   27.28   19.89
   8  15 -10   -8.63   30.58
  15   8  11   35.40   25.86
   8  15 -11   31.82   15.75
   8  15 -12   11.11   22.69
  15   8  12    1.35   12.90
   8  15 -13    9.90   34.41
  15   8  13  -29.64   21.83
   8  15 -14   16.72   32.20
  15   8  14    6.61   16.52
   8  15 -15   37.88   33.83
  15   8  15    2.69   15.23
   8  15 -16    4.34   32.28
  15   8  16  100.95   47.58
   8  15 -17   -9.86   19.02
  15   8  17   24.50   21.63
   8  15 -18   31.95   31.54
  15   8  18   50.14   36.70
   8  15 -19   -8.65   17.99
  15   8  19   -0.04   16.47
   8  15 -20   43.94   33.02
  15   8  20   21.25   23.58
   8  15 -21  -83.29   46.28
  15   8  21    4.77   16.95
  15   8  22   67.23   40.36
  15   8  23   30.32   40.94
  15   9 -21   23.28   28.81
  15   9 -20  -59.28   37.95
  15   9 -19   35.08   36.20
  15   9 -18  -21.54   23.32
  15   9 -17   -2.86   12.34
  15   9 -16   41.71   36.01
   9  15  16   12.45   17.69
  15   9 -15  -13.15   18.19
  -9  15 -15  -44.59   32.80
  15   9 -14   16.01   27.24
   9  15  14   20.71   17.00
  -9  15 -14   16.96   17.70
  15   9 -13   32.39   30.05
   9  15  13   -2.19   18.57
  -9  15 -13   37.43   35.92
  15   9 -12    6.41   16.19
   9  15  12   -1.40   20.75
  -9  15 -12    6.88   17.93
  15   9 -11  -26.29   22.24
   9  15  11    4.56   14.52
  -9  15 -11   -4.68   10.54
  15   9 -10   16.64   14.91
   9  15  10   20.93   21.25
  -9  15 -10   45.89   35.74
  15   9  -9   74.37   34.38
   9  15   9   41.03   33.50
  -9  15  -9   10.82   14.96
  15   9  -8   30.89   21.38
   9  15   8   10.61   18.02
  -9  15  -8   48.34   35.32
  15   9  -7  152.79   47.57
   9  15   7  108.47   43.82
  -9  15  -7   88.71   38.20
  15   9  -6   -6.81    8.66
  -9  15  -6    0.25   11.85
   9  15   6   -3.27   19.80
  15   9  -5  125.91   43.14
  -9  15  -5  122.00   45.86
   9  15   5   99.97   58.66
  15   9  -4   79.83   33.15
  -9  15  -4   22.62   23.88
   9  15   4   71.35   43.36
  15   9  -3   40.74   26.16
  -9  15  -3   26.45    9.17
   9  15   3   25.12   30.38
  15   9  -2   76.82   32.92
  -9  15  -2   68.33   34.27
   9  15   2   64.61   50.66
  15   9  -1   -2.88   16.90
  -9  15  -1  -21.40   21.57
   9  15   1  -15.88   24.36
  15   9   0   51.54   24.35
  -9  15   0   25.36   26.57
   9  15   0   33.29   22.78
  15   9   1   21.87   14.47
   9  15  -1   -3.19   13.63
  15   9   2  106.89   34.04
   9  15  -2   80.26   32.49
  15   9   3   11.12    9.11
   9  15  -3   -4.94   21.66
   9  15  -4   64.22   33.66
   9  15  -5  122.48   50.83
  15   9   6   -3.59    9.27
   9  15  -6    7.15   15.96
  15   9   7  165.44   44.56
   9  15  -7  154.40   55.07
  15   9   8   23.39   19.28
   9  15  -8   51.54   30.76
  15   9   9   36.30   13.65
   9  15  -9   82.76   42.05
  15   9  10   11.75   14.19
   9  15 -10   20.28   35.27
   9  15 -11  -22.28   15.10
  15   9  11  -19.46   17.65
   9  15 -12   13.65   14.97
  15   9  12   -9.58   13.33
   9  15 -13   26.44   27.74
  15   9  13   13.44   14.86
   9  15 -14    8.90   18.00
  15   9  14   35.10   23.84
   9  15 -15   13.39   19.14
  15   9  15   30.61   21.38
   9  15 -16  -74.57   42.36
  15   9  16   20.70   16.17
   9  15 -17   78.06   47.10
  15   9  17   55.04   33.42
   9  15 -18   11.59   34.55
  15   9  18    0.04   10.60
   9  15 -19  -14.22   26.57
  15   9  19   81.24   42.72
   9  15 -20   16.47   23.25
  15   9  20   19.51   30.60
  15   9  21   75.03   41.17
  15   9  22    1.51   14.26
  15   9  23   -0.05   28.17
  15  10 -20   59.70   40.57
  15  10 -19   68.69   45.36
  15  10 -18   21.90   32.79
  15  10 -17   13.16   27.99
  15  10 -16   19.29   22.53
  15  10 -15   -5.50   21.13
  15  10 -14   -2.65   10.71
  10  15  14    4.90    9.84
  15  10 -13   19.18   24.86
  10  15  13  -21.27   30.40
 -10  15 -13   14.93   20.61
  15  10 -12    4.14   27.41
  10  15  12  -12.54   16.94
 -10  15 -12   10.63   18.91
  15  10 -11   25.30   26.14
  10  15  11   31.76   22.42
 -10  15 -11   66.09   36.23
  15  10 -10   28.20   21.52
  10  15  10   18.15   19.55
 -10  15 -10  -16.56   20.65
  15  10  -9   34.76   16.90
  10  15   9   63.49   39.39
 -10  15  -9   45.73   26.79
  15  10  -8  159.18   56.30
 -10  15  -8   59.38   33.99
  10  15   8  102.15   46.99
  15  10  -7   55.31   39.71
 -10  15  -7   90.66   42.69
  10  15   7    1.25   13.52
  15  10  -6   27.00   25.19
 -10  15  -6   16.33   20.58
  10  15   6   27.26   27.98
  15  10  -5   67.84   37.84
 -10  15  -5   47.52   33.89
  10  15   5   33.66   33.62
  15  10  -4   25.37   28.69
 -10  15  -4   43.06   30.42
  10  15   4   58.67   42.67
  15  10  -3  207.91   55.10
 -10  15  -3  168.26   50.81
  10  15   3  110.15   44.99
  15  10  -2   45.81   27.52
 -10  15  -2   77.44   34.72
  10  15   2   96.99   47.40
  15  10  -1    5.82   13.36
 -10  15  -1   45.95   27.23
  10  15   1   18.17   32.17
  15  10   0  -13.42   20.03
  10  15   0   -3.53   15.72
  15  10   1   17.76    8.35
  10  15  -1    3.44   23.88
  15  10   2   81.99   30.57
  10  15  -2   32.75   23.58
  15  10   3  174.52   46.96
  10  15  -3   74.40   40.57
  10  15  -4  -17.85   13.55
  10  15  -5   53.95   33.76
  10  15  -6   19.48   33.01
  15  10   7   54.29   27.97
  10  15  -7  127.20   56.87
  15  10   8   52.22   26.66
  10  15  -8   99.66   47.43
  10  15  -9   37.83   17.16
  15  10   9    0.56   15.31
  10  15 -10  -10.65   24.23
  15  10  10    7.99    9.01
  10  15 -11   16.18   21.61
  15  10  11   44.13   25.04
  10  15 -12   38.01   36.67
  15  10  12  -17.56   17.66
  10  15 -13   67.62   55.97
  15  10  13   -6.86   18.45
  10  15 -14   60.82   37.05
  15  10  14   -9.18   32.91
  10  15 -15  -22.70   43.62
  15  10  15   22.36   22.78
  10  15 -16   10.36   25.36
  15  10  16   39.17   33.90
  10  15 -17  -24.19   26.23
  15  10  17   40.80   26.48
  10  15 -18  158.44   64.32
  15  10  18   63.48   37.98
  10  15 -19  121.87   59.07
  15  10  19   83.26   49.38
  15  10  20  123.76   58.48
  15  10  21   30.63   39.84
  15  10  22   54.42   41.09
  15  11 -19   29.10   34.07
  15  11 -18    3.70   23.60
  15  11 -17   16.41   33.98
  15  11 -16  -67.60   39.08
  15  11 -15   31.09   32.35
  15  11 -14    2.44   13.53
  15  11 -13   83.95   41.88
  15  11 -12   11.09   27.43
  11  15  12   19.76   19.87
  15  11 -11   -6.96   19.20
  11  15  11   34.18   29.88
 -11  15 -11   25.15   27.94
  15  11 -10   86.60   47.33
 -11  15 -10   14.52   26.52
  11  15  10   41.17   32.81
  15  11  -9   34.65   29.42
 -11  15  -9    7.72   17.84
  11  15   9   21.16   30.84
  15  11  -8   22.15   31.03
 -11  15  -8   13.16   30.21
  11  15   8   70.95   43.19
  15  11  -7   23.52   17.87
 -11  15  -7   54.75   31.72
  11  15   7   30.33   33.44
  15  11  -6   48.77   19.40
 -11  15  -6   37.64   31.71
  11  15   6    9.51   19.31
  15  11  -5   -8.97   14.79
 -11  15  -5  -21.30   26.20
  15  11  -4   39.49   23.34
 -11  15  -4   44.45   27.99
  11  15   4   65.54   40.75
  15  11  -3  -15.17   17.40
 -11  15  -3   -5.19   22.22
  11  15   3    7.66   16.67
  15  11  -2   33.72   26.10
 -11  15  -2   -4.47   12.28
  11  15   2   68.73   40.73
  15  11  -1   22.92   21.12
 -11  15  -1   20.29   13.92
  11  15   1   32.06   19.96
  15  11   0    0.40   16.73
  11  15   0   -4.09   14.76
  15  11   1   47.45   30.03
  11  15  -1   11.29   22.64
  15  11   2   20.61   22.66
  11  15  -2   31.67   21.40
  15  11   3   65.74   36.64
  11  15  -3   -9.94   16.81
  11  15  -4   43.92   21.71
  11  15  -5   -9.91   36.34
  11  15  -6  100.19   44.79
  11  15  -7   17.91   27.73
  11  15  -8   64.45   35.23
  11  15  -9   38.58   28.66
  11  15 -10   34.60   36.45
  15  11  11   50.95   26.98
  11  15 -11   89.31   45.23
  15  11  12   24.53   19.15
  11  15 -12   17.70   24.81
  15  11  13   60.88   27.74
  11  15 -13   37.25   35.54
  15  11  14   27.53   28.07
  11  15 -14   47.50   37.00
  15  11  15   44.39   32.28
  11  15 -15   10.94   11.84
  15  11  16    5.73   26.51
  11  15 -16   26.86   34.89
  15  11  17   12.71   16.33
  11  15 -17   49.25   51.26
  15  11  18    4.20   10.96
  11  15 -18   13.54   34.96
  15  11  19   63.25   37.20
  15  11  20  -65.30   38.30
  15  11  21   70.32   51.40
  15  12 -18   33.81   38.50
  15  12 -17    8.35   27.16
  15  12 -16    9.08   12.10
  15  12 -15   -4.64   14.75
  15  12 -14   10.20   15.85
  15  12 -13   13.18   32.91
  15  12 -12    0.18   11.48
  15  12 -11   80.57   44.58
  15  12 -10  -23.34   19.54
  15  12  -9    3.00   19.60
 -12  15  -9    9.04   13.67
  12  15   9   15.75   12.37
  15  12  -8    5.12   23.58
 -12  15  -8   42.65   30.53
  12  15   8  102.18   52.46
  15  12  -7   32.63   37.56
 -12  15  -7   45.68   23.17
  12  15   7   49.36   29.34
  15  12  -6    2.03   19.79
 -12  15  -6  139.24   49.78
  12  15   6   90.05   53.76
  15  12  -5   56.92   33.18
 -12  15  -5    8.76   17.77
  15  12  -4   48.95   28.62
 -12  15  -4  -33.76   24.63
  12  15   4   33.50   23.67
  15  12  -3    7.46   24.47
 -12  15  -3  -14.43   17.88
  12  15   3   11.20   17.11
  15  12  -2   18.97   18.48
 -12  15  -2    7.67   16.62
  12  15   2    4.74   30.17
  15  12  -1   66.33   37.56
 -12  15  -1   16.71   23.62
  12  15   1   65.92   44.25
  15  12   0  -10.32   14.85
  12  15   0    2.62   14.93
  15  12   1  107.39   47.98
  12  15  -1  142.79   55.44
  15  12   2   11.54   21.93
  12  15  -2    7.93   18.09
  15  12   3  -38.23   24.15
  12  15  -3    0.86   11.53
  12  15  -4   -4.13   20.70
  12  15  -5   58.95   30.43
  12  15  -6   62.38   33.48
  12  15  -7  -17.62   21.79
  12  15  -8   53.23   42.08
  12  15  -9  -19.30   22.68
  12  15 -10  -11.81   19.34
  12  15 -11   78.29   46.02
  12  15 -12   12.52   29.74
  12  15 -13   62.94   52.09
  15  12  14  -41.42   27.90
  12  15 -14   52.45   34.19
  15  12  15   82.21   42.27
  12  15 -15   -7.85   31.34
  15  12  16  -46.70   30.89
  12  15 -16  -65.64   40.91
  15  12  17   44.36   39.88
  12  15 -17   23.75   38.66
  15  12  18   23.98   32.13
  15  12  19    0.05   27.85
  15  12  20   40.50   34.74
  15  13 -17  -15.58   22.20
  15  13 -16   22.55   33.92
  15  13 -15    5.86   31.25
  15  13 -14  -34.99   29.55
  15  13 -13   32.29   39.00
  15  13 -12  -13.67   20.24
  15  13 -11  -37.13   29.56
  15  13 -10   38.11   33.33
  15  13  -9   14.40   20.23
  15  13  -8   59.63   41.82
  15  13  -7   62.04   36.36
  13  15   7  121.55   50.52
  15  13  -6   14.71    9.86
 -13  15  -6   44.16   29.22
  13  15   6   28.69   29.61
  15  13  -5   10.05   22.68
 -13  15  -5   14.15   27.35
  13  15   5   23.42   11.00
  15  13  -4   31.70   36.29
 -13  15  -4  -46.98   28.70
  13  15   4   16.40   14.40
  15  13  -3   12.10   11.60
 -13  15  -3   -6.46   17.09
  13  15   3   21.93   32.12
  15  13  -2   14.75   23.34
 -13  15  -2   51.25   28.76
  13  15   2   59.56   39.76
  15  13  -1    3.22   15.55
 -13  15  -1    9.11   17.31
  13  15   1   -9.17   15.06
  15  13   0    3.94   11.56
  13  15   0   35.04   33.49
  15  13   1  -18.50   10.49
  13  15  -1    9.54   10.74
  15  13   2   15.94   18.83
  13  15  -2  -56.53   34.16
  15  13   3   68.92   37.40
  13  15  -3   47.01   45.75
  13  15  -4    6.23   21.13
  13  15  -5  -34.60   28.12
  13  15  -6   55.11   33.80
  13  15  -7  107.73   52.16
  13  15  -8   87.77   55.25
  13  15  -9   86.18   61.91
  13  15 -10   29.72   42.67
  13  15 -11   22.81   27.24
  13  15 -12   12.50   34.63
  13  15 -13    4.43   23.47
  13  15 -14  -29.70   28.34
  13  15 -15  -71.64   42.83
  15  13  16  -12.95   18.24
  13  15 -16   27.21   43.68
  15  13  17    3.16   13.24
  15  13  18    4.31   20.83
  15  13  19    0.15   23.47
  15  14 -15    0.05   11.66
  15  14 -14   11.52   23.60
  15  14 -13   -6.02   16.32
  15  14 -12  -34.08   29.54
  15  14 -11  -50.83   34.72
  15  14 -10   29.35   30.20
  15  14  -9   40.29   25.71
  15  14  -8   42.94   31.09
  15  14  -7   74.76   45.80
  15  14  -6   37.78   36.43
  15  14  -5   42.16   30.71
  15  14  -4  -32.80   26.61
 -14  15  -4  -50.62   29.90
  15  14  -3   50.62   37.13
 -14  15  -3   17.89   19.73
  14  15   3   15.14   18.76
  15  14  -2    2.85   14.93
 -14  15  -2  -11.88   19.38
  14  15   2    6.13   25.24
  15  14  -1   16.84   27.11
 -14  15  -1   23.84   22.23
  14  15   1    1.16   24.81
  15  14   0  -11.98   14.36
  14  15   0  -24.50   18.15
  15  14   1  -28.48   23.71
  14  15  -1  -50.31   32.31
  15  14   2    3.28   21.14
  14  15  -2   -4.61   11.76
 -15  14  -2   -4.57   16.45
  14  15  -3   28.86   28.84
  14  15  -4   41.75   36.72
  14  15  -5   18.28   27.85
  14  15  -6   29.87   34.87
  14  15  -7   59.54   35.92
  14  15  -8   56.96   32.31
  14  15  -9   34.73   35.61
  14  15 -10   43.61   40.63
  14  15 -11   13.07   19.31
  14  15 -12   38.13   32.91
  14  15 -13  -21.80   24.89
  14  15 -14   -2.96   14.51
  14  15 -15   12.49   27.74
  15  14  18  -22.43   24.16
  15  15   0    0.04   17.12
  15  15   1  -15.15   19.06
  15  15  -1    0.60   14.39
 -15  15  -1   24.28   33.03
  15  15  -2   71.62   48.14
  15  15   2   21.24   18.06
  15  15  -3    9.28   16.79
  15  15  -4   20.71   29.96
  15  15  -5   82.06   45.94
  15  15  -6   15.46   20.37
  15  15  -7   50.81   52.50
  15  15  -8   39.98   43.39
  15  15  -9    0.49   18.62
  15  15 -10   -0.05   32.89
  15  15 -11  -73.90   42.25
  15  15 -12  -31.54   29.18
  15  15 -13  -63.95   40.62
   0  16   0  257.92   73.53
   0  16  -1  -48.73   29.94
   0  16   1    0.61   14.15
   0  16   2   14.34   23.16
   0  16  -2   13.33   11.88
   0  16  -3   12.89   16.43
   0  16   3   -8.66   21.20
   0  16  -4   76.41   38.48
   0  16   4   86.57   37.84
   0  16   5  -16.31   21.72
   0  16  -5   -6.28   25.42
   0  16   6   42.86   36.92
   0  16  -6  119.00   58.83
   0  16   7   51.65   35.62
   0  16  -7   18.74   18.01
   0  16  -8    3.96   24.03
   0  16  -9    1.72   20.03
   0  16 -10  -24.34   23.39
   0  16 -11  -23.86   23.33
   0  16 -12  159.61   59.13
   0  16 -13    3.57   11.93
   0  16 -14   31.93   19.98
   0  16 -15    6.09   14.17
   0  16 -16   14.67   14.22
   0  16 -17   26.71   27.71
   0  16 -18   36.43   42.58
   0  16 -19  -20.72   23.28
   0  16 -20   57.74   36.38
   0  16 -21    1.34   26.98
   0  16 -22   33.28   56.79
   0  16 -23   22.21   24.63
   0  16 -24  -32.05   29.27
   0  16 -25  -27.20   27.47
  -1  16 -25  -34.34   29.68
  -1  16 -24    1.12   11.21
  -1  16 -23   12.71   29.33
  -1  16 -22  -17.05   22.13
  -1  16 -21   16.91   35.65
  -1  16 -20   -6.34   15.81
  -1  16 -19    0.33   21.70
  -1  16 -18   24.40   37.15
  -1  16 -17   34.36   34.01
  -1  16 -16  -16.04   20.29
  -1  16 -15   35.33   38.59
  -1  16 -14   44.59   41.79
  -1  16 -13   38.27   32.52
  -1  16 -12   50.45   39.38
  -1  16 -11   25.34   22.57
  -1  16 -10  102.91   44.75
   1  16   9   -9.90   16.07
  -1  16  -9  -28.37   34.77
   1  16   8   56.72   36.73
  -1  16  -8   51.99   37.21
   1  16   7   34.38   33.00
  -1  16  -7   43.58   39.75
   1  16   6   -1.76   18.37
  -1  16  -6   11.58   12.66
   1  16   5  142.71   53.09
  -1  16  -5  107.55   51.05
  -1  16  -4   51.23   34.78
   1  16   4   63.26   33.12
   1  16   3   79.94   48.56
  -1  16  -3   17.75   21.29
  -1  16  -2   50.14   13.36
   1  16   2   91.78   44.45
   1  16   1   51.45   35.63
  -1  16  -1   46.55   33.36
   1  16   0   47.82   35.18
  -1  16   0   30.23   27.80
  -1  16   1  -19.48   13.95
   1  16  -1   27.70   35.13
   1  16  -2   51.86   27.07
  -1  16   2   32.36   28.07
   1  16  -3   80.51   43.41
  -1  16   3    4.22   19.79
  -1  16   4   74.55   37.54
   1  16  -4   29.04   28.90
  -1  16   5  151.68   57.90
   1  16  -5  165.23   57.84
  -1  16   6   19.32   19.78
   1  16  -6    0.57   19.50
   1  16  -7   -0.08   10.56
   1  16  -8  -25.27   23.93
   1  16  -9   30.57   22.67
   1  16 -10   52.80   28.92
   1  16 -11   60.28   39.32
   1  16 -12    8.53   17.00
   1  16 -13   65.68   40.40
   1  16 -14   26.56   22.70
   1  16 -15   19.99   20.79
   1  16 -16    8.73   14.46
   1  16 -17  -22.81   24.20
   1  16 -18   23.92   33.83
   1  16 -19   -4.36   14.24
   1  16 -20  -11.32   18.80
   1  16 -21  -23.16   24.91
   1  16 -22   47.63   38.73
   1  16 -23   19.15   26.12
   1  16 -24   32.95   39.48
  -2  16 -26    2.11   12.82
  -2  16 -25   17.28   24.26
  -2  16 -24  -37.24   30.58
  -2  16 -23    2.60   12.69
  -2  16 -22   91.78   54.30
  -2  16 -21   57.34   39.77
  -2  16 -20   23.26   27.31
  -2  16 -19   21.58   18.13
  -2  16 -18   21.32   31.42
  -2  16 -17   20.11   17.59
  -2  16 -16    7.03   19.99
  -2  16 -15   11.48   32.60
  -2  16 -14   10.45   41.04
  -2  16 -13    4.43   18.85
  -2  16 -12  -46.99   31.24
  -2  16 -11   76.18   40.46
   2  16  10   44.45   32.08
  -2  16 -10   11.35   16.84
   2  16   9  103.74   42.47
  -2  16  -9  119.09   48.88
   2  16   8   11.57   27.56
  -2  16  -8   83.90   47.60
   2  16   7   22.08   27.33
  -2  16  -7   38.56   40.53
  -2  16  -6  201.87   64.61
   2  16   6  183.19   57.28
   2  16   5   23.00   19.80
  -2  16  -5   43.62   34.95
   2  16   4   77.20   38.00
  -2  16  -4   59.24   39.09
  -2  16  -3   -1.57   17.97
   2  16   3   51.23   31.39
   2  16   2    5.46   15.81
  -2  16  -2   32.20   17.04
   2  16   1   52.28   29.31
  -2  16  -1   17.36   21.74
  -2  16   0  -15.41   20.96
   2  16   0    7.05   26.43
   2  16  -1   -1.72   12.12
  -2  16   1   29.65   14.42
  -2  16   2   -0.89   18.89
   2  16  -2    5.56   15.82
  -2  16   3   58.88   34.93
   2  16  -3   70.07   37.90
  -2  16   4   85.14   40.09
   2  16  -4  104.69   48.94
  -2  16   5   49.37   29.72
   2  16  -5   12.34   24.52
   2  16  -6  173.41   68.36
   2  16  -7   19.36   12.41
   2  16  -8   47.98   49.86
   2  16  -9   81.25   46.06
   2  16 -10   -3.20   14.61
   2  16 -11  100.16   51.22
   2  16 -12   24.34   25.26
   2  16 -13    9.77   22.75
   2  16 -14  -39.16   29.97
   2  16 -15  -25.44   25.31
   2  16 -16   64.65   44.95
   2  16 -17   47.80   43.08
   2  16 -18   -5.90   18.72
   2  16 -19   64.65   42.68
   2  16 -20    6.32   17.61
   2  16 -21   17.14   22.30
   2  16 -22  122.64   62.31
   2  16 -23   18.68   40.96
   2  16 -24    9.90   41.21
  -3  16 -26    1.16   11.00
  -3  16 -25   13.74   20.03
  -3  16 -24   29.63   35.02
  -3  16 -23  -17.66   21.79
  -3  16 -22   20.63   29.99
  -3  16 -21   70.18   44.73
  -3  16 -20   52.78   45.37
  -3  16 -19   28.44   34.52
  -3  16 -18   64.37   44.23
  -3  16 -17   12.94   22.37
  -3  16 -16    9.81   11.26
  -3  16 -15   37.65   20.13
  -3  16 -14   -3.29   12.08
  -3  16 -13  -10.39   27.12
   3  16  12   92.08   51.99
  -3  16 -12  105.23   47.67
   3  16  11  -31.31   25.75
  -3  16 -11   19.78   32.48
   3  16  10   93.97   42.70
  -3  16 -10   32.13   27.27
   3  16   9   40.29   16.87
  -3  16  -9   78.05   42.54
   3  16   8  203.76   60.06
  -3  16  -8  161.28   56.57
  -3  16  -7   93.73   50.91
   3  16   7   73.14   48.58
  -3  16  -6   36.26   28.19
   3  16   6   87.17   51.85
  -3  16  -5   64.29   44.10
   3  16   5   76.66   46.66
  -3  16  -4   67.51   26.53
   3  16   4   73.99   39.36
   3  16   3   22.71   15.15
  -3  16  -3  -12.34   20.56
   3  16   2   25.64   15.01
  -3  16  -2   12.51   11.57
  -3  16  -1  -14.95   20.29
   3  16   1  -12.09   17.48
   3  16   0   18.38   25.38
  -3  16   0    5.67   18.08
   3  16  -1   27.21   26.87
  -3  16   1    6.20   14.26
  -3  16   2  -18.91   21.54
   3  16  -2   -8.08   29.01
  -3  16   3   18.49   20.14
   3  16  -3   29.15   28.22
  -3  16   4  125.95   48.85
   3  16  -4  137.29   48.82
   3  16  -5  115.72   63.88
   3  16  -6    9.28   19.71
   3  16  -7  192.64   76.43
   3  16  -8  200.53   61.63
   3  16  -9  155.24   58.31
   3  16 -10   49.23   35.90
   3  16 -11   27.91   23.25
   3  16 -12   51.75   38.94
   3  16 -13   42.53   25.56
   3  16 -14   -2.66   29.12
   3  16 -15    7.27   14.48
   3  16 -16  -33.61   29.02
   3  16 -17   41.91   26.72
   3  16 -18   37.86   44.64
   3  16 -19   18.32   29.70
   3  16 -20   61.27   40.36
   3  16 -21   74.23   48.91
   3  16 -22   70.80   51.61
   3  16 -23    1.30   22.03
  -4  16 -24   17.54   30.75
  -4  16 -23   50.36   49.31
  -4  16 -22   15.10   28.32
  -4  16 -21   44.93   36.02
  -4  16 -20   95.01   43.84
  -4  16 -19   49.83   45.58
  -4  16 -18    0.18   18.05
  -4  16 -17    8.82   14.91
  -4  16 -16    9.95   15.12
  -4  16 -15   24.35   14.17
   4  16  14    5.93   25.98
  -4  16 -14  -29.48   36.67
   4  16  13   12.78   32.08
  -4  16 -13   41.40   30.81
   4  16  12    7.39   14.55
  -4  16 -12   32.91   34.68
   4  16  11   52.50   34.14
  -4  16 -11  -25.51   27.88
   4  16  10    9.45   29.31
  -4  16 -10   39.80   25.20
   4  16   9  -20.70   16.24
  -4  16  -9   14.27   24.34
   4  16   8  256.92   73.98
  -4  16  -8  371.87   85.71
   4  16   7    2.89   32.09
  -4  16  -7  -50.02   27.16
  -4  16  -6  112.31   56.94
   4  16   6  101.89   49.82
  -4  16  -5   35.42   35.79
   4  16   5   43.48   29.72
   4  16   4   61.88   33.34
  -4  16  -4  123.13   45.72
  -4  16  -3  102.62   46.85
   4  16   3   83.15   42.15
  -4  16  -2   16.17   12.72
   4  16   2   67.60   39.04
   4  16   1    1.94   10.33
  -4  16  -1  -26.67   27.14
   4  16   0   -3.44   16.76
  -4  16   0   27.58   24.66
  -4  16   1   24.92   13.91
   4  16  -1   15.43   20.85
  -4  16   2  -28.04   26.76
   4  16  -2   54.57   41.03
  -4  16   3  112.27   49.61
   4  16  -3   69.43   40.98
   4  16  -4   97.50   58.07
   4  16  -5   65.22   38.58
   4  16  -6  245.40   83.44
   4  16  -7  -16.14   16.68
   4  16  -8  270.54   74.51
   4  16  -9   16.34   23.88
   4  16 -10   12.91   16.90
   4  16 -11   -9.31   14.93
   4  16 -12   25.82   20.99
   4  16 -13   -9.94   21.62
   4  16 -14   26.19   25.89
  16   4  15   65.22   35.13
   4  16 -15   14.11   11.50
  16   4  16   -8.54   16.42
   4  16 -16   24.70   28.50
  16   4  17  105.43   43.20
   4  16 -17   33.65   23.76
  16   4  18  -25.56   23.04
   4  16 -18   11.41   35.31
   4  16 -19   35.74   41.68
   4  16 -20  124.39   59.37
   4  16 -21   24.98   27.55
   4  16 -22   27.62   33.19
  -5  16 -23    0.05   17.26
  -5  16 -22  -33.23   27.78
  -5  16 -21   65.94   47.67
  -5  16 -20   45.32   44.62
  -5  16 -19   62.18   43.10
  -5  16 -18   22.95   17.58
  -5  16 -17   -0.48   31.76
   5  16  16    5.72   24.63
  -5  16 -16   30.27   33.67
   5  16  15   25.49   24.63
  -5  16 -15   48.83   34.33
   5  16  14   10.94   13.08
  -5  16 -14   94.40   49.16
   5  16  13   29.57   22.00
  -5  16 -13   20.21   11.78
   5  16  12   11.97   31.59
  -5  16 -12   55.29   35.73
   5  16  11   90.09   44.08
  -5  16 -11    3.56   17.41
   5  16  10   52.07   40.12
  -5  16 -10   30.46   30.53
   5  16   9   39.24   28.79
  -5  16  -9   24.17   32.29
   5  16   8   42.70   32.47
  -5  16  -8   29.52   30.32
  -5  16  -7   68.46   44.02
   5  16   7   25.89   27.60
  -5  16  -6   27.28   24.63
   5  16   6    9.15   24.19
   5  16   5   25.72   30.71
  -5  16  -5   11.30   17.23
  -5  16  -4  -31.98   24.61
   5  16   4   58.93   36.77
  -5  16  -3   65.38   35.15
   5  16   3  140.76   53.84
  -5  16  -2   14.84   21.34
   5  16   2   68.01   32.20
  -5  16  -1    3.76   14.45
   5  16   1   -1.86   14.32
  -5  16   0   -7.17    9.40
   5  16   0   28.12   25.94
  -5  16   1   38.06   31.32
   5  16  -1   19.38   25.41
  -5  16   2   -7.72   10.84
   5  16  -2   40.87   37.15
  -5  16   3  230.29   66.04
   5  16  -3  161.35   68.78
   5  16  -4   97.16   51.19
   5  16  -5  118.50   59.87
   5  16  -6    1.80   16.12
   5  16  -7   85.75   45.87
  16   5   8   27.56   17.83
   5  16  -8   49.21   30.35
  16   5   9    9.19    7.11
   5  16  -9   28.22   23.46
  16   5  10   45.70   22.09
   5  16 -10  -18.55   23.23
  16   5  11   12.02   21.41
   5  16 -11   -0.05   11.00
  16   5  12   25.39   18.70
   5  16 -12    6.21   27.73
  16   5  13   41.52   21.28
   5  16 -13    0.05   22.48
  16   5  14   65.23   28.62
   5  16 -14   29.81   39.81
  16   5  15   86.31   38.16
   5  16 -15   35.36   47.85
  16   5  16   78.93   38.75
   5  16 -16  -26.98   32.54
  16   5  17  -15.75   14.28
   5  16 -17   -3.46   14.34
  16   5  18   15.56   30.30
   5  16 -18  -15.82   19.49
  16   5  19  104.42   51.08
   5  16 -19   83.54   59.58
  16   5  20   -9.38   16.36
   5  16 -20   87.10   53.02
  16   5  21  -11.67   18.26
   5  16 -21  -53.79   37.33
  16   5  22   10.14   33.13
   5  16 -22   84.13   57.11
  16   5  23  -30.64   28.08
  16   5  24   17.57   25.84
  -6  16 -21    2.17   11.59
  -6  16 -20  -13.46   21.64
   6  16  19    2.61   24.43
  -6  16 -19  -36.55   28.15
   6  16  18  -32.81   27.52
  -6  16 -18  -33.97   27.46
   6  16  17   17.53   28.20
  -6  16 -17   23.99   24.33
   6  16  16   27.66   23.14
  -6  16 -16   -3.53   12.73
   6  16  15   72.77   41.28
  -6  16 -15    3.67   20.27
   6  16  14  138.12   56.58
  -6  16 -14  164.17   60.35
   6  16  13   -2.37   26.36
  -6  16 -13  -58.24   33.80
   6  16  12  -14.77   19.55
  -6  16 -12   47.44   34.00
  16   6 -11   27.95   30.91
   6  16  11   19.04   19.19
  -6  16 -11   24.38   18.87
  16   6 -10   17.26   10.77
   6  16  10   38.24   26.44
  -6  16 -10   17.73   16.19
  16   6  -9    8.85   15.31
   6  16   9   13.44   12.60
  -6  16  -9   49.95   31.09
  -6  16  -8   86.25   41.17
   6  16   8   85.85   39.85
  16   6  -8   40.09   25.47
   6  16   7    8.63   16.93
  -6  16  -7   -3.93    9.52
  16   6  -7  -17.72   20.51
   6  16   6   35.78   39.29
  -6  16  -6  112.68   48.18
  16   6  -6   68.11   36.83
  -6  16  -5   58.91   34.42
   6  16   5   41.76   28.64
  16   6  -5   94.43   38.37
  -6  16  -4  -12.30   16.60
   6  16   4   41.74   24.25
  16   6  -4   60.61   30.47
   6  16   3   42.36   17.66
  -6  16  -3   16.07   17.67
  16   6  -3   47.45   22.22
  16   6  -2  203.53   47.14
  -6  16  -2  149.06   54.42
   6  16   2  206.54   62.12
  16   6  -1   13.98   14.70
  -6  16  -1   11.73   16.97
   6  16   1   11.60   23.24
  16   6   0   96.95   30.41
  -6  16   0   89.98   44.36
   6  16   0  184.15   68.30
  16   6   1   14.09   15.39
  -6  16   1   25.44   17.19
   6  16  -1    6.35   19.83
  -6  16   2  195.76   64.93
   6  16  -2  279.03   81.50
   6  16  -3   27.83   16.69
   6  16  -4   53.57   39.44
   6  16  -5   70.43   42.89
  16   6   6  130.21   35.20
   6  16  -6  110.91   54.87
  16   6   7  -18.45   16.88
   6  16  -7    4.82   17.12
  16   6   8   69.92   25.94
   6  16  -8   32.14   24.49
  16   6   9   11.33   11.46
   6  16  -9   55.07   39.36
  16   6  10   37.26   26.26
   6  16 -10   33.03   22.22
  16   6  11   53.63   26.38
   6  16 -11  -59.30   36.51
  16   6  12   65.43   34.33
   6  16 -12  118.70   63.85
  16   6  13  -15.08   18.01
   6  16 -13   -9.56   16.43
   6  16 -14  230.26   81.87
  16   6  14  148.50   48.60
   6  16 -15   76.91   45.19
  16   6  15   60.65   31.08
   6  16 -16    8.60   21.09
  16   6  16    5.16   13.93
   6  16 -17  -55.23   37.26
  16   6  17   24.43   22.27
   6  16 -18   14.86   21.51
  16   6  18  -26.12   23.40
   6  16 -19   44.70   34.82
  16   6  19   -1.47    9.28
   6  16 -20   15.19   22.04
  16   6  20  -15.10   19.71
   6  16 -21   36.36   34.30
  16   6  21    7.83   15.80
  16   6  22  -39.17   30.50
  16   6  23   15.38   35.46
   7  16  20   70.72   45.71
   7  16  19   -4.03   13.61
  -7  16 -19   42.04   41.38
   7  16  18   11.99   11.18
  -7  16 -18   41.77   33.89
   7  16  17  -36.09   28.11
  -7  16 -17    4.49   17.40
   7  16  16   22.73   27.47
  -7  16 -16  110.81   47.89
  16   7 -15   65.51   38.79
   7  16  15   26.53   30.65
  -7  16 -15   15.65   19.45
  16   7 -14   25.29   33.05
   7  16  14   68.36   34.70
  -7  16 -14    1.02   10.04
  16   7 -13   39.21   31.18
   7  16  13   26.29   19.84
  -7  16 -13    8.98   13.53
  16   7 -12   19.86   21.47
   7  16  12   19.35   21.05
  -7  16 -12    9.04   10.31
  16   7 -11   48.49   35.87
   7  16  11    3.13   12.17
  -7  16 -11   -6.31   25.85
  16   7 -10    0.03   23.70
   7  16  10   -2.21   23.65
  -7  16 -10   14.02   18.69
  16   7  -9   63.82   36.75
   7  16   9   64.14   38.68
  -7  16  -9  130.00   55.68
  16   7  -8  -40.19   28.32
  -7  16  -8    4.94   12.66
   7  16   8    6.87   22.64
  16   7  -7   48.27   31.18
  -7  16  -7   70.06   43.04
   7  16   7   41.15   22.09
  16   7  -6   17.87   10.44
   7  16   6   -3.77   11.34
  16   7  -5  128.49   40.24
  -7  16  -5   46.46   32.68
   7  16   5  110.72   48.66
  16   7  -4   59.83   29.92
   7  16   4   92.39   40.22
  -7  16  -4   51.19   37.56
  16   7  -3   66.44   28.86
  -7  16  -3   42.77   31.69
   7  16   3   91.47   46.27
  16   7  -2   13.62   21.99
  -7  16  -2   41.93   28.72
   7  16   2   38.60   38.04
  16   7  -1   99.93   37.17
  -7  16  -1  100.39   45.23
   7  16   1   73.84   48.53
  16   7   0  164.89   38.27
  -7  16   0   74.53   45.25
   7  16   0  156.33   55.51
  16   7   1   75.22   30.16
  -7  16   1   68.88   32.13
   7  16  -1   66.19   43.11
   7  16  -2   34.54   37.70
   7  16  -3   45.87   37.35
   7  16  -4   23.53   29.34
   7  16  -5  191.26   65.81
   7  16  -6  -15.82   19.45
  16   7   7   61.42   26.44
   7  16  -7   26.62   34.07
  16   7   8  -10.87   15.17
   7  16  -8   31.28   39.92
  16   7   9   88.63   33.39
   7  16  -9   61.85   52.84
  16   7  10   16.57   16.16
   7  16 -10   25.85   29.71
  16   7  11   27.90   20.35
   7  16 -11    8.30   30.97
  16   7  12   43.93   29.84
   7  16 -12   36.72   39.73
   7  16 -13   31.33   31.95
  16   7  13   -6.93   18.82
   7  16 -14    0.05   21.57
  16   7  14   50.49   32.63
   7  16 -15   11.88   32.59
  16   7  15   24.92   33.97
   7  16 -16    5.75   30.03
  16   7  16   68.94   37.76
   7  16 -17   36.62   35.69
  16   7  17   11.49   15.23
   7  16 -18   14.81   30.25
  16   7  18   17.59   35.79
   7  16 -19   50.89   44.90
  16   7  19  -53.53   33.17
   7  16 -20    7.38   34.18
  16   7  20    6.80   12.98
  16   7  21   10.49   16.67
  16   7  22   35.24   37.28
  16   7  23   13.27   37.21
  16   8 -18    7.39   25.92
   8  16  18   -9.65   16.88
  16   8 -17   38.39   35.08
   8  16  17  103.03   51.32
  -8  16 -17   53.29   37.76
  16   8 -16   28.64   32.32
   8  16  16   27.45   33.04
  -8  16 -16   20.11   16.09
  16   8 -15   41.04   34.13
   8  16  15   28.44   35.08
  -8  16 -15   26.54   25.59
  16   8 -14   33.60   30.98
   8  16  14  -33.15   26.62
  -8  16 -14  -14.89   18.67
  16   8 -13   23.82   25.58
   8  16  13   30.00   34.96
  -8  16 -13  -33.79   29.12
  16   8 -12    6.00   26.50
   8  16  12   18.54   12.45
  -8  16 -12  -14.57   19.55
  16   8 -11    5.74   10.88
  -8  16 -11   22.31   16.24
  16   8 -10  -13.51   18.32
   8  16  10    1.05   22.79
  -8  16 -10  -12.60   14.10
  16   8  -9   26.43   25.99
  -8  16  -9    0.54   13.64
  16   8  -8  170.56   57.09
   8  16   8  138.12   52.48
  -8  16  -8  139.74   54.69
  16   8  -7    8.45   18.41
  -8  16  -7   -1.43   16.13
   8  16   7   -4.66   15.68
  16   8  -6   55.45   30.05
  -8  16  -6   23.77   23.21
   8  16   6   41.08   26.98
  16   8  -5   47.96   27.39
  -8  16  -5   36.72   32.96
   8  16   5   26.50   30.05
  16   8  -4  100.56   41.52
  -8  16  -4  125.59   52.92
   8  16   4   94.10   47.34
  16   8  -3   87.86   35.89
  -8  16  -3   27.45   20.81
   8  16   3   81.49   48.87
  16   8  -2  119.22   40.08
  -8  16  -2   96.19   38.01
   8  16   2   72.63   48.61
  16   8  -1   19.06   21.43
  -8  16  -1  -10.13   18.26
   8  16   1   38.47   26.88
  16   8   0   50.88   19.68
  -8  16   0   17.49   20.47
   8  16   0   48.05   28.79
  16   8   1    4.52   12.46
  -8  16   1   12.74   16.70
   8  16  -1   48.40   34.97
   8  16  -2  155.84   57.02
   8  16  -3   63.93   33.26
   8  16  -4  167.85   64.82
   8  16  -5   59.51   29.54
   8  16  -6   45.73   41.18
   8  16  -7  -14.88   24.63
   8  16  -8  130.32   65.25
  16   8   9    6.04   18.44
   8  16  -9   11.21   28.06
  16   8  10   26.52   22.05
   8  16 -10    4.42   11.11
  16   8  11  -13.64   20.88
   8  16 -11    0.58   12.38
   8  16 -12   60.50   42.62
  16   8  12   11.59    9.04
   8  16 -13   22.45   29.68
  16   8  13   20.18   23.98
   8  16 -14    2.62   16.00
  16   8  14   -0.70   17.89
   8  16 -15   26.11   37.65
  16   8  15   52.05   33.26
   8  16 -16  -17.80   28.55
  16   8  16   44.29   36.09
   8  16 -17   82.97   62.33
  16   8  17   47.64   18.97
   8  16 -18   20.68   32.00
  16   8  18    8.98   17.18
   8  16 -19   27.08   28.16
  16   8  19   53.16   42.36
  16   8  20   47.97   35.00
  16   8  21   13.22   42.81
  16   8  22  -10.58   18.25
  16   9 -20   88.79   59.32
  16   9 -19   35.24   48.95
  16   9 -18   34.40   37.69
  16   9 -17   99.98   44.43
  16   9 -16   24.91   27.12
   9  16  16   58.87   40.26
  16   9 -15  -13.41   18.71
   9  16  15   -6.26   14.52
  -9  16 -15   25.07   31.23
  16   9 -14   -3.74   12.58
   9  16  14   -9.14   13.53
  -9  16 -14    9.88   11.79
  16   9 -13    9.80   16.46
   9  16  13   41.97   27.56
  -9  16 -13   70.59   42.50
  16   9 -12   11.04   21.31
   9  16  12  -19.45   20.96
  -9  16 -12   -8.45   28.95
  16   9 -11    2.56   11.23
   9  16  11   -6.07   10.85
  -9  16 -11    2.89   18.49
  16   9 -10   31.04   26.17
   9  16  10   16.65   13.25
  -9  16 -10   26.13   27.32
  16   9  -9   22.36   24.87
  -9  16  -9   25.79   31.12
   9  16   9    5.57   17.70
  16   9  -8    8.39    8.65
  -9  16  -8   36.36   24.07
   9  16   8   45.75   36.42
  16   9  -7  119.55   46.90
   9  16   7  139.53   54.62
  -9  16  -7   89.39   43.97
  -9  16  -6   41.09   28.69
   9  16   6   19.74   23.12
  16   9  -5  104.36   38.80
  -9  16  -5   70.18   35.61
   9  16   5   65.32   45.21
  16   9  -4  139.47   47.43
  -9  16  -4  167.23   57.28
   9  16   4   82.02   44.45
  16   9  -3   99.87   40.80
  -9  16  -3   49.51   34.00
   9  16   3   67.57   41.66
  16   9  -2   75.81   33.23
  -9  16  -2   44.62   29.71
   9  16   2  105.96   51.48
  16   9  -1   30.01   21.17
  -9  16  -1   27.40   21.48
   9  16   1   21.09   26.11
  16   9   0    0.84    7.64
  -9  16   0    6.11   17.87
   9  16   0   42.03   42.38
  16   9   1    3.17   15.61
  -9  16   1   52.49   35.16
   9  16  -1   65.67   37.31
   9  16  -2  107.96   47.90
   9  16  -3  102.80   55.50
   9  16  -4  151.83   50.62
   9  16  -5   56.92   38.74
   9  16  -6   58.26   42.44
   9  16  -7  126.36   54.05
   9  16  -8   93.97   45.32
   9  16  -9   36.69   32.62
  16   9  10   15.98   13.66
   9  16 -10   45.11   33.58
   9  16 -11   94.30   49.30
  16   9  11  -28.32   20.54
   9  16 -12   31.05   27.32
  16   9  12   -2.59   21.11
   9  16 -13   17.58   24.96
  16   9  13    9.68   19.21
   9  16 -14   33.17   35.30
  16   9  14  -22.39   20.41
   9  16 -15    2.11   12.52
  16   9  15    8.38   22.87
   9  16 -16   10.30   22.20
  16   9  16   48.24   36.01
   9  16 -17   30.14   40.71
  16   9  17   10.49   28.84
   9  16 -18   14.05   24.61
  16   9  18   51.36   38.79
  16   9  19   12.26   21.73
  16   9  20   73.68   46.23
  16   9  21  -17.37   22.06
  16   9  22  117.35   54.57
  16  10 -19   10.88   24.96
  16  10 -18   12.18   25.89
  16  10 -17  -45.30   32.86
  16  10 -16  -44.98   32.18
  16  10 -15    1.69   19.70
  16  10 -14   13.53   19.67
  10  16  14  -23.12   28.82
  16  10 -13   21.93   28.09
  10  16  13    0.04   25.26
 -10  16 -13    2.98   15.41
  16  10 -12   22.48   26.27
  10  16  12   27.75   28.86
 -10  16 -12  -18.47   13.86
  16  10 -11   25.76   29.66
  10  16  11   -2.58   21.37
 -10  16 -11   12.79   16.47
  16  10 -10   52.57   38.03
  10  16  10   40.07   38.75
 -10  16 -10   33.69   25.56
  16  10  -9   81.34   45.36
 -10  16  -9   22.50   20.55
  10  16   9   18.27   43.39
  16  10  -8   14.19   26.86
 -10  16  -8   23.87   23.05
  10  16   8   66.37   37.53
  16  10  -7   24.48   21.51
 -10  16  -7   -1.47   11.71
  10  16   7   40.14   40.79
  16  10  -6  160.26   54.12
 -10  16  -6  237.98   69.36
  10  16   6  117.88   60.03
  16  10  -5   -0.63   10.68
 -10  16  -5    6.93   16.15
  10  16   5   45.51   40.95
  16  10  -4   49.62   24.96
 -10  16  -4   -6.64   10.44
  10  16   4   53.13   32.55
  16  10  -3   68.85   33.05
 -10  16  -3   98.69   42.55
  10  16   3   51.44   36.48
  16  10  -2   88.51   32.98
 -10  16  -2   63.58   36.79
  10  16   2   39.31   34.26
  16  10  -1   18.61    7.53
 -10  16  -1  -17.87   19.58
  10  16   1   25.78   26.88
  16  10   0    5.83   10.77
 -10  16   0  -35.09   26.39
  10  16   0   16.28   30.41
  16  10   1   24.88   25.99
  10  16  -1   17.91   28.51
  10  16  -2  113.57   56.41
  10  16  -3   76.30   45.23
  10  16  -4   28.22   20.39
  10  16  -5  -71.87   39.83
  10  16  -6  288.75   82.27
  10  16  -7    6.82   22.16
  10  16  -8   65.35   42.59
  10  16  -9  234.96   73.24
  10  16 -10   31.48   36.48
  10  16 -11   -4.87   17.86
  16  10  12   12.13    8.57
  10  16 -12   38.44   34.33
  16  10  13   17.42   24.96
  10  16 -13   34.13   36.99
  16  10  14   13.56    9.32
  10  16 -14   12.24   33.14
  16  10  15   34.54   30.34
  10  16 -15    1.92   19.83
  16  10  16   19.59   30.15
  10  16 -16   26.73   21.46
  16  10  17   13.63   11.81
  10  16 -17   10.37   32.86
  16  10  18   13.83   20.38
  16  10  19   34.76   43.65
  16  10  20   40.59   38.23
  16  10  21    0.39   10.39
  16  11 -18   51.34   56.93
  16  11 -17    6.43   29.83
  16  11 -16   38.44   41.37
  16  11 -15   11.22   18.33
  16  11 -14  -25.09   24.91
  16  11 -13  -38.94   29.50
  16  11 -12   13.86   19.87
  16  11 -11   30.38   34.11
  11  16  11   37.12   39.67
 -11  16 -11   41.62   34.68
  16  11 -10   32.96   21.93
 -11  16 -10    3.93    9.54
  11  16  10   45.12   29.64
  16  11  -9    0.55   22.19
 -11  16  -9   -0.57   11.02
  16  11  -8   16.28   23.67
 -11  16  -8   29.79   30.50
  11  16   8    6.84   34.16
  16  11  -7  108.62   47.89
 -11  16  -7  107.21   47.31
  11  16   7   60.57   42.62
  16  11  -6   -3.48   16.10
 -11  16  -6    9.37   24.38
  11  16   6   14.97   14.21
  16  11  -5   18.95   13.18
 -11  16  -5   90.77   44.12
  11  16   5   52.29   32.50
  16  11  -4    9.54   27.11
 -11  16  -4    4.44   12.57
  11  16   4   29.38   37.95
  16  11  -3   61.95   28.98
 -11  16  -3   62.56   36.04
  11  16   3  102.43   44.94
  16  11  -2   -1.10   19.34
 -11  16  -2   24.92   26.99
  11  16   2    4.17   26.74
  16  11  -1  -13.20   15.68
 -11  16  -1   10.95   12.77
  11  16   1   14.87   24.35
  16  11   0   34.56   18.76
 -11  16   0   38.45   35.33
  11  16   0   95.88   45.20
  16  11   1   13.25   10.53
  11  16  -1   23.02   24.98
  11  16  -2   -7.01   15.13
  11  16  -3   53.65   33.49
  11  16  -4    1.43   20.03
  11  16  -5   33.01   24.48
  11  16  -6  -23.35   31.96
  11  16  -7   85.69   47.42
  11  16  -8  -48.33   34.23
  11  16  -9  115.80   58.48
  11  16 -10   28.89   32.13
  11  16 -11   49.53   41.47
  11  16 -12  -52.44   36.66
  16  11  13  -53.60   30.40
  11  16 -13    8.83   14.32
  16  11  14    0.30   10.53
  11  16 -14   -7.39   17.31
  16  11  15   20.13   22.84
  11  16 -15   59.79   46.24
  16  11  16   18.64   19.20
  11  16 -16   11.92   15.45
  16  11  17   23.25   20.09
  16  11  18   23.79   29.63
  16  11  19    7.92   25.21
  16  11  20   10.86   26.26
  16  11  21  -22.73   24.76
  16  12 -17   32.46   31.74
  16  12 -16   40.90   31.53
  16  12 -15    3.12   13.92
  16  12 -14   12.25   28.67
  16  12 -13   42.04   31.15
  16  12 -12   30.19   42.46
  16  12 -11    4.69   14.07
  16  12 -10    7.58   21.16
  16  12  -9   59.99   39.78
  12  16   9   12.71   23.13
  16  12  -8   62.91   49.32
 -12  16  -8    8.25   26.93
  12  16   8   24.52   27.12
  16  12  -7  -66.96   35.82
 -12  16  -7   -7.34   22.19
  12  16   7   43.29   41.47
  16  12  -6   88.64   41.59
 -12  16  -6  146.65   51.81
  12  16   6   93.91   46.65
  16  12  -5    7.32   15.56
 -12  16  -5   22.15   24.26
  16  12  -4  -11.03   13.36
 -12  16  -4   12.01   10.71
  12  16   4    2.76   21.06
  16  12  -3  -63.36   32.97
 -12  16  -3  -16.20   28.89
  12  16   3   12.16   21.90
  16  12  -2   -2.78   19.13
 -12  16  -2  -27.96   33.42
  12  16   2  -14.35   25.16
  16  12  -1   79.33   38.24
 -12  16  -1   37.42   26.21
  12  16   1   26.45   26.97
  16  12   0  116.52   54.04
 -12  16   0  108.88   49.72
  12  16   0  117.46   50.61
  12  16  -1   35.28   26.89
  12  16  -2   55.64   34.58
  12  16  -3  -49.70   33.48
  12  16  -4  -74.20   40.72
  12  16  -5   32.24   19.52
  12  16  -6   63.21   37.34
  12  16  -7   40.36   31.43
  12  16  -8   37.00   36.68
  12  16  -9   77.93   48.88
  12  16 -10  -38.37   31.48
  12  16 -11   38.94   35.60
  12  16 -12   37.54   57.07
  12  16 -13    4.21   26.07
  12  16 -14   -7.69   17.71
  12  16 -15  -41.25   33.97
  16  12  16    9.01   23.23
  16  12  17   41.16   52.72
  16  12  18  -54.93   34.81
  16  12  19   23.51   31.57
  16  12  20    0.05   42.24
  16  13 -15   13.12   30.54
  16  13 -14   -1.00   11.50
  16  13 -13   11.31   27.71
  16  13 -12   17.25   26.73
  16  13 -11   59.76   40.96
  16  13 -10    0.05   16.85
  16  13  -9  -43.92   31.19
  16  13  -8    9.24   25.78
  16  13  -7   87.33   47.69
  13  16   7   60.52   40.44
  16  13  -6   -4.57   17.38
 -13  16  -6   21.02   21.04
  13  16   6    8.81   19.16
  16  13  -5   50.65   29.72
 -13  16  -5   54.98   33.37
  13  16   5    5.44   15.97
  16  13  -4    3.78   14.33
 -13  16  -4   42.35   34.40
  13  16   4   43.17   40.32
  16  13  -3    3.76   17.04
 -13  16  -3    8.75   17.40
  13  16   3  -18.84   21.51
  16  13  -2    0.98   18.66
 -13  16  -2    1.83   14.14
  13  16   2   27.15   32.99
  16  13  -1   -0.11   16.16
 -13  16  -1  -28.74   24.16
 -13  16   0   12.29   29.76
  13  16   0   33.21   26.76
  13  16  -1  -31.97   27.52
  13  16  -2   24.96   13.11
  13  16  -3   10.44   26.98
  13  16  -4   33.67   32.89
  13  16  -5   49.10   41.00
  13  16  -6   26.95   36.00
  13  16  -7  109.30   55.53
  13  16  -8    0.05   37.36
  13  16  -9    2.86   27.64
  13  16 -10  -23.70   25.66
  13  16 -11    8.32   26.60
  13  16 -12   59.75   57.26
  13  16 -13   11.18   18.56
  13  16 -14   21.31   25.34
  16  13  19  -20.66   23.69
  16  14 -14    3.28   28.05
  16  14 -13    0.05   40.23
  16  14 -12   15.35   34.80
  16  14 -11  -15.12   21.39
  16  14 -10    7.26   38.12
  16  14  -9   -8.01   16.94
  16  14  -8  -50.16   33.74
  16  14  -7  -29.63   26.24
  16  14  -6   20.11   19.30
  16  14  -5   42.75   34.51
  16  14  -4   -4.16   12.79
  14  16   4  -16.64   15.87
  16  14  -3   -3.50   19.05
 -14  16  -3   29.63   24.40
  14  16   3   23.32   28.19
  16  14  -2  -53.55   32.43
 -14  16  -2   35.99   29.19
  14  16   2  -16.03   25.09
  16  14  -1   14.87   11.51
 -14  16  -1  -32.00   28.15
  14  16   1   15.10   21.97
 -14  16   0  -61.14   34.73
  14  16   0    1.53   11.41
  14  16  -1  -12.25   19.21
  14  16  -2   14.74   27.47
  14  16  -3  -12.95   24.04
  14  16  -4   12.16   17.50
  14  16  -5   22.30   45.41
  14  16  -6   62.25   51.13
  14  16  -7  -19.99   23.61
  14  16  -8   39.90   49.28
  14  16  -9   50.31   43.52
  14  16 -10    9.19   32.78
  14  16 -11  -43.81   34.16
  14  16 -12    0.05   19.83
  14  16 -13  -21.42   25.35
  16  15 -12  -61.73   39.96
  16  15 -11    7.62   31.22
  16  15 -10   15.03   21.28
  16  15  -9    1.25   19.64
  16  15  -8    4.47   28.13
  16  15  -7   54.91   39.07
  16  15  -6   14.50   26.14
  16  15  -5   42.60   43.56
  16  15  -4   27.83   28.03
  16  15  -3  -32.57   27.20
  16  15  -2    4.64   15.96
  16  15  -1   10.49   35.45
 -15  16  -1    8.08   19.49
  15  16   1   10.99   19.60
  15  16   0   44.36   25.00
 -15  16   0    4.62   12.89
  15  16  -1   35.16   43.03
  15  16  -2  -31.02   27.51
  15  16  -3   22.69   24.16
  15  16  -4    4.87   28.96
  15  16  -5   54.42   40.27
  15  16  -6    0.99   16.87
  15  16  -7   -8.07   17.30
  15  16  -8   12.39   30.52
  15  16  -9   31.99   37.72
  15  16 -10   19.92   19.58
  15  16 -11  -49.92   36.27
  16  16  -2    5.77   25.00
  16  16  -3   52.07   31.09
  16  16  -4   16.45   25.62
  16  16  -5   -8.24   24.16
  16  16  -6    0.05   23.53
  16  16  -7   32.19   40.86
  16  16  -8   87.22   50.63
  16  16  -9  -35.84   30.90
  16  16 -10  -19.45   24.10
   0  17   0   -7.62   11.17
   0  17  -1    6.49   17.93
   0  17   1   32.20   35.88
   0  17   2   -9.70   20.22
   0  17  -2   -7.64   18.41
   0  17   3   91.86   46.61
   0  17  -3  101.02   49.30
   0  17   4   19.96   17.23
   0  17  -4   -8.60   30.71
   0  17   5   98.77   40.09
   0  17  -5   71.95   33.68
   0  17   6   49.39   32.63
   0  17  -6  -33.75   22.57
   0  17   7   71.97   38.20
   0  17  -7  108.92   47.87
   0  17   8  103.45   52.03
   0  17  -8   91.23   51.11
   0  17   9   22.75   26.13
   0  17  -9   85.17   67.63
   0  17 -10   39.65   37.50
   0  17 -11    3.10   15.95
   0  17 -12   68.17   45.81
   0  17 -13   46.59   36.32
   0  17 -14   47.14   42.44
   0  17 -15   15.53   42.26
   0  17 -16  -53.87   35.95
   0  17 -17    1.78   25.88
   0  17 -18   15.78   30.06
   0  17 -19   18.85   23.28
   0  17 -20   17.90   34.62
   0  17 -21   33.66   25.90
   0  17 -22    5.87   16.61
   0  17 -23   34.10   41.21
  -1  17 -23   14.64   33.56
  -1  17 -22   -3.36   13.45
  -1  17 -21    2.62   19.44
  -1  17 -20   30.65   27.47
  -1  17 -19   13.28   30.53
  -1  17 -18   31.82   20.87
  -1  17 -17   13.47   21.81
  -1  17 -16   30.97   48.71
  -1  17 -15  -10.22   18.18
  -1  17 -14  -24.80   25.05
  -1  17 -13   41.22   33.72
  -1  17 -12   20.21   31.51
  -1  17 -11   27.75   33.06
   1  17  10   65.40   35.77
  -1  17 -10   34.25   38.72
   1  17   9   49.19   38.53
  -1  17  -9   66.30   39.44
   1  17   8  123.75   52.72
  -1  17  -8  222.51   68.18
   1  17   7   63.50   34.83
  -1  17  -7   93.37   50.95
   1  17   6   -8.48   27.04
  -1  17  -6    4.96   27.80
  -1  17  -5  -10.99   17.34
   1  17   5   38.76   29.43
   1  17   4  161.15   58.45
  -1  17  -4  186.64   65.39
  -1  17  -3   22.34   30.00
   1  17   3    7.32   25.50
  -1  17  -2  -24.40   24.32
   1  17   2   49.38   42.89
   1  17   1   98.55   45.07
  -1  17  -1   16.57   21.65
   1  17   0   17.77   24.32
  -1  17   0   -5.13   14.25
  -1  17   1   31.83   14.83
   1  17  -1   -0.65   10.11
   1  17  -2   66.68   44.26
  -1  17   2    2.29   14.97
  -1  17   3   26.80   26.99
   1  17  -3  -56.26   33.61
  -1  17   4  191.20   61.81
   1  17  -4  161.56   60.56
  -1  17   5   52.99   31.29
   1  17  -5   39.35   38.15
  -1  17   6  -16.43   20.32
   1  17  -6   23.04   38.33
  -1  17   7   68.50   37.24
   1  17  -7   24.99   17.03
   1  17  -8  146.27   59.86
   1  17  -9   22.42   22.31
   1  17 -10   63.34   45.10
   1  17 -11   50.80   36.25
   1  17 -12   94.90   48.81
   1  17 -13   19.66   26.77
   1  17 -14   16.05   31.15
   1  17 -15   -2.43   14.63
   1  17 -16   67.06   58.54
   1  17 -17   32.95   33.33
   1  17 -18   27.02   46.10
   1  17 -19   30.82   28.63
   1  17 -20 -102.85   50.10
   1  17 -21    8.32   34.52
   1  17 -22   35.93   39.03
  -2  17 -24   51.35   46.34
  -2  17 -23   17.63   29.90
  -2  17 -22   23.64   39.54
  -2  17 -21    7.61   32.05
  -2  17 -20    9.80   18.91
  -2  17 -19  -18.86   22.53
  -2  17 -18   22.82   34.97
  -2  17 -17   52.05   46.74
  -2  17 -16   52.40   37.64
  -2  17 -15   -5.34   15.27
  -2  17 -14   11.99   23.03
  -2  17 -13   -2.51   10.23
   2  17  12   66.86   38.32
  -2  17 -12  -11.44   15.97
   2  17  11   38.62   15.68
  -2  17 -11   15.16   29.20
   2  17  10   31.84   40.12
  -2  17 -10   60.30   45.25
   2  17   9   35.11   29.41
  -2  17  -9   40.44   38.21
   2  17   8  -22.02   25.69
  -2  17  -8   53.22   38.33
   2  17   7   -1.58    9.71
  -2  17  -7   61.81   42.39
  -2  17  -6   -7.70   33.12
   2  17   6   28.87   28.42
  -2  17  -5  141.53   53.14
   2  17   5  116.35   51.81
  -2  17  -4   -6.08   13.84
   2  17   4   24.49   21.48
   2  17   3   45.03   35.05
  -2  17  -3   -2.06   13.18
   2  17   2    0.70   27.89
  -2  17  -2   32.47   32.22
  -2  17  -1    4.35   12.72
   2  17   1   -7.42   11.99
  -2  17   0   44.79   31.91
   2  17   0   20.67   23.28
   2  17  -1    9.85   19.04
  -2  17   1    4.86   16.37
  -2  17   2   -7.66   20.03
   2  17  -2   14.49   23.82
   2  17  -3    7.05   23.43
  -2  17   3   45.79   35.90
  -2  17   4   28.01   33.58
   2  17  -4   10.77   20.35
  -2  17   5  111.36   58.01
   2  17  -5  136.61   63.47
  -2  17   6   20.40   21.87
   2  17  -6   -0.09   11.80
   2  17  -7   29.05   36.10
   2  17  -8   11.98   24.08
   2  17  -9   71.44   55.57
   2  17 -10   68.34   40.26
   2  17 -11   71.84   46.67
   2  17 -12   -6.68   21.27
   2  17 -13   23.30   39.26
   2  17 -14   68.17   43.11
   2  17 -15  -46.58   33.69
   2  17 -16    0.50   23.86
   2  17 -17    9.49   17.03
   2  17 -18  -20.34   24.31
   2  17 -19   -4.43   15.51
   2  17 -20   25.72   37.01
   2  17 -21   25.14   35.00
   2  17 -22   86.57   53.90
  -3  17 -24   13.52   39.12
  -3  17 -23   36.62   35.53
  -3  17 -22  -28.51   27.03
  -3  17 -21   45.56   40.48
  -3  17 -20   37.18   31.40
  -3  17 -19   80.51   57.61
  -3  17 -18   19.82   24.33
  -3  17 -17  -29.84   26.97
  -3  17 -16    6.96   18.70
  -3  17 -15  -55.45   35.57
  -3  17 -14   74.29   44.23
   3  17  13   18.52   22.22
  -3  17 -13   21.64   29.77
   3  17  12  -26.49   21.68
  -3  17 -12   27.94   31.71
   3  17  11    7.37   15.89
  -3  17 -11    9.24   17.31
   3  17  10   70.40   39.77
  -3  17 -10  104.28   50.93
   3  17   9  -11.66   19.08
  -3  17  -9   -0.62   17.99
   3  17   8   45.59   39.22
  -3  17  -8   87.69   38.11
   3  17   7  145.98   53.24
  -3  17  -7   46.72   29.16
  -3  17  -6   18.82   22.65
   3  17   6  -31.65   17.14
  -3  17  -5   56.47   32.94
   3  17   5   50.52   29.23
   3  17   4   79.24   46.56
  -3  17  -4   77.39   40.28
   3  17   3   77.31   42.77
  -3  17  -3   20.81   20.48
  -3  17  -2   18.02   42.22
   3  17   2  -14.34   18.15
   3  17   1  -13.88   22.40
  -3  17  -1   45.65   39.32
   3  17   0   -5.03   11.91
  -3  17   0   29.96   33.67
  -3  17   1  -10.77   31.62
   3  17  -1  -22.49   22.70
  -3  17   2   -4.10   15.74
   3  17  -2    3.50   22.09
  -3  17   3   82.77   41.91
   3  17  -3   35.99   36.62
  -3  17   4   69.95   40.38
   3  17  -4  101.93   63.99
  -3  17   5  115.49   47.65
   3  17  -5   95.43   46.93
   3  17  -6  -11.24   23.52
   3  17  -7  110.11   52.76
   3  17  -8  112.78   58.81
   3  17  -9   -1.02   33.54
   3  17 -10   86.44   43.90
   3  17 -11   -7.35   23.77
   3  17 -12   24.80   22.41
   3  17 -13   44.47   36.58
   3  17 -14   12.34   18.91
   3  17 -15   -9.21   21.43
   3  17 -16    0.05   12.61
   3  17 -17    6.86   23.06
   3  17 -18  -28.96   28.22
   3  17 -19   89.64   50.24
   3  17 -20    7.22   17.73
   3  17 -21   98.81   59.34
  -4  17 -24  125.13   53.79
  -4  17 -23   11.50   18.59
  -4  17 -22    0.05   35.30
  -4  17 -21   45.67   45.22
  -4  17 -20   82.75   51.64
  -4  17 -19   80.69   48.07
  -4  17 -18  -11.72   18.91
  -4  17 -17  -24.11   24.51
   4  17  16   57.69   45.66
  -4  17 -16   88.51   42.81
   4  17  15   19.93   12.32
  -4  17 -15   31.06   14.92
   4  17  14   75.83   40.27
  -4  17 -14   99.89   52.81
   4  17  13    6.89   17.02
  -4  17 -13   47.04   37.42
   4  17  12   58.74   42.59
  -4  17 -12   81.66   49.67
   4  17  11    5.96   14.82
  -4  17 -11   46.64   39.47
   4  17  10   64.61   48.01
  -4  17 -10   -4.05   12.55
   4  17   9   61.22   47.46
  -4  17  -9   88.73   54.06
   4  17   8   52.60   43.99
  -4  17  -8   19.47   29.28
  -4  17  -7  162.73   60.80
   4  17   7   91.09   50.30
  -4  17  -6    4.44   17.87
   4  17   6    4.15   22.61
  -4  17  -5   14.97   27.95
   4  17   5   88.65   46.82
   4  17   4   77.64   38.76
  -4  17  -4   71.58   37.46
  -4  17  -3  133.58   52.22
   4  17   3  160.77   56.26
   4  17   2   25.74   27.08
  -4  17  -2   81.22   43.96
  -4  17  -1   22.99   22.04
   4  17   1    0.42   34.07
  -4  17   0    1.75   15.90
   4  17   0   21.64   13.10
  -4  17   1    3.61   12.00
   4  17  -1   13.89   14.11
  -4  17   2   38.26   24.63
   4  17  -2   46.62   41.59
  -4  17   3  285.35   78.26
   4  17  -3  206.13   73.35
  -4  17   4   72.98   39.16
   4  17  -4   83.61   44.34
   4  17  -5   60.27   50.66
   4  17  -6  -14.50   19.47
   4  17  -7  273.49   83.65
   4  17  -8   40.28   34.19
   4  17  -9  174.85   63.20
   4  17 -10  -17.68   24.80
   4  17 -11   19.87   26.60
   4  17 -12  110.18   53.48
   4  17 -13    0.20   12.26
   4  17 -14   71.41   51.68
   4  17 -15   62.56   51.71
   4  17 -16   23.39   23.34
   4  17 -17   -8.43   15.82
   4  17 -18   29.84   35.05
   4  17 -19   25.88   45.42
   4  17 -20   44.04   41.15
  -5  17 -22   13.55   33.58
  -5  17 -21    7.89   32.45
  -5  17 -20  -17.59   21.33
  -5  17 -19    1.27   17.72
   5  17  18   36.42   33.69
  -5  17 -18   26.30   25.95
   5  17  17   47.07   25.98
  -5  17 -17    8.49   31.65
   5  17  16    4.45   19.00
  -5  17 -16    0.23   23.42
   5  17  15   97.20   48.17
  -5  17 -15   32.17   24.94
   5  17  14    5.47   23.12
  -5  17 -14   98.75   53.17
   5  17  13  240.40   71.24
  -5  17 -13  375.12   90.63
   5  17  12   53.54   38.11
  -5  17 -12   76.76   50.17
   5  17  11   63.41   38.11
  -5  17 -11   29.54   32.30
   5  17  10  102.56   48.10
  -5  17 -10   45.68   34.28
   5  17   9   28.09   27.72
  -5  17  -9  -25.37   24.01
   5  17   8    1.98   20.18
  -5  17  -8   20.40   29.66
   5  17   7  -26.72   31.60
  -5  17  -7   -8.35   21.02
   5  17   6    0.17   19.88
  -5  17  -6   21.18   30.51
   5  17   5  -12.34   17.21
  -5  17  -5    3.92   18.58
  -5  17  -4   82.56   40.30
   5  17   4  109.63   49.05
  -5  17  -3   67.82   42.99
   5  17   3   98.04   49.96
   5  17   2  192.14   63.27
  -5  17  -2   71.95   43.06
  -5  17  -1  122.15   50.01
   5  17   1  131.00   54.99
  -5  17   0    4.45   13.86
   5  17   0   43.79   32.19
  -5  17   1  144.18   54.47
   5  17  -1  103.86   52.97
  -5  17   2  132.93   51.73
   5  17  -2  242.49   75.78
  -5  17   3  140.90   52.73
   5  17  -3   95.25   47.98
  -5  17   4   31.63   28.73
   5  17  -4  110.89   61.41
   5  17  -5   -3.70   30.25
   5  17  -6   34.64   24.90
   5  17  -7   19.02   38.75
   5  17  -8   20.79   22.33
   5  17  -9  -67.55   39.23
   5  17 -10  108.72   51.19
   5  17 -11  138.38   58.94
   5  17 -12   26.38   26.73
   5  17 -13  215.35   76.96
   5  17 -14   47.12   32.50
  17   5  15   30.88   24.75
   5  17 -15   77.90   49.86
   5  17 -16  -11.87   19.10
  17   5  16   23.34   27.81
   5  17 -17    3.56   28.54
  17   5  17  -54.90   32.60
   5  17 -18   22.88   33.86
  17   5  18   -9.43   15.96
   5  17 -19   19.16   23.97
   5  17 -20   57.92   47.50
   6  17  21    2.13   16.63
  -6  17 -20    1.21   23.86
   6  17  20   -9.52   17.81
   6  17  19    0.05   23.58
  -6  17 -19    2.41   21.35
   6  17  18  -26.96   26.05
  -6  17 -18   17.96   12.82
   6  17  17  -29.60   26.98
  -6  17 -17    5.00   11.16
   6  17  16    4.45   44.81
  -6  17 -16   29.21   33.84
   6  17  15    3.01   24.28
  -6  17 -15   36.16   37.47
   6  17  14  127.92   66.82
  -6  17 -14   92.43   40.03
   6  17  13   45.91   40.88
  -6  17 -13  224.25   74.51
   6  17  12   30.05   25.26
  -6  17 -12   70.71   44.06
   6  17  11  173.44   68.76
  -6  17 -11  224.32   73.05
   6  17  10   -7.55   25.03
  -6  17 -10   10.36   28.12
   6  17   9   34.93   33.31
  -6  17  -9   26.94   28.89
   6  17   8   -5.95   17.09
  -6  17  -8  -30.91   36.20
   6  17   7   -1.96   15.98
  -6  17  -7  -65.80   35.62
  17   6  -6    1.04    8.73
  -6  17  -6   29.40   29.69
   6  17   6   -7.53   25.12
  17   6  -5   65.85   33.14
   6  17   5   46.57   39.65
  -6  17  -5   43.52   17.33
  17   6  -4   48.02   26.88
  -6  17  -4   -4.78   14.87
   6  17   4   44.67   36.28
  17   6  -3  132.41   43.80
   6  17   3  168.22   63.41
  -6  17  -3   32.64   32.73
  17   6  -2  155.16   43.74
   6  17   2   37.13   36.64
  -6  17  -2  113.61   50.15
  17   6  -1  142.79   39.44
  -6  17  -1  246.55   71.50
   6  17   1  181.51   68.33
  -6  17   0   35.36   21.89
   6  17   0  121.50   52.40
  -6  17   1  203.24   72.06
   6  17  -1  167.21   70.24
  -6  17   2   54.75   31.44
   6  17  -2   82.38   40.96
  -6  17   3   66.92   38.48
   6  17  -3  184.99   60.58
   6  17  -4    2.91   19.76
   6  17  -5   43.17   40.20
   6  17  -6  -11.40   31.61
   6  17  -7   38.16   29.40
   6  17  -8  -79.09   42.42
   6  17  -9   72.90   53.08
   6  17 -10   35.41   38.46
  17   6  11  205.13   55.79
   6  17 -11  211.99   87.74
  17   6  12   60.50   33.60
   6  17 -12    3.79   22.66
  17   6  13  183.38   56.48
   6  17 -13  196.85   76.89
  17   6  14  167.74   53.76
   6  17 -14  105.38   50.08
  17   6  15   13.25   24.75
   6  17 -15   62.31   44.69
  17   6  16  -24.32   21.87
   6  17 -16   34.28   35.19
  17   6  17   23.86   10.77
   6  17 -17   88.26   47.24
  17   6  18   -3.12   17.94
   6  17 -18   -9.96   19.64
  17   6  19  -30.63   26.25
   6  17 -19   18.30   21.04
  17   6  20    3.72   27.50
  17   6  21   26.46   22.25
  17   6  22    0.05   21.12
  17   6  23   -4.96   14.91
   7  17  19   17.01   27.31
  -7  17 -19   21.25   26.10
   7  17  18    3.04   26.82
  -7  17 -18   -0.36   11.15
   7  17  17   19.94   34.41
  -7  17 -17    7.08   14.97
   7  17  16  -48.38   33.34
  -7  17 -16   13.26   13.25
   7  17  15   28.48   43.68
  -7  17 -15    4.15   18.94
   7  17  14   19.94   28.21
  -7  17 -14   20.22   32.47
   7  17  13   76.25   43.72
  -7  17 -13  128.00   52.13
  17   7 -12   71.30   40.74
   7  17  12   17.99   32.49
  -7  17 -12   72.31   42.69
  17   7 -11  109.23   47.56
   7  17  11   26.82   33.11
  -7  17 -11   99.10   45.67
  17   7 -10  132.53   54.38
   7  17  10  135.07   60.01
  -7  17 -10  133.35   58.94
  17   7  -9   -4.54   13.47
   7  17   9   30.69   24.55
  -7  17  -9   42.30   31.89
  17   7  -8   30.65   27.22
   7  17   8   91.91   45.17
  -7  17  -8   16.46   31.23
  17   7  -7    9.13   20.54
   7  17   7  -28.78   25.49
  -7  17  -7   16.42   19.19
  17   7  -6   13.58   10.32
   7  17   6   34.44   29.09
  -7  17  -6   52.31   31.64
  17   7  -5   -3.32   19.86
   7  17   5    6.24   24.77
  -7  17  -5   26.35   19.73
  17   7  -4   23.11   23.37
  -7  17  -4   10.50   24.14
   7  17   4   49.23   33.29
  17   7  -3   33.38   11.57
  -7  17  -3    2.21   11.96
   7  17   3   63.20   44.30
  17   7  -2   62.68   31.52
  -7  17  -2  103.32   46.71
   7  17   2  106.01   53.63
  17   7  -1   91.65   36.28
  -7  17  -1   78.35   36.45
   7  17   1   66.21   44.78
  -7  17   0   64.46   36.73
   7  17   0   69.91   46.95
  -7  17   1   89.96   39.99
   7  17  -1   85.58   41.55
  -7  17   2   65.14   44.61
   7  17  -2   70.73   49.82
  -7  17   3   29.71   26.49
   7  17  -3   17.10   24.82
   7  17  -4   46.50   28.48
   7  17  -5  -30.33   37.44
   7  17  -6   40.88   33.31
   7  17  -7  -41.83   40.24
   7  17  -8  -11.52   32.32
   7  17  -9  -11.47   12.11
   7  17 -10  114.02   66.73
   7  17 -11   70.18   48.43
  17   7  12   -3.24   13.89
   7  17 -12   42.84   45.05
  17   7  13  114.66   45.99
   7  17 -13   94.37   59.21
  17   7  14  -20.24   18.58
   7  17 -14   32.69   46.86
  17   7  15  140.59   50.67
   7  17 -15   44.09   38.84
  17   7  16   39.19   30.63
   7  17 -16    9.69   31.25
  17   7  17   65.54   36.45
   7  17 -17  -26.25   27.79
  17   7  18  -14.11   19.34
   7  17 -18   35.36   35.17
  17   7  19    4.68   26.05
  17   7  20  -72.62   39.71
  17   7  21   -8.20   16.40
  17   7  22    4.79   12.02
   8  17  17  -11.18   18.46
  -8  17 -17   -8.11   22.91
   8  17  16   -0.33   20.93
  -8  17 -16   23.19   22.79
  17   8 -15   11.16   17.26
   8  17  15   55.69   46.50
  -8  17 -15   27.06   22.41
  17   8 -14   37.06   41.30
   8  17  14   63.13   45.01
  -8  17 -14   80.57   50.53
  17   8 -13    9.53   15.97
   8  17  13   -2.53   17.17
  17   8 -12   48.73   36.91
   8  17  12   56.29   39.30
  -8  17 -12   22.76   23.27
  17   8 -11   43.46   33.75
   8  17  11    5.23   17.51
  -8  17 -11   68.59   37.17
  17   8 -10   -0.04   16.12
   8  17  10    6.47   12.54
  -8  17 -10   -8.64   18.60
  17   8  -9   66.44   38.22
   8  17   9   87.38   41.04
  -8  17  -9  141.63   53.65
  17   8  -8    9.58   10.96
  -8  17  -8   41.84   26.99
   8  17   8    2.91   13.41
  17   8  -7   72.25   40.82
   8  17   7   24.78   30.29
  -8  17  -7   70.03   43.47
  17   8  -6  -25.29   26.62
   8  17   6    1.66   16.76
  -8  17  -6  -19.08   22.61
  17   8  -5   18.37   11.35
  -8  17  -5   -4.73   21.95
   8  17   5   49.99   41.56
  17   8  -4   50.12   34.07
  -8  17  -4   82.78   40.17
   8  17   4   -8.98   21.97
  17   8  -3   56.74   30.22
  -8  17  -3   30.11   41.25
   8  17   3   66.95   42.83
  17   8  -2   68.72   29.08
  -8  17  -2   30.42   28.15
   8  17   2   81.80   46.86
  -8  17  -1   50.58   34.93
   8  17   1   33.19   22.53
  -8  17   0   51.92   39.07
   8  17   0   57.18   43.05
  -8  17   1   33.14   32.27
   8  17  -1   17.51   25.50
  -8  17   2   39.88   29.63
   8  17  -2   75.16   39.89
   8  17  -3   83.70   51.34
   8  17  -4    3.45   24.54
   8  17  -5   12.56   27.16
   8  17  -6  -11.24   18.57
   8  17  -7   32.16   47.81
   8  17  -8   36.59   43.46
   8  17  -9  123.28   63.25
   8  17 -10   56.41   43.92
   8  17 -11   29.72   22.38
   8  17 -12   50.71   43.56
  17   8  13    4.87   11.92
   8  17 -13    8.93   32.28
  17   8  14   39.72   27.64
   8  17 -14    8.90   22.37
  17   8  15   52.29   33.34
   8  17 -15    1.19   27.60
  17   8  16   24.95   21.40
   8  17 -16   56.94   44.77
  17   8  17   11.13   27.99
   8  17 -17    3.73   36.76
  17   8  18   39.08   32.75
  17   8  19  -38.68   29.33
  17   8  20    0.09   26.15
  17   8  21   71.72   46.32
  17   8  22   19.06   46.80
  17   9 -18   30.10   34.00
  17   9 -17    7.79   23.96
  17   9 -16    5.78   14.79
  17   9 -15   21.85   23.33
   9  17  15   35.37   41.07
  -9  17 -15  -10.73   19.22
  17   9 -14   -1.10   11.31
   9  17  14  -22.84   23.47
  -9  17 -14    4.26   15.88
  17   9 -13    6.03   27.10
   9  17  13  -45.97   31.68
  -9  17 -13    6.80   15.71
   9  17  12  -22.94   23.32
  -9  17 -12   -9.27   16.36
  17   9 -11  -11.58   16.75
   9  17  11   25.83   32.04
  -9  17 -11   33.40   35.41
  17   9 -10   83.18   43.60
   9  17  10   35.77   15.07
  -9  17 -10   35.57   36.28
  17   9  -9   42.71   30.28
  -9  17  -9   50.98   33.63
   9  17   9   72.55   46.64
  17   9  -8   28.70   24.43
  -9  17  -8    6.99    9.73
   9  17   8    5.69   15.05
  17   9  -7   20.26   25.48
  -9  17  -7   14.41   21.85
   9  17   7   75.55   49.16
  17   9  -6   23.46   20.38
  -9  17  -6    5.97   24.49
   9  17   6   53.42   38.88
  17   9  -5    9.26   10.33
  -9  17  -5   30.32   32.20
   9  17   5   36.07   33.16
  17   9  -4   28.09   23.81
  -9  17  -4   38.62   28.98
   9  17   4   27.86   24.49
  17   9  -3   20.21   18.55
  -9  17  -3   -0.04   16.29
   9  17   3  -22.24   23.83
  17   9  -2  115.63   43.61
  -9  17  -2  108.57   44.11
   9  17   2   81.06   48.59
  -9  17  -1    9.80   12.89
   9  17   1   96.37   49.37
  -9  17   0   60.15   34.69
   9  17   0  122.68   57.60
  -9  17   1   34.95   33.28
   9  17  -1   37.17   30.58
  -9  17   2   85.20   51.27
   9  17  -2  147.19   62.02
   9  17  -3   30.91   24.78
   9  17  -4   21.28   25.54
   9  17  -5   33.71   28.05
   9  17  -6   65.30   39.45
   9  17  -7   47.87   34.38
   9  17  -8   45.50   27.99
   9  17  -9    3.11   13.91
   9  17 -10   17.87   43.52
   9  17 -11   75.06   47.45
   9  17 -12    5.00   17.35
   9  17 -13   21.08   26.33
   9  17 -14   65.71   54.44
   9  17 -15   31.55   35.20
  17   9  15   26.98   21.91
   9  17 -16  -36.52   32.35
  17   9  16  -41.84   28.82
  17   9  17   22.88   22.66
  17   9  18    3.62   12.89
  17   9  19   63.44   45.76
  17   9  20   23.37   10.68
  17   9  21    6.60   21.69
  17  10 -18    5.21   23.68
  17  10 -17   14.98   21.76
  17  10 -16    0.05   27.13
  17  10 -15   24.46   24.92
  17  10 -14  -20.89   23.06
  17  10 -13    8.04   23.23
  10  17  13   -0.49   18.70
  17  10 -12   11.62   18.12
  10  17  12    0.04   36.55
 -10  17 -12   13.47   18.55
  17  10 -11   19.69   16.39
  10  17  11   14.91   28.67
 -10  17 -11   65.30   40.20
  17  10 -10    9.39   15.64
  10  17  10   17.38   23.56
 -10  17 -10   39.86   40.70
  17  10  -9    4.54   17.37
 -10  17  -9   46.96   34.45
  10  17   9   -4.92   19.53
  17  10  -8  -14.74   17.88
 -10  17  -8   -9.24   17.07
  10  17   8   31.16   35.73
  17  10  -7   27.90   26.25
 -10  17  -7   16.22   29.81
  10  17   7   -0.27   15.82
  17  10  -6  -29.81   22.85
 -10  17  -6    0.57   10.53
  10  17   6   16.60   31.12
  17  10  -5  152.75   55.38
 -10  17  -5  112.89   48.17
  10  17   5  160.01   61.33
  17  10  -4   33.05   26.82
 -10  17  -4  -14.62   19.42
  10  17   4  -14.39   26.93
  17  10  -3   21.12   33.95
 -10  17  -3   60.66   39.48
  10  17   3   22.90   13.25
  17  10  -2   56.30   35.19
 -10  17  -2   60.07   36.49
  10  17   2   44.56   36.22
 -10  17  -1  134.03   55.90
  10  17   1   33.49   34.81
 -10  17   0   77.10   46.99
  10  17   0  114.96   45.14
 -10  17   1  132.66   53.61
  10  17  -1   99.45   44.04
  10  17  -2   18.98   16.60
  10  17  -3   21.21   13.56
  10  17  -4  -14.82   30.42
  10  17  -5   77.80   42.46
  10  17  -6    5.37   37.66
  10  17  -7  -22.51   25.03
  10  17  -8    7.18   25.27
  10  17  -9   85.03   47.99
  10  17 -10  -21.33   33.76
  10  17 -11   16.29   34.50
  10  17 -12    6.05   27.83
  10  17 -13   26.69   30.95
  10  17 -14   44.66   40.73
  10  17 -15    9.78   27.81
  17  10  18   35.99   32.35
  17  10  19  -30.17   26.94
  17  10  20  -20.33   23.32
  17  11 -17   54.79   38.60
  17  11 -16    8.66   30.33
  17  11 -15    2.75   19.32
  17  11 -14  -52.15   34.96
  17  11 -13   64.43   47.04
  17  11 -12    0.04   26.84
  17  11 -11   44.91   43.07
  11  17  11   24.93   30.32
  17  11 -10   -4.86   12.95
  11  17  10    0.64   11.26
  17  11  -9   -1.53   10.52
 -11  17  -9    6.76   25.92
  11  17   9   44.97   40.84
  17  11  -8   20.83   28.67
 -11  17  -8   46.45   35.51
  11  17   8    2.38   28.91
  17  11  -7   11.60   17.91
 -11  17  -7   -6.32   11.36
  11  17   7    3.22   17.10
  17  11  -6   -0.63    9.29
 -11  17  -6    0.65   10.81
  11  17   6   -1.57   27.07
  17  11  -5   20.74   20.10
 -11  17  -5  -48.30   31.14
  11  17   5  -26.39   31.24
  17  11  -4   83.14   44.59
 -11  17  -4  139.93   56.36
  11  17   4   72.47   51.40
  17  11  -3   44.44   34.33
 -11  17  -3   36.44   34.83
  11  17   3    0.65   22.22
  17  11  -2   47.74   33.83
 -11  17  -2   42.63   32.10
  11  17   2   10.17   18.78
 -11  17  -1   12.98   12.62
  11  17   1   40.69   31.54
 -11  17   0    0.04   18.34
  11  17   0   26.92   37.27
 -11  17   1   17.94   22.34
  11  17  -1   56.71   44.29
  11  17  -2  101.39   44.18
  11  17  -3    7.98   14.31
  11  17  -4   39.26   27.14
  11  17  -5    2.05   25.69
  11  17  -6  -47.16   34.13
  11  17  -7   28.30   37.90
  11  17  -8   84.34   56.79
  11  17  -9   62.12   55.96
  11  17 -10   13.82   31.52
  11  17 -11   -2.84   22.76
  11  17 -12   35.90   41.64
  11  17 -13   35.89   24.48
  11  17 -14   47.08   53.05
  17  12 -15   40.92   35.04
  17  12 -14   13.69   27.26
  17  12 -13   -5.04   18.22
  17  12 -12  -74.74   40.25
  17  12 -11   27.54   30.17
  17  12 -10  -50.34   32.54
  17  12  -9   49.81   34.69
  12  17   9   -4.46   20.79
  17  12  -8   21.17   27.68
 -12  17  -8   21.97   33.34
  12  17   8   24.12   25.34
  17  12  -7   -0.04    9.20
 -12  17  -7   36.01   33.60
  12  17   7    8.34   24.38
  17  12  -6   20.82   16.00
 -12  17  -6   -2.18   14.17
  12  17   6    1.46   13.64
  17  12  -5    0.35   17.46
 -12  17  -5   32.99   27.46
  12  17   5    6.22   21.89
  17  12  -4  -36.00   25.93
 -12  17  -4  -68.52   36.89
  12  17   4   -8.17   25.25
  17  12  -3   58.58   37.38
 -12  17  -3   86.48   43.09
  12  17   3  143.10   62.66
 -12  17  -2  -30.54   25.52
  12  17   2  -11.00   18.74
 -12  17  -1  -55.80   33.58
  12  17   1   -4.09   29.38
 -12  17   0    6.22   11.99
  12  17   0   11.11   14.33
 -12  17   1   -7.66   15.13
  12  17  -1  -18.87   34.78
  12  17  -2  -18.47   25.89
  12  17  -3   74.00   51.68
  12  17  -4   11.81   17.67
  12  17  -5  -11.82   35.40
  12  17  -6    4.38   34.20
  12  17  -7   24.28   38.39
  12  17  -8   51.94   46.57
  12  17  -9   42.48   54.97
  12  17 -10   -9.85   18.57
  12  17 -11  -42.89   34.38
  12  17 -12   84.31   58.03
  12  17 -13   81.01   54.59
  17  13 -14   -0.05   25.20
  17  13 -13   38.88   31.22
  17  13 -12   19.60   31.31
  17  13 -11   21.02   23.34
  17  13 -10    1.86   19.25
  17  13  -9    0.05   33.93
  17  13  -8   62.83   37.28
  17  13  -7    4.22   13.42
  17  13  -6    4.85   13.74
  13  17   6   32.49   11.60
  17  13  -5   -2.12   11.31
 -13  17  -5  -34.16   26.78
  13  17   5   15.42   23.61
  17  13  -4   52.34   42.45
 -13  17  -4  115.41   56.13
  13  17   4   95.30   40.77
  17  13  -3   11.56   29.93
 -13  17  -3   17.38   30.06
  13  17   3   -5.29   22.52
 -13  17  -2    5.45   17.03
  13  17   2   25.66   18.61
 -13  17  -1  -34.31   27.08
  13  17   1    6.15   14.67
 -13  17   0   18.07   25.58
  13  17   0   23.54   31.05
 -13  17   1  -12.71   18.50
  13  17  -1   34.99   43.39
  13  17  -2  -14.10   28.13
  13  17  -3  -17.39   22.58
  13  17  -4   43.16   30.92
  13  17  -5  -89.20   46.05
  13  17  -6    5.23   21.86
  13  17  -7   -8.50   18.01
  13  17  -8   62.27   48.52
  13  17  -9   21.10   31.70
  13  17 -10  -17.43   23.51
  13  17 -11    2.22   23.93
  13  17 -12   11.60   40.50
  17  14 -13   41.63   43.42
  17  14 -12    1.54   22.38
  17  14 -11  -24.01   25.40
  17  14 -10  -34.30   29.20
  17  14  -9    6.73   30.97
  17  14  -8    9.49   28.24
  17  14  -7   22.07   13.84
  17  14  -6   30.19   24.54
  17  14  -5  -47.31   31.69
  17  14  -4   -5.73   14.04
  17  14  -3  -53.26   32.78
  14  17   3  -19.64   16.58
 -14  17  -2    0.09   13.93
  14  17   2   34.11   39.36
 -14  17  -1  -16.32   31.00
  14  17   1   24.88   30.49
 -14  17   0   19.41   22.20
  14  17   0   69.81   48.89
 -14  17   1  -22.32   26.43
  14  17  -1   65.89   39.64
  14  17  -2   -1.98   28.42
  14  17  -3    5.63   23.63
  14  17  -4    2.63   23.76
  14  17  -5   60.65   53.19
  14  17  -6   22.59   39.99
  14  17  -7   46.90   43.99
  14  17  -8   36.18   37.77
  14  17  -9    1.64   21.20
  14  17 -10   -0.22   37.97
  14  17 -11   35.60   44.11
  17  15 -11    2.45   12.99
  17  15 -10  -51.03   36.15
  17  15  -9   25.12   41.67
  17  15  -8   12.05   33.66
  17  15  -7    0.05   14.27
  17  15  -6    3.38   15.51
  17  15  -5   -0.05   10.44
  17  15  -4   15.33   19.18
  15  17   1   36.74   35.25
  15  17   0   17.65   24.82
 -15  17   0    9.58   15.91
  15  17  -1   33.61   37.08
 -15  17   1    2.07   23.60
  15  17  -2   15.65   28.38
  15  17  -3   46.36   39.52
  15  17  -4   37.96   38.46
  15  17  -5    6.59   28.22
  15  17  -6   38.11   25.97
  15  17  -7   14.66   12.27
  15  17  -8  -16.25   22.98
  15  17  -9   19.19   39.93
  17  16  -9    1.19   12.76
  17  16  -8  -26.16   27.17
  17  16  -7    4.95   13.73
  17  16  -6  -42.69   32.80
  17  16  -5  -58.21   37.38
  16  17  -2   53.01   45.01
  16  17  -3   48.44   34.77
  16  17  -4  -36.90   30.95
  16  17  -5   -9.74   21.29
  16  17  -6  -24.52   26.31
  16  17  -7    3.95   20.75
  16  17  -8  -77.81   44.90
  17  17  -6    5.32   17.04
   0  18   0   58.81   35.92
   0  18   1   16.87   16.93
   0  18  -1  -28.58   28.15
   0  18  -2  133.62   50.44
   0  18   2  174.50   63.23
   0  18  -3    6.97   12.11
   0  18   3  -20.37   29.96
   0  18   4   -8.78   14.89
   0  18  -4    2.95   17.91
   0  18   5   10.52   24.12
   0  18  -5  -14.91   19.85
   0  18   6   66.77   39.41
   0  18  -6    0.84   10.72
   0  18   7  -10.48   19.99
   0  18  -7    4.09   26.66
   0  18   8   -2.00   19.66
   0  18  -8   58.47   44.53
   0  18   9   13.95   26.17
   0  18  -9   13.65   25.02
   0  18  10    3.21   13.24
   0  18 -10    0.43   11.87
   0  18 -11   18.26   31.92
   0  18 -12   52.23   40.13
   0  18 -13   50.06   36.90
   0  18 -14  210.61   76.62
   0  18 -15   17.46   25.40
   0  18 -16  -23.56   25.37
   0  18 -17    5.28   32.47
   0  18 -18   75.49   55.21
   0  18 -19  -25.25   26.54
   0  18 -20  -12.33   20.07
   0  18 -21   17.24   31.67
  -1  18 -21   88.08   59.73
  -1  18 -20    5.96   32.59
  -1  18 -19  -38.05   31.68
  -1  18 -18    6.47   19.55
  -1  18 -17    3.98   27.78
  -1  18 -16   -6.12   15.79
  -1  18 -15   88.38   55.29
  -1  18 -14   12.19   21.92
  -1  18 -13   42.70   31.18
   1  18  12   89.41   50.29
  -1  18 -12   33.78   31.85
   1  18  11  -20.42   18.92
  -1  18 -11   43.51   45.94
   1  18  10  -13.22   19.52
  -1  18 -10  -27.48   26.24
   1  18   9    1.70   14.91
  -1  18  -9  -10.00   29.76
   1  18   8   15.35   17.85
  -1  18  -8  -21.77   31.73
   1  18   7   15.10   16.41
  -1  18  -7   28.75   15.95
   1  18   6   -8.99   17.90
  -1  18  -6  -18.67   19.48
  -1  18  -5   62.04   36.95
   1  18   5   81.80   43.26
  -1  18  -4   31.81   32.79
   1  18   4  -18.51   22.50
  -1  18  -3  193.20   64.79
   1  18   3   79.06   45.29
   1  18   2   22.88   19.37
  -1  18  -2    4.40   30.53
   1  18   1   86.95   47.18
  -1  18  -1   89.58   51.79
  -1  18   0   21.11   12.74
   1  18   0   44.33   23.12
   1  18  -1  141.12   62.50
  -1  18   1   48.67   40.28
  -1  18   2   67.89   40.88
   1  18  -2    4.07   20.29
   1  18  -3   60.54   41.02
  -1  18   3  134.41   49.31
  -1  18   4   12.70   24.29
   1  18  -4   19.28   24.76
  -1  18   5   31.07   17.04
   1  18  -5   53.74   39.68
  -1  18   6    7.64   16.35
   1  18  -6    9.67   20.85
  -1  18   7   18.30   25.03
   1  18  -7   47.17   31.79
  -1  18   8   34.69   29.07
   1  18  -8  -31.79   40.85
  -1  18   9   37.33   35.43
   1  18  -9  -77.02   41.87
   1  18 -10    4.32   29.89
   1  18 -11   -0.25   11.74
   1  18 -12   38.13   32.38
   1  18 -13   90.67   63.33
   1  18 -14   -0.05   24.45
   1  18 -15   60.29   40.28
   1  18 -16   47.86   39.00
   1  18 -17  -30.89   29.20
   1  18 -18  -37.06   31.43
   1  18 -19   17.49   30.25
   1  18 -20    1.21   11.91
  -2  18 -22   40.36   42.27
  -2  18 -21   28.08   35.40
  -2  18 -20   18.78   48.03
  -2  18 -19  -35.12   33.22
  -2  18 -18  -18.93   23.50
  -2  18 -17  -33.04   29.52
  -2  18 -16   32.74   37.06
  -2  18 -15  -13.72   20.47
  -2  18 -14    4.92   18.73
   2  18  13   82.49   49.69
  -2  18 -13   16.83   23.10
   2  18  12   60.25   42.00
  -2  18 -12   97.80   53.27
   2  18  11   -2.25   16.76
  -2  18 -11   91.80   51.28
   2  18  10    9.42   27.23
  -2  18 -10   -2.63   29.05
   2  18   9  -12.46   22.07
  -2  18  -9    0.72   21.41
   2  18   8    1.59   25.42
  -2  18  -8    5.75   23.79
   2  18   7    3.50   16.80
  -2  18  -7   31.70   39.28
   2  18   6   48.56   37.00
  -2  18  -6   93.05   48.04
  -2  18  -5   11.19   14.88
   2  18   5   70.22   39.68
  -2  18  -4   13.50   26.23
   2  18   4   72.18   45.76
   2  18   3  -14.82   19.89
  -2  18  -3   15.83   17.80
   2  18   2   81.64   44.19
  -2  18  -2   42.83   36.46
  -2  18  -1   -2.26   14.96
   2  18   1    2.69   22.61
   2  18   0   48.05   40.83
  -2  18   0   40.16   21.17
  -2  18   1    3.83   12.90
   2  18  -1    3.42   19.14
   2  18  -2   31.66   29.98
  -2  18   2    3.48   31.05
  -2  18   3  -13.82   19.75
   2  18  -3   -6.97   24.61
  -2  18   4   67.17   41.77
   2  18  -4    4.76   22.66
  -2  18   5   61.02   32.24
   2  18  -5   53.38   31.58
  -2  18   6  101.44   48.71
   2  18  -6  106.78   48.51
  -2  18   7   17.28   38.31
   2  18  -7   11.06   17.57
  -2  18   8   21.03   26.42
   2  18  -8  -35.19   29.28
   2  18  -9   59.93   43.58
   2  18 -10   11.24   33.69
   2  18 -11   29.12   33.46
   2  18 -12   24.28   22.51
   2  18 -13   12.12   36.46
   2  18 -14   60.41   45.11
   2  18 -15  -18.72   24.08
   2  18 -16   17.98   28.23
   2  18 -17   52.68   41.33
   2  18 -18    2.55   18.97
   2  18 -19    9.41   20.36
   2  18 -20   53.36   44.53
  -3  18 -22    5.06   15.40
  -3  18 -21    2.09   12.60
  -3  18 -20   50.81   42.76
  -3  18 -19    9.57   21.21
  -3  18 -18   61.14   49.51
  -3  18 -17  -28.16   27.35
  -3  18 -16    0.60   29.56
   3  18  15   20.87   24.12
  -3  18 -15    5.50   32.60
   3  18  14    0.83   12.15
  -3  18 -14   19.63   30.33
   3  18  13   61.79   42.04
  -3  18 -13  108.59   58.31
   3  18  12   24.53   37.99
  -3  18 -12   52.11   44.80
   3  18  11   22.26   30.80
  -3  18 -11   47.06   34.76
   3  18  10    8.29   16.59
  -3  18 -10  -37.94   19.56
   3  18   9    4.24   13.74
  -3  18  -9   56.86   41.41
   3  18   8   12.39   36.49
  -3  18  -8   58.26   40.72
   3  18   7  -16.54   20.45
  -3  18  -7   31.84   35.08
  -3  18  -6   76.86   48.82
   3  18   6   55.63   40.11
   3  18   5   24.98   28.25
  -3  18  -5   40.53   35.70
  -3  18  -4  -34.83   27.74
   3  18   4  -15.55   13.12
   3  18   3   58.60   41.79
  -3  18  -3    3.29   21.72
  -3  18  -2   -7.70   11.85
   3  18   2  -64.31   37.01
  -3  18  -1   49.76   37.10
   3  18   1   68.01   43.94
   3  18   0   12.99   16.42
  -3  18   0   36.60   25.96
   3  18  -1   47.54   40.85
  -3  18   1    5.14   16.93
  -3  18   2  -42.52   32.09
   3  18  -2  -22.81   27.26
  -3  18   3   -8.71   20.05
   3  18  -3   24.10   37.60
  -3  18   4  -17.80   15.51
   3  18  -4   41.27   30.18
  -3  18   5   28.38   30.03
   3  18  -5    7.16   21.56
  -3  18   6    2.56   19.56
   3  18  -6   78.28   48.69
  -3  18   7   25.16   28.62
   3  18  -7   20.01   38.40
   3  18  -8   42.75   26.86
   3  18  -9    4.59   28.44
   3  18 -10  -30.99   45.49
   3  18 -11   20.78   37.19
   3  18 -12   19.40   25.69
   3  18 -13   84.45   53.02
   3  18 -14  -14.34   24.85
   3  18 -15   42.73   38.84
   3  18 -16   15.87   22.68
   3  18 -17    1.47   18.55
   3  18 -18  -46.25   35.44
   3  18 -19    8.68   25.22
  -4  18 -23   39.73   45.36
  -4  18 -22   22.08   32.42
  -4  18 -21    0.05   11.68
  -4  18 -20   64.37   42.10
  -4  18 -19    3.85   39.03
   4  18  18   49.00   70.29
  -4  18 -18    4.78   15.05
   4  18  17   23.79   34.81
  -4  18 -17   11.05   13.71
   4  18  16  -14.17   20.93
  -4  18 -16  -77.50   42.58
   4  18  15   20.30   36.30
  -4  18 -15    3.92   38.76
   4  18  14  124.96   54.84
  -4  18 -14  161.48   65.44
   4  18  13   91.21   62.91
  -4  18 -13   18.26   24.67
   4  18  12   31.59   34.97
  -4  18 -12  104.57   57.28
   4  18  11   -5.64   27.24
  -4  18 -11    0.81   36.08
   4  18  10  144.03   62.62
  -4  18 -10  170.34   63.81
   4  18   9   12.45   39.23
  -4  18  -9   -1.22   26.17
   4  18   8  -19.67   22.66
  -4  18  -8   13.03   29.13
  -4  18  -7   13.38   17.83
   4  18   7   26.29   27.61
   4  18   6   42.83   35.75
  -4  18  -6   44.87   41.99
   4  18   5  -30.15   33.76
  -4  18  -5    2.87   15.88
   4  18   4   -7.77   26.07
  -4  18  -4   -0.26   24.50
  -4  18  -3   51.00   38.69
   4  18   3   17.05   15.44
  -4  18  -2  128.33   55.61
   4  18   2  108.14   54.32
   4  18   1   18.51   28.87
  -4  18  -1  -11.19   23.67
   4  18   0   66.10   38.34
  -4  18   0    5.84   21.02
  -4  18   1   37.19   33.94
   4  18  -1    6.12   15.16
  -4  18   2   63.41   40.59
   4  18  -2   72.86   51.54
  -4  18   3   17.67   18.10
   4  18  -3   88.56   47.26
  -4  18   4   13.45   21.38
   4  18  -4   45.48   30.49
  -4  18   5   18.00   29.42
   4  18  -5   10.26   18.43
  -4  18   6   48.90   32.92
   4  18  -6   60.34   50.00
   4  18  -7   15.38   28.67
   4  18  -8   50.31   39.39
   4  18  -9   63.00   38.97
   4  18 -10   61.81   35.98
   4  18 -11   -6.56   23.69
   4  18 -12   73.87   48.32
   4  18 -13   96.55   59.93
   4  18 -14  243.34   90.73
   4  18 -15   53.33   44.10
   4  18 -16   42.55   43.65
   4  18 -17    7.34   16.89
   4  18 -18   17.46   40.50
  -5  18 -22   38.73   31.78
  -5  18 -21    3.75   23.54
   5  18  21    0.16   37.13
   5  18  20    2.46   12.88
  -5  18 -20    4.89   17.34
   5  18  19    0.05   20.49
  -5  18 -19   -7.64   10.17
   5  18  18   35.71   36.24
  -5  18 -18   47.28   45.00
   5  18  17   22.11   28.72
  -5  18 -17    7.36   33.18
   5  18  16    2.84   26.63
  -5  18 -16  -23.43   24.85
   5  18  15  -37.52   30.66
  -5  18 -15    5.01   21.64
   5  18  14   71.60   56.44
  -5  18 -14    0.43   31.81
   5  18  13  164.03   65.60
  -5  18 -13   90.48   49.33
   5  18  12   89.69   48.69
  -5  18 -12   99.18   50.30
   5  18  11  127.32   59.29
  -5  18 -11  204.54   75.80
   5  18  10   22.64   30.47
  -5  18 -10   21.99   18.42
   5  18   9   38.88   28.57
  -5  18  -9   49.09   38.24
   5  18   8   38.33   33.24
  -5  18  -8   41.50   34.90
  -5  18  -7  -36.42   28.31
   5  18   7  -46.72   32.64
   5  18   6   -6.58   20.55
  -5  18  -6  -12.04   33.09
  -5  18  -5    8.10   26.76
   5  18   5   14.78   30.69
   5  18   4  -70.25   38.81
  -5  18  -4  -21.34   24.98
  -5  18  -3   26.35   21.01
   5  18   3   81.44   37.37
   5  18   2    3.06   23.86
  -5  18  -2   35.03   27.63
   5  18   1  131.28   62.51
  -5  18  -1  113.06   61.12
  -5  18   0  192.92   68.87
   5  18   0  293.41   80.64
  -5  18   1  173.62   68.70
   5  18  -1  205.86   75.24
  -5  18   2   21.19   21.81
   5  18  -2   60.63   48.00
  -5  18   3   17.67   29.25
   5  18  -3   26.17   15.91
  -5  18   4   11.41   14.07
   5  18  -4   38.98   38.29
  -5  18   5   14.37   18.21
   5  18  -5   39.96   31.95
   5  18  -6   10.00   27.24
   5  18  -7   28.35   18.36
   5  18  -8  -38.67   37.31
   5  18  -9    7.61   16.31
   5  18 -10  -17.42   15.22
   5  18 -11  104.31   66.57
   5  18 -12   98.41   49.96
   5  18 -13  154.63   63.77
   5  18 -14   -6.81   15.90
   5  18 -15   10.32   36.07
   5  18 -16   66.89   47.35
   5  18 -17  -60.98   40.48
   5  18 -18  -44.72   35.71
   6  18  21  -69.32   42.21
   6  18  20    3.82   14.62
  -6  18 -20   21.06   23.17
   6  18  19   33.48   34.81
  -6  18 -19  -12.74   19.20
   6  18  18  -26.10   26.80
  -6  18 -18    4.57   27.37
   6  18  17    2.82   32.37
  -6  18 -17  -32.89   28.36
   6  18  16   66.64   39.49
  -6  18 -16   53.55   39.07
   6  18  15   59.07   45.53
  -6  18 -15    2.19   28.14
   6  18  14   -3.00   13.92
  -6  18 -14   17.99   28.08
   6  18  13  -26.34   26.33
  -6  18 -13  -26.64   25.56
   6  18  12  273.56   86.70
  -6  18 -12  388.03   94.97
   6  18  11   22.51   34.53
  -6  18 -11   20.35   25.66
   6  18  10   26.42   32.34
  -6  18 -10    9.35   32.54
   6  18   9   60.01   38.09
  -6  18  -9  -12.43   12.68
   6  18   8    4.65   19.77
  -6  18  -8    1.53    9.91
  -6  18  -7  -35.18   27.72
   6  18   7    4.55   13.64
   6  18   6   12.02   22.75
  -6  18  -6   16.00   12.88
   6  18   5   -3.29   15.62
  -6  18  -5   12.02   26.13
   6  18   4   75.49   40.39
  -6  18  -4   59.94   41.80
  -6  18  -3   35.77   36.28
   6  18   3  -28.35   26.09
  -6  18  -2  117.24   57.32
   6  18   2  156.01   63.50
  -6  18  -1   52.31   36.93
   6  18   1    8.42   31.12
  -6  18   0  867.30  138.76
   6  18   0  486.53  119.01
  -6  18   1   -7.93   21.36
   6  18  -1   34.42   44.62
  -6  18   2   51.39   28.57
   6  18  -2  160.68   69.16
  -6  18   3   15.28   24.20
   6  18  -3   -1.53   29.95
  -6  18   4   40.20   31.69
   6  18  -4   68.55   49.84
   6  18  -5  -31.06   28.04
   6  18  -6   40.07   42.71
   6  18  -7   21.16   18.56
   6  18  -8  -12.14   23.45
   6  18  -9    4.29   24.64
   6  18 -10   40.97   34.18
   6  18 -11   71.70   46.40
   6  18 -12  378.19  103.91
   6  18 -13    3.90   13.58
   6  18 -14   72.35   51.89
   6  18 -15   71.17   56.40
   6  18 -16   37.42   49.36
   6  18 -17   16.13   21.37
   7  18  19  -57.27   37.91
   7  18  18   -0.05   19.15
  -7  18 -18   23.14   26.14
   7  18  17   34.95   35.45
  -7  18 -17    2.70   14.97
   7  18  16   85.26   54.43
  -7  18 -16   16.77   35.60
   7  18  15  -37.25   30.52
  -7  18 -15   11.97   15.11
   7  18  14   40.74   33.24
  -7  18 -14   44.49   31.80
   7  18  13   57.69   41.17
  -7  18 -13   69.72   44.10
   7  18  12  101.10   61.40
  -7  18 -12   16.97   24.00
   7  18  11   -1.38   27.39
  -7  18 -11  115.34   57.95
   7  18  10   43.68   40.00
  -7  18 -10  -22.97   22.04
   7  18   9   12.22   25.16
  -7  18  -9    5.12   12.27
  -7  18  -8  -22.25   32.17
   7  18   8    0.05   19.69
  18   7  -7   57.73   28.25
   7  18   7   -9.24   12.75
  -7  18  -7   21.93   24.17
  18   7  -6  -46.64   26.25
  -7  18  -6  -23.50   23.11
   7  18   6  -20.93   21.72
  18   7  -5   75.81   32.46
  -7  18  -5   54.61   37.82
   7  18   5   28.68   18.37
  18   7  -4    8.62    9.01
  -7  18  -4   -3.80   17.60
   7  18   4   -7.05   19.40
  -7  18  -3   43.88   16.82
   7  18   3   58.92   42.21
  -7  18  -2   16.10   12.49
   7  18   2   -2.45   23.55
  -7  18  -1  228.39   74.19
   7  18   1  303.33   88.88
  -7  18   0   99.77   44.56
   7  18   0  153.22   66.29
  -7  18   1  117.91   61.80
   7  18  -1  277.79   91.87
  -7  18   2    1.82   27.50
   7  18  -2   20.22   15.26
  -7  18   3   42.91   34.96
   7  18  -3   79.25   44.58
  -7  18   4   22.88   30.20
   7  18  -4   25.55   12.16
   7  18  -5   50.49   42.30
   7  18  -6   34.13   32.09
   7  18  -7 -124.22   54.51
   7  18  -8   21.53   15.40
   7  18  -9    5.94   13.06
   7  18 -10   45.23   36.16
   7  18 -11  201.89   79.42
   7  18 -12   52.24   45.54
   7  18 -13  120.83   66.71
   7  18 -14   -6.07   32.41
   7  18 -15  -10.10   20.11
   7  18 -16   15.51   16.50
  18   7  18   32.40   30.03
  18   7  19   27.54   26.02
  18   7  20  -23.63   24.59
  18   7  21  -10.17   18.35
   8  18  17   -0.05   22.59
   8  18  16    9.55   27.33
  -8  18 -16    7.45   15.88
   8  18  15  -28.33   27.05
  -8  18 -15   17.09   23.86
   8  18  14   17.46   18.88
  -8  18 -14   23.85   23.48
   8  18  13   36.67   35.97
  -8  18 -13   21.50   27.77
  18   8 -12  100.15   58.04
   8  18  12   45.04   40.93
  -8  18 -12   30.84   40.33
  18   8 -11  -40.02   27.97
   8  18  11   -1.94   12.55
  -8  18 -11   16.70   26.89
  18   8 -10   19.46   22.52
  -8  18 -10  -20.28   22.77
  18   8  -9  -22.60   20.90
   8  18   9   57.94   40.11
  -8  18  -9   -6.23   26.35
  18   8  -8   69.93   39.26
  -8  18  -8   15.72   26.33
   8  18   8  -32.37   31.58
  18   8  -7  -17.94   18.23
  -8  18  -7  -22.02   23.51
   8  18   7  -49.03   33.82
  18   8  -6   29.52   23.63
   8  18   6   72.54   42.43
  -8  18  -6   29.33   31.46
  18   8  -5    1.69    7.90
  -8  18  -5   22.99   27.35
   8  18   5   59.32   34.47
  18   8  -4   50.78   23.02
  -8  18  -4   11.12   11.83
   8  18   4   58.03   47.94
  -8  18  -3   18.27   22.77
   8  18   3   31.48   38.33
  -8  18  -2   75.41   48.06
   8  18   2  104.45   49.50
  -8  18  -1   42.37   37.21
   8  18   1   42.37   33.17
  -8  18   0   79.23   48.19
   8  18   0  133.90   56.85
  -8  18   1  -78.50   40.56
   8  18  -1  -11.32   19.70
  -8  18   2  100.36   53.42
   8  18  -2  105.89   49.84
  -8  18   3   48.26   36.68
   8  18  -3  -12.88   20.94
   8  18  -4   29.47   28.72
   8  18  -5   11.12   18.98
   8  18  -6  -11.02   18.55
   8  18  -7   -8.86   37.76
   8  18  -8   22.62   30.73
   8  18  -9   -5.15   26.50
   8  18 -10   44.53   38.11
   8  18 -11  -16.38   35.80
   8  18 -12   76.72   49.86
   8  18 -13    3.46   16.87
   8  18 -14   21.30   26.30
   8  18 -15   25.65   36.74
  18   8  21  -36.38   30.15
  18   9 -15   56.06   44.09
   9  18  15  -38.96   30.77
  18   9 -14    1.65   13.83
   9  18  14  -43.67   32.36
  -9  18 -14    4.06   21.59
  18   9 -13   82.60   48.50
   9  18  13    2.15   18.71
  -9  18 -13  101.20   54.18
  18   9 -12   31.48   32.44
   9  18  12  -10.66   18.10
  -9  18 -12   -4.31   24.42
  18   9 -11   23.09   30.67
   9  18  11   41.96   21.62
  -9  18 -11   88.68   53.76
  18   9 -10   10.09   14.05
   9  18  10   27.49   33.94
  -9  18 -10    4.81   24.25
  18   9  -9    8.17   14.34
   9  18   9   25.13   24.71
  -9  18  -9    8.26   20.51
  18   9  -8   17.31   30.27
   9  18   8   37.99   36.78
  -9  18  -8   33.14   32.75
  18   9  -7    0.67   11.55
  -9  18  -7   50.08   36.06
   9  18   7   10.96   31.99
  18   9  -6    0.37    9.56
  -9  18  -6   19.74   13.21
  18   9  -5   30.21   24.92
  -9  18  -5  -12.60   16.22
  -9  18  -4  -20.11   22.14
   9  18   4   21.18   24.35
  -9  18  -3   45.69   35.64
   9  18   3   10.52   23.70
  -9  18  -2   12.60   21.09
   9  18   2  -13.54   27.30
  -9  18  -1  134.11   57.41
   9  18   1   33.89   39.91
  -9  18   0   15.66   17.60
   9  18   0   26.04   32.48
  -9  18   1  141.46   60.51
   9  18  -1  173.47   73.97
  -9  18   2   21.99   29.46
   9  18  -2  -94.30   47.09
  -9  18   3   31.75   32.72
   9  18  -3   -0.35   18.18
   9  18  -4    9.50   18.11
   9  18  -5   74.32   42.62
   9  18  -6    5.38   23.28
   9  18  -7   16.58   35.54
   9  18  -8  -18.47   25.92
   9  18  -9   10.06   16.48
   9  18 -10   23.61   29.14
   9  18 -11   67.18   52.92
   9  18 -12  -83.79   47.01
   9  18 -13   81.23   58.09
   9  18 -14   29.38   48.44
  18  10 -17   23.90   34.86
  18  10 -16   48.31   58.84
  18  10 -15    3.62   19.36
  18  10 -14  -28.30   26.49
  18  10 -13  -29.79   26.43
  10  18  13   14.84   37.99
  18  10 -12   35.70   33.94
  10  18  12   76.85   51.38
 -10  18 -12  101.38   54.07
  18  10 -11    4.57   29.63
  10  18  11   -4.49   18.07
 -10  18 -11   19.58   15.96
  18  10 -10    0.08   29.77
  10  18  10   30.62   30.15
 -10  18 -10    3.04   24.96
  18  10  -9   22.63   24.20
 -10  18  -9   32.72   32.53
  10  18   9   38.30   33.37
  18  10  -8   -3.93   17.89
 -10  18  -8   17.89   24.68
  10  18   8  -22.54   19.74
  18  10  -7  -14.33   20.47
 -10  18  -7   18.71   13.77
  10  18   7   16.03   20.91
  18  10  -6   45.39   28.75
 -10  18  -6   88.80   42.24
  10  18   6  -25.08   26.17
  18  10  -5   11.77   21.79
 -10  18  -5   37.77   34.17
  10  18   5    8.74   16.85
 -10  18  -4   48.63   36.92
  10  18   4   23.45   29.36
 -10  18  -3   18.42   14.16
  10  18   3   18.66   23.88
 -10  18  -2   65.82   36.85
  10  18   2   42.14   48.14
 -10  18  -1   17.19   24.50
  10  18   1   48.67   41.69
 -10  18   0  122.44   61.60
  10  18   0  107.13   58.10
 -10  18   1  -34.66   28.31
  10  18  -1    0.86   11.66
 -10  18   2   30.29   33.40
  10  18  -2   46.00   36.71
  10  18  -3  -10.60   24.84
  10  18  -4   69.77   46.42
  10  18  -5   28.97   29.98
  10  18  -6   23.30   34.50
  10  18  -7    8.70   13.40
  10  18  -8   31.80   28.29
  10  18  -9  -25.79   37.27
  10  18 -10   16.44   16.47
  10  18 -11   46.69   48.88
  10  18 -12   98.36   57.37
  10  18 -13    3.62   15.53
  18  11 -15   -0.30   26.06
  18  11 -14   12.12   19.14
  18  11 -13   14.49   23.45
  18  11 -12  -28.32   25.96
  18  11 -11   13.87   19.24
  18  11 -10   10.35   30.95
 -11  18 -10  -61.51   36.29
  11  18  10   14.14   23.39
  18  11  -9   36.42   36.42
 -11  18  -9   33.14   32.46
  11  18   9   79.18   48.67
  18  11  -8  -46.13   30.07
 -11  18  -8  -23.54   23.32
  11  18   8    0.55   36.68
  18  11  -7   53.30   36.14
 -11  18  -7   14.68   15.19
  11  18   7   28.12   15.80
  18  11  -6   10.74   27.33
 -11  18  -6  -82.45   41.08
  11  18   6  -15.87   30.43
  18  11  -5   40.05   28.72
 -11  18  -5   85.53   47.91
  11  18   5   18.58   35.15
 -11  18  -4    2.73   20.59
  11  18   4    8.87   30.46
 -11  18  -3   62.66   43.92
  11  18   3   61.62   43.14
 -11  18  -2   50.56   35.72
  11  18   2   39.66   34.58
 -11  18  -1   53.21   35.95
  11  18   1   -5.08   20.94
 -11  18   0   35.04   30.95
  11  18   0    2.68   18.56
 -11  18   1   37.94   34.10
  11  18  -1   37.50   42.06
 -11  18   2   28.97   34.18
  11  18  -2  -14.34   22.01
  11  18  -3  117.45   49.44
  11  18  -4   10.39   27.05
  11  18  -5   70.86   43.61
  11  18  -6   19.04   33.67
  11  18  -7    9.29   24.97
  11  18  -8   23.08   29.82
  11  18  -9   43.13   40.67
  11  18 -10   41.15   45.41
  11  18 -11   28.13   38.47
  11  18 -12   19.53   24.59
  18  12 -14   21.91   39.51
  18  12 -13    6.81   35.24
  18  12 -12   10.28   37.88
  18  12 -11   -7.02   15.53
  18  12 -10   18.24   14.01
  18  12  -9  -49.25   32.14
  18  12  -8  -19.11   20.88
  12  18   8    1.08   24.74
  18  12  -7    1.97   14.92
 -12  18  -7  -57.88   34.79
  12  18   7  -27.12   26.60
  18  12  -6   41.60   32.82
 -12  18  -6   24.18   33.56
  12  18   6   60.21   49.06
 -12  18  -5  -11.48   14.36
  12  18   5   39.23   38.32
 -12  18  -4    2.17    9.29
  12  18   4   50.11   40.80
 -12  18  -3   47.84   35.45
  12  18   3   26.18   15.97
 -12  18  -2   75.44   45.67
  12  18   2   49.31   32.99
 -12  18  -1   -5.59   15.39
  12  18   1  -22.30   34.43
 -12  18   0  -26.72   25.25
  12  18   0   -6.45   15.78
 -12  18   1  -15.34   20.08
  12  18  -1  -27.51   26.83
 -12  18   2   32.45   32.78
  12  18  -2   38.83   31.75
  12  18  -3   -7.01   13.26
  12  18  -4  -45.21   34.55
  12  18  -5   16.97   26.89
  12  18  -6   14.38   15.01
  12  18  -7  -45.94   35.49
  12  18  -8   21.97   38.01
  12  18  -9   65.32   46.60
  12  18 -10   98.07   74.19
  12  18 -11    0.35   34.56
  18  13 -13   31.27   43.37
  18  13 -12    5.52   26.27
  18  13 -11  -26.56   25.74
  18  13 -10    0.05   12.60
  18  13  -9  -31.00   26.88
  18  13  -8  -63.52   36.66
  18  13  -7    4.42   13.46
  18  13  -6  -29.64   25.63
 -13  18  -5   26.43   27.76
  13  18   5   31.38   26.16
 -13  18  -4   12.32   12.46
  13  18   4   35.05   25.25
 -13  18  -3   47.14   35.13
  13  18   3   15.94   26.92
 -13  18  -2    0.05   22.90
  13  18   2  -27.67   36.01
 -13  18  -1  -14.41   19.54
  13  18   1   20.71   20.52
 -13  18   0   11.90   18.36
  13  18   0   11.95   35.52
 -13  18   1  -31.26   27.35
  13  18  -1   34.19   37.27
 -13  18   2    1.92   21.07
  13  18  -2    5.17   25.35
  13  18  -3    1.38   21.05
  13  18  -4    6.74   25.33
  13  18  -5    9.79   27.04
  13  18  -6   25.96   42.11
  13  18  -7  -28.07   28.65
  13  18  -8  -57.21   39.46
  13  18  -9   63.99   56.88
  18  14 -11    0.41   23.01
  18  14 -10   12.02   42.24
  18  14  -9    6.68   12.99
  18  14  -8    8.51   16.86
  18  14  -7    0.70   13.91
  14  18   3   -3.58   21.66
 -14  18  -2  -24.69   24.40
  14  18   2   24.92   39.74
 -14  18  -1    0.05   13.55
  14  18   1   -9.70   28.85
 -14  18   0   62.17   43.56
  14  18   0  -19.99   23.96
 -14  18   1    0.96   18.94
  14  18  -1   23.46   35.21
 -14  18   2   -0.05   25.41
  14  18  -2   30.21   35.98
  14  18  -3    0.05   30.53
  14  18  -4   17.10   30.36
  14  18  -5  -19.84   24.54
  14  18  -6   87.74   56.61
  14  18  -7   47.07   49.14
  14  18  -8   27.65   35.41
  18  15  -9    7.80   16.06
  18  15  -8    4.66   27.76
  18  15  -7    4.61   14.24
  15  18   0   34.01   44.97
  15  18  -1   14.28   38.50
 -15  18   1  -29.52   26.91
  15  18  -2   38.21   31.95
 -15  18   2    7.85   28.10
  15  18  -3  -26.44   27.57
  15  18  -4   -0.05   27.35
  15  18  -5    0.77   16.33
  15  18  -6   17.24   39.71
  15  18  -7    1.95   40.16
  16  18  -3   18.71   37.12
  16  18  -4   12.04   37.06
  16  18  -5    1.67   16.40
   0  19   0    4.73   11.40
   0  19  -1   93.21   40.18
   0  19   1  110.71   54.70
   0  19   2    3.14   16.39
   0  19  -2   36.91   28.76
   0  19  -3   45.22   40.41
   0  19   3   18.70   24.76
   0  19  -4  -58.53   36.69
   0  19   4  -29.50   28.34
   0  19   5  -26.75   26.13
   0  19  -5   -3.34   28.08
   0  19   6   -9.36   22.37
   0  19  -6  -50.73   35.41
   0  19   7   21.58   18.94
   0  19  -7   63.01   45.13
   0  19   8  -12.75   15.04
   0  19  -8  -13.62   22.00
   0  19   9    0.05   17.26
   0  19  -9   27.02   31.94
   0  19  10   38.02   39.11
   0  19 -10  -17.73   31.84
   0  19  11   14.82   14.59
   0  19 -11   47.53   39.50
   0  19  12   54.24   49.96
   0  19 -12   25.58   37.46
   0  19 -13   76.43   47.17
   0  19 -14   14.58   22.44
   0  19 -15   67.66   47.64
   0  19 -16  -18.26   23.50
   0  19 -17   14.30   27.28
   0  19 -18  -36.92   32.17
  -1  19 -19  -33.45   30.67
  -1  19 -18   25.10   39.06
  -1  19 -17  -46.63   35.31
  -1  19 -16   73.40   52.95
  -1  19 -15   13.36   21.06
   1  19  14    2.42   11.86
  -1  19 -14   -9.65   18.21
   1  19  13    0.10   11.60
  -1  19 -13    8.60   23.56
   1  19  12   37.63   27.73
  -1  19 -12   26.91   35.39
   1  19  11   28.70   39.55
  -1  19 -11  -55.47   36.93
   1  19  10   -5.74   15.26
  -1  19 -10   47.08   38.59
   1  19   9   24.53   15.87
  -1  19  -9   -8.10   17.58
   1  19   8    4.07   21.62
  -1  19  -8   31.01   34.72
   1  19   7    6.37   21.49
  -1  19  -7  -16.88   31.01
   1  19   6   60.36   42.75
  -1  19  -6  -29.32   34.99
   1  19   5    2.61   19.89
  -1  19  -5   18.69   25.30
  -1  19  -4  143.37   59.62
   1  19   4   46.49   33.15
   1  19   3    9.42   22.19
  -1  19  -3   22.12   32.45
  -1  19  -2   82.19   57.71
   1  19   2   55.51   43.83
   1  19   1    4.29   19.00
  -1  19  -1   39.00   39.34
   1  19   0  156.05   68.56
  -1  19   0  122.58   59.33
  -1  19   1   56.92   39.11
   1  19  -1   81.78   49.20
   1  19  -2   31.68   32.14
  -1  19   2   40.65   30.21
  -1  19   3    7.76   12.87
   1  19  -3   11.43   15.52
  -1  19   4  105.15   47.23
   1  19  -4   89.58   42.35
  -1  19   5    6.00   11.99
   1  19  -5  -37.32   36.68
  -1  19   6   14.65   25.89
   1  19  -6  -13.72   19.92
  -1  19   7   42.37   36.23
   1  19  -7  -50.50   35.64
  -1  19   8  -10.63   30.72
   1  19  -8   41.65   43.64
  -1  19   9    7.11   25.74
   1  19  -9    8.77   30.23
  -1  19  10   44.49   37.61
   1  19 -10  -23.52   28.20
   1  19 -11   28.90   52.89
   1  19 -12   77.10   49.04
   1  19 -13  -50.96   37.00
   1  19 -14    6.14   16.80
   1  19 -15   -0.16   11.53
   1  19 -16   20.46   31.72
   1  19 -17    6.63   20.13
   1  19 -18   17.53   32.27
  -2  19 -19    5.51   31.40
  -2  19 -18   -0.05   21.39
  -2  19 -17  -69.26   42.23
   2  19  16   55.36   48.14
  -2  19 -16   30.74   34.85
   2  19  15   27.54   28.52
  -2  19 -15  -49.96   36.09
   2  19  14   42.34   40.87
  -2  19 -14  -10.69   19.05
   2  19  13  -25.92   26.62
  -2  19 -13   36.10   36.17
   2  19  12   43.34   39.43
  -2  19 -12   34.31   31.07
   2  19  11   13.35   19.42
  -2  19 -11   46.22   45.56
   2  19  10   56.37   42.09
  -2  19 -10    0.10   24.11
   2  19   9   10.01   21.58
  -2  19  -9   39.67   49.66
   2  19   8  -22.07   24.20
  -2  19  -8   -1.01   12.00
   2  19   7   47.55   34.95
  -2  19  -7   29.53   21.73
   2  19   6   26.39   35.54
  -2  19  -6   16.17   25.04
  -2  19  -5  109.65   53.50
   2  19   5   66.63   44.88
   2  19   4   38.99   31.68
  -2  19  -4   61.00   42.97
  -2  19  -3    9.37   24.55
   2  19   3  124.94   59.44
   2  19   2   52.09   37.61
  -2  19  -2   51.82   42.58
   2  19   1    2.08   13.04
  -2  19  -1   27.76   17.72
  -2  19   0    9.57   24.19
   2  19   0    8.65   11.10
   2  19  -1   28.63   33.58
  -2  19   1   28.28   32.83
   2  19  -2   43.34   30.07
  -2  19   2   42.31   18.04
  -2  19   3   13.79   21.47
   2  19  -3   30.68   31.96
  -2  19   4   54.82   38.05
   2  19  -4    0.70   15.77
  -2  19   5   19.19   15.21
   2  19  -5   75.61   54.88
  -2  19   6    8.65   12.55
   2  19  -6   30.26   45.82
  -2  19   7   10.89   37.60
   2  19  -7   39.34   42.51
  -2  19   8  -14.25   18.54
   2  19  -8   63.88   24.16
  -2  19   9   28.88   32.09
   2  19  -9   59.04   38.73
   2  19 -10    3.20   13.74
   2  19 -11   41.44   31.93
   2  19 -12   17.01   26.76
   2  19 -13   17.03   22.44
   2  19 -14   65.96   51.73
   2  19 -15  -17.54   23.90
   2  19 -16   14.02   20.31
   2  19 -17   58.24   47.63
  -3  19 -20   -9.51   18.41
  -3  19 -19   63.10   48.25
   3  19  18    4.24   37.32
  -3  19 -18  -53.87   37.66
   3  19  17   26.36   31.95
  -3  19 -17  -23.67   26.20
   3  19  16   20.24   34.52
  -3  19 -16  -34.34   30.46
   3  19  15   18.30   31.99
  -3  19 -15    7.33   14.17
   3  19  14  -18.42   23.13
  -3  19 -14  -39.83   32.16
   3  19  13    5.59   18.12
  -3  19 -13   10.01   12.79
   3  19  12   34.49   34.69
  -3  19 -12    8.93   15.76
   3  19  11   19.54   30.38
  -3  19 -11   77.03   48.81
   3  19  10   73.73   51.03
  -3  19 -10   12.96   14.73
   3  19   9   28.82   49.84
  -3  19  -9  -21.44   24.57
   3  19   8  -23.59   27.36
  -3  19  -8   25.54   44.17
   3  19   7   79.40   51.28
  -3  19  -7   44.82   38.97
   3  19   6   98.44   54.12
  -3  19  -6    6.37   21.71
   3  19   5   48.19   42.86
  -3  19  -5   -2.63   31.30
  -3  19  -4   66.40   47.87
   3  19   4   59.82   37.97
   3  19   3   25.90   18.11
  -3  19  -3    5.68   19.51
   3  19   2   38.77   30.70
  -3  19  -2   28.01   35.03
  -3  19  -1   38.71   35.68
   3  19   1   29.10   25.56
   3  19   0  -38.93   30.71
  -3  19   0   99.35   45.76
   3  19  -1   -7.58   21.79
  -3  19   1  -11.43   25.62
  -3  19   2   42.46   35.48
   3  19  -2   18.47   19.80
  -3  19   3   78.66   38.37
   3  19  -3   16.43   22.64
  -3  19   4  -20.51   23.30
   3  19  -4   37.73   39.48
  -3  19   5   10.03   27.71
   3  19  -5   17.60   33.98
  -3  19   6   10.34   27.73
   3  19  -6  106.41   53.59
  -3  19   7   70.29   43.92
   3  19  -7   58.56   40.72
  -3  19   8   -6.36   30.07
   3  19  -8   27.73   42.86
   3  19  -9   26.82   35.07
   3  19 -10   61.19   39.68
   3  19 -11    3.40   19.29
   3  19 -12    6.41   15.55
   3  19 -13   24.68   32.55
   3  19 -14  -60.03   40.04
   3  19 -15 -122.63   56.63
   3  19 -16   13.69   31.69
   3  19 -17  -15.28   22.70
   4  19  21  -12.12   21.63
  -4  19 -20   -4.82   15.34
   4  19  20   -8.57   18.60
   4  19  19    0.06   18.99
  -4  19 -19    0.86   11.68
   4  19  18    4.88   16.09
  -4  19 -18  -42.97   33.55
   4  19  17  -50.25   36.84
  -4  19 -17  -18.01   22.92
   4  19  16  -56.58   38.31
  -4  19 -16    0.05   15.87
   4  19  15   -9.73   18.80
  -4  19 -15    6.57   30.48
   4  19  14   51.97   48.17
  -4  19 -14  -27.98   27.52
   4  19  13   81.76   54.77
  -4  19 -13   25.58   35.34
   4  19  12  115.35   62.54
  -4  19 -12   12.76   31.25
   4  19  11   19.44   18.20
  -4  19 -11   28.79   35.89
   4  19  10   30.25   21.97
  -4  19 -10    1.17   11.34
   4  19   9  101.22   54.06
  -4  19  -9  115.67   59.24
   4  19   8    0.20   15.36
  -4  19  -8    0.74   16.08
   4  19   7   20.07   13.30
  -4  19  -7  105.40   53.51
   4  19   6   18.93   26.31
  -4  19  -6    7.42   17.83
   4  19   5   14.35   16.79
  -4  19  -5  109.62   53.26
  -4  19  -4   -0.23   12.45
   4  19   4    4.63   20.64
   4  19   3   37.90   34.25
  -4  19  -3   94.55   53.13
  -4  19  -2   52.01   40.73
   4  19   2   48.31   42.20
  -4  19  -1    3.80   16.70
   4  19   1  -17.09   18.59
  -4  19   0   14.29    9.86
   4  19   0   -4.78   14.61
  -4  19   1   -2.70   35.13
   4  19  -1   31.24   28.99
  -4  19   2   31.17   14.42
   4  19  -2   66.57   41.49
  -4  19   3   -0.84   18.26
   4  19  -3  115.55   59.38
  -4  19   4   27.06   21.68
   4  19  -4   10.89   17.37
  -4  19   5   26.44   24.87
   4  19  -5   44.46   35.45
  -4  19   6   15.78   14.87
   4  19  -6   41.79   37.76
  -4  19   7   -4.46   13.53
   4  19  -7   60.28   48.54
   4  19  -8   -3.43   22.92
   4  19  -9   59.03   36.31
   4  19 -10 -132.47   57.44
   4  19 -11   11.83   26.69
   4  19 -12   58.30   41.95
   4  19 -13   22.10   37.39
   4  19 -14   20.77   21.05
   4  19 -15   36.48   36.16
   4  19 -16   11.76   13.64
   5  19  22  -27.22   29.01
   5  19  21  -24.95   27.74
   5  19  20  -69.00   43.44
  -5  19 -20    1.55   21.04
   5  19  19   74.49   53.07
  -5  19 -19   27.25   27.45
   5  19  18  -47.68   35.82
  -5  19 -18  -42.49   33.16
   5  19  17  -16.00   22.67
  -5  19 -17    2.55   16.59
   5  19  16  -12.22   20.60
  -5  19 -16   -0.05   24.68
   5  19  15    1.96   31.35
  -5  19 -15  -30.23   28.16
   5  19  14   18.89   35.08
  -5  19 -14  -26.05   26.29
   5  19  13   57.21   39.12
  -5  19 -13  106.24   54.05
   5  19  12   32.60   36.14
  -5  19 -12   44.01   48.63
   5  19  11  113.81   60.34
  -5  19 -11   51.45   39.10
   5  19  10   54.37   37.89
  -5  19 -10   73.50   49.36
   5  19   9    9.88   35.61
  -5  19  -9   -3.37   18.88
   5  19   8   16.05   41.33
  -5  19  -8   -8.89   31.78
   5  19   7  -26.40   26.27
  -5  19  -7   -1.29   14.34
  -5  19  -6    5.21   18.88
   5  19   6  -38.25   30.64
   5  19   5  105.41   42.36
  -5  19  -5    6.93   18.97
   5  19   4   15.54   15.43
  -5  19  -4   25.56   26.09
   5  19   3   -1.95   20.03
  -5  19  -3   18.81   23.15
  -5  19  -2  104.51   51.01
   5  19   2   80.74   53.40
  -5  19  -1  110.45   50.69
   5  19   1  101.91   58.25
  -5  19   0   35.73   30.24
   5  19   0   93.89   53.92
  -5  19   1  144.94   61.92
   5  19  -1   92.26   58.15
  -5  19   2   58.02   26.72
   5  19  -2  168.69   66.10
  -5  19   3   44.66   36.50
   5  19  -3   53.76   36.17
  -5  19   4   57.06   42.48
   5  19  -4    9.41   19.63
  -5  19   5   15.88   17.77
   5  19  -5   60.98   40.41
  -5  19   6   31.20   32.75
   5  19  -6   13.92   20.44
   5  19  -7   42.29   42.57
   5  19  -8   14.58   37.47
   5  19  -9  -95.55   49.14
   5  19 -10  105.23   49.71
   5  19 -11   84.39   52.45
   5  19 -12   20.18   23.69
   5  19 -13   74.25   45.73
   5  19 -14   42.97   43.39
   5  19 -15   78.22   49.04
   6  19  20    1.75   23.75
   6  19  19  -15.32   22.39
  -6  19 -19  -47.33   34.81
   6  19  18   13.68   35.94
  -6  19 -18  -15.90   21.85
   6  19  17   28.16   23.31
  -6  19 -17   13.34   12.11
   6  19  16  -59.75   39.25
  -6  19 -16    6.61   17.35
   6  19  15   28.99   29.44
  -6  19 -15  -43.52   32.99
   6  19  14   18.52   30.41
  -6  19 -14  130.63   62.43
   6  19  13   59.66   45.77
  -6  19 -13  145.30   62.90
   6  19  12   32.70   38.02
  -6  19 -12   42.72   43.68
   6  19  11  104.71   55.25
  -6  19 -11  126.54   64.11
   6  19  10   32.14   41.82
  -6  19 -10   85.76   52.64
   6  19   9   34.52   24.54
  -6  19  -9   64.54   40.88
   6  19   8  -32.79   28.78
  -6  19  -8   -8.91   12.34
  -6  19  -7    3.26   20.83
   6  19   7  -18.74   22.67
   6  19   6  -81.07   43.39
  -6  19  -6   32.20   30.67
  -6  19  -5   30.94   27.26
   6  19   5   78.27   48.15
  -6  19  -4   13.11   24.58
   6  19   4   -3.96   35.97
   6  19   3   97.64   56.18
  -6  19  -3   -8.28   14.10
  -6  19  -2  -35.31   29.13
   6  19   2   34.90   40.15
  -6  19  -1  129.51   57.69
   6  19   1  137.47   72.18
  -6  19   0    3.08   13.42
   6  19   0   36.91   35.88
  -6  19   1  178.47   65.11
   6  19  -1  217.61   79.91
  -6  19   2  -24.09   24.94
   6  19  -2   77.88   53.42
  -6  19   3   24.20   27.96
   6  19  -3   52.16   36.46
  -6  19   4  -23.17   24.52
   6  19  -4  -21.12   22.60
  -6  19   5   51.10   39.40
   6  19  -5   32.73   17.96
  -6  19   6    4.48   13.53
   6  19  -6   35.43   33.49
   6  19  -7  -18.67   27.93
   6  19  -8  -19.01   26.80
   6  19  -9   68.95   59.25
   6  19 -10   17.27   35.55
   6  19 -11   49.91   45.65
   6  19 -12   44.22   38.02
   6  19 -13   95.64   64.13
   6  19 -14   38.56   40.32
   7  19  18    9.22   12.54
  -7  19 -18   10.08   26.34
   7  19  17    7.15   26.01
  -7  19 -17    3.43   16.07
   7  19  16    1.18   22.59
  -7  19 -16   16.78   27.59
   7  19  15   28.55   32.53
  -7  19 -15  -23.88   25.21
   7  19  14   21.67   21.45
  -7  19 -14    2.80   18.18
   7  19  13   69.84   50.76
  -7  19 -13   17.95   28.55
   7  19  12   17.24   12.34
  -7  19 -12  -18.37   22.69
   7  19  11   42.64   36.48
  -7  19 -11   11.66   24.29
   7  19  10   37.94   37.41
  -7  19 -10  146.26   65.28
   7  19   9   -5.09   12.84
  -7  19  -9   -7.80   35.58
   7  19   8    3.18   26.80
  -7  19  -8   31.88   27.53
  -7  19  -7    1.93   17.46
   7  19   7   -3.38   15.44
   7  19   6   -5.32   18.60
  -7  19  -6   -0.98   16.41
   7  19   5  -22.87   12.19
  -7  19  -5  -51.52   33.97
  -7  19  -4  -39.98   30.25
   7  19   4   12.57   37.27
  -7  19  -3   32.34   30.78
   7  19   3   11.95   31.28
  -7  19  -2   48.60   38.17
   7  19   2   96.39   58.59
  -7  19  -1   54.12   36.47
   7  19   1  111.76   62.91
  -7  19   0    0.81   19.42
   7  19   0   64.45   51.02
  -7  19   1  122.15   46.64
   7  19  -1  123.32   58.05
  -7  19   2   74.37   48.68
   7  19  -2  110.63   59.00
  -7  19   3   -7.59   22.87
   7  19  -3   85.61   50.37
  -7  19   4  -48.90   34.10
   7  19  -4  -14.99   23.76
  -7  19   5   12.87   27.71
   7  19  -5  -39.35   36.97
   7  19  -6   18.18   20.89
   7  19  -7    7.72   13.90
   7  19  -8    7.21   23.76
   7  19  -9   44.94   38.63
   7  19 -10  165.62   69.81
   7  19 -11   60.49   37.63
   7  19 -12   51.42   44.83
   7  19 -13   54.28   37.42
   8  19  16   20.62   18.77
  -8  19 -16   -2.75   13.19
   8  19  15    7.11   41.00
  -8  19 -15    2.00   23.93
   8  19  14   32.20   35.91
  -8  19 -14   95.49   48.95
   8  19  13   17.44   33.11
  -8  19 -13   22.99   29.63
   8  19  12    9.14   17.49
  -8  19 -12   55.36   46.51
   8  19  11  -11.60   19.54
  -8  19 -11   87.25   55.13
   8  19  10  -51.79   35.86
  -8  19 -10   68.45   41.76
   8  19   9   44.72   35.26
  -8  19  -9   18.55   30.46
   8  19   8   -0.56   13.14
  -8  19  -8    5.78   14.78
  19   8  -7   11.46   15.51
  -8  19  -7    4.65   25.31
   8  19   7   21.22   29.37
  -8  19  -6   13.81   23.90
   8  19   6   19.32   24.98
  -8  19  -5    7.94   20.11
   8  19   5   37.39   38.70
  -8  19  -4  -20.92   22.94
   8  19   4   39.61   38.08
  -8  19  -3   57.36   42.87
   8  19   3   39.55   46.86
  -8  19  -2   56.78   38.21
   8  19   2  -11.81   29.61
  -8  19  -1    1.24   11.55
   8  19   1   41.88   36.19
  -8  19   0   11.71   27.63
   8  19   0   11.03   24.91
  -8  19   1    1.23   23.12
   8  19  -1   14.61   21.95
  -8  19   2    1.68   22.98
   8  19  -2   26.61   31.20
  -8  19   3   20.90   31.09
   8  19  -3   41.61   40.00
  -8  19   4   16.08   23.87
   8  19  -4   41.01   37.18
  -8  19   5  -15.14   20.60
   8  19  -5   76.90   58.31
   8  19  -6    0.99   22.98
   8  19  -7   37.49   35.12
   8  19  -8   39.33   38.58
   8  19  -9    1.86   16.72
   8  19 -10   26.50   28.31
   8  19 -11   39.39   41.56
   8  19 -12   45.30   37.23
   9  19  14    5.58   16.17
   9  19  13   44.78   48.94
  -9  19 -13   36.12   26.20
  19   9 -12   14.90   25.09
   9  19  12  -44.07   33.42
  -9  19 -12  -22.20   24.38
  19   9 -11   -9.89   16.35
   9  19  11   13.02   20.36
  -9  19 -11    2.90   15.15
  19   9 -10   37.05   27.97
   9  19  10   36.70   24.06
  -9  19 -10   62.44   45.98
  19   9  -9   49.05   30.21
   9  19   9   60.99   46.26
  -9  19  -9   75.32   54.13
  19   9  -8   18.08   24.33
   9  19   8  -23.53   33.16
  -9  19  -7   67.18   39.99
   9  19   7   31.71   32.90
  -9  19  -6   13.60   26.23
   9  19   6   24.93   40.49
  -9  19  -5   -7.45   24.30
   9  19   5    5.14   15.39
  -9  19  -4  -25.73   25.40
   9  19   4   25.55   29.52
  -9  19  -3  -21.73   25.01
   9  19   3   15.68   14.53
  -9  19  -2   34.87   42.72
   9  19   2   85.02   51.03
  -9  19  -1  -19.77   22.97
   9  19   1   53.11   45.11
  -9  19   0   32.17   30.48
   9  19   0   23.84   39.29
  -9  19   1   76.01   44.06
   9  19  -1   16.81   34.62
  -9  19   2   50.58   38.13
   9  19  -2  114.43   64.83
  -9  19   3  -33.93   29.30
   9  19  -3   46.93   36.97
  -9  19   4    7.21   25.51
   9  19  -4   -1.04   16.47
   9  19  -5  108.80   51.74
   9  19  -6   12.33   25.98
   9  19  -7   61.70   40.09
   9  19  -8   42.40   35.27
   9  19  -9    2.35   30.99
   9  19 -10  -16.83   23.71
   9  19 -11    2.74   24.08
  19  10 -15   92.19   56.83
  19  10 -14    0.24   20.19
  19  10 -13   -5.88   15.07
  19  10 -12   -3.29   22.68
  10  19  12    1.46   16.23
  19  10 -11   11.98   24.83
 -10  19 -11   -0.05   14.65
  10  19  11    7.76   23.66
  19  10 -10  -10.64   16.88
  10  19  10   51.55   32.61
 -10  19 -10   54.58   35.88
  19  10  -9   22.26   24.38
 -10  19  -9    6.42   29.22
  10  19   9  -42.77   33.48
  19  10  -8   -7.04   14.05
 -10  19  -8  -31.29   27.28
  10  19   8   12.63   34.12
 -10  19  -7   56.51   33.12
  10  19   7   37.19   36.60
 -10  19  -6  -30.40   26.95
  10  19   6   78.69   56.06
 -10  19  -5   34.99   13.18
  10  19   5   40.83   14.05
 -10  19  -4  -53.79   35.07
  10  19   4   13.84   35.28
 -10  19  -3   23.77   16.82
  10  19   3  -13.17   31.52
 -10  19  -2    4.25   23.11
  10  19   2   98.13   48.95
 -10  19  -1   30.41   44.98
  10  19   1   32.48   33.98
 -10  19   0    0.53   15.42
  10  19   0    9.53   15.32
 -10  19   1   -9.26   17.60
  10  19  -1  -14.37   22.01
 -10  19   2   -1.67   12.18
  10  19  -2   11.44   39.06
 -10  19   3  -41.22   31.64
  10  19  -3   42.60   38.65
 -10  19   4   18.67   23.02
  10  19  -4   18.15   14.73
  10  19  -5  103.41   57.61
  10  19  -6   57.12   39.34
  10  19  -7   25.51   27.96
  10  19  -8  101.31   59.93
  10  19  -9   32.15   40.34
  10  19 -10    8.55   17.88
  19  11 -14  -19.21   23.21
  19  11 -13   -0.05   23.40
  19  11 -12    6.97   31.24
  19  11 -11  -33.83   27.85
  19  11 -10   34.49   38.54
  11  19  10   15.07   20.27
  19  11  -9  -38.48   28.74
  11  19   9  -23.83   18.96
 -11  19  -9   37.39   40.12
 -11  19  -8  -37.66   29.74
  11  19   8   -8.35   23.15
 -11  19  -7   82.10   49.16
  11  19   7   -7.33   26.25
 -11  19  -6  -25.20   24.95
  11  19   6  -48.11   35.24
 -11  19  -5    1.94   15.73
  11  19   5    8.79   20.19
 -11  19  -4   84.57   51.82
  11  19   4   10.29   17.69
 -11  19  -3   13.41   27.72
  11  19   3   52.77   48.68
 -11  19  -2  -32.55   28.29
  11  19   2   18.61   32.01
 -11  19  -1    5.27   31.95
  11  19   1   -4.83   52.54
 -11  19   0    0.63   19.41
  11  19   0   93.83   54.78
 -11  19   1   -5.84   14.77
  11  19  -1   26.83   29.06
 -11  19   2  -58.11   37.32
  11  19  -2   20.15   23.42
 -11  19   3   75.06   42.28
  11  19  -3  -50.48   37.18
 -11  19   4   48.30   44.56
  11  19  -4   64.28   52.28
  11  19  -5   27.66   33.91
  11  19  -6   27.84   18.09
  11  19  -7  -45.60   35.96
  11  19  -8   46.54   45.25
  11  19  -9  -70.67   44.63
  19  12 -13   20.60   35.98
  19  12 -12   15.91   21.14
  19  12 -11  -28.87   26.66
  19  12 -10   13.85   18.50
  19  12  -9    3.51   36.65
 -12  19  -7   22.27   37.56
  12  19   7    2.41   16.14
 -12  19  -6    3.88   24.95
  12  19   6   19.19   31.59
 -12  19  -5   27.09   32.54
  12  19   5   15.05   30.06
 -12  19  -4  -40.07   30.92
  12  19   4   -3.57   31.45
 -12  19  -3   37.35   39.69
  12  19   3   13.33   15.32
 -12  19  -2    6.69   14.37
  12  19   2    4.31   21.96
 -12  19  -1   34.17   26.47
  12  19   1  -98.48   50.09
 -12  19   0   20.75   26.51
  12  19   0   44.50   49.03
 -12  19   1    1.84   22.71
  12  19  -1   25.34   38.21
 -12  19   2    0.05   13.34
  12  19  -2   30.09   50.61
 -12  19   3    0.05   26.11
  12  19  -3   37.58   33.39
  12  19  -4    3.62   12.84
  12  19  -5   25.46   49.46
  12  19  -6   10.70   14.27
  12  19  -7   26.20   26.75
  12  19  -8  -24.70   28.24
  19  13 -11    9.31   25.68
  19  13 -10    4.56   17.33
  13  19   5    4.67   26.11
 -13  19  -4    3.02   12.62
  13  19   4   -3.34   14.56
 -13  19  -3    0.05   25.94
  13  19   3  -64.28   41.15
 -13  19  -2    4.42   28.33
  13  19   2  -10.73   19.87
 -13  19  -1    4.34   32.35
  13  19   1   16.39   22.53
 -13  19   0   13.35   37.69
  13  19   0   16.72   24.51
 -13  19   1  -50.19   35.04
  13  19  -1  -30.45   35.84
 -13  19   2   32.66   33.79
  13  19  -2   33.19   32.74
 -13  19   3    7.66   25.48
  13  19  -3  -63.88   41.77
  13  19  -4   52.74   39.96
  13  19  -5    7.65   29.95
  13  19  -6  -26.27   28.66
 -14  19  -2   20.41   30.83
  14  19   2  -56.17   38.63
 -14  19  -1    7.46   32.34
  14  19   1    6.16   12.22
 -14  19   0    2.51   12.16
  14  19   0  -29.03   28.98
 -14  19   1   16.89   25.34
  14  19  -1  -16.64   23.04
 -14  19   2    5.19   25.30
  14  19  -2  -58.64   39.71
 -14  19   3    7.78   16.82
  14  19  -3   -5.33   16.70
  14  19  -4    5.55   15.45
  14  19  -5   25.05   50.83
  15  19  -1   19.35   37.82
 -15  19   1   12.47   19.28
  15  19  -2    0.06   12.86
 -15  19   2   23.19   25.26
  15  19  -3  -15.43   22.52
 -15  19   3    6.57   23.09
   0  20   0  164.90   70.91
   0  20  -1   -6.78   28.73
   0  20   1   11.90   16.93
   0  20  -2  151.00   59.61
   0  20   2   38.42   30.47
   0  20   3    9.75   15.71
   0  20  -3  -51.36   35.70
   0  20   4   -2.66   15.49
   0  20  -4  -10.80   22.39
   0  20   5   34.73   33.74
   0  20  -5  -31.56   35.71
   0  20   6   46.31   38.09
   0  20  -6   73.57   44.09
   0  20   7    7.81   31.43
   0  20  -7   80.20   48.56
   0  20   8    7.73   20.71
   0  20  -8  -60.54   40.02
   0  20   9  -19.51   23.77
   0  20  -9   54.86   42.61
   0  20  10  -20.37   40.34
   0  20 -10   16.77   23.16
   0  20  11   60.96   46.72
   0  20 -11  -17.35   31.44
   0  20  12  -12.79   21.36
   0  20 -12   46.88   36.34
   0  20  13   11.74   35.04
   0  20 -13  -82.05   46.87
   0  20  14   58.35   53.50
   0  20 -14   58.23   50.50
   0  20 -15   55.64   53.59
   1  20  16   13.78   30.20
  -1  20 -16   17.54   32.06
   1  20  15   16.60   28.46
  -1  20 -15    5.46   28.46
   1  20  14  107.16   57.70
  -1  20 -14   50.73   50.80
   1  20  13   37.36   35.82
  -1  20 -13   25.58   40.90
   1  20  12   79.57   48.96
  -1  20 -12   -0.66   27.09
   1  20  11   -0.05   16.09
  -1  20 -11   57.76   41.13
   1  20  10   18.01   17.67
  -1  20 -10  -35.21   31.22
   1  20   9   -1.11   18.28
  -1  20  -9   35.98   27.62
   1  20   8    1.16   12.20
  -1  20  -8   30.99   28.57
   1  20   7   35.37   34.48
  -1  20  -7   18.58   37.22
   1  20   6   -5.20   17.50
  -1  20  -6  -38.90   31.98
   1  20   5    9.55   17.72
  -1  20  -5   24.27   24.03
   1  20   4   -3.14   33.98
  -1  20  -4   86.98   44.53
  -1  20  -3    4.89   23.77
   1  20   3   28.07   34.22
  -1  20  -2   71.17   48.53
   1  20   2   66.04   38.18
   1  20   1   14.45   31.93
  -1  20  -1   67.91   45.41
   1  20   0   73.40   34.13
  -1  20   0   53.26   28.15
   1  20  -1  100.78   56.51
  -1  20   1   42.47   32.96
  -1  20   2   13.00   23.59
   1  20  -2   33.99   33.48
  -1  20   3  -41.64   32.60
   1  20  -3   34.69   34.56
  -1  20   4   35.93   32.03
   1  20  -4   28.09   31.25
  -1  20   5   26.23   30.82
   1  20  -5   43.19   46.05
  -1  20   6   -5.07   14.53
   1  20  -6  -96.63   49.74
  -1  20   7  -35.36   30.21
   1  20  -7  -50.06   37.05
  -1  20   8   28.22   27.85
   1  20  -8   67.43   42.25
  -1  20   9  -11.77   30.54
   1  20  -9   62.51   42.06
  -1  20  10   21.70   32.87
   1  20 -10   14.61   32.22
  -1  20  11    7.89   12.83
   1  20 -11   46.13   49.56
  -1  20  12   82.84   50.18
   1  20 -12   22.69   28.03
   1  20 -13   25.71   46.00
   1  20 -14    8.18   19.75
   1  20 -15   16.05   25.36
   2  20  18   13.53   45.53
   2  20  17    1.81   12.63
   2  20  16    5.87   24.79
  -2  20 -16   77.52   57.19
   2  20  15    3.40   18.90
  -2  20 -15    3.57   14.93
   2  20  14  -21.60   25.74
  -2  20 -14 -106.32   52.61
   2  20  13  -26.02   27.48
  -2  20 -13    4.79   16.02
   2  20  12   29.84   38.60
  -2  20 -12  -17.07   23.45
   2  20  11   60.36   41.87
  -2  20 -11   18.60   23.59
   2  20  10    6.54   12.16
  -2  20 -10   -7.90   19.37
   2  20   9   36.71   45.17
  -2  20  -9   15.44   12.96
   2  20   8   25.03   29.05
  -2  20  -8  -31.55   29.75
   2  20   7  -11.40   17.66
  -2  20  -7    0.90   32.88
   2  20   6   99.33   50.23
  -2  20  -6   72.06   46.68
   2  20   5   -1.19   21.48
  -2  20  -5   58.27   45.84
   2  20   4   40.81   35.68
  -2  20  -4   13.40   18.28
  -2  20  -3   76.95   45.91
   2  20   3   11.25   21.91
  -2  20  -2  -35.59   40.13
   2  20   2   41.82   34.32
   2  20   1    4.16   19.32
  -2  20  -1    3.04   11.62
   2  20   0   -8.88   13.27
  -2  20   0   38.46   37.42
  -2  20   1   35.96   23.62
   2  20  -1   -5.86   22.90
  -2  20   2   66.63   41.52
   2  20  -2  138.79   53.39
  -2  20   3   22.39   15.10
   2  20  -3   20.93   31.61
  -2  20   4   19.99   28.30
   2  20  -4   35.85   57.30
  -2  20   5   36.01   39.21
   2  20  -5   26.76   33.80
  -2  20   6   51.25   40.26
   2  20  -6   48.74   42.61
  -2  20   7    1.08   18.03
   2  20  -7    0.72   18.90
  -2  20   8    9.60   25.47
   2  20  -8   70.71   57.39
  -2  20   9   16.85   23.48
   2  20  -9   37.70   38.95
  -2  20  10   34.67   41.21
   2  20 -10   70.93   41.36
  -2  20  11   -9.52   16.64
   2  20 -11   19.89   32.76
   2  20 -12   25.21   40.16
   2  20 -13    7.26   30.99
   2  20 -14   47.86   32.59
   3  20  18  -41.71   35.30
   3  20  17   -6.81   17.51
  -3  20 -17   20.59   33.10
   3  20  16  -30.79   30.06
  -3  20 -16   16.99   33.76
   3  20  15  -56.26   39.22
  -3  20 -15   10.99   37.02
   3  20  14   51.33   52.18
  -3  20 -14  -46.23   35.45
   3  20  13   19.68   34.60
  -3  20 -13   16.50   33.55
   3  20  12  -56.07   38.35
  -3  20 -12   11.78   33.10
   3  20  11  -29.87   28.93
  -3  20 -11   58.19   44.93
   3  20  10   28.25   35.05
  -3  20 -10   11.43   28.03
   3  20   9   28.05   42.60
  -3  20  -9   45.08   45.57
   3  20   8   16.81   20.56
  -3  20  -8    7.97   15.97
   3  20   7   20.27   30.70
  -3  20  -7   81.29   48.51
   3  20   6   68.33   47.08
  -3  20  -6   69.20   48.77
  -3  20  -5    0.61   11.27
   3  20   5  -37.18   47.05
   3  20   4   14.12   27.62
  -3  20  -4   -3.65   15.47
   3  20   3   25.65   22.26
  -3  20  -3    4.53   20.43
   3  20   2   -2.30   19.47
  -3  20  -2   30.50   33.21
   3  20   1   57.24   24.29
  -3  20  -1    1.29   30.02
  -3  20   0    8.43   22.69
   3  20   0   -9.99   14.46
  -3  20   1    4.64   30.55
   3  20  -1   35.26   26.18
  -3  20   2  -59.25   38.23
   3  20  -2   28.46   37.88
  -3  20   3   -5.61   10.99
   3  20  -3    5.14   31.99
  -3  20   4    6.24   22.06
   3  20  -4   29.25   47.49
  -3  20   5   42.20   37.43
   3  20  -5   47.37   36.82
  -3  20   6    9.18   20.49
   3  20  -6   -5.53   16.61
  -3  20   7  121.66   54.62
   3  20  -7   84.63   49.45
  -3  20   8   66.32   48.91
   3  20  -8   33.80   36.09
  -3  20   9   35.00   36.84
   3  20  -9   46.67   51.66
  -3  20  10   42.81   40.46
   3  20 -10   60.52   44.36
   3  20 -11   -5.22   34.89
   3  20 -12    1.80   13.99
   3  20 -13   16.20   33.89
   3  20 -14    1.18   32.42
   4  20  19   14.90   39.15
   4  20  18    2.70   27.78
   4  20  17   -0.06   18.57
  -4  20 -17    2.91   28.69
   4  20  16  -80.46   46.41
  -4  20 -16    6.39   25.62
   4  20  15   19.22   36.13
  -4  20 -15   17.29   38.60
   4  20  14   34.43   41.47
  -4  20 -14  -35.37   31.25
   4  20  13   50.84   47.43
  -4  20 -13   18.29   22.73
   4  20  12  -13.92   21.43
  -4  20 -12  -52.35   37.01
   4  20  11   18.12   26.68
  -4  20 -11    2.30   17.34
   4  20  10   17.71   20.40
  -4  20 -10  -20.45   25.01
   4  20   9   -0.91   14.89
  -4  20  -9  -12.04   22.03
   4  20   8   71.70   44.09
  -4  20  -8   17.31   36.82
   4  20   7  -10.50   19.02
  -4  20  -7    2.64   19.92
   4  20   6    2.60   29.59
  -4  20  -6   55.00   43.67
  -4  20  -5   -0.90   22.65
   4  20   5 -102.75   49.91
   4  20   4   23.83   28.98
  -4  20  -4   46.68   40.97
   4  20   3   41.74   33.16
  -4  20  -3  -32.60   34.55
   4  20   2    7.15   25.76
  -4  20  -2   25.34   30.81
  -4  20  -1  -26.27   17.44
   4  20   1   10.46   21.87
  -4  20   0   13.60   27.84
   4  20   0    5.51   27.60
  -4  20   1   32.31   28.33
   4  20  -1   56.16   42.91
  -4  20   2   16.25   27.38
   4  20  -2   54.58   43.40
  -4  20   3   39.80   40.57
   4  20  -3   40.36   44.27
  -4  20   4   48.49   31.06
   4  20  -4  154.39   62.72
  -4  20   5  -27.27   27.12
   4  20  -5   61.94   41.49
  -4  20   6   45.48   45.79
   4  20  -6  106.91   51.42
  -4  20   7   11.52   31.58
   4  20  -7   45.79   39.82
  -4  20   8   20.89   46.39
   4  20  -8   72.44   53.87
  -4  20   9   29.07   31.52
   4  20  -9   38.99   18.08
   4  20 -10  -42.64   35.05
   4  20 -11   19.94   39.00
   4  20 -12   22.84   36.53
   4  20 -13  -45.95   36.69
   5  20  19  -39.02   33.94
   5  20  18    6.53   30.73
   5  20  17    0.06   40.83
  -5  20 -17   25.93   27.54
   5  20  16  -17.24   24.29
  -5  20 -16  -11.03   20.06
   5  20  15   22.37   26.35
  -5  20 -15    0.05   15.06
   5  20  14   42.87   33.22
  -5  20 -14  -43.61   34.05
   5  20  13    0.06   24.74
  -5  20 -13   21.21   29.80
   5  20  12   38.95   32.88
  -5  20 -12    9.06   18.80
   5  20  11  -28.07   28.64
  -5  20 -11  -37.14   31.69
   5  20  10    8.82   14.12
  -5  20 -10  -59.54   39.43
   5  20   9   51.02   39.36
  -5  20  -9   52.59   35.16
   5  20   8    2.79   24.08
  -5  20  -8   -6.16   12.75
   5  20   7   19.20   20.34
  -5  20  -7   68.40   52.36
  -5  20  -6  -19.67   25.76
   5  20   6  -76.20   43.67
   5  20   5  -54.28   37.17
  -5  20  -5  -24.61   25.70
  -5  20  -4   -3.53   13.97
   5  20   4  -14.73   16.33
  -5  20  -3   28.25   37.05
   5  20   3   60.38   29.71
  -5  20  -2   40.52   41.21
   5  20   2    9.28   28.54
  -5  20  -1   37.00   36.02
   5  20   1  -15.30   29.04
  -5  20   0   41.50   38.67
   5  20   0  131.43   65.09
  -5  20   1   43.35   38.82
   5  20  -1   81.36   48.52
  -5  20   2   59.90   44.96
   5  20  -2   49.46   46.22
  -5  20   3   17.86   23.67
   5  20  -3   64.77   52.52
  -5  20   4    2.89   11.25
   5  20  -4   24.91   27.59
  -5  20   5    2.57   29.04
   5  20  -5   91.77   54.48
  -5  20   6   36.94   37.79
   5  20  -6   50.57   42.17
  -5  20   7   35.85   36.59
   5  20  -7   16.00   21.81
  -5  20   8   20.07   34.08
   5  20  -8  -33.22   31.42
   5  20  -9   42.25   12.76
   5  20 -10   42.04   34.29
   5  20 -11   21.36   42.65
   5  20 -12   16.11   20.40
   6  20  19    1.55   19.32
   6  20  18    0.41   20.67
   6  20  17  -28.80   29.60
  -6  20 -17   19.60   24.45
   6  20  16    1.56   23.40
  -6  20 -16   11.22   19.49
   6  20  15  -36.77   32.74
  -6  20 -15  -33.32   30.26
   6  20  14   26.44   46.85
  -6  20 -14   13.22   41.76
   6  20  13   27.04   19.74
  -6  20 -13  -61.51   39.73
   6  20  12  -47.19   36.02
  -6  20 -12   43.84   45.73
   6  20  11    9.94   27.04
  -6  20 -11   19.99   32.66
   6  20  10   39.55   33.74
  -6  20 -10   63.83   47.56
   6  20   9    2.72   21.87
  -6  20  -9    5.95   22.67
   6  20   8   24.43   25.81
  -6  20  -8   83.79   50.29
  -6  20  -7   18.15   22.66
   6  20   7   -7.43   32.17
  -6  20  -6    2.86   22.03
   6  20   6   48.08   28.30
  -6  20  -5   18.52   26.98
   6  20   5   -3.59   20.60
   6  20   4   71.60   51.08
  -6  20  -4   61.11   46.08
  -6  20  -3   -7.75   16.39
   6  20   3  -10.32   22.21
  -6  20  -2   73.25   48.03
   6  20   2   79.57   47.98
  -6  20  -1  -28.96   27.66
   6  20   1   -6.76   14.47
  -6  20   0  103.62   55.86
   6  20   0   94.98   59.89
  -6  20   1   39.29   35.67
   6  20  -1    1.74   35.77
  -6  20   2   55.12   56.14
   6  20  -2   67.60   50.83
  -6  20   3   65.74   44.35
   6  20  -3   14.14   41.49
  -6  20   4    3.53   10.73
   6  20  -4   48.88   40.24
  -6  20   5   -3.63   14.19
   6  20  -5   29.43   32.88
  -6  20   6   24.36   34.33
   6  20  -6    5.15   11.66
  -6  20   7   28.78   29.55
   6  20  -7  -16.83   15.64
   6  20  -8    4.86   13.49
   6  20  -9   -8.67   30.30
   6  20 -10  -20.20   32.99
   6  20 -11   -4.26   20.84
   7  20  18   -0.06   16.77
   7  20  17    9.96   35.34
  -7  20 -17  -68.02   41.68
   7  20  16  124.09   65.54
  -7  20 -16  -21.05   25.16
   7  20  15  -15.26   22.77
  -7  20 -15  -53.38   37.12
   7  20  14    0.89   16.15
  -7  20 -14    0.75   17.86
   7  20  13  -18.32   23.85
  -7  20 -13  -84.57   45.68
   7  20  12   15.14   32.28
  -7  20 -12  -20.97   24.74
   7  20  11    5.25   31.83
  -7  20 -11   10.05   40.65
   7  20  10   -0.86   20.86
  -7  20 -10   30.51   29.23
   7  20   9   75.87   43.44
  -7  20  -9    0.05   25.26
   7  20   8   15.48   28.34
  -7  20  -8   32.51   19.65
   7  20   7   -6.99   12.72
  -7  20  -7   28.96   27.07
   7  20   6   13.39   24.58
  -7  20  -6   42.26   38.53
  -7  20  -5  -51.02   35.05
   7  20   5   14.42   19.11
  -7  20  -4   19.09   32.41
   7  20   4   11.78   24.28
  -7  20  -3   76.05   41.79
   7  20   3   74.80   50.91
  -7  20  -2   48.03   42.86
   7  20   2   85.08   56.21
  -7  20  -1   38.69   18.03
   7  20   1   57.99   57.07
  -7  20   0   67.52   45.06
   7  20   0   55.40   43.85
  -7  20   1    7.79   25.10
   7  20  -1   91.47   53.09
  -7  20   2   36.41   30.05
   7  20  -2   87.67   53.12
  -7  20   3   65.59   45.40
   7  20  -3   48.45   44.68
  -7  20   4   43.40   37.64
   7  20  -4   27.70   24.81
  -7  20   5   31.09   31.65
   7  20  -5   38.93   30.49
  -7  20   6   -9.11   18.27
   7  20  -6  -27.72   31.60
  -7  20   7   22.33   27.09
   7  20  -7   21.58   14.21
   7  20  -8  -21.94   33.92
   7  20  -9    2.78   25.64
   7  20 -10    4.99   29.48
   8  20  16   29.31   41.80
   8  20  15    4.35   27.33
  -8  20 -15  -24.53   25.95
   8  20  14   45.97   35.28
  -8  20 -14   12.64   20.02
   8  20  13  -43.20   34.50
  -8  20 -13  -27.71   27.70
   8  20  12    0.71   15.67
  -8  20 -12  -39.64   32.17
   8  20  11   -0.05   22.85
  -8  20 -11   58.03   42.94
   8  20  10   40.91   39.72
  -8  20 -10    5.83   26.47
   8  20   9   32.90   28.43
  -8  20  -9   24.50   26.60
   8  20   8  -11.95   21.85
  -8  20  -8   96.83   55.46
  -8  20  -7   22.26   29.55
   8  20   7   -3.39   12.56
  -8  20  -6   -7.10   16.44
   8  20   6   26.07   26.64
  -8  20  -5    6.13   19.24
   8  20   5   57.25   45.65
  -8  20  -4    0.65   32.66
   8  20   4   59.25   40.77
  -8  20  -3   31.19   33.38
   8  20   3   95.16   62.46
  -8  20  -2    9.39   18.10
   8  20   2   -7.05   28.25
  -8  20  -1   46.59   38.28
   8  20   1  -28.29   38.89
  -8  20   0   12.13   27.95
   8  20   0  -60.72   40.68
  -8  20   1   12.86   23.65
   8  20  -1   -9.86   23.94
  -8  20   2  -59.79   38.31
   8  20  -2   47.18   35.80
  -8  20   3   35.14   32.36
   8  20  -3   21.29   15.13
  -8  20   4   24.22   40.18
   8  20  -4   27.40   29.06
  -8  20   5   31.80   35.53
   8  20  -5   -0.06   12.47
  -8  20   6    0.05   15.69
   8  20  -6   12.46   14.10
   8  20  -7  -19.34   25.97
   8  20  -8   55.07   42.23
   8  20  -9   42.72   42.51
   9  20  14    8.18   12.66
   9  20  13   18.56   26.66
  -9  20 -13  -26.53   26.92
   9  20  12    0.05   24.40
  -9  20 -12   33.58   34.54
   9  20  11   72.36   35.79
  -9  20 -11  -70.83   42.18
   9  20  10   -6.51   33.09
  -9  20 -10   43.71   45.98
   9  20   9   45.57   44.71
  -9  20  -9   31.31   33.20
  -9  20  -8   40.38   41.46
   9  20   8   40.09   34.38
  -9  20  -7    9.79   25.08
   9  20   7  100.12   59.94
  -9  20  -6   15.96   22.73
   9  20   6   24.43   37.89
  -9  20  -5  -10.83   15.22
   9  20   5  -28.10   24.26
  -9  20  -4  -12.88   19.54
   9  20   4   18.29   31.53
  -9  20  -3   30.54   37.13
   9  20   3    7.78   27.20
  -9  20  -2   68.82   46.31
   9  20   2  -19.78   34.40
  -9  20  -1  -17.39   22.66
   9  20   1  -83.72   47.09
  -9  20   0  -25.35   26.54
   9  20   0   56.79   47.81
  -9  20   1   20.39   27.21
   9  20  -1   32.76   31.02
  -9  20   2   17.94   26.47
   9  20  -2   -5.48   17.03
  -9  20   3   22.33   16.06
   9  20  -3   10.58   14.51
  -9  20   4  -24.58   26.05
   9  20  -4   80.09   54.64
  -9  20   5  -41.98   33.43
   9  20  -5   49.81   43.17
  -9  20   6   49.41   37.98
   9  20  -6  -75.54   45.98
   9  20  -7   53.46   37.69
   9  20  -8   31.07   32.42
 -10  20 -11    0.05   20.57
  10  20  11   26.29   27.50
  10  20  10   44.93   34.62
 -10  20 -10   33.63   40.89
 -10  20  -9   -2.80   12.55
  10  20   9   41.62   42.35
 -10  20  -8  -37.82   30.95
  10  20   8   40.21   45.32
 -10  20  -7    6.74   21.68
  10  20   7  -26.20   13.88
 -10  20  -6   93.00   53.73
  10  20   6    4.77   17.36
 -10  20  -5   14.69   18.21
  10  20   5  -11.09   15.34
 -10  20  -4  -46.14   33.78
  10  20   4  -22.09   32.78
 -10  20  -3   35.67   39.87
  10  20   3  -21.34   14.90
 -10  20  -2   37.49   40.37
  10  20   2   61.01   57.45
 -10  20  -1  -57.17   37.69
  10  20   1   19.63   37.27
 -10  20   0  -19.81   23.64
  10  20   0   49.13   44.96
 -10  20   1  -53.33   36.61
  10  20  -1    1.09   14.59
 -10  20   2   13.94   11.77
  10  20  -2  -39.35   33.86
 -10  20   3    2.33   11.82
  10  20  -3   18.51   22.19
 -10  20   4   85.33   40.71
  10  20  -4  -25.08   37.98
 -10  20   5   47.39   43.94
  10  20  -5   28.13   37.98
  10  20  -6   25.77   34.38
  10  20  -7    0.06   18.80
  20  11 -13    0.05   31.66
  20  11 -12   -8.34   16.79
  11  20   9  -53.30   38.87
 -11  20  -8   11.89   29.71
  11  20   8   12.71   14.35
 -11  20  -7    0.66   12.80
  11  20   7   -1.65   13.39
 -11  20  -6   23.68   39.35
  11  20   6  -44.18   35.33
 -11  20  -5    8.33   17.05
  11  20   5   -8.84   29.72
 -11  20  -4  -76.63   42.79
  11  20   4    4.23   13.09
 -11  20  -3    6.34   22.81
  11  20   3   67.33   44.03
 -11  20  -2   35.54   36.62
  11  20   2  -42.54   34.98
 -11  20  -1   13.93   38.53
  11  20   1    6.30   24.61
 -11  20   0    8.24   26.13
  11  20   0   -0.63   25.70
 -11  20   1  -23.65   25.32
  11  20  -1    5.96   25.03
 -11  20   2    8.71   23.91
  11  20  -2   13.84   33.86
 -11  20   3   -0.05   14.04
  11  20  -3 -131.83   60.11
 -11  20   4    1.14   23.23
  11  20  -4   38.91   41.92
 -11  20   5   50.54   45.58
  11  20  -5   74.42   42.59
  12  20   7   -7.41   18.03
 -12  20  -6   63.06   42.79
  12  20   6   28.81   43.25
 -12  20  -5   -9.69   17.85
  12  20   5   13.02   27.63
 -12  20  -4    9.87   24.80
  12  20   4   -4.67   13.40
 -12  20  -3   21.61   31.10
  12  20   3  -68.51   43.19
 -12  20  -2   16.19   22.20
  12  20   2   43.61   45.32
 -12  20  -1  -21.82   24.97
  12  20   1   42.26   42.13
 -12  20   0   57.37   41.46
  12  20   0   82.42   46.09
 -12  20   1  -53.73   36.89
  12  20  -1    9.39   26.28
 -12  20   2   44.19   44.60
  12  20  -2   33.09   34.99
 -12  20   3  -61.24   39.89
  12  20  -3    1.49   14.52
 -12  20   4    7.75   22.83
  12  20  -4   64.53   58.36
  13  20   4  -45.59   35.98
 -13  20  -3    1.41   15.46
  13  20   3  -27.37   28.97
 -13  20  -2   46.62   45.74
  13  20   2  -44.42   35.86
 -13  20  -1   13.18   29.77
  13  20   1   67.75   52.36
 -13  20   0  -69.89   42.12
  13  20   0  -94.88   50.82
 -13  20   1  -20.29   24.38
  13  20  -1   37.67   38.86
 -13  20   2  -13.71   20.62
  13  20  -2   92.61   53.64
  14  20   1  -22.41   26.85
  14  20   0  -46.59   36.86
   0  21   0   28.10   30.16
   0  21  -1   55.87   49.69
   0  21   1   16.18   14.07
   0  21   2   19.48   26.21
   0  21  -2  -22.53   16.39
   0  21   3   -0.16   21.82
   0  21  -3   -0.66   28.42
   0  21   4   31.97   31.59
   0  21  -4   76.77   51.21
   0  21   5    2.15   14.43
   0  21  -5   42.76   28.71
   0  21   6   57.49   47.68
   0  21  -6   25.56   33.44
   0  21   7    3.36   19.20
   0  21  -7   -0.47   34.62
   0  21   8  -51.63   37.52
   0  21  -8   64.62   33.41
   0  21   9    6.26   17.45
   0  21  -9   18.85   27.03
   0  21  10   24.56   37.83
   0  21 -10    3.24   13.39
   0  21  11    9.04   19.56
   0  21 -11   12.47   27.96
   0  21  12  -26.44   28.96
   0  21 -12   61.62   55.13
   0  21  13    4.42   13.84
   1  21  14   36.25   37.57
   1  21  13  -44.79   35.93
   1  21  12  -20.01   25.31
  -1  21 -12   -5.44   16.95
   1  21  11   41.91   40.56
  -1  21 -11    0.64   16.45
   1  21  10    9.95   29.04
  -1  21 -10  -18.57   24.39
   1  21   9   23.60   31.38
  -1  21  -9    7.43   12.38
   1  21   8    3.28   29.59
  -1  21  -8   52.06   43.13
   1  21   7  -37.76   32.61
  -1  21  -7   29.82   41.65
   1  21   6   -1.00   18.69
  -1  21  -6    5.15   31.85
   1  21   5   30.16   23.26
  -1  21  -5   27.44   34.22
   1  21   4   22.31   31.87
  -1  21  -4   26.26   24.97
  -1  21  -3    4.28   17.72
   1  21   3   28.05   31.87
   1  21   2   65.37   48.01
  -1  21  -2   42.11   44.02
   1  21   1    9.06   14.03
  -1  21  -1   19.18   33.29
   1  21   0   -7.25   25.23
  -1  21   0  -88.03   46.97
  -1  21   1  -20.24   22.38
   1  21  -1   46.02   34.17
  -1  21   2  -14.20   35.97
   1  21  -2    1.10   22.19
  -1  21   3   -3.38   14.59
   1  21  -3   -1.51   22.04
  -1  21   4   68.65   51.93
   1  21  -4   -4.21   21.13
  -1  21   5   21.07   32.82
   1  21  -5   50.04   43.94
  -1  21   6   44.91   36.36
   1  21  -6   33.12   40.48
  -1  21   7   22.96   22.45
   1  21  -7   -5.86   15.90
  -1  21   8    5.81   24.55
   1  21  -8    0.87   12.66
  -1  21   9   92.04   62.55
   1  21  -9  -54.17   39.19
  -1  21  10    3.46   26.03
   1  21 -10   72.19   46.63
  -1  21  11  -11.70   20.91
   1  21 -11   19.59   31.80
  -1  21  12    9.94   19.19
  -1  21  13    3.32   12.27
   2  21  14    3.85   30.24
   2  21  13   12.48   28.83
   2  21  12    3.26   36.29
  -2  21 -12   -0.06   23.96
   2  21  11    8.50   25.80
  -2  21 -11   10.09   29.30
   2  21  10   47.76   46.01
  -2  21 -10    4.41   25.51
   2  21   9   22.50   26.15
  -2  21  -9   31.83   36.02
   2  21   8   94.26   58.27
  -2  21  -8  -29.63   29.89
   2  21   7  -35.07   31.77
  -2  21  -7  -18.01   39.54
   2  21   6   40.85   45.10
  -2  21  -6   51.00   19.53
   2  21   5    1.20   22.52
  -2  21  -5   73.76   58.07
   2  21   4   10.75   29.58
  -2  21  -4  -17.00   29.66
  -2  21  -3   98.52   61.18
   2  21   3    6.81   15.49
   2  21   2  -22.30   34.50
  -2  21  -2   24.35   41.17
   2  21   1   14.75   27.81
  -2  21  -1  -36.02   31.04
  -2  21   0  -38.73   14.49
   2  21   0    6.69   13.87
  -2  21   1  -32.70   29.91
   2  21  -1   49.80   35.74
  -2  21   2   33.96   23.86
   2  21  -2   22.36   36.56
  -2  21   3   67.81   48.22
   2  21  -3   20.83   29.79
  -2  21   4   18.92   25.58
   2  21  -4   35.23   34.63
  -2  21   5    8.72   19.15
   2  21  -5   67.43   60.68
  -2  21   6    1.49   20.24
   2  21  -6   23.80   45.37
  -2  21   7   10.65   26.88
   2  21  -7   -7.71   40.69
  -2  21   8   20.77   26.15
   2  21  -8  -31.28   32.55
  -2  21   9   43.31   37.59
   2  21  -9   35.86   36.45
  -2  21  10   72.74   41.03
   2  21 -10   12.27   19.96
  -2  21  11  -13.68   22.34
   2  21 -11    7.27   39.46
  -2  21  12   12.73   33.26
   3  21  15    0.06   20.05
   3  21  14  -85.39   48.98
   3  21  13   49.54   53.68
  -3  21 -13  -15.72   23.10
   3  21  12    8.51   21.10
  -3  21 -12  -82.37   47.19
   3  21  11   43.33   50.24
  -3  21 -11  -16.43   23.01
   3  21  10   10.71   28.36
  -3  21 -10    2.41   14.09
   3  21   9  -16.40   23.35
  -3  21  -9   64.12   49.65
   3  21   8   -7.58   19.30
  -3  21  -8   -4.37   15.21
   3  21   7   -5.70   29.64
  -3  21  -7   25.08   44.88
   3  21   6   65.79   41.85
  -3  21  -6   36.37   29.70
  -3  21  -5   39.60   48.04
   3  21   5   56.33   45.06
  -3  21  -4  -48.05   35.38
   3  21   4   -5.53   23.14
   3  21   3   -1.70   23.97
  -3  21  -3   19.19   27.75
   3  21   2   -3.79   14.35
  -3  21  -2   30.31   33.03
  -3  21  -1  -20.02   24.27
   3  21   1   30.48   16.93
  -3  21   0  -19.61   26.78
   3  21   0   13.84   24.74
  -3  21   1    9.63   14.36
   3  21  -1   -4.24   35.00
  -3  21   2   42.67   39.99
   3  21  -2   31.57   33.35
  -3  21   3   -8.41   18.26
   3  21  -3   82.32   54.33
  -3  21   4   31.75   42.42
   3  21  -4   35.36   39.67
  -3  21   5   82.42   55.67
   3  21  -5   30.93   32.64
  -3  21   6   10.48   27.91
   3  21  -6   50.40   35.12
  -3  21   7    1.44   13.59
   3  21  -7   88.40   55.34
  -3  21   8   -0.45   12.00
   3  21  -8  -32.06   31.37
  -3  21   9   25.64   42.09
   3  21  -9  -19.12   27.01
  -3  21  10   22.94   35.71
   3  21 -10   -2.22   16.63
  -3  21  11  -45.63   36.42
   4  21  15   20.28   43.25
   4  21  14    6.90   37.76
   4  21  13   18.54   19.21
  -4  21 -13   19.21   34.72
   4  21  12   43.83   49.77
  -4  21 -12    8.14   21.15
   4  21  11  -21.65   26.46
  -4  21 -11   73.00   52.44
   4  21  10  -32.20   30.92
  -4  21 -10   10.60   22.77
   4  21   9   -7.49   17.81
  -4  21  -9  -33.77   31.61
   4  21   8   14.88   20.75
  -4  21  -8  114.53   61.24
   4  21   7   15.34   24.79
  -4  21  -7   19.84   19.26
   4  21   6   -5.78   30.11
  -4  21  -6  -41.93   33.77
  -4  21  -5  -44.78   34.44
   4  21   5  -52.66   37.62
   4  21   4   27.53   34.96
  -4  21  -4   -1.65   12.09
   4  21   3   16.50   27.02
  -4  21  -3   62.30   41.89
   4  21   2   14.69   28.48
  -4  21  -2   25.51   38.40
  -4  21  -1   14.44   24.35
   4  21   1   12.08   14.54
  -4  21   0  -82.58   45.50
   4  21   0  -11.21   39.70
  -4  21   1    8.75   20.27
   4  21  -1   23.51   34.66
  -4  21   2   27.28   30.95
   4  21  -2    2.57   20.82
  -4  21   3   25.68   40.60
   4  21  -3   72.70   45.89
  -4  21   4   13.22   24.68
   4  21  -4  -17.30   36.53
  -4  21   5   99.79   52.49
   4  21  -5   30.89   39.52
  -4  21   6  -76.75   44.55
   4  21  -6    2.86   25.94
  -4  21   7   67.76   39.41
   4  21  -7   18.01   24.65
  -4  21   8   21.60   26.24
   4  21  -8   14.54   30.68
  -4  21   9    0.06   28.70
   4  21  -9   23.43   25.13
  -4  21  10  -19.01   24.98
   5  21  15   26.49   45.70
   5  21  14    2.40   17.73
   5  21  13    3.67   24.61
  -5  21 -13   12.37   20.65
   5  21  12  -44.14   35.70
  -5  21 -12  -19.20   24.89
   5  21  11   15.14   31.09
  -5  21 -11   54.80   45.71
   5  21  10  -48.81   37.11
  -5  21 -10   55.58   46.23
   5  21   9    0.91   11.82
  -5  21  -9  -14.95   22.88
   5  21   8  -27.04   28.43
  -5  21  -8    5.83   16.83
   5  21   7   52.43   48.72
  -5  21  -7    9.31   32.06
   5  21   6   35.22   25.03
  -5  21  -6   36.24   31.59
  -5  21  -5   38.59   39.42
   5  21   5  -26.01   26.98
  -5  21  -4   29.54   32.93
   5  21   4   61.16   46.97
   5  21   3   13.02   31.03
  -5  21  -3   23.32   25.02
  -5  21  -2    2.02   23.57
   5  21   2   21.07   25.46
  -5  21  -1    0.05   17.16
   5  21   1   43.79   33.85
  -5  21   0  -48.03   35.60
   5  21   0   20.55   33.47
  -5  21   1  -30.61   29.34
   5  21  -1   88.71   57.40
  -5  21   2   19.40   25.27
   5  21  -2   17.69   29.68
  -5  21   3  -22.06   25.97
   5  21  -3  -15.99   19.48
  -5  21   4  -17.80   23.30
   5  21  -4   31.53   45.27
  -5  21   5   56.79   40.61
   5  21  -5   43.75   36.94
  -5  21   6   40.44   40.84
   5  21  -6  100.35   59.91
  -5  21   7   31.32   42.65
   5  21  -7  -35.59   29.19
  -5  21   8   67.76   58.07
   5  21  -8   25.51   35.63
  -5  21   9    8.10   17.56
   6  21  15  -43.65   36.33
   6  21  14   77.00   46.71
   6  21  13   25.81   42.09
  -6  21 -13    5.21   21.90
   6  21  12   11.23   26.95
  -6  21 -12  -65.12   41.65
   6  21  11   44.71   37.61
  -6  21 -11    4.26   19.03
   6  21  10  -68.57   43.24
  -6  21 -10    0.06   24.83
   6  21   9   69.04   43.31
  -6  21  -9    0.06   18.59
   6  21   8   28.00   15.01
  -6  21  -8  -48.77   36.28
   6  21   7    3.28   17.60
  -6  21  -7   22.53   20.76
  -6  21  -6   43.84   45.50
   6  21   6   40.66   41.91
   6  21   5   -0.06   22.18
  -6  21  -5   20.58   30.80
  -6  21  -4   20.54   23.24
   6  21   4  -21.86   26.06
  -6  21  -3   35.31   13.76
   6  21   3    5.02   38.72
  -6  21  -2    7.01   20.27
   6  21   2   14.53   32.65
  -6  21  -1   11.51   25.86
   6  21   1  118.47   56.81
  -6  21   0   15.79   20.39
   6  21   0   19.26   30.91
  -6  21   1   46.58   46.25
   6  21  -1   61.49   42.11
  -6  21   2  -13.38   20.88
   6  21  -2   12.53   22.05
  -6  21   3  -46.43   35.59
   6  21  -3    8.04   31.84
  -6  21   4   -1.20   14.11
   6  21  -4   48.15   43.19
  -6  21   5   -7.17   31.66
   6  21  -5   22.60   34.19
  -6  21   6   48.06   27.13
   6  21  -6   18.34   18.22
  -6  21   7    0.57   23.65
   6  21  -7  -21.20   36.12
  -6  21   8   40.64   50.19
   7  21  15  -19.76   25.92
   7  21  14   12.75   26.82
   7  21  13    0.06   43.30
  -7  21 -13   15.68   30.96
   7  21  12  -22.93   27.32
  -7  21 -12   23.18   29.13
   7  21  11   11.48   41.80
  -7  21 -11  -12.88   20.87
   7  21  10  -62.73   41.75
  -7  21 -10   30.56   38.56
   7  21   9   68.19   45.08
  -7  21  -9   -8.85   18.70
   7  21   8   17.55   30.59
  -7  21  -8   18.81   33.21
   7  21   7   44.07   44.95
  -7  21  -7   51.08   41.34
  -7  21  -6    0.05   24.01
   7  21   6   53.78   51.17
  -7  21  -5   40.55   43.76
   7  21   5   32.95   31.92
  -7  21  -4   23.05   39.49
   7  21   4   46.89   35.45
  -7  21  -3    3.04   20.10
   7  21   3   75.98   61.44
  -7  21  -2  -26.33   27.23
   7  21   2   45.11   46.63
  -7  21  -1   -1.63   20.26
   7  21   1  -68.59   44.80
  -7  21   0   87.32   50.03
   7  21   0   34.38   42.09
  -7  21   1   34.46   39.92
   7  21  -1  -66.14   43.45
  -7  21   2    7.88   19.73
   7  21  -2   95.47   69.09
  -7  21   3   15.35   23.79
   7  21  -3    5.35   16.07
  -7  21   4   14.45   21.27
   7  21  -4   30.22   42.34
  -7  21   5    6.01   20.99
   7  21  -5 -113.24   56.35
  -7  21   6  -22.56   26.43
   7  21  -6   29.81   31.20
  -7  21   7   24.32   30.79
   8  21  15   -0.06   24.05
   8  21  14  -46.73   36.73
   8  21  13    0.76   31.48
  -8  21 -13  -40.14   33.09
   8  21  12  -29.82   30.02
  -8  21 -12  -15.15   22.08
   8  21  11  -20.84   25.84
  -8  21 -11  -58.19   39.85
   8  21  10  -32.20   31.00
  -8  21 -10    6.55   24.50
   8  21   9    5.57   12.47
  -8  21  -9  -28.65   28.79
   8  21   8   33.20   37.07
  -8  21  -8    2.03   13.17
  -8  21  -7   54.09   36.59
   8  21   7   58.19   46.69
  -8  21  -6  -45.16   34.45
   8  21   6  -16.41   24.12
  -8  21  -5   28.23   36.36
   8  21   5   79.93   50.39
  -8  21  -4   40.42   26.17
   8  21   4   -8.34   31.35
  -8  21  -3   24.13   30.72
   8  21   3   27.21   33.62
  -8  21  -2    6.69   10.91
   8  21   2    7.87   20.59
  -8  21  -1    4.13   28.40
   8  21   1   33.18   45.35
  -8  21   0   20.02   26.10
   8  21   0    4.95   17.40
  -8  21   1 -105.41   51.96
   8  21  -1  -29.74   33.17
  -8  21   2   20.02   25.06
   8  21  -2   79.23   59.53
  -8  21   3   57.05   42.73
   8  21  -3   37.94   38.31
  -8  21   4  -39.22   33.22
   8  21  -4   -3.22   22.36
  -8  21   5   -7.72   22.24
   8  21  -5   26.26   27.17
   9  21  13  -57.44   40.44
   9  21  12  -67.92   43.69
  -9  21 -12  -28.80   28.60
   9  21  11   63.42   37.73
  -9  21 -11  -35.92   32.12
  -9  21 -10  -43.60   35.05
   9  21  10   -7.22   31.03
   9  21   9    8.61   27.16
  -9  21  -9    0.06   19.88
  -9  21  -8   20.77   36.96
   9  21   8   20.26   39.63
  -9  21  -7   15.59   30.92
   9  21   7   96.59   67.60
  -9  21  -6   14.52   25.00
   9  21   6   17.52   27.39
  -9  21  -5   22.57   26.88
   9  21   5   10.46   17.20
  -9  21  -4    0.05   13.70
   9  21   4    5.29   19.30
  -9  21  -3  -10.93   19.60
   9  21   3   37.34   24.75
  -9  21  -2    5.24   15.74
   9  21   2   26.23   31.35
  -9  21  -1   16.54   28.80
   9  21   1  -17.23   24.31
  -9  21   0    5.30   33.25
   9  21   0   33.75   43.72
  -9  21   1   20.11   23.57
   9  21  -1  -89.28   50.60
  -9  21   2  -44.15   34.56
   9  21  -2   -4.50   14.22
  -9  21   3   -0.67   33.39
   9  21  -3  -77.93   47.50
  10  21  11    9.32   37.89
  10  21  10   32.75   34.12
 -10  21 -10    0.06   42.37
 -10  21  -9  -27.93   28.23
  10  21   9    6.20   14.61
  10  21   8   49.82   37.44
 -10  21  -8  -21.10   24.85
 -10  21  -7  -18.88   23.57
  10  21   7  -15.30   24.05
 -10  21  -6   79.22   53.86
  10  21   6   38.39   34.92
 -10  21  -5   11.67   25.48
  10  21   5   71.80   50.22
 -10  21  -4   -0.65   10.38
  10  21   4   15.17   30.79
 -10  21  -3   -5.11   21.25
  10  21   3    1.85   26.21
 -10  21  -2   24.92   38.47
  10  21   2   27.97   37.25
 -10  21  -1   15.27   37.93
  10  21   1  236.01   76.10
 -10  21   0  -24.12   26.65
  10  21   0    8.14   48.49
 -10  21   1   24.81   27.09
  10  21  -1  -54.16   40.16
  10  21  -2   41.17   43.80
  11  21   8  -52.43   39.42
 -11  21  -8   16.07   27.03
 -11  21  -7    0.05   21.82
  11  21   7   33.80   45.36
 -11  21  -6   40.08   47.40
  11  21   6   34.47   25.55
 -11  21  -5    4.19   11.17
  11  21   5   16.99   23.81
 -11  21  -4    3.35   19.43
  11  21   4  111.63   54.52
 -11  21  -3  -72.06   43.05
  11  21   3  -35.14   33.04
 -11  21  -2   70.92   52.05
  11  21   2  -65.44   43.86
  11  21   1  -45.39   37.08
  11  21   0  -13.77   28.53
  12  21   6  -38.58   34.13
  12  21   5   32.16   24.31
  12  21   4   23.83   27.08
  12  21   3   28.61   35.71
   0  22   0  118.73   67.07
   0  22   1  -53.71   38.58
   0  22  -1  -12.38   21.17
   0  22  -2   20.04   22.54
   0  22   2    7.59   38.12
   0  22   3  -19.01   34.31
   0  22  -3   14.73   27.03
   0  22   4   53.01   43.31
   0  22  -4   14.45   37.43
   0  22   5   -8.06   19.07
   0  22  -5   15.82   32.68
   0  22   6   33.53   40.64
   0  22  -6   13.46   38.53
   0  22   7   12.72   33.13
   0  22   8   36.19   28.11
   1  22   8   59.64   51.95
   1  22   7  -26.55   29.36
   1  22   6   -5.51   31.04
  -1  22  -6   44.60   41.99
   1  22   5   61.85   48.80
  -1  22  -5  -45.00   36.33
   1  22   4   50.51   42.44
  -1  22  -4   40.02   28.12
  -1  22  -3   34.43   35.14
   1  22   3   -1.91   19.00
   1  22   2   12.33   27.03
  -1  22  -2   55.07   42.00
   1  22   1   40.62   38.67
  -1  22  -1   34.64   29.31
  -1  22   0   27.87   36.57
   1  22   0   44.31   45.44
   1  22  -1   11.91   24.17
  -1  22   1   -7.89   29.74
  -1  22   2   -7.85   27.75
   1  22  -2   18.33   20.60
  -1  22   3   17.53   25.16
   1  22  -3   51.06   41.89
  -1  22   4   -3.27   15.09
   1  22  -4    4.67   16.12
  -1  22   5   28.07   37.56
   1  22  -5   91.55   59.55
  -1  22   6  -39.77   34.59
   1  22  -6  -75.53   47.22
  -1  22   7   15.53   32.61
   2  22   9   39.69   35.32
   2  22   8  -16.89   24.41
   2  22   7   -8.73   19.10
  -2  22  -7   44.97   55.81
   2  22   6   10.60   27.64
  -2  22  -6   53.45   42.20
   2  22   5    8.30   31.37
  -2  22  -5   36.31   35.05
   2  22   4   48.78   47.01
  -2  22  -4   37.66   37.47
   2  22   3  -25.40   26.80
  -2  22  -3  -53.40   38.80
   2  22   2  -14.52   28.65
  -2  22  -2    7.75   26.16
  -2  22  -1   13.07   30.17
   2  22   1   12.63   23.47
   2  22   0   82.38   46.68
  -2  22   0    4.16   18.51
  -2  22   1   20.36   20.14
   2  22  -1  -22.11   26.15
  -2  22   2   -2.99   14.23
   2  22  -2   46.66   49.36
  -2  22   3   -3.84   20.56
   2  22  -3   64.60   51.74
  -2  22   4   54.42   46.50
   2  22  -4  -12.98   30.15
  -2  22   5   25.97   28.80
   2  22  -5   23.83   34.82
  -2  22   6   26.88   28.88
   3  22   9  -96.88   52.79
   3  22   8  -27.23   29.72
   3  22   7   16.09   21.58
   3  22   6   54.93   45.19
  -3  22  -6   26.93   35.41
   3  22   5   20.74   32.36
  -3  22  -5   46.51   47.98
   3  22   4   68.01   41.58
  -3  22  -4   76.73   49.42
  -3  22  -3   47.41   33.80
   3  22   3   74.16   52.85
  -3  22  -2   54.39   48.98
   3  22   2  -12.72   22.25
   3  22   1   37.97   31.02
  -3  22  -1   14.78   24.80
  -3  22   0   -1.48   17.37
   3  22   0   24.81   27.48
  -3  22   1  -10.12   27.90
   3  22  -1    3.21   16.54
  -3  22   2  -81.04   47.15
   3  22  -2   -5.02   16.85
  -3  22   3   45.39   39.26
   3  22  -3   31.53   37.48
  -3  22   4   36.58   41.46
   3  22  -4   39.11   32.12
  -3  22   5   36.77   49.77
   4  22   9  -15.44   24.05
   4  22   8   21.36   44.56
   4  22   7   13.63   24.28
   4  22   6   24.01   35.69
  -4  22  -6   62.52   51.60
  -4  22  -5    9.20   23.48
   4  22   5   20.09   26.60
   4  22   4   12.77   25.53
  -4  22  -4   13.96   20.22
   4  22   3   -8.55   29.66
  -4  22  -3   16.12   16.14
  -4  22  -2   10.64   19.41
   4  22   2   44.02   45.36
  -4  22  -1   -6.24   20.97
   4  22   1   58.23   40.15
  -4  22   0    9.02   20.80
   4  22   0    7.99   36.38
  -4  22   1   24.73   34.08
   4  22  -1   86.20   57.63
  -4  22   2   30.67   40.74
   4  22  -2   92.00   59.41
  -4  22   3   14.60   25.67
   4  22  -3    2.45   23.00
  -4  22   4  -25.46   28.40
   5  22   9    0.79   28.81
   5  22   8  -13.67   23.17
   5  22   7   39.85   43.90
   5  22   6    1.31   14.82
   5  22   5   22.23   31.97
  -5  22  -5   25.94   32.55
  -5  22  -4    3.98   15.24
   5  22   4   74.07   50.10
  -5  22  -3   63.66   42.06
   5  22   3   -2.79   19.54
  -5  22  -2   31.66   35.58
   5  22   2   89.85   54.40
  -5  22  -1   45.71   35.25
   5  22   1   90.53   57.09
  -5  22   0   18.96   24.90
   5  22   0  101.21   67.57
  -5  22   1   24.41   37.87
   5  22  -1   52.55   45.12
  -5  22   2   29.85   30.25
   5  22  -2  -61.85   43.72
   6  22   8    0.91   29.55
   6  22   7   21.13   37.14
   6  22   6   17.43   43.18
   6  22   5   88.43   48.54
  -6  22  -4   60.82   42.98
   6  22   4   86.84   58.65
  -6  22  -3   22.58   36.44
   6  22   3   31.30   39.33
  -6  22  -2    5.34   15.93
   6  22   2  -13.10   22.66
  -6  22  -1    6.47   32.94
   6  22   1  -66.13   45.05
   6  22   0   64.33   61.22
   7  22   7    1.11   16.21
   7  22   6   18.50   38.74
   7  22   5  121.29   67.95
   7  22   4   53.52   60.02
   7  22   3   21.48   31.55
   7  22   2  -18.82   26.23
   0   0   0    0.00    0.00


TITL P20201223C10 in P4(1)22
REM P4(1)22 (#91 in standard setting)
CELL 0.71073  17.900089  17.900089  26.387116  90.0000  90.0000  90.0000
ZERR   37.00   0.001631   0.001631   0.004811   0.0000   0.0000   0.0000
LATT -1
SYMM -x,-y, z+1/2
SYMM -y, x, z+1/4
SYMM  y,-x, z+3/4
SYMM -x, y,-z
SYMM  x,-y,-z+1/2
SYMM  y, x,-z+3/4
SYMM -y,-x,-z+1/4
SFAC C H N O
UNIT 407.00 370.00 37.00 37.00
TREF
HKLF 4
END
_computing_structure_solution     'SHELXT 2018/2 (Sheldrick, 2018)'
;
_shelx_hkl_checksum              50779
_shelx_fab_file
;
    0    0    8    -26.67      1.13
    0    0   12     28.67      0.47
    0    0   16      0.93      0.08
    0    0   20    -17.85      0.01
    0    0   24     -5.09      0.32
    0    0   28     -9.52      0.73
    0    0   32     -0.96      0.06
    0    1    4    -15.40      0.98
    0    1    8      1.46      0.22
    0    1    9      0.28    -22.40
    0    1   10     10.05     -0.08
    0    1   11     -0.38      5.08
    0    1   12     15.30      0.44
    0    1   13     -0.57      7.50
    0    1   14    -19.32     -0.32
    0    1   15      0.52     11.84
    0    1   16     -2.07      0.93
    0    1   17      0.42      6.95
    0    1   18     14.76      0.01
    0    1   19     -0.60     -6.44
    0    1   20     -8.14      0.36
    0    1   21     -1.02     15.05
    0    1   22     14.21      0.03
    0    1   23      0.93     -3.91
    0    1   25      0.06     15.22
    0    1   26     23.00     -0.97
    0    1   27     -0.47    -13.38
    0    1   28      4.76      0.62
    0    1   29     -1.33      0.71
    0    1   30     -2.56      0.00
    0    1   31      1.78     -5.95
    0    1   32     -5.42      0.28
    0    1   33     -0.77      0.68
    0    1   34      1.35      0.12
    1    1    4    -17.37      0.61
    1    1    7     16.60    -17.03
    1    1    9     -9.28     -8.20
    1    1   10     -0.36      0.92
    1    1   11      0.62     -0.75
    1    1   12      3.59      0.26
    1    1   13     11.28     11.97
    1    1   14      0.85     -3.52
    1    1   15     -7.72      7.05
    1    1   16     -9.59      0.33
    1    1   17      4.43      4.09
    1    1   18     -1.51     -2.51
    1    1   19      9.55    -11.89
    1    1   20      6.72      0.40
    1    1   21      0.21      1.08
    1    1   22      1.29     11.58
    1    1   24     13.87     -1.03
    1    1   25      0.10      0.56
    1    1   26      0.02     -8.78
    1    1   27      5.75     -6.86
    1    1   28     13.50     -4.05
    1    1   29      0.35     -0.49
    1    1   30      0.80     -2.90
    1    1   31     -2.66      2.87
    1    1   32     -2.33      0.60
    1    1   33      1.22      0.93
    1    1   34      0.00     -8.26
    0    2    3     -0.54     -7.16
    0    2    4      3.49     -1.01
    0    2    5     -1.16      0.08
    0    2    6      5.69      0.47
    0    2    7      0.14      9.82
    0    2    8     -6.43      0.19
    0    2   10      1.43     -0.18
    0    2   11     -1.16      2.39
    0    2   12      4.21     -0.28
    0    2   14    -11.66     -0.13
    0    2   16     -5.37      0.49
    0    2   17      0.39      1.45
    0    2   18      6.97     -0.79
    0    2   19      0.21     -6.86
    0    2   20     -2.13      0.30
    0    2   21     -1.16      7.57
    0    2   22     30.30     -0.41
    0    2   23     -0.08    -16.25
    0    2   24    -17.17      0.33
    0    2   25      0.43     17.25
    0    2   26     14.29     -1.38
    0    2   27      1.00    -21.56
    0    2   28      7.95     -0.06
    0    2   29     -6.80     -3.68
    0    2   30      2.66     -0.42
    0    2   31      3.50    -13.18
    0    2   32     -2.89      0.96
    0    2   33     -0.93     -2.85
    0    2   34      2.85     -0.11
    1    2   35    -10.59     -6.56
    1    2   34     -1.82     -3.20
    1    2   33     -2.49     -4.09
    1    2   32      1.22      0.96
    1    2   31     -6.68     -2.21
    1    2   30      3.57      0.42
    1    2   29      5.33     -5.93
    1    2   28     10.12     -2.43
    1    2   27      1.96     -8.18
    1    2   26     -1.74     -8.73
    1    2   25     -8.21     -2.49
    1    2   24      2.20      2.22
    1    2   23     -0.42      0.24
    1    2   22     14.87     22.68
    1    2   21    -10.36     -3.01
    1    2   20     11.96      3.10
    1    2   19      8.89     -6.10
    1    2   18     -6.34      0.39
    1    2   17      6.24      2.87
    1    2   16     -9.73     10.88
    1    2   15      1.53    -13.99
    1    2   14     12.68     -1.27
    1    2   13      6.35     -7.05
    1    2   12     -2.79      3.53
    1    2   11     -0.84     -7.75
    1    2   10      0.66     -4.59
    1    2    9     -1.91      7.97
    1    2    8     -6.22     -8.74
    1    2    7    -14.71     10.70
    1    2    6    -30.40      4.07
    1    2    5     11.39      6.19
    1    2    4      2.40   -115.67
    1    2    3     25.81     21.60
    2    2    0     22.83     -2.92
    2    2    2      1.66    -77.80
    2    2    3     35.04    -33.98
    2    2    4    -28.11     -0.12
    2    2    6      0.49    -63.07
    2    2    7    -26.71     27.74
    2    2    8    -31.51     -0.14
    2    2    9     15.75     15.29
    2    2   10     -0.21     -7.00
    2    2   11     -1.74      1.49
    2    2   12      7.86      0.41
    2    2   13    -14.20    -14.22
    2    2   14      0.27      9.33
    2    2   15      6.69     -6.81
    2    2   16      9.85      0.13
    2    2   17     13.76     10.99
    2    2   18      0.01     -0.94
    2    2   19      0.64     -1.76
    2    2   20      7.30     -0.84
    2    2   21     -8.51     -7.79
    2    2   22      1.55     37.22
    2    2   23     -7.07      6.05
    2    2   24      6.29     -0.34
    2    2   25     -3.99     -6.38
    2    2   26      0.61     -3.00
    2    2   27      6.74     -0.44
    2    2   28      8.45      0.48
    2    2   29      4.36      3.22
    2    2   30     -2.51      1.21
    2    2   31      0.00     -1.21
    2    2   32     -2.68     -1.46
    2    2   33     -9.57     -7.52
    2    2   34     -0.24     -5.01
    0    3    1      0.86     56.37
    0    3    2     69.05      0.82
    0    3    3     -1.30    -95.72
    0    3    4    -51.79      0.62
    0    3    5     -1.99     -1.79
    0    3    6    -18.45     -2.59
    0    3    7      0.30     -9.40
    0    3    8    -18.79      0.23
    0    3    9      2.75    -20.75
    0    3   10    -12.22      1.19
    0    3   11     -0.18      7.68
    0    3   12    -11.34     -1.70
    0    3   13     -1.64      3.04
    0    3   14    -12.76     -1.04
    0    3   15      1.00      5.31
    0    3   16      4.18      2.94
    0    3   17     -0.96     16.42
    0    3   18     12.79      0.32
    0    3   19      0.51     -4.16
    0    3   20      5.69     -0.99
    0    3   21     -1.33      1.82
    0    3   22      5.48      0.36
    0    3   23      0.31     -2.14
    0    3   24    -26.13      0.26
    0    3   25     -0.14     13.53
    0    3   26     15.59     -0.87
    0    3   27      1.18    -11.52
    0    3   28      6.61     -0.58
    0    3   29     -9.02     10.62
    0    3   30      3.26      0.19
    0    3   31      5.90    -11.80
    0    3   32      7.24      0.07
    0    3   33      0.08     -3.27
    1    3   35     -1.45     -2.92
    1    3   34      0.57      6.29
    1    3   33     -1.89     -0.65
    1    3   32      7.14      2.58
    1    3   31    -10.38     -0.39
    1    3   30      4.60     -2.54
    1    3   29      6.93      1.40
    1    3   28      0.05     -6.64
    1    3   27      3.18      3.04
    1    3   26      1.93     -9.23
    1    3   25     -9.07     -0.85
    1    3   24     -8.66     -1.90
    1    3   23     14.12     -1.58
    1    3   22     -2.77     -1.16
    1    3   21     -6.71     -0.07
    1    3   20     13.03      7.10
    1    3   19     -6.24      7.04
    1    3   18      3.54     -0.02
    1    3   17     -4.12     11.33
    1    3   16     -0.57     -1.37
    1    3   15     -3.52      3.62
    1    3   14      6.59     -2.46
    1    3   13     -6.77      9.26
    1    3   12    -18.20      5.64
    1    3   11     -2.95     -5.37
    1    3   10     -2.60     -2.98
    1    3    9      5.37     -8.66
    1    3    8    -16.04      3.39
    1    3    7     -5.63    -21.38
    1    3    6    -34.32     27.50
    1    3    5     23.60    -24.41
    1    3    4     -1.78    -18.56
    1    3    3    -20.36     -2.49
    1    3    2     25.52     18.40
    1    3    1      6.34     -8.73
    1    3    0    -51.48     -1.11
    2    3   35      0.58     -1.46
    2    3   34     -3.94     -2.10
    2    3   33     -6.73      1.85
    2    3   32      0.29      3.90
    2    3   31     -5.79      2.43
    2    3   30      1.26     -4.23
    2    3   29      5.15      0.99
    2    3   28     -1.45     -5.52
    2    3   27      1.42     -4.19
    2    3   26     -6.94     -0.50
    2    3   25      0.25      5.92
    2    3   24     -2.80    -10.16
    2    3   23     -2.49      3.37
    2    3   22      5.43      5.55
    2    3   21     -0.35     -9.11
    2    3   20      7.02     -2.88
    2    3   19    -17.38      9.34
    2    3   18    -11.09     -4.72
    2    3   17     13.41      7.32
    2    3   16     14.54      3.88
    2    3   15     -4.68     11.16
    2    3   14     -3.22      4.24
    2    3   13    -15.76     -2.38
    2    3   12      1.64      2.10
    2    3   11     -2.38      3.71
    2    3   10      7.47      1.75
    2    3    9     22.03    -12.53
    2    3    8    -20.13     10.08
    2    3    7     -2.17    -24.11
    2    3    6     -4.58     -6.21
    2    3    5      4.66    -10.85
    2    3    4      7.20     18.08
    2    3    3     -1.15    -11.75
    2    3    2     33.05     20.88
    2    3    0     18.82      0.77
    3    3    0     29.49      1.21
    3    3    1      4.47      3.91
    3    3    3     -3.21      3.52
    3    3    4     33.20      0.19
    3    3    5    -21.73    -22.18
    3    3    6      0.18      8.59
    3    3    7     31.15    -30.63
    3    3    8      0.89      0.33
    3    3    9      5.51      7.02
    3    3   10      0.71      1.21
    3    3   11      3.43     -3.83
    3    3   12     13.52      0.15
    3    3   13     -1.02     -0.47
    3    3   14     -0.03     -4.88
    3    3   15    -11.99     11.36
    3    3   16      2.95      0.50
    3    3   17      5.35      5.23
    3    3   18     -0.84      4.57
    3    3   19      6.58     -5.67
    3    3   20     -3.66      0.03
    3    3   21      1.71     -0.39
    3    3   22     -0.54    -11.38
    3    3   23    -14.40     14.90
    3    3   24      0.59      0.12
    3    3   25      0.82      1.21
    3    3   26      0.17     -2.29
    3    3   27      1.89     -2.95
    3    3   28      3.18     -0.66
    3    3   29     -8.68     -9.31
    3    3   30     -7.54      4.07
    3    3   31     -5.92      6.31
    3    3   32     -2.69      1.09
    3    3   33      4.58      4.45
    3    3   34      0.50     -8.41
    0    4    0     -8.13     -3.25
    0    4    2     28.30      0.64
    0    4    3      1.29     -2.36
    0    4    5     -1.05     35.95
    0    4    6     -0.95     -3.65
    0    4    7     -0.91     24.58
    0    4    8      4.31      2.45
    0    4    9      4.95      2.71
    0    4   10     12.72     -0.25
    0    4   11      0.39     -0.67
    0    4   12      8.19     -1.22
    0    4   13     -6.08     -8.75
    0    4   14     -8.10     -0.85
    0    4   15      0.62     -2.54
    0    4   16      4.18      1.34
    0    4   17      1.04      4.78
    0    4   18      1.56      0.00
    0    4   19     -1.34    -19.34
    0    4   20     16.95      0.07
    0    4   21     -4.48     -3.33
    0    4   22     -2.11     -0.63
    0    4   23      0.06     24.34
    0    4   24    -11.02     -2.85
    0    4   26     -2.20      4.43
    0    4   27      0.67    -12.96
    0    4   28     -4.77     -1.42
    0    4   29     -4.60     -1.98
    0    4   30      9.55     -0.61
    0    4   31      0.31    -12.84
    0    4   32     13.65     -0.21
    0    4   33      0.89     -3.11
    1    4   34      9.45     -1.50
    1    4   33     -1.96     -1.82
    1    4   32      9.97      1.67
    1    4   31    -12.26     -2.77
    1    4   30      3.98      2.79
    1    4   29     -0.26     -5.77
    1    4   28    -10.10      3.29
    1    4   27      1.88      3.77
    1    4   26     -4.34     -6.09
    1    4   25     -0.19      3.25
    1    4   24      2.17     -0.55
    1    4   23     -2.71      6.85
    1    4   22     -8.36     -5.51
    1    4   21    -18.08      2.64
    1    4   20     12.74     26.65
    1    4   19      0.19     -2.52
    1    4   18      3.02     12.90
    1    4   17     -9.88     -4.30
    1    4   16      0.27     -3.24
    1    4   15     -1.59      0.86
    1    4   14     -3.12      3.58
    1    4   13     -4.10     -2.34
    1    4   12     -1.86     -0.38
    1    4   11     -6.86     -4.26
    1    4   10     17.36     -0.64
    1    4    9     -0.19      5.33
    1    4    8      6.58      1.95
    1    4    7     -2.11      9.19
    1    4    6    -11.99     -6.61
    1    4    5     34.73     12.69
    1    4    4     -3.58     10.65
    1    4    3     11.10     24.72
    1    4    2     -6.23     17.56
    1    4    1      7.84    -44.85
    1    4    0     37.71     -1.94
    2    4   34      3.25     -6.70
    2    4   33     -3.57     -0.52
    2    4   32      3.22     -0.99
    2    4   31     -4.83      9.01
    2    4   30     -2.87     -4.25
    2    4   29     -2.95      4.33
    2    4   28    -12.51      4.04
    2    4   27     -3.37     -1.66
    2    4   26     -2.96      3.79
    2    4   25     10.94     18.82
    2    4   24      3.34      1.45
    2    4   23     -5.29      1.54
    2    4   22      5.48     10.03
    2    4   21     -9.07    -12.38
    2    4   20     10.94     25.26
    2    4   19    -21.57     14.54
    2    4   18     -8.39      4.12
    2    4   17     10.11      0.27
    2    4   16     -0.72      6.50
    2    4   15     -1.10      3.56
    2    4   14    -10.79      0.60
    2    4   13     -2.49     -4.31
    2    4   12      0.72     -1.28
    2    4   11      3.20      7.89
    2    4   10     11.74      7.04
    2    4    9      1.28     -7.71
    2    4    8      2.52     -3.31
    2    4    7     10.22     -8.53
    2    4    6     -6.44      1.79
    2    4    5      6.06     11.35
    2    4    4     -4.20      1.14
    2    4    3     10.53     -7.07
    2    4    2     19.74     -9.52
    2    4    1     27.10    -13.34
    2    4    0    -11.52      1.91
    3    4   34      1.62     -5.27
    3    4   33      2.39     15.91
    3    4   32     -1.58    -12.46
    3    4   31     -1.26     18.71
    3    4   30    -11.04      5.97
    3    4   29     -1.71     -6.59
    3    4   28      1.75      4.85
    3    4   27      1.98      5.59
    3    4   26     -2.99      2.84
    3    4   25      8.28      0.87
    3    4   24      7.04     11.60
    3    4   23    -10.10      7.27
    3    4   22     17.11      6.72
    3    4   21      1.64      1.29
    3    4   20      1.16      7.22
    3    4   19      1.01     -3.94
    3    4   18     -7.58     10.84
    3    4   17      6.45     12.82
    3    4   16    -11.27      2.82
    3    4   15      3.19      2.82
    3    4   14    -10.15     -9.23
    3    4   13      9.31     -3.72
    3    4   12      4.13     12.48
    3    4   11      6.89     -1.21
    3    4   10     -3.60     -0.40
    3    4    9      3.70      8.61
    3    4    8      5.12     -3.03
    3    4    7     10.72    -18.95
    3    4    6      0.57      7.24
    3    4    5    -25.69     -1.46
    3    4    4     24.22    -15.50
    3    4    3      2.85     12.10
    3    4    2      5.98     -7.84
    3    4    1      5.14     -6.56
    3    4    0     -5.15      0.58
    4    4    0    -20.08      0.62
    4    4    1     -0.02     -1.05
    4    4    3    -22.41     23.70
    4    4    4     58.96      0.47
    4    4    5    -21.76    -21.55
    4    4    6     -0.40     -2.73
    4    4    7     -3.19      3.07
    4    4    8     -4.32      0.35
    4    4    9      7.20      6.65
    4    4   10      0.51      5.59
    4    4   11      6.71     -6.22
    4    4   12     -5.64      0.17
    4    4   13      2.16      1.81
    4    4   14     -0.25     -2.25
    4    4   15      0.58      0.13
    4    4   16     -6.07     -0.02
    4    4   17      7.18      7.16
    4    4   18     -0.91     12.57
    4    4   19     11.61    -12.74
    4    4   20     -2.60      0.32
    4    4   21      6.49      6.78
    4    4   22      0.70    -15.60
    4    4   23     -5.50      6.30
    4    4   24      4.82     -1.19
    4    4   25     -0.42      1.21
    4    4   26     -0.92     -0.18
    4    4   27      6.79     -6.28
    4    4   28      8.02     -0.82
    4    4   29      9.53     10.04
    4    4   30      0.40      3.60
    4    4   31     -4.90      4.51
    4    4   32     -5.43     -0.08
    4    4   33     15.46     16.19
    4    4   34     -0.24      3.67
    0    5    0     25.09     -0.03
    0    5    1     -0.31      0.27
    0    5    2      4.45      0.71
    0    5    3      0.57     44.61
    0    5    4     10.21     -0.44
    0    5    5     -0.49    -30.07
    0    5    6     -4.39     -0.84
    0    5    7     -0.93     -3.25
    0    5    8      2.56      6.35
    0    5    9      1.81     -4.99
    0    5   10      1.10     -0.66
    0    5   11     -0.08     -5.60
    0    5   12      4.58      0.27
    0    5   13     -1.80     -3.29
    0    5   14     -1.77      0.34
    0    5   15      0.32      1.12
    0    5   16     -2.82     -0.43
    0    5   17      0.34      5.07
    0    5   18    -18.40      0.05
    0    5   19     -0.33      2.80
    0    5   20     18.49      2.42
    0    5   21     -1.52      2.21
    0    5   22      6.37      0.06
    0    5   23     -2.97     25.41
    0    5   24     -2.93     -1.57
    0    5   25      0.29    -10.53
    0    5   26     -8.70     13.01
    0    5   27     -0.24      6.58
    0    5   28     -1.90     -0.07
    0    5   29      1.52    -16.61
    0    5   30     11.71     -1.13
    0    5   31     -9.64     -7.79
    0    5   32     -0.74     -0.31
    0    5   33      3.59      4.85
    1    5   32     -1.29    -11.04
    1    5   31      6.23     -4.87
    1    5   30      1.46     -2.29
    1    5   29     12.25    -12.49
    1    5   28      1.76      3.12
    1    5   27      4.19      4.82
    1    5   26     -6.90      1.34
    1    5   25     -3.50      0.45
    1    5   24      7.73      3.69
    1    5   23    -20.59      6.05
    1    5   22      1.93      6.80
    1    5   21    -19.48     12.74
    1    5   20      4.69      2.87
    1    5   19      8.30      1.83
    1    5   18    -15.37      2.83
    1    5   17    -16.35     -9.38
    1    5   16      2.55     -5.90
    1    5   15     -4.40      7.73
    1    5   14     -5.29     -1.43
    1    5   13     -3.50     -2.64
    1    5   12     -0.63     -5.34
    1    5   11     -6.43     -3.86
    1    5   10      3.62     -0.95
    1    5    9     -4.74     -2.56
    1    5    8      5.79      0.79
    1    5    7     -1.42     -7.92
    1    5    6     -2.98     -7.72
    1    5    5      7.99     -6.88
    1    5    4     -4.62     15.55
    1    5    3      1.05     29.12
    1    5    2    -10.48      3.31
    1    5    1     16.52      8.14
    1    5    0     37.49      0.05
    1    5   33     16.13      2.01
    2    5   32     -3.54    -10.38
    2    5   31     15.93      1.56
    2    5   30     -1.93    -10.76
    2    5   29      8.10      0.12
    2    5   28     -1.99     -5.18
    2    5   27     -0.27     -4.50
    2    5   26     -0.34     -1.89
    2    5   25     -3.52      7.07
    2    5   24      6.20      1.07
    2    5   23     -3.50     -1.23
    2    5   22      7.43      4.03
    2    5   21     -5.70     -3.79
    2    5   20     -3.49      8.80
    2    5   19     -7.07      1.56
    2    5   18     -7.01     -5.76
    2    5   17     -9.39     -7.03
    2    5   16     -2.23     -1.41
    2    5   15     -8.68     -5.81
    2    5   14      0.15     -2.06
    2    5   13     -7.54      1.79
    2    5   12     -4.10     -3.33
    2    5   11      3.48      7.96
    2    5   10     -2.88      0.92
    2    5    9    -15.72     -9.14
    2    5    8     10.61    -17.81
    2    5    7      5.50     -2.23
    2    5    6     -5.59      2.03
    2    5    5     -0.04     22.85
    2    5    4    -16.93     12.11
    2    5    3     -4.40      3.68
    2    5    2     11.77    -16.87
    2    5    1     17.59     18.04
    2    5    0    -29.14      0.61
    2    5   33     10.63    -12.00
    3    5   33      1.79     -1.22
    3    5   32      0.99    -12.54
    3    5   31     -0.68      1.33
    3    5   30     -4.86      2.35
    3    5   29      6.75     -1.16
    3    5   28     -2.97     -7.56
    3    5   27     -7.92      0.21
    3    5   26     -9.73     -5.12
    3    5   25      5.92     -8.24
    3    5   24      3.25     -6.01
    3    5   23      8.20     -9.08
    3    5   22     15.63      0.26
    3    5   21      8.79     -5.06
    3    5   20      0.89     -3.31
    3    5   19     -6.51     -6.93
    3    5   18     -0.53      4.36
    3    5   17     -0.39      2.92
    3    5   16     -0.80      1.06
    3    5   15      1.61    -16.18
    3    5   14      0.61      0.32
    3    5   13     -7.76     -2.30
    3    5   12     -0.32     10.03
    3    5   11     -8.50      4.94
    3    5   10     -1.19     -8.07
    3    5    9      1.52      8.07
    3    5    8      6.14     -8.18
    3    5    7     -1.79      0.82
    3    5    6     -7.63     -3.80
    3    5    5     -9.53     14.31
    3    5    4     -3.65     -8.43
    3    5    3      3.13     17.82
    3    5    2     -2.36    -12.28
    3    5    1    -23.41      3.69
    4    5   33      0.53      3.15
    4    5   32      1.31      3.26
    4    5   31     -7.90     -9.51
    4    5   30     -2.07     -0.88
    4    5   29      2.26     13.97
    4    5   28     -7.03      5.80
    4    5   27     -7.36    -13.27
    4    5   26    -18.05     -9.39
    4    5   25     10.26     -8.52
    4    5   24     -7.40     14.95
    4    5   23      5.98    -10.81
    4    5   22     20.36    -29.98
    4    5   21      0.03     -5.22
    4    5   20      0.74     -0.20
    4    5   19      7.94     -6.54
    4    5   18     -0.08      9.77
    4    5   17      2.53     -5.81
    4    5   16      9.09      6.88
    4    5   15      6.98     -0.71
    4    5   14     -2.59      6.39
    4    5   13     -8.54     -4.32
    4    5   12     -0.12      3.39
    4    5   11     -8.03     -4.40
    4    5   10      8.47      4.37
    4    5    9      5.14      7.03
    4    5    8     -3.21     -3.67
    4    5    7      4.53     16.36
    4    5    6     -7.85     -6.39
    4    5    5     -7.15     -3.30
    4    5    4     25.27     -7.46
    4    5    3    -14.66     23.02
    4    5    2    -10.30    -11.08
    4    5    1     -8.05     -0.07
    4    5    0     -8.18     -0.27
    4    5   34      1.32     10.10
    5    5    0      3.57      1.59
    5    5    1      6.61      6.66
    5    5    2     -0.52     -6.34
    5    5    3    -18.93     19.22
    5    5    4     13.76     -0.43
    5    5    5      4.26      5.69
    5    5    6     -0.16      3.74
    5    5    7      2.36     -1.15
    5    5    8      2.68      0.00
    5    5    9      5.20      4.94
    5    5   10     -0.42      0.61
    5    5   11     -1.11      0.29
    5    5   12      2.06      0.05
    5    5   13     -3.15     -2.47
    5    5   14     -0.04     10.91
    5    5   15      4.45     -5.60
    5    5   16      1.75      0.08
    5    5   17      3.33      2.61
    5    5   18     -0.36      6.49
    5    5   19      3.75     -0.15
    5    5   20      2.71     -0.46
    5    5   21     -8.95     -8.74
    5    5   22     -4.05    -11.81
    5    5   23      9.04     -8.66
    5    5   24      0.56     -0.90
    5    5   25     -3.08     -2.15
    5    5   26     -0.63     15.13
    5    5   27      6.02     -7.12
    5    5   28    -26.40      0.15
    5    5   29     -0.99     -1.39
    5    5   30     -0.09      7.19
    5    5   31     -1.70      1.31
    5    5   32      1.73     -0.95
    5    5   33     -1.11     -1.34
    5    5   34     -0.07     14.94
    0    6    0     -2.13      0.34
    0    6    1     -0.04      0.76
    0    6    2     -2.73      1.17
    0    6    3      0.35     27.95
    0    6    4     -3.72      0.52
    0    6    5      0.14    -25.70
    0    6    6     -0.10     -1.62
    0    6    7      0.18      6.04
    0    6    8      4.87      3.69
    0    6    9      0.28     -2.35
    0    6   10      6.57      0.21
    0    6   11      0.03     -3.97
    0    6   12      6.96     -0.55
    0    6   13      0.36     -4.34
    0    6   14     -1.72     -0.70
    0    6   15     -1.10      4.89
    0    6   16     -1.08      0.36
    0    6   17      0.38     12.71
    0    6   18     -4.35     -0.06
    0    6   19     -0.26     18.93
    0    6   20     -2.13      0.80
    0    6   21      0.35     -7.78
    0    6   22      5.58     -0.19
    0    6   23     -2.86     13.84
    0    6   24      6.24     -2.29
    0    6   25      2.97    -10.19
    0    6   26     10.91      7.18
    0    6   27      0.40     30.73
    0    6   28      7.53     -1.37
    0    6   29      5.12     -3.51
    0    6   30      7.83     -0.07
    0    6   31    -14.29     -2.58
    0    6   32     -2.63      0.28
    1    6   32     -3.52     -9.50
    1    6   31     -4.34     -1.37
    1    6   30     -1.35     17.48
    1    6   29     -2.11     -1.23
    1    6   28      5.86      9.49
    1    6   27      2.83      9.38
    1    6   26      0.87      5.56
    1    6   25     -2.54      4.57
    1    6   24      9.73      1.92
    1    6   23    -10.35      3.09
    1    6   22      9.39     24.58
    1    6   21     -7.57      0.55
    1    6   20     -1.20     -6.50
    1    6   19      3.71     12.36
    1    6   18     -9.60      1.28
    1    6   17     -1.88      4.31
    1    6   16      6.96     -5.25
    1    6   15      4.32     13.25
    1    6   14     -9.70     -0.94
    1    6   13     -0.48     -6.90
    1    6   12      3.45      0.13
    1    6   11      0.25     -2.94
    1    6   10      2.98      1.08
    1    6    9     -6.21      0.89
    1    6    8      2.13      2.63
    1    6    7      4.08     -3.88
    1    6    6     -1.41      0.59
    1    6    5     -1.71     -8.92
    1    6    4     -5.86      0.49
    1    6    3    -16.22      5.02
    1    6    2     -6.71    -11.13
    1    6    1     11.53      0.16
    2    6   32     -7.77     -3.47
    2    6   31      7.58      2.92
    2    6   30     -5.71     16.21
    2    6   29     -2.64     -3.31
    2    6   28     -1.78     -2.41
    2    6   27      2.19     -5.72
    2    6   26     -3.50     -3.36
    2    6   25    -19.61      4.59
    2    6   24      3.92      1.99
    2    6   23     -2.15     -2.69
    2    6   22     14.36     12.45
    2    6   21     -5.52      2.17
    2    6   20     -3.85     -1.36
    2    6   19     15.00     -0.38
    2    6   18      1.26     -4.17
    2    6   17     -5.42      8.98
    2    6   16     -1.24     -3.62
    2    6   15     -1.46      0.36
    2    6   14     -3.14      0.92
    2    6   13      4.39      2.14
    2    6   12     -8.28      1.17
    2    6   11      8.58      1.42
    2    6   10     -6.59      1.35
    2    6    9    -18.46    -11.46
    2    6    8      5.35     -6.67
    2    6    7     -1.19      0.46
    2    6    6    -10.54     10.47
    2    6    5     -2.66      5.95
    2    6    4      0.61      1.59
    2    6    3    -11.84    -16.36
    2    6    2     13.01    -12.56
    2    6    1     -4.89     -9.34
    2    6    0    -44.00     -2.43
    2    6   33      7.07     -6.90
    3    6   31     -1.10     -3.59
    3    6   30     -0.21      8.38
    3    6   29      0.52      2.89
    3    6   28     -2.84    -11.43
    3    6   27     -9.46    -12.09
    3    6   26     -2.03    -12.91
    3    6   25      1.11     -4.74
    3    6   24      8.21    -19.42
    3    6   23     -0.75     -4.44
    3    6   22     -0.11      6.56
    3    6   21      3.79     -7.07
    3    6   20      2.52      0.96
    3    6   19      3.54     -5.86
    3    6   18      6.86     -4.13
    3    6   17     -2.88      8.51
    3    6   16     -1.60     -1.02
    3    6   15      1.82     -8.02
    3    6   14     -0.60     11.78
    3    6   13     -4.20      3.07
    3    6   12     -8.98      0.38
    3    6   11     -4.13     -0.39
    3    6   10     -0.82     -6.93
    3    6    9      4.46     -3.08
    3    6    8     -0.50      6.88
    3    6    7    -12.59     -2.34
    3    6    6     -7.63     -5.66
    3    6    5     -2.05      5.23
    3    6    4      2.86     -0.19
    3    6    3      2.37     -0.23
    3    6    2     -5.59     -4.96
    3    6    1    -33.01    -16.94
    3    6    0    -17.40     -8.49
    3    6   32     -7.31     -0.30
    3    6   33      3.55      2.40
    4    6   31     -3.92      0.04
    4    6   30      4.55     -9.91
    4    6   29      0.01      4.58
    4    6   28      0.18     -0.60
    4    6   27     -9.92    -18.20
    4    6   26      3.97    -26.34
    4    6   25     19.68     -2.19
    4    6   24     -3.75      0.74
    4    6   23      8.56     -6.55
    4    6   22     14.65    -14.38
    4    6   21     -2.86    -17.49
    4    6   20     -5.93     11.71
    4    6   19     -3.54     -8.34
    4    6   18      5.18      1.84
    4    6   17     -9.26      2.20
    4    6   16      8.11      4.53
    4    6   15      0.81      8.49
    4    6   14     -5.11      3.28
    4    6   13     -6.74     -4.04
    4    6   12     -5.54      5.16
    4    6   11     -3.23     -4.85
    4    6   10      1.44      4.96
    4    6    9      6.20      0.62
    4    6    8     -4.56     -5.30
    4    6    7      5.16      5.73
    4    6    6      1.86     -8.64
    4    6    5     -3.76      6.37
    4    6    4     -0.82     -3.19
    4    6    3     -8.68     10.40
    4    6    2    -18.10     -5.73
    4    6    1     -7.96    -10.26
    4    6    0      4.52     -3.20
    4    6   32      1.42      7.46
    4    6   33     -0.73      5.82
    5    6   32     -0.48     -0.49
    5    6   31     -2.95      6.17
    5    6   30      2.22     -0.75
    5    6   29     -2.06     -1.65
    5    6   28     -4.47     -9.37
    5    6   27      9.93    -13.71
    5    6   26     10.70      4.38
    5    6   25      7.60     -0.73
    5    6   24     15.90    -11.87
    5    6   23     10.19     -3.66
    5    6   22     -4.22      5.63
    5    6   21     -3.22    -16.66
    5    6   20     -4.70      4.21
    5    6   19     -7.13     -2.35
    5    6   18      4.52      1.50
    5    6   17     -5.66     13.20
    5    6   16      0.47      5.08
    5    6   15     -1.32      1.95
    5    6   14      1.36      2.05
    5    6   13     -1.32     -2.02
    5    6   12     -5.36      2.40
    5    6   11     -0.47     -4.33
    5    6   10     -3.55      2.48
    5    6    9      4.97      2.45
    5    6    8      3.33     -5.09
    5    6    7     12.08      5.27
    5    6    6      5.46      1.22
    5    6    5      4.83      4.55
    5    6    4     -1.14     -1.69
    5    6    3    -25.54      4.35
    5    6    2    -18.50      5.21
    5    6    1      9.17      5.32
    5    6    0      2.11      0.48
    5    6   33      0.52      1.79
    6    6    0    -52.93     -0.38
    6    6    1      5.73      3.07
    6    6    2      0.61      6.31
    6    6    3     -9.68      8.38
    6    6    4      9.70      1.59
    6    6    5     -1.69      0.40
    6    6    6      1.18      8.26
    6    6    7      5.09     -5.77
    6    6    8      7.53     -1.49
    6    6    9      2.12      1.39
    6    6   10      0.80      2.87
    6    6   11      3.72     -4.00
    6    6   12     -6.29      0.17
    6    6   13     -2.56     -1.90
    6    6   14     -0.53     -1.42
    6    6   15     -0.88      0.09
    6    6   16      4.10      0.56
    6    6   17      6.05      5.45
    6    6   18      0.16      7.59
    6    6   19     -5.67      5.12
    6    6   20    -10.69     -1.48
    6    6   21      0.15      0.30
    6    6   22     -0.12     -4.62
    6    6   23     -2.14      2.12
    6    6   24     21.47      1.74
    6    6   26     -0.01      9.07
    6    6   27     10.48    -10.61
    6    6   28      7.12     -0.87
    6    6   29     -0.19      0.43
    6    6   30     -0.25     -8.57
    6    6   31     -0.95      1.43
    6    6   32    -12.81      0.63
    0    7    0      5.38      1.95
    0    7    1     -0.17      7.37
    0    7    2      5.64      0.54
    0    7    3      0.48      2.31
    0    7    4     -0.80     -0.37
    0    7    5     -0.78      2.60
    0    7    6    -15.45     -0.67
    0    7    7      0.28     22.06
    0    7    8      4.00      1.56
    0    7    9     -0.61     -8.90
    0    7   10      5.48     -0.35
    0    7   11      0.29     -1.11
    0    7   12     -1.03     -0.29
    0    7   13     -0.14      2.32
    0    7   14     -0.53      0.24
    0    7   15     -0.83     -2.05
    0    7   16     -2.30     -0.08
    0    7   17      1.11     -9.93
    0    7   18      7.82     -0.39
    0    7   19     -1.12     -4.90
    0    7   20    -11.76      1.68
    0    7   21      0.39    -17.91
    0    7   22     -6.07     -0.03
    0    7   23     -0.95     -5.58
    0    7   24    -11.66     -2.82
    0    7   25      0.39    -11.08
    0    7   26      7.41      0.55
    0    7   27     -1.52      8.89
    0    7   28      6.84      0.05
    0    7   29      5.07      7.24
    0    7   30     -6.97     -0.21
    0    7   31     -5.48      0.84
    0    7   32    -12.58      0.53
    1    7   31      0.29      7.10
    1    7   30     -0.68      3.88
    1    7   29     -9.86      9.81
    1    7   28      2.46      3.50
    1    7   27      2.46      1.15
    1    7   26      3.85      5.22
    1    7   25      2.69     -2.64
    1    7   24     -8.68     -5.11
    1    7   23      4.52     -0.51
    1    7   22     -5.24      2.26
    1    7   21      0.26    -19.38
    1    7   20     -2.89     -9.08
    1    7   19     -8.66     -0.89
    1    7   18     -0.15     -1.91
    1    7   17     -3.46     -9.89
    1    7   16      3.87     -4.99
    1    7   15     -0.52      2.61
    1    7   14     -8.45      1.19
    1    7   13     -7.07     -2.01
    1    7   12      3.94      1.81
    1    7   11     -2.96      1.34
    1    7   10      2.24     -5.79
    1    7    9     -1.41      0.96
    1    7    8     -4.58      0.28
    1    7    7      4.96     12.18
    1    7    6     -8.82      2.25
    1    7    5     -1.64      2.78
    1    7    4     -3.54     -2.91
    1    7    3     -5.46     -3.47
    1    7    2      6.64     -2.09
    1    7    1      3.43      8.69
    1    7    0      5.72     -0.73
    1    7   32     -5.43     -5.45
    2    7   31      6.12      8.15
    2    7   30      7.24      6.18
    2    7   29      0.64     10.19
    2    7   28     -1.20     -9.50
    2    7   27      6.13      5.81
    2    7   26     -0.02      5.57
    2    7   25    -13.73      4.09
    2    7   24     -2.65      2.30
    2    7   23      7.58     -4.76
    2    7   22      3.00     -6.12
    2    7   21    -10.63     -0.20
    2    7   20     -3.48    -17.44
    2    7   19      6.40     -0.99
    2    7   18      0.67     -1.73
    2    7   17     -6.79     -2.04
    2    7   16      3.68      0.68
    2    7   15     -7.28     -3.10
    2    7   14     -1.55      1.40
    2    7   13     -0.73      4.23
    2    7   12     -2.35      1.79
    2    7   11     -3.69     -0.56
    2    7   10     -2.46     -1.04
    2    7    9     -6.17     -2.48
    2    7    8     -6.73     -3.23
    2    7    7      5.35     17.86
    2    7    6    -10.02      3.57
    2    7    5      2.36     -8.15
    2    7    4     12.52     -4.16
    2    7    3      4.13     -9.14
    2    7    2     10.07      1.75
    2    7    1     -0.68      2.82
    2    7    0    -19.92     -1.75
    2    7   32      5.94     -4.30
    3    7   31      3.69     -8.27
    3    7   30     11.86     -2.19
    3    7   29      4.93     17.97
    3    7   28     -2.95     -9.00
    3    7   27      1.90      6.26
    3    7   26     -2.15     -4.89
    3    7   25     -4.00      1.89
    3    7   24     13.99     -3.27
    3    7   23     -9.61      4.44
    3    7   22     -4.71     -2.79
    3    7   21     -3.49      4.32
    3    7   20      3.33    -11.55
    3    7   19     -2.08      4.60
    3    7   18      0.20     -7.21
    3    7   17     -1.27     -3.35
    3    7   16     -0.27      2.79
    3    7   15     -0.67     -6.15
    3    7   14      9.59      8.91
    3    7   13     -8.86      6.27
    3    7   12     -0.67     -1.50
    3    7   11     -3.49     -1.90
    3    7   10     -0.83     -3.05
    3    7    9      4.07     -0.80
    3    7    8    -10.69      5.65
    3    7    7     -1.96      0.77
    3    7    6     -4.80     -7.16
    3    7    5      9.01    -10.74
    3    7    4     16.60      6.87
    3    7    3      8.47     -7.15
    3    7    2     -2.92      8.36
    3    7    1    -15.33     -8.73
    3    7    0     -3.82     -4.09
    3    7   32      3.60     -3.00
    4    7   30      5.61     -8.92
    4    7   29      6.14      0.04
    4    7   28    -10.27     -4.95
    4    7   27     -4.24      9.29
    4    7   26      1.95     -6.99
    4    7   25     -5.49      2.86
    4    7   24      2.05     -0.01
    4    7   23     -6.18      3.36
    4    7   22     17.68     -4.73
    4    7   21      7.59      9.03
    4    7   20    -11.12      3.05
    4    7   19    -15.64     -6.47
    4    7   18      6.75     -3.31
    4    7   17      2.49      4.60
    4    7   16      1.47     -3.06
    4    7   15     -0.81     -1.82
    4    7   14      3.05     -3.75
    4    7   13     -6.25     -2.78
    4    7   12      4.93      7.79
    4    7   11      1.42     -0.41
    4    7   10      1.87      1.86
    4    7    9      3.32     -0.68
    4    7    8     -7.35     -5.57
    4    7    7      4.64     -8.92
    4    7    6     -3.67      3.48
    4    7    5     -4.54      0.87
    4    7    4      1.37     11.17
    4    7    3     -2.93     -9.79
    4    7    2     -3.73      7.36
    4    7    1      1.25    -16.46
    4    7    0     15.18     -0.62
    4    7   31     -1.57     -1.92
    4    7   32      8.08      2.84
    4    7   33     -0.26     -5.10
    5    7   30     -4.49     -0.38
    5    7   29     -4.24      2.64
    5    7   28     -4.49     -3.45
    5    7   27      1.76     -3.79
    5    7   26     -8.78      8.91
    5    7   25     -6.04      6.30
    5    7   24     15.99     -4.44
    5    7   23     -1.47      7.36
    5    7   22     -5.25      8.14
    5    7   21      0.86     -1.13
    5    7   20     -3.27      1.64
    5    7   19      1.17     -2.52
    5    7   18      4.71     -4.90
    5    7   17      0.55      7.44
    5    7   16      1.72      2.66
    5    7   15     -1.12     -3.97
    5    7   14     -0.05     -5.62
    5    7   13     -4.33     -1.56
    5    7   12      1.04      1.52
    5    7   11     -1.04      1.82
    5    7   10      1.99      2.15
    5    7    9      7.85     -0.57
    5    7    8      0.25     -0.67
    5    7    7      4.78      3.51
    5    7    6     -1.63      7.46
    5    7    5     -1.97     -0.11
    5    7    4    -10.34      5.99
    5    7    3    -25.35     -9.67
    5    7    2     -1.52     13.87
    5    7    1      9.49    -13.58
    5    7    0     15.83      0.22
    5    7   31     -6.02      6.02
    5    7   32      1.27      9.03
    5    7   33      1.80     -5.79
    6    7   30     -2.33     -0.29
    6    7   29    -14.87     11.84
    6    7   28     -1.10      0.36
    6    7   27      4.59      0.72
    6    7   26    -12.50     14.07
    6    7   25      4.17     -9.22
    6    7   24     10.16      1.23
    6    7   23     -4.31     12.94
    6    7   22     -2.39     -5.63
    6    7   21      4.80      2.90
    6    7   20     -4.23      2.44
    6    7   19      2.45     -1.87
    6    7   18      3.56      6.30
    6    7   17     -2.73      2.34
    6    7   16      6.57     -3.10
    6    7   15      0.32     -0.31
    6    7   14     -3.64      0.76
    6    7   13     -4.87      1.48
    6    7   12     -4.81      0.75
    6    7   11      0.24     -0.53
    6    7   10      3.58      1.79
    6    7    9     -0.97      2.52
    6    7    8      0.32      1.20
    6    7    7      9.58      4.29
    6    7    6     -3.06      3.10
    6    7    5     -2.68     -5.87
    6    7    4      4.45      3.07
    6    7    3    -11.81     -9.06
    6    7    2     14.70      2.62
    6    7    1     -8.72     -8.52
    6    7    0    -39.59      0.01
    6    7   31     -2.78      8.21
    6    7   32    -10.77     15.80
    7    7    0    -30.53      0.30
    7    7    1    -15.32    -14.84
    7    7    2     -0.05    -16.82
    7    7    3      9.08    -10.45
    7    7    4     18.97     -0.78
    7    7    5     -7.26     -8.00
    7    7    6      0.53     -6.38
    7    7    7      8.17     -7.77
    7    7    8     -6.77      0.14
    7    7    9     -4.15     -4.63
    7    7   10     -0.58      4.55
    7    7   11     -0.59      0.99
    7    7   12     -8.40     -0.74
    7    7   13      0.39      0.47
    7    7   14      1.03      5.13
    7    7   15     -4.50      3.61
    7    7   16      7.84      0.29
    7    7   17     -3.81     -3.49
    7    7   18     -0.25      2.25
    7    7   19     -2.02      1.34
    7    7   20      5.50      0.37
    7    7   21      0.18      0.75
    7    7   22      0.74     -7.88
    7    7   23      4.97     -0.73
    7    7   24      9.48      0.50
    7    7   25      4.62      3.25
    7    7   26     -0.83     -3.02
    7    7   27     -8.42      6.51
    7    7   28    -15.36     -0.09
    7    7   29      5.27      5.97
    7    7   30      2.25      6.56
    0    8    0     -8.11      0.72
    0    8    1     -0.07      1.28
    0    8    2      8.11     -0.75
    0    8    3     -0.52    -14.72
    0    8    4     15.54     -0.05
    0    8    5     -0.17     10.57
    0    8    6    -17.59     -0.02
    0    8    7      3.21      5.03
    0    8    8      5.25      0.61
    0    8    9     -0.84     -5.07
    0    8   10      0.66     -0.18
    0    8   11     -0.47      3.61
    0    8   12     -5.55      0.34
    0    8   13      0.42      8.52
    0    8   14      1.30      0.14
    0    8   15     -0.67      2.37
    0    8   16     -5.22     -0.36
    0    8   17      0.21     -2.40
    0    8   18      7.29     -0.59
    0    8   19     -0.32     -8.93
    0    8   20      3.74      0.06
    0    8   21      1.72     -2.87
    0    8   22     -0.67     -0.71
    0    8   23     -0.07     -6.92
    0    8   24     -2.95      0.09
    0    8   25     -1.58     16.64
    0    8   26      6.34     -0.69
    0    8   27     -0.21     -1.40
    0    8   28      4.09      1.19
    0    8   29      1.62      7.11
    0    8   30      4.41     -0.74
    0    8   31      0.76     -2.08
    1    8   31      6.46      2.28
    1    8   30      7.39    -10.71
    1    8   29     -6.02      1.44
    1    8   28      3.59      6.87
    1    8   27      4.03     -3.58
    1    8   26      6.98      0.69
    1    8   25      1.28      1.72
    1    8   24     -4.23      1.29
    1    8   23      0.37     12.53
    1    8   22     -0.51     -3.15
    1    8   21      0.59     -8.21
    1    8   20      5.55      0.24
    1    8   19      1.85     -2.85
    1    8   18      3.76     -7.47
    1    8   17      0.37     -4.40
    1    8   16     -1.28     -0.47
    1    8   15      1.93      2.71
    1    8   14     -9.88     -0.25
    1    8   13     -5.15      5.48
    1    8   12      3.05     -0.23
    1    8   11     -4.93      3.37
    1    8   10      6.42     -3.96
    1    8    9     -0.03     -2.00
    1    8    8     -5.60      5.23
    1    8    7      3.56      2.32
    1    8    6     -0.53     -0.58
    1    8    5      1.45      3.44
    1    8    4      2.06     -4.33
    1    8    3     -0.02     -8.58
    1    8    2      8.84      7.30
    1    8    1      1.16      5.03
    1    8    0     -3.77     -0.41
    2    8   30     13.64     -4.52
    2    8   29      5.77     -2.28
    2    8   28     -3.09     -0.86
    2    8   27      7.09     -4.27
    2    8   26     -2.62      1.52
    2    8   25      0.74     -4.40
    2    8   24      2.35     -6.59
    2    8   23      2.44      8.55
    2    8   22      4.60     -3.99
    2    8   21     -1.05      0.51
    2    8   20     -2.82     -3.72
    2    8   19     10.44      2.05
    2    8   18     -0.13      2.25
    2    8   17      1.45     -5.92
    2    8   16      2.69      1.59
    2    8   15     -1.28      1.63
    2    8   14    -10.65     -3.30
    2    8   13      3.35      5.76
    2    8   12      0.73     -0.18
    2    8   11     -9.63     -4.70
    2    8   10     13.98      4.20
    2    8    9      0.30      0.17
    2    8    8     -2.58      3.83
    2    8    7     11.52      9.24
    2    8    6     -0.91     -1.47
    2    8    5     -4.31    -12.64
    2    8    4      4.78      0.74
    2    8    3      2.92      4.73
    2    8    2      1.73      0.02
    2    8    1      5.08      8.94
    2    8    0     -2.55      0.25
    2    8   31      8.78      2.06
    3    8   30      7.91      2.65
    3    8   29     10.97      6.90
    3    8   28     -5.51     -0.26
    3    8   27      8.43     -2.02
    3    8   26    -10.93    -10.56
    3    8   25     -0.08     -3.25
    3    8   24      5.44     -0.57
    3    8   23     -2.28      2.87
    3    8   22     -0.17     -5.32
    3    8   21      6.58     -7.08
    3    8   20      1.08     -2.17
    3    8   19      1.85      5.96
    3    8   18     -5.25      2.84
    3    8   17      8.31     -6.07
    3    8   16     -0.89      7.17
    3    8   15     -0.48      2.83
    3    8   14      0.06     -5.30
    3    8   13     -3.05      3.71
    3    8   12      1.88     -3.47
    3    8   11     -1.66     -0.46
    3    8   10      8.04      8.90
    3    8    9     -0.19     -3.46
    3    8    8      7.56      2.67
    3    8    7     14.83      0.39
    3    8    6     -4.20      0.60
    3    8    5      2.45     -9.01
    3    8    4      8.55      6.78
    3    8    3     -5.51      6.67
    3    8    2     -9.84      3.05
    3    8    1     -5.52     11.40
    3    8    0      6.10     -0.11
    3    8   31     12.33     -4.71
    3    8   32      6.51      2.06
    4    8   30     -5.33      7.00
    4    8   29     12.39     -4.21
    4    8   28     -6.88     -1.96
    4    8   27      5.41      9.61
    4    8   26     -1.34      0.66
    4    8   25    -15.05    -11.08
    4    8   24    -10.47      0.02
    4    8   23     -1.08     -7.02
    4    8   22      8.93     -1.65
    4    8   21     20.60      8.12
    4    8   20    -11.97      2.25
    4    8   19    -21.37    -10.37
    4    8   18      5.74      2.33
    4    8   17     10.36      6.76
    4    8   16      0.20     -1.99
    4    8   15     -1.15      1.04
    4    8   14     -0.30     -1.57
    4    8   13     -3.96      0.90
    4    8   12      1.99      2.21
    4    8   11     -0.07     -3.31
    4    8   10      4.34      2.93
    4    8    9     -1.17     -2.80
    4    8    8     10.28     -0.64
    4    8    7     14.10     -6.71
    4    8    6     -4.91      6.81
    4    8    5     -3.97      6.28
    4    8    4     10.43      7.54
    4    8    3     -0.81     -8.68
    4    8    2     -4.43      0.47
    4    8    1     -1.16     11.63
    4    8    0      2.19     -0.63
    4    8   31      6.19      2.34
    4    8   32      4.77      1.97
    5    8   29     -0.93     -3.50
    5    8   28      2.25      7.47
    5    8   27      1.55    -12.37
    5    8   25     -4.92     -4.17
    5    8   24      4.09     -0.61
    5    8   23      0.44      0.70
    5    8   22    -16.13      4.90
    5    8   21     -5.89      2.24
    5    8   20      2.52      1.22
    5    8   19      2.39     -0.15
    5    8   18      0.30     -5.77
    5    8   17     -1.66      1.63
    5    8   16      2.82      5.25
    5    8   15     -0.99     -3.17
    5    8   14      0.42      3.84
    5    8   13     -2.32      1.34
    5    8   12     -0.19      4.59
    5    8   11     -3.03      0.97
    5    8   10     -0.97     -1.31
    5    8    9      8.55     -0.78
    5    8    8      4.61      0.85
    5    8    7     -2.76     -2.25
    5    8    6      4.51      6.40
    5    8    5     -1.84      1.61
    5    8    4      0.45     -2.81
    5    8    3     -8.10     -0.08
    5    8    2     14.40      1.68
    5    8    1     21.32      3.86
    5    8    0      3.18     -1.34
    5    8   26     -6.95      6.39
    5    8   31     -3.74      5.07
    5    8   32      0.42      8.90
    6    8   29    -15.17     -0.48
    6    8   28      0.73     -4.64
    6    8   27      4.37    -12.82
    6    8   26     -5.22     12.80
    6    8   25      2.08    -16.57
    6    8   24      0.98     -6.98
    6    8   23     -2.64     13.08
    6    8   22     -9.53     -4.29
    6    8   21     -5.01      8.67
    6    8   20     -2.11      1.31
    6    8   19      6.78     -1.71
    6    8   18     -3.79      3.71
    6    8   17     -4.70     -4.05
    6    8   16      3.93     -0.24
    6    8   15      2.37     -3.41
    6    8   14     -0.82      6.01
    6    8   13      0.42      0.39
    6    8   12     -6.06      5.50
    6    8   11      3.49      0.42
    6    8   10      5.50     -1.47
    6    8    9     -1.83      5.87
    6    8    8     -1.30      3.92
    6    8    7     -3.26      2.48
    6    8    6      6.23     -2.95
    6    8    5     -6.71     -5.80
    6    8    4     -5.93     -0.11
    6    8    3      4.00      6.12
    6    8    2     33.86      3.58
    6    8    1     -5.22     13.88
    6    8    0     -2.56     -1.08
    6    8   31     -3.46      5.48
    6    8   32     -3.78      9.08
    7    8   28     -9.73      1.23
    7    8   27    -12.87     -2.21
    7    8   26      5.74     -9.44
    7    8   25     -0.37     -5.47
    7    8   24      3.37     -4.32
    7    8   23      4.13      2.78
    7    8   22    -15.80     -9.09
    7    8   21     -1.48      7.38
    7    8   20     -1.77     -1.32
    7    8   19      1.06      1.16
    7    8   18      0.29     -0.21
    7    8   17      0.21     -6.48
    7    8   16      2.85      1.95
    7    8   15     -2.57     -3.41
    7    8   14     -2.66      1.84
    7    8   13      1.08     -1.29
    7    8   12     -6.22      2.24
    7    8   11      2.77     -2.29
    7    8   10      6.78      1.33
    7    8    9     -8.73      1.74
    7    8    8      0.25     -1.61
    7    8    7      8.50     -0.47
    7    8    6      0.74     -4.47
    7    8    5     -5.57     -3.98
    7    8    4     10.91      3.82
    7    8    3     10.88     -1.60
    7    8    2     18.66     -8.70
    7    8    1    -28.46     30.04
    7    8    0      5.23     -1.31
    8    8    0      8.95      1.28
    8    8    1     11.15     10.39
    8    8    2      0.45    -18.29
    8    8    3      6.71     -5.65
    8    8    4     16.50      1.41
    8    8    5      0.93      0.44
    8    8    6      0.40    -12.83
    8    8    7      7.09     -6.89
    8    8    8      6.81      0.14
    8    8    9     -0.64     -0.81
    8    8   10      0.16     -0.11
    8    8   11     -0.36      0.40
    8    8   12     -4.94      0.68
    8    8   13     -3.01     -3.53
    8    8   14     -0.54      2.47
    8    8   15      5.67     -5.45
    8    8   16      0.86      0.51
    8    8   17     -4.42     -5.04
    8    8   18      1.43     -5.49
    8    8   19     -5.27      4.96
    8    8   20     -2.92     -0.42
    8    8   21      1.09     -0.10
    8    8   22     -0.53    -14.33
    8    8   23      1.80     -2.14
    8    8   24     -5.76      0.20
    8    8   25     -4.50     -3.51
    8    8   26      0.47      0.38
    8    8   27    -13.04     10.38
    8    8   28     -3.75      0.04
    0    9    1     -0.97     -0.41
    0    9    2      9.54     -0.66
    0    9    3      0.49    -12.01
    0    9    4      1.79      0.82
    0    9    5     -0.58      8.89
    0    9    6    -13.90     -0.51
    0    9    7      0.83     -5.11
    0    9    8     14.41      0.15
    0    9    9     -0.40     20.07
    0    9   10      9.04      0.23
    0    9   11     -0.02     -0.18
    0    9   12      1.21      0.80
    0    9   13      0.05      2.63
    0    9   14     10.71     -0.18
    0    9   15     -0.60     -3.84
    0    9   16      3.03     -0.22
    0    9   17      1.18     -3.49
    0    9   18     -2.62     -0.14
    0    9   19     -0.76    -11.18
    0    9   20      4.06     -0.68
    0    9   21      0.39     -0.84
    0    9   22     -8.35     -0.18
    0    9   23      0.36    -10.63
    0    9   24    -15.37      1.41
    0    9   25      0.27     10.81
    0    9   26     -7.79     -1.86
    0    9   27      0.83     -1.25
    0    9   28    -14.18      0.34
    0    9   29     -0.20     -1.33
    0    9   30      6.46      0.43
    1    9   30      1.51    -10.46
    1    9   29     -1.47     -2.27
    1    9   28      0.48      3.87
    1    9   27     -1.96     -3.09
    1    9   26    -10.21      1.40
    1    9   25     -3.99     -1.07
    1    9   24    -14.36      5.60
    1    9   23      5.60      4.09
    1    9   22      0.41     -2.84
    1    9   21     -3.39     -3.36
    1    9   20      4.19     -0.35
    1    9   19     -3.85     -6.25
    1    9   18     -2.63     -8.50
    1    9   17      2.86     -3.43
    1    9   16      3.36      2.45
    1    9   15      5.74     -5.51
    1    9   14      1.68      1.64
    1    9   13    -10.13      7.04
    1    9   12      5.88     -3.01
    1    9   11     -1.36      4.72
    1    9   10     10.40     -7.42
    1    9    9     10.83      8.51
    1    9    8      2.76      3.86
    1    9    7     -3.20      1.62
    1    9    6      5.20     -2.01
    1    9    5      6.38      1.39
    1    9    4     -9.44      1.98
    1    9    3     -2.26     -6.42
    1    9    2      5.23      7.33
    1    9    1      3.82      0.62
    1    9    0     -2.70     -0.03
    2    9   30      5.72     -9.91
    2    9   29     -2.51     -1.25
    2    9   28      2.55      9.53
    2    9   27     -3.09     -0.91
    2    9   26     -6.28      0.21
    2    9   25      0.60    -10.24
    2    9   24     -2.53     -7.85
    2    9   23     -6.45      6.98
    2    9   22      6.53      2.99
    2    9   21      6.47     -0.16
    2    9   20     -0.68     -2.27
    2    9   19      0.78      2.43
    2    9   18      3.34      0.14
    2    9   17      1.85     -4.37
    2    9   16      1.85      1.10
    2    9   15      0.30      1.00
    2    9   14     -7.03      1.54
    2    9   13     -1.75      3.66
    2    9   12      3.81      1.60
    2    9   11      2.69      2.35
    2    9   10     11.21      0.15
    2    9    9      2.18     10.10
    2    9    8     -0.77     -1.80
    2    9    7      7.74     -3.99
    2    9    6      1.26      0.51
    2    9    5      1.26     -2.00
    2    9    4     -8.06     11.56
    2    9    3     -0.85     -0.30
    2    9    2      6.95     -4.93
    2    9    1      0.85      3.82
    2    9    0      1.04      0.89
    3    9   28      2.02      5.80
    3    9   27     -4.96      1.48
    3    9   26      2.41      0.47
    3    9   25     -0.60      2.44
    3    9   24     -1.33     -4.74
    3    9   23     -2.70     -0.95
    3    9   22      1.67     -6.18
    3    9   21      1.64     -7.27
    3    9   20      2.79      0.23
    3    9   19      1.30      6.39
    3    9   18      2.14     -0.08
    3    9   17      9.98     -3.17
    3    9   16      1.40      6.36
    3    9   15     -5.48      2.59
    3    9   14     -9.01     -1.76
    3    9   13     -2.03     -3.43
    3    9   12      0.49      6.07
    3    9   11      3.37      8.26
    3    9   10      4.87     11.44
    3    9    9     -1.18      1.40
    3    9    8      4.41     -6.09
    3    9    7     10.60     -6.57
    3    9    6    -13.64      5.42
    3    9    5      0.45     -2.38
    3    9    4      6.36     -1.18
    3    9    3     -6.71      3.36
    3    9    2     -2.09     -2.91
    3    9    1     -4.08      5.62
    3    9    0     10.04      0.96
    3    9   29    -10.15      6.53
    3    9   30     -1.18     -1.01
    4    9   29     -9.08      4.11
    4    9   27     -0.65      6.60
    4    9   26      2.90      1.37
    4    9   25     -8.37     -0.01
    4    9   24     -3.97      1.11
    4    9   23      4.34      0.52
    4    9   22      3.32     -9.28
    4    9   21      5.91     -3.08
    4    9   20     -5.61     -0.79
    4    9   19    -14.60     -3.33
    4    9   18      5.54      0.63
    4    9   17      5.02     -2.06
    4    9   16      1.66     -2.42
    4    9   15     -2.01     -2.89
    4    9   14     -6.86      3.31
    4    9   13     -5.48      0.86
    4    9   12     -2.92      5.00
    4    9   11     -1.62     -1.00
    4    9   10      0.22      6.31
    4    9    9     -5.25     -0.48
    4    9    8      3.68      0.85
    4    9    7      9.51     -0.36
    4    9    6    -12.27     -6.79
    4    9    5     -5.19      0.34
    4    9    4     10.21     -8.32
    4    9    3      6.24    -10.63
    4    9    2     -6.78     -0.63
    4    9    1     -5.09     10.54
    4    9    0      2.80     -0.10
    4    9   28      5.88      3.21
    4    9   30     -9.81      3.11
    5    9   29     -4.43     -1.04
    5    9   28      3.09      8.15
    5    9   25      3.26      7.09
    5    9   24      7.45     -5.19
    5    9   23      3.99     -0.82
    5    9   22     -4.76      3.80
    5    9   21    -10.60     -7.26
    5    9   20      7.28     -1.35
    5    9   19      3.05     -3.11
    5    9   18      0.03     -4.25
    5    9   17    -11.86     -3.24
    5    9   16     -2.65      0.69
    5    9   15     -6.04     -4.70
    5    9   14     -2.98      1.73
    5    9   13     -1.14      3.83
    5    9   12     -1.59      0.12
    5    9   11     -2.95     -0.72
    5    9   10     -3.13      1.87
    5    9    9      4.17      4.57
    5    9    8     -5.20     -2.60
    5    9    7     -3.29     -2.45
    5    9    6     -3.07     -6.14
    5    9    5      1.56     -7.88
    5    9    4     -1.73     -5.60
    5    9    3     -7.09     -1.98
    5    9    2      4.97     -1.91
    5    9    1     18.26      4.84
    5    9    0    -10.87     -0.71
    5    9   26     -0.44     -4.05
    5    9   27      5.84     -7.07
    5    9   30     -7.46     -5.91
    6    9   28      1.96     -9.99
    6    9   27     10.56     -8.07
    6    9   23      3.97     -3.68
    6    9   22      3.17      1.38
    6    9   21     -8.38     -2.07
    6    9   20      1.23      5.31
    6    9   19      0.43     -2.69
    6    9   18     -4.63     -2.16
    6    9   17     -2.06     -5.06
    6    9   16      1.80      3.36
    6    9   15     -4.92      0.32
    6    9   14     -4.90     -5.00
    6    9   13     -2.02      0.23
    6    9   12     -5.01     -3.68
    6    9   11      7.08      2.25
    6    9   10      4.87     -0.37
    6    9    9      4.81      7.81
    6    9    8     -9.06      4.03
    6    9    7     -2.43     -2.34
    6    9    6      2.23      0.61
    6    9    5     -8.29     -5.67
    6    9    4    -13.77      5.97
    6    9    3     -2.20      3.21
    6    9    2     15.61      8.44
    6    9    1     -6.38      7.51
    6    9    0    -12.25     -1.59
    6    9   24     12.82    -15.51
    6    9   25      5.94     -0.93
    6    9   26      3.70     11.16
    6    9   29     -0.03     -2.98
    7    9   28      5.46     -2.00
    7    9   27      3.84     -0.29
    7    9   26     15.86     -2.09
    7    9   25      6.31     -4.28
    7    9   24      6.69     -4.77
    7    9   23      1.73     -1.03
    7    9   22     -0.61      0.48
    7    9   21     -2.07      2.71
    7    9   20     -9.57      0.17
    7    9   19      1.79     -2.84
    7    9   18      2.47      5.57
    7    9   17      5.79     -2.97
    7    9   16      1.74      4.76
    7    9   15     -5.83     -2.45
    7    9   14     -3.85    -13.10
    7    9   13      0.20      1.45
    7    9   12     -0.20     -3.29
    7    9   11      4.90     -3.52
    7    9   10      1.72     -3.74
    7    9    9     -2.60      5.37
    7    9    8      0.96      4.85
    7    9    7      9.03      2.32
    7    9    6      0.26     12.63
    7    9    5    -10.16      7.73
    7    9    4     -3.15     10.58
    7    9    3      4.14     -4.33
    7    9    2      7.70     18.55
    7    9    1    -23.75     24.29
    7    9    0    -12.12     -2.32
    8    9   27      5.24      3.79
    8    9   26     12.70      9.16
    8    9   25      2.65     -1.53
    8    9   24     -2.68     -6.15
    8    9   23      3.34      4.09
    8    9   22     -4.87     -2.12
    8    9   21     -1.96     -1.32
    8    9   20     -3.44     15.47
    8    9   19      1.83      1.60
    8    9   18      3.60      4.25
    8    9   17     -1.49      1.10
    8    9   16     -1.67      2.92
    8    9   15      3.15     -7.03
    8    9   14      2.88     -5.65
    8    9   13      0.80      1.80
    8    9   12      2.73     -9.07
    8    9   11     -2.92     -2.97
    8    9   10      1.08     -4.29
    8    9    9      2.29     -0.07
    8    9    8     -0.02     -0.27
    8    9    7      2.62      0.70
    8    9    6     -5.18     -5.42
    8    9    5     -9.54     13.53
    8    9    4     -0.17     15.42
    8    9    3     14.15      7.03
    8    9    2      1.79      5.24
    8    9    1     -2.59     18.08
    8    9    0     -6.37      3.96
    8    9   28      6.56     -8.20
    9    9    0     -6.74     14.11
    9    9    1      6.52      7.86
    9    9    2     -0.16      3.33
    9    9    3     -4.45      5.66
    9    9    4    -10.32     -1.02
    9    9    5      6.43      6.30
    9    9    6     -0.61    -27.07
    9    9    7     -6.13      6.47
    9    9    8     -6.25      0.27
    9    9    9     -3.23     -4.88
    9    9   10     -0.18    -13.29
    9    9   11     -2.28      1.85
    9    9   12      4.03      0.01
    9    9   13      7.54      5.99
    9    9   14      0.12     -0.76
    9    9   15      3.53     -3.33
    9    9   16     -2.42      0.16
    9    9   17      5.62      5.03
    9    9   18     -0.18     15.94
    9    9   19      1.29     -2.03
    9    9   20      2.40      0.47
    9    9   21     -2.87     -3.48
    9    9   22     -0.61     13.39
    9    9   23      1.66     -0.56
    9    9   24     -2.67      0.28
    9    9   25      3.14      2.98
    9    9   26     -0.20     -1.00
    9    9   27      1.57     -1.47
    0   10    0     -1.78      0.57
    0   10    1     -0.68     -0.89
    0   10    2      8.91     -0.16
    0   10    3      0.80     -6.07
    0   10    4     -5.89     -0.21
    0   10    5     -0.62      5.89
    0   10    6    -17.92      0.16
    0   10    7     -0.03      1.27
    0   10    8     10.40      0.46
    0   10    9     -0.14      9.52
    0   10   10      2.61     -1.06
    0   10   11      0.03    -12.22
    0   10   12     -1.34      0.54
    0   10   13      0.43      3.64
    0   10   14      0.15      0.75
    0   10   15      0.00     -2.18
    0   10   16      4.72     -0.38
    0   10   17      0.39     -7.37
    0   10   18      1.99     -0.07
    0   10   19     -0.28      5.17
    0   10   20      1.38      0.07
    0   10   21     -0.04      6.18
    0   10   22      4.69     -0.12
    0   10   23     -0.31      0.85
    0   10   24     -3.95      0.03
    0   10   25      0.95     -7.15
    0   10   26     13.36     -0.57
    0   10   27      0.29      6.74
    0   10   28     -0.95      0.70
    0   10   29     -0.43     -5.14
    0   10   30      2.29      1.06
    0   10   31      1.07     -6.25
    1   10   31      2.67     -8.31
    1   10   30      0.63     -2.55
    1   10   29      3.61     -5.27
    1   10   28      8.53     -1.39
    1   10   27     -1.23      1.08
    1   10   26     -4.33      9.58
    1   10   25     -6.14      1.97
    1   10   24      2.88      1.16
    1   10   23      6.74     -3.06
    1   10   22      5.27     -0.46
    1   10   21      4.46      4.25
    1   10   20      1.97      1.58
    1   10   19      0.43      4.54
    1   10   18     -0.45     -4.09
    1   10   17      3.30     -5.15
    1   10   16      2.52     -3.86
    1   10   15      6.82     -6.07
    1   10   14      0.92     -1.42
    1   10   13     -2.79      6.04
    1   10   12      7.25      5.11
    1   10   11     -3.20     -5.47
    1   10   10      1.74     -2.48
    1   10    9     13.12     -3.76
    1   10    8     -2.86     -4.24
    1   10    7     -7.67      3.78
    1   10    6     -2.63     -5.14
    1   10    5      0.80     -1.78
    1   10    4    -12.43      0.95
    1   10    3     -6.65      0.53
    1   10    2      2.38     -6.71
    1   10    1     -0.35     -5.88
    1   10    0      6.30     -0.44
    2   10   30      3.95    -11.00
    2   10   29     12.15     -5.36
    2   10   28      4.98      2.51
    2   10   27     -0.67      2.37
    2   10   26     -5.56      0.43
    2   10   25     -5.97     -4.29
    2   10   24      1.92     -4.34
    2   10   23     -3.45     -2.07
    2   10   22      6.50      8.31
    2   10   21     20.13      7.32
    2   10   20     -3.02      0.43
    2   10   19      0.06      3.42
    2   10   18      1.31     -3.69
    2   10   17      1.18     -4.31
    2   10   16      1.87     -6.76
    2   10   15      2.61     -1.84
    2   10   14      0.70      0.92
    2   10   13     -0.63     -1.16
    2   10   12      8.88      3.18
    2   10   11     10.84     -4.84
    2   10   10      1.71     -0.01
    2   10    9     -1.39      0.35
    2   10    8     -5.72     -4.07
    2   10    7      1.68    -10.12
    2   10    6     -4.74     -2.54
    2   10    5      3.45      2.08
    2   10    4    -15.15      5.59
    2   10    3     -9.54     -5.88
    2   10    2      7.54     -5.40
    2   10    1     -4.97     -0.29
    2   10    0     -3.38     -0.76
    2   10   31     -3.36     -6.18
    3   10   28      2.91     -0.56
    3   10   27      3.49     -0.28
    3   10   26      6.97      2.09
    3   10   25      1.62     -1.45
    3   10   24     -7.95     -7.70
    3   10   23      1.06     -5.15
    3   10   22      3.99      3.48
    3   10   21      5.53     10.77
    3   10   20      4.72      9.00
    3   10   19      2.14      6.14
    3   10   18     -0.94     -3.69
    3   10   17      1.21      0.54
    3   10   16      3.24     -3.27
    3   10   15     -0.08     -2.99
    3   10   14     -2.14     -1.54
    3   10   13      1.94     -2.83
    3   10   12     -4.08      7.29
    3   10   11      1.86     -3.30
    3   10   10      6.23      0.43
    3   10    9      2.95     -1.52
    3   10    8     -1.11     -3.15
    3   10    7      4.03     -5.62
    3   10    6    -12.27     10.72
    3   10    5      4.53      3.09
    3   10    4      1.14     -6.50
    3   10    3     -3.01     -2.52
    3   10    2     -2.05     -0.25
    3   10    1     -4.78      3.96
    3   10    0     -8.12     -0.25
    3   10   29     -1.77      0.30
    3   10   30     -0.55     -8.62
    4   10   27      4.38     -3.66
    4   10   26     -2.78      0.50
    4   10   25      5.22     -4.89
    4   10   24      3.74      5.19
    4   10   23     10.28      5.61
    4   10   22      4.61     -3.72
    4   10   21     -9.63      3.85
    4   10   20      7.16      3.73
    4   10   19     -1.20     18.44
    4   10   18      4.30      6.91
    4   10   17     -1.61      2.88
    4   10   16      1.49     -2.20
    4   10   15      3.15     -4.86
    4   10   14     -4.36     -1.46
    4   10   13     -0.90     -0.59
    4   10   12     -6.46      7.49
    4   10   11     -3.01     -2.31
    4   10   10      2.73     -1.89
    4   10    9     -4.23     -6.38
    4   10    8      5.16      2.82
    4   10    7      5.79      4.33
    4   10    6     -3.32      2.30
    4   10    5      1.62      3.07
    4   10    4      7.12     -3.40
    4   10    3     10.91      4.33
    4   10    2     -9.59      6.43
    4   10    1      1.51     -1.99
    4   10    0     -4.99     -0.27
    4   10   28      5.61      6.33
    4   10   29    -11.03      4.55
    4   10   30     -3.49     -1.82
    5   10   25     -2.73      5.10
    5   10   24      3.30      2.61
    5   10   23      2.10     -1.78
    5   10   22     10.98      3.14
    5   10   21     -2.30      7.33
    5   10   20     13.01     -8.32
    5   10   19      5.90     15.21
    5   10   18      7.97      3.70
    5   10   17     -8.54      9.80
    5   10   16     -0.18      1.75
    5   10   15      1.64     -3.76
    5   10   14     -1.26      5.05
    5   10   13     -2.48      0.44
    5   10   12     -5.63     -3.41
    5   10   11     -2.37     -6.21
    5   10   10      0.52      5.44
    5   10    9     -2.21     -1.53
    5   10    8      7.33     -0.86
    5   10    7      0.46     -0.22
    5   10    6      4.87     -2.62
    5   10    5      8.25     -3.91
    5   10    4      2.56      9.35
    5   10    3     -5.42      6.75
    5   10    2      0.38     12.70
    5   10    1      4.83     -6.35
    5   10    0    -16.61      0.07
    5   10   26     -5.32      3.59
    5   10   27      3.23     -8.57
    5   10   28     -3.67      5.49
    5   10   29     -5.17     -2.56
    6   10   23     -0.85     -7.43
    6   10   22     -1.98     -1.42
    6   10   21      4.93      2.10
    6   10   20      8.85     -1.28
    6   10   19     -4.44     14.01
    6   10   18      5.50    -14.17
    6   10   17      5.33      0.40
    6   10   16      8.50      6.26
    6   10   15      2.17      1.00
    6   10   14     -5.62      0.79
    6   10   13     -7.60     -4.29
    6   10   12     -7.74     -1.25
    6   10   11      2.64      1.89
    6   10   10      0.75      3.71
    6   10    9      4.28     -1.36
    6   10    8     -0.12      2.47
    6   10    7      2.72     -0.79
    6   10    6      6.98      6.95
    6   10    5     -0.93      2.10
    6   10    4     -1.34     11.26
    6   10    3    -11.08     -6.38
    6   10    2     -1.41      1.18
    6   10    1    -14.13     -0.49
    6   10    0    -25.52     -0.35
    6   10   24      6.86    -12.70
    6   10   25     -9.83      7.62
    6   10   26     -2.14     17.10
    6   10   27     -4.85     -9.36
    6   10   28     -6.93     -7.79
    7   10   27     -2.65      0.81
    7   10   24    -10.73     -0.80
    7   10   23     -5.01     -4.96
    7   10   22      6.15      4.58
    7   10   21     -0.77     -5.54
    7   10   20    -13.18     -9.00
    7   10   19     -3.93      1.35
    7   10   18      3.94     -6.14
    7   10   17      6.89     -4.27
    7   10   16      4.35     -4.12
    7   10   15     -2.89     -1.87
    7   10   14     -9.22     -8.57
    7   10   13     -1.18      0.80
    7   10   12     -2.92      4.45
    7   10   11      1.82      0.86
    7   10   10     -8.93     -2.40
    7   10    9      1.34      6.97
    7   10    8     -5.00      9.69
    7   10    7     12.26      3.92
    7   10    6      4.13     12.26
    7   10    5    -11.50      9.47
    7   10    4    -11.93     -0.36
    7   10    3     -8.03     -9.23
    7   10    2     -8.01     -5.59
    7   10    1    -10.39      2.38
    7   10    0    -26.40     -2.40
    7   10   25     -2.18     -1.48
    7   10   26      6.49      0.95
    8   10   26      1.96      8.46
    8   10   25     -3.41     -7.93
    8   10   24     -5.83     -0.48
    8   10   23      0.60      1.22
    8   10   22      4.65      5.87
    8   10   21     -2.48     -7.99
    8   10   20    -13.50      7.08
    8   10   19      1.91    -16.56
    8   10   18     -0.98     -6.60
    8   10   17     -3.59      2.72
    8   10   16     -1.39     -2.61
    8   10   15     -0.88     -3.96
    8   10   14     -2.63     -9.21
    8   10   13     -2.95      3.34
    8   10   12     -0.96     -1.99
    8   10   11     -1.51     -7.32
    8   10   10     -1.36      5.16
    8   10    9      3.78      4.67
    8   10    8    -13.35      1.56
    8   10    7      4.74     10.15
    8   10    6     -8.85     -4.59
    8   10    5     -8.43      5.63
    8   10    4    -23.18     -0.29
    8   10    3     -1.36      7.47
    8   10    2     -1.51     -5.35
    8   10    1     -4.37     -2.72
    8   10    0     -7.07     -1.96
    8   10   27     10.35     -4.98
    9   10   26      2.45     -1.71
    9   10   25      2.25     -8.66
    9   10   24      1.08     -2.20
    9   10   23      3.93     -2.27
    9   10   22      1.99      8.89
    9   10   21      3.42     -1.27
    9   10   20     -2.41      0.29
    9   10   19      4.70    -20.59
    9   10   18      2.29      1.63
    9   10   17      4.46     -2.01
    9   10   16      5.18      1.74
    9   10   15     -6.06     -3.88
    9   10   14      8.02      2.37
    9   10   13      1.39      1.05
    9   10   12     -1.28      1.66
    9   10   11     -6.08     -5.01
    9   10   10     -0.96     -2.73
    9   10    9     -0.49     -8.93
    9   10    8     -4.63      0.67
    9   10    7     -1.80     13.24
    9   10    6    -13.98    -28.66
    9   10    5     12.00      5.16
    9   10    4    -13.87     -1.36
    9   10    3    -12.34      4.04
    9   10    2      8.34     -3.27
    9   10    1     -4.58      3.33
    9   10    0     -6.37      8.32
   10   10    0     -3.57     14.68
   10   10    1      5.01      4.67
   10   10    2      1.22     -0.12
   10   10    3      7.52     -6.59
   10   10    4     -6.17     -1.16
   10   10    5     10.86     10.64
   10   10    6      0.64    -34.79
   10   10    7     -8.56      8.29
   10   10    8      4.90     -0.09
   10   10    9     -4.37     -5.83
   10   10   10     -0.11      1.78
   10   10   11      0.89     -0.58
   10   10   12      3.89      0.29
   10   10   13     -0.47     -0.93
   10   10   14      0.24      7.11
   10   10   15      4.22     -4.21
   10   10   16     17.74     -0.65
   10   10   17     -4.51     -5.70
   10   10   18     -0.09     -2.24
   10   10   19     15.86    -14.68
   10   10   20      4.49      0.13
   10   10   21      6.02      3.93
   10   10   22     -0.68    -10.07
   10   10   23      5.56     -6.64
   10   10   24     11.26     -0.29
   10   10   25      5.29      5.71
    0   11    0     16.11     -0.92
    0   11    1      0.08      1.79
    0   11    2      1.25      0.48
    0   11    3      0.09     -6.32
    0   11    4     -2.08     -0.11
    0   11    5     -0.25      0.61
    0   11    6    -10.17      0.10
    0   11    7      0.20      7.82
    0   11    8      7.06     -0.02
    0   11    9     -0.75      3.48
    0   11   10     -2.19     -0.15
    0   11   11     -0.26      0.26
    0   11   12      4.84     -0.02
    0   11   13      0.08     -3.27
    0   11   14     -3.28     -0.25
    0   11   15      0.64      1.18
    0   11   16     -1.95      0.32
    0   11   17     -0.75      1.74
    0   11   18     11.36      0.49
    0   11   19      0.84     -1.10
    0   11   20     -1.99     -0.49
    0   11   21      0.03    -12.43
    0   11   22     -5.04      0.01
    0   11   23     -0.70      9.03
    0   11   24    -25.07      0.24
    0   11   25      0.44      2.50
    0   11   26      4.53      0.52
    0   11   27      0.23      8.47
    0   11   28      4.61     -0.47
    0   11   29     -1.84     -9.99
    0   11   30      6.39      0.56
    0   11   31      0.29     -6.11
    1   11   31      3.43     -8.55
    1   11   30      4.49      6.11
    1   11   29     -8.88     -4.25
    1   11   28      5.65     -2.97
    1   11   27      4.59      6.80
    1   11   26    -10.42     -1.71
    1   11   25      1.15      9.21
    1   11   24     -5.06      2.32
    1   11   23     -3.96     -5.20
    1   11   22    -12.53      3.69
    1   11   21     -1.88     -5.28
    1   11   20      0.34     -5.10
    1   11   19      1.88      0.03
    1   11   18      1.38      1.29
    1   11   17      3.53      1.50
    1   11   16     -2.40     -0.13
    1   11   15     -1.02      4.61
    1   11   14     -1.72     -9.38
    1   11   13      2.88     -0.58
    1   11   12      8.23      3.30
    1   11   11      1.74     -3.23
    1   11   10     -0.61      8.99
    1   11    9      2.36      1.00
    1   11    8     -5.14     -3.26
    1   11    7     -5.07      5.86
    1   11    6     -3.39      0.14
    1   11    5      1.41     -5.66
    1   11    4     -3.52      1.16
    1   11    3     -2.29     -1.77
    1   11    2      1.04     -7.07
    1   11    1     -4.79    -10.43
    1   11    0      6.04     -3.61
    2   11   30      0.01      0.62
    2   11   29     -0.12      0.10
    2   11   28      1.13     -2.65
    2   11   27     -7.22      7.98
    2   11   26     -2.58      1.85
    2   11   25     -5.32      6.20
    2   11   24      2.28     -0.19
    2   11   23     -6.22    -14.25
    2   11   22     -5.27     -0.90
    2   11   21      7.10      2.92
    2   11   20     -8.90     -0.60
    2   11   19     -4.90      2.09
    2   11   18     -5.14      1.08
    2   11   17     -3.72      2.46
    2   11   16     -1.17     -1.47
    2   11   15     -1.92      4.30
    2   11   14      0.61     -0.78
    2   11   13     -1.86      4.35
    2   11   12      3.63      0.67
    2   11   11      7.88     -5.60
    2   11   10     -0.01      4.73
    2   11    9     -4.79     -3.48
    2   11    8     -0.90     -1.01
    2   11    7      2.51      1.83
    2   11    6     -5.62     -3.53
    2   11    5      4.91     -8.49
    2   11    4     -8.13      2.23
    2   11    3     -8.06     -9.71
    2   11    2      4.82      2.39
    2   11    1     -0.11    -14.63
    2   11    0     -8.61     -2.99
    3   11   28      2.86     -0.62
    3   11   27     -5.97      4.03
    3   11   26      9.30     -2.06
    3   11   25     -7.10      1.94
    3   11   24     -2.58      0.05
    3   11   23     -0.19     -7.40
    3   11   22      1.03     -0.98
    3   11   21      7.46      3.38
    3   11   20      0.26      7.47
    3   11   19     -3.80     -4.46
    3   11   18     -2.82      0.81
    3   11   17    -10.99      6.21
    3   11   16     -2.42      2.60
    3   11   15     -1.06     -0.70
    3   11   14      3.86      0.21
    3   11   13     -5.63      8.44
    3   11   12     -3.89      4.60
    3   11   11     -3.72     -8.31
    3   11   10      3.84     -4.07
    3   11    9      4.93     -2.51
    3   11    8     -0.80     -4.88
    3   11    7      0.27      0.88
    3   11    6     -1.27      0.29
    3   11    5      6.45     -3.68
    3   11    4     -3.47      0.21
    3   11    3     -0.72    -10.60
    3   11    2     -0.28      7.26
    3   11    1    -11.66     -6.32
    3   11    0    -10.10     -1.04
    3   11   29     -6.28      0.32
    4   11   26      6.61     -5.09
    4   11   25      0.61    -10.17
    4   11   24      3.37      3.10
    4   11   23     12.33      3.00
    4   11   22     -2.72      2.89
    4   11   21     -4.17     -3.87
    4   11   20      7.09      1.59
    4   11   19      7.41      0.27
    4   11   18      6.96     11.90
    4   11   17     -3.47      1.87
    4   11   16      1.08      2.82
    4   11   15     -4.71     -1.32
    4   11   14      2.56     -3.92
    4   11   13     -2.93      0.06
    4   11   12      3.55      4.92
    4   11   11     -1.24     -0.42
    4   11   10      1.69     -8.08
    4   11    9     -0.44     -5.73
    4   11    8     -4.66     -6.38
    4   11    7      1.30      1.67
    4   11    6     -0.65      1.42
    4   11    5      1.98      2.37
    4   11    4      0.10      5.67
    4   11    3     -1.50      5.26
    4   11    2     -5.12     11.01
    4   11    1     -1.32     -9.22
    4   11    0      1.01     -0.77
    4   11   27      0.52      2.07
    4   11   28      2.19     -0.43
    4   11   29     -6.69      6.26
    5   11   25     -0.81     -1.81
    5   11   24     -5.70      1.31
    5   11   23      3.96    -11.45
    5   11   22      3.21     -3.89
    5   11   21      9.26      1.88
    5   11   20      1.92     -5.06
    5   11   19     11.21      0.09
    5   11   18      7.37     14.20
    5   11   17      1.39      1.86
    5   11   16      2.32      2.39
    5   11   15      1.94     -2.21
    5   11   14      5.91      3.03
    5   11   13     -5.22      0.80
    5   11   12      3.15     -7.31
    5   11   11      3.42     -6.94
    5   11   10     -4.20      4.31
    5   11    9     -2.78     -2.84
    5   11    8      3.24     -3.51
    5   11    7      3.92      2.42
    5   11    6     -2.61     -5.06
    5   11    5      1.76      3.33
    5   11    4     -4.31      5.89
    5   11    3     -6.18      4.33
    5   11    2      3.93     22.18
    5   11    1      0.50    -11.24
    5   11   26      2.26      0.48
    5   11   27      4.21      3.22
    5   11   28     -1.14     -4.70
    6   11   23      0.51     -6.72
    6   11   22    -15.98     -9.33
    6   11   21     11.88    -11.38
    6   11   20     -0.14     -2.21
    6   11   19      6.42      3.43
    6   11   18     -1.14      3.24
    6   11   17     10.51     -0.35
    6   11   16      2.21     10.18
    6   11   15      6.97      0.38
    6   11   14      1.15      1.30
    6   11   13     -5.47     -1.92
    6   11   12      0.66      3.28
    6   11   11     -1.50      0.99
    6   11   10     -3.90      2.38
    6   11    9     -4.88     -9.94
    6   11    8     -3.55     -1.83
    6   11    7      4.69      6.75
    6   11    6      1.52      0.86
    6   11    5      5.29      9.41
    6   11    4      1.68     -1.00
    6   11    3     -5.13    -13.65
    6   11    2      3.05     -5.21
    6   11    1    -12.53     -4.73
    6   11    0     -3.44      0.66
    6   11   24      6.11    -11.95
    6   11   25     -5.23      9.12
    6   11   26     -1.57      9.21
    6   11   27     -4.54      1.04
    7   11   23     -3.78     -4.08
    7   11   22      6.08     -2.50
    7   11   21      6.13    -15.52
    7   11   20    -15.79     -1.89
    7   11   19      8.41      4.70
    7   11   18     -6.88      8.00
    7   11   17     11.35     -3.48
    7   11   16      2.26      1.67
    7   11   15      5.31      1.39
    7   11   14     -7.94      3.42
    7   11   13      3.90     -1.41
    7   11   12      4.95      6.77
    7   11   11     -4.19      0.61
    7   11   10     -2.68     -3.74
    7   11    9     -6.52     -4.15
    7   11    8    -10.17      4.80
    7   11    7      1.57      1.72
    7   11    6      3.96      1.79
    7   11    5     -6.08      4.52
    7   11    4      0.47     -5.47
    7   11    3     -4.45     -3.22
    7   11    2      3.58    -31.00
    7   11    1     -2.58     -7.56
    7   11    0     -4.22     -0.25
    7   11   24    -11.04     -0.18
    7   11   25      0.49      8.80
    7   11   26      6.31     -7.93
    7   11   27     -5.42     10.77
    8   11   25     -2.23      1.46
    8   11   24     -2.51      0.58
    8   11   23      1.08      4.18
    8   11   22     15.00      4.28
    8   11   21      0.87     -7.86
    8   11   20    -18.28      7.95
    8   11   19      8.54     -3.84
    8   11   18     -9.06      6.02
    8   11   17      2.33      3.43
    8   11   16      2.70      4.53
    8   11   15      8.77      0.44
    8   11   14     -5.20     -4.65
    8   11   13      5.29      2.22
    8   11   12     -2.10     -1.53
    8   11   11      2.75    -12.29
    8   11   10     16.56      4.00
    8   11    9     -5.71     -7.63
    8   11    8     -9.09      4.36
    8   11    7     -1.35     -2.11
    8   11    6      3.17     -3.46
    8   11    5      0.00     -7.93
    8   11    4     -8.79     -0.35
    8   11    3     -5.52      5.35
    8   11    2      2.25    -14.19
    8   11    1      5.96     -5.88
    8   11    0     -1.60     -3.56
    8   11   26     -0.56     -0.31
    9   11   25     -3.44     -6.29
    9   11   24      0.99     -5.18
    9   11   23     -6.89      0.33
    9   11   22      9.16      4.71
    9   11   21      1.71     11.79
    9   11   20     -1.97     13.87
    9   11   19     -6.04     -2.38
    9   11   18     -5.64     -2.10
    9   11   17      2.29     -0.80
    9   11   16      3.22      4.65
    9   11   15      1.85      0.29
    9   11   14      0.86     -1.78
    9   11   13      7.88      0.83
    9   11   12     -9.57      0.42
    9   11   11     -0.50     -6.62
    9   11   10     10.15     -3.88
    9   11    9     -2.93    -25.70
    9   11    8     11.16      5.28
    9   11    7      6.61     -3.40
    9   11    6     -6.89      4.01
    9   11    5     29.13     -8.61
    9   11    4     14.67      4.79
    9   11    3     -6.51    -14.59
    9   11    2      8.86     -3.75
    9   11    1      5.48      7.53
    9   11    0    -20.44     -2.64
   10   11   25     -5.16     10.43
   10   11   24     14.21    -11.79
   10   11   23    -15.03     -7.93
   10   11   22     -1.95     -8.51
   10   11   21     -8.77     11.75
   10   11   20      7.87     19.30
   10   11   19    -10.63      3.44
   10   11   18      1.62     -4.07
   10   11   17     -3.25      2.85
   10   11   16     -0.02     -0.09
   10   11   15      7.59      0.34
   10   11   14     -2.90     -0.91
   10   11   13      1.50      4.59
   10   11   12     -4.17      3.33
   10   11   11     -0.52     -6.31
   10   11   10     -2.99     -1.72
   10   11    9      4.76    -17.23
   10   11    8      3.63      2.14
   10   11    7      2.89     -5.88
   10   11    6      1.77      5.05
   10   11    5     17.79     -1.07
   10   11    4     18.71      9.07
   10   11    3     17.91    -20.44
   10   11    2     22.54     -1.77
   10   11    1     12.24      3.55
   10   11    0    -11.35      4.36
   11   11    0     11.97      1.14
   11   11    1     -5.37     -7.72
   11   11    2      0.69     18.33
   11   11    3      7.57    -10.99
   11   11    4     22.21      1.24
   11   11    5      1.87      0.70
   11   11    6      1.13     15.99
   11   11    7      1.63      0.96
   11   11    8    -18.92     -0.32
   11   11    9      0.94      1.57
   11   11   10      0.09     -7.12
   11   11   11      5.28     -4.91
   11   11   12     -2.88      0.59
   11   11   13      0.97      0.36
   11   11   14     -1.43      2.61
   11   11   15     -0.57      1.53
   11   11   16     -3.18      0.47
   11   11   17     13.30     12.86
   11   11   18      1.13      7.29
   11   11   19    -12.62     13.66
   11   11   20      2.33     -1.00
   11   11   21    -11.43    -14.07
   11   11   22     -0.51    -10.72
   11   11   23    -14.35     13.69
   11   11   24     15.80      0.56
    0   12    0     35.39     -0.86
    0   12    1      0.29     13.78
    0   12    2      2.53      0.56
    0   12    3     -0.27     -3.50
    0   12    4     -5.45     -0.06
    0   12    5      0.38      4.55
    0   12    6     -0.67      0.17
    0   12    7      0.11      2.57
    0   12    8      3.40     -0.11
    0   12    9      0.20     -3.45
    0   12   10     10.88     -0.02
    0   12   11      0.61      4.19
    0   12   12      8.06     -0.06
    0   12   13     -2.17     -3.94
    0   12   14     -7.23      0.09
    0   12   15      0.07      2.46
    0   12   16     -6.53      0.31
    0   12   17      0.19      5.41
    0   12   18     14.24     -0.19
    0   12   19     -0.05     -2.25
    0   12   20    -13.74      0.18
    0   12   21     -1.03      6.47
    0   12   22     -2.65     -0.36
    0   12   23      0.35     21.76
    0   12   24    -12.71     -0.59
    0   12   25      0.20     23.62
    0   12   26      3.33      0.32
    0   12   27      0.32     12.61
    0   12   28     -5.41     -0.25
    0   12   29     -2.98     -3.63
    0   12   30      1.88      0.16
    1   12   31      0.45     -2.40
    1   12   30      1.29     -0.50
    1   12   29     -7.62      4.23
    1   12   28      2.92     -1.70
    1   12   27      2.92      5.93
    1   12   26     -8.55     -9.07
    1   12   25     -1.11     10.71
    1   12   24     -1.19     24.69
    1   12   23     -1.82     11.39
    1   12   22     -8.11     11.95
    1   12   21     -2.71     16.20
    1   12   20     -2.38    -12.78
    1   12   19      0.36      1.85
    1   12   18     -1.79      0.78
    1   12   17      5.26      0.24
    1   12   16     -1.31      1.93
    1   12   15      0.80      1.60
    1   12   14     -2.44      0.21
    1   12   13     -3.01     -1.00
    1   12   12      5.78     -5.09
    1   12   11     -3.31     -4.61
    1   12   10      5.86      1.51
    1   12    9     -4.30      1.43
    1   12    8     -1.10     -2.71
    1   12    7     -3.06      0.41
    1   12    6      0.72      4.34
    1   12    5     -1.19      2.07
    1   12    4     -2.20      0.41
    1   12    3     -3.11     -3.21
    1   12    2      4.85      1.53
    1   12    1      1.09      6.10
    1   12    0     12.40     -1.87
    2   12   29     -4.64      4.28
    2   12   28      3.68     -0.53
    2   12   27     -4.14     -2.63
    2   12   26      0.54      8.15
    2   12   25      3.21     -5.27
    2   12   24     -0.15     12.97
    2   12   23     -5.68     -8.46
    2   12   22     -3.59      1.71
    2   12   21     -1.22     16.29
    2   12   20     -5.03     -2.91
    2   12   19      1.89      9.50
    2   12   18     -3.39      1.49
    2   12   17     -2.86     -5.22
    2   12   16     -2.47      0.12
    2   12   15      2.45     -5.71
    2   12   14      3.54      2.78
    2   12   13      2.17      4.60
    2   12   12     -3.97     -1.37
    2   12   11     -3.16     -3.52
    2   12   10      1.20     -0.03
    2   12    9     -5.12     -4.10
    2   12    8      5.59     -3.90
    2   12    7      3.99      8.10
    2   12    6     -4.85     -0.75
    2   12    5     -1.99    -11.83
    2   12    4      0.08     -1.93
    2   12    3     -4.20     -2.86
    2   12    2      6.33     -1.09
    2   12    1      6.71     -0.90
    2   12    0    -11.42      0.65
    3   12   28     -1.09      5.36
    3   12   27     -1.67     -8.79
    3   12   26      1.49      3.14
    3   12   25      1.30    -14.30
    3   12   24      2.25      9.88
    3   12   23     -0.78    -11.16
    3   12   22     -1.78     -2.75
    3   12   21      4.11      2.26
    3   12   20     -0.92      4.32
    3   12   19     -3.50     -2.20
    3   12   18      1.84     -7.32
    3   12   17     -2.75      0.49
    3   12   16     -8.43     -0.50
    3   12   15      5.34     -3.64
    3   12   14     -0.08      1.88
    3   12   13     -2.03      2.33
    3   12   12     -1.93      1.52
    3   12   11      2.08     -2.05
    3   12   10      0.21      0.01
    3   12    9      7.73      0.86
    3   12    8      5.76     -1.53
    3   12    7      0.76      2.46
    3   12    6     -1.81     -6.03
    3   12    5      0.00     -9.12
    3   12    4      3.29     -2.97
    3   12    3      3.12     -6.44
    3   12    2      5.08     -6.64
    3   12    1    -14.81      0.33
    3   12    0     -7.46      2.16
    4   12   26      6.68      2.26
    4   12   25     -0.63    -26.40
    4   12   24     -2.15      6.04
    4   12   23      6.76     -1.19
    4   12   22      0.88      6.20
    4   12   21      0.87      2.91
    4   12   20      2.58     -4.58
    4   12   19      3.49     -4.37
    4   12   18     -0.93     -3.99
    4   12   17      2.77      0.10
    4   12   16     -1.81     -6.90
    4   12   15     -0.88     -0.49
    4   12   14     -3.52      0.50
    4   12   13     -1.12     -3.15
    4   12   12      5.48      2.71
    4   12   11      5.14      2.74
    4   12   10      4.12     -6.61
    4   12    9      7.14      0.53
    4   12    8     -2.00      1.49
    4   12    7      5.69     -4.87
    4   12    6      3.17      2.64
    4   12    5     -4.01     -0.45
    4   12    4      6.59     -5.82
    4   12    3    -12.06     -4.46
    4   12    2      1.89    -10.32
    4   12    1     -3.69      0.65
    4   12    0     12.71      0.28
    4   12   27      3.79     -9.40
    4   12   28     -9.66     -2.92
    5   12   24     -8.98      6.46
    5   12   23      2.53     -3.84
    5   12   22      6.09     -0.36
    5   12   21      4.08     16.41
    5   12   20     -3.02     -0.93
    5   12   19      5.05      3.89
    5   12   18      2.71     -1.68
    5   12   17      4.05     -3.73
    5   12   16     -0.26     -5.12
    5   12   15     -2.29     -1.24
    5   12   14      2.38     -0.92
    5   12   13     -8.06      3.50
    5   12   12      6.69     -5.02
    5   12   11      5.31     -2.59
    5   12   10     -2.35      2.74
    5   12    9      2.03      0.13
    5   12    8      5.75      3.27
    5   12    7      3.84     -3.48
    5   12    6      2.01     -0.05
    5   12    5     -6.85     -0.72
    5   12    4      5.19     -9.59
    5   12    3    -12.17     -3.43
    5   12    2      3.42     -2.70
    5   12    1      6.29      0.39
    5   12    0     11.22     -1.88
    5   12   25      2.12    -14.85
    5   12   26      2.33     -3.73
    5   12   27      2.04     -4.88
    6   12   22    -10.59      2.38
    6   12   21     -3.67      3.28
    6   12   20      0.10     -6.41
    6   12   19      0.54      3.47
    6   12   18      3.05     -1.94
    6   12   17      5.06      3.49
    6   12   16     -0.99      1.65
    6   12   15     -3.06     -0.55
    6   12   14      3.68     -4.68
    6   12   13     -6.76      2.05
    6   12   12      3.68      0.58
    6   12   11     -3.64      0.10
    6   12   10     -0.07      2.27
    6   12    9     -6.69     -6.26
    6   12    8     -0.89      3.60
    6   12    7      0.77      0.71
    6   12    6      2.12      3.12
    6   12    5      3.41      2.88
    6   12    4      2.79     -8.76
    6   12    3     -1.41     -8.92
    6   12    2      3.42     -5.29
    6   12    1    -10.88      3.30
    6   12   23      9.22      5.48
    6   12   24      6.80      1.37
    6   12   25      0.98      3.05
    6   12   26     -8.26     -4.16
    7   12   22     -1.95     -2.28
    7   12   21      1.26     -2.11
    7   12   20     -3.79     -7.07
    7   12   19     -2.16      5.50
    7   12   18      0.70     -3.13
    7   12   17      1.42     -1.03
    7   12   16      3.53     -2.96
    7   12   15     -1.60     -0.39
    7   12   14     -6.14      2.76
    7   12   13     -1.36     -6.93
    7   12   12      6.95      0.57
    7   12   11     -9.29      0.06
    7   12   10      1.55      2.05
    7   12    9     -6.42     -2.66
    7   12    8     -4.21     -2.51
    7   12    7     -3.75      2.04
    7   12    6     -1.00      6.60
    7   12    5      5.68     -1.22
    7   12    4      9.09      1.43
    7   12    3      1.45      0.65
    7   12    2     -3.33    -11.92
    7   12    1     -9.41      3.71
    7   12    0     -6.44      0.70
    7   12   23      4.46     -0.97
    7   12   24     -7.30     13.59
    7   12   25      4.33     10.08
    7   12   26     -0.86    -15.23
    8   12   24     -3.61      6.78
    8   12   23      9.86      9.80
    8   12   22     -3.38     -2.45
    8   12   21     -4.37     -9.19
    8   12   20     -6.49    -10.97
    8   12   19     -0.17      7.11
    8   12   18      1.76      3.36
    8   12   17     -4.94     -6.92
    8   12   16      1.42      0.34
    8   12   15     -0.40     -1.89
    8   12   14     -2.31     -1.02
    8   12   13      1.47      0.46
    8   12   12     -2.90     -4.14
    8   12   11     -6.45     -3.15
    8   12   10     17.22      6.40
    8   12    9     -9.05      1.86
    8   12    8     -2.79     -0.72
    8   12    7     -2.86     -0.08
    8   12    6      7.54     -7.12
    8   12    5      4.77     -2.37
    8   12    4     -1.56      4.01
    8   12    3      1.90     -1.03
    8   12    2    -15.75     -4.07
    8   12    1      8.87      4.10
    8   12    0     -1.17      1.29
    8   12   25      9.97      8.49
    9   12   24     -8.04      0.79
    9   12   23      3.69      5.34
    9   12   22     -0.43     -4.30
    9   12   21      1.98      7.35
    9   12   20      4.13      0.20
    9   12   19    -13.62      5.18
    9   12   18     -5.31     -4.29
    9   12   17     -5.17     -4.57
    9   12   16      2.16      1.15
    9   12   15     -3.67      0.81
    9   12   14      1.26     -3.00
    9   12   13      3.80     11.53
    9   12   12     -5.51      5.11
    9   12   11     -4.98      5.93
    9   12   10     10.42     -3.19
    9   12    9    -13.25     -9.55
    9   12    8     16.31      3.90
    9   12    7      4.76      8.35
    9   12    6     -1.34      2.35
    9   12    5     14.43      0.29
    9   12    4      0.25    -12.61
    9   12    3    -14.44    -19.26
    9   12    2    -14.25     -6.25
    9   12    1     12.25      0.66
    9   12    0     -2.55     -1.23
    9   12   25      9.83      0.06
   10   12   23     -3.06    -10.38
   10   12   22     -4.02     -0.91
   10   12   21      3.14      7.84
   10   12   20      6.54      7.28
   10   12   19    -14.81      8.92
   10   12   18      0.15    -11.34
   10   12   17     -2.95      2.60
   10   12   16     -7.73     -1.16
   10   12   15      0.95      4.40
   10   12   14      6.70      3.21
   10   12   13      0.34     12.19
   10   12   12     -2.78      8.83
   10   12   11     -2.76     -1.60
   10   12   10      5.94      1.61
   10   12    9     -2.62     -4.95
   10   12    8      3.35      1.30
   10   12    7     -0.01      6.30
   10   12    6      4.98      9.28
   10   12    5     -4.05      1.00
   10   12    4     -3.08     -8.98
   10   12    3     -9.31     -9.58
   10   12    2     10.37    -11.42
   10   12    1     -2.44    -14.02
   10   12    0    -13.01     -0.52
   10   12   24      3.88    -12.88
   11   12   22      1.83     -6.39
   11   12   21      1.37     -7.69
   11   12   20     -6.41     -1.20
   11   12   19      0.90      3.35
   11   12   18     -3.45     -0.26
   11   12   17      8.27      8.60
   11   12   16      0.77     -0.77
   11   12   15     -6.25     -4.71
   11   12   14      6.52     14.35
   11   12   13     -1.19     -5.50
   11   12   12      1.65      5.43
   11   12   11      3.47     -6.45
   11   12   10      4.77     -4.71
   11   12    9      2.46      5.75
   11   12    8     -9.15      4.25
   11   12    7    -11.98     -2.62
   11   12    6      9.96     10.11
   11   12    5    -11.82      0.77
   11   12    4      3.96     -9.56
   11   12    3     -3.45     13.12
   11   12    2     13.11     22.33
   11   12    1    -12.34    -19.58
   11   12    0     -4.08     -0.28
   11   12   23    -12.28     -7.18
   12   12    0     23.02      1.82
   12   12    1      0.42     -0.24
   12   12    2      1.64     43.44
   12   12    3     -5.72      4.50
   12   12    4      5.19     -0.83
   12   12    5     -5.67     -5.68
   12   12    6      0.60     -0.40
   12   12    7     -7.36      5.86
   12   12    8      6.33     -1.64
   12   12    9      0.35      0.93
   12   12   10      0.03    -11.87
   12   12   11      6.68     -5.75
   12   12   12      8.54      0.78
   12   12   13     -8.92     -8.51
   12   12   14      0.65     13.40
   12   12   15     -4.81    -10.23
   12   12   16      6.71     -0.43
   12   12   17     -0.99     -1.55
   12   12   18     -1.26      4.61
   12   12   19     11.87    -11.36
   12   12   20    -14.02      0.16
   12   12   21     -6.18     -4.39
   12   12   22      0.08     -2.07
    0   13    0     16.51     -0.04
    0   13    1      0.64      7.75
    0   13    2      0.64     -1.27
    0   13    3     -0.60      4.28
    0   13    4     -4.10      0.28
    0   13    5     -0.04     16.18
    0   13    6     -4.60     -0.38
    0   13    7      0.61      3.30
    0   13    8     -0.34      0.28
    0   13    9     -0.79     -5.02
    0   13   10      7.88     -1.05
    0   13   11      0.45      0.52
    0   13   12      1.21     -0.35
    0   13   13     -0.59     -0.28
    0   13   14      3.37      0.78
    0   13   15      0.12     13.48
    0   13   16      1.52     -0.56
    0   13   17     -0.34     -0.83
    0   13   18      6.20     -1.17
    0   13   19     -0.94    -15.46
    0   13   20    -20.97      2.54
    0   13   21     -0.44     -6.84
    0   13   22     -2.44     -0.43
    0   13   23     -0.46     -3.93
    0   13   24     -9.58     -0.89
    0   13   25     -0.55      6.58
    0   13   26      8.66      0.28
    0   13   27      1.70      8.19
    0   13   28     -4.31      0.74
    0   13   29     -1.35      1.19
    1   13   30     -0.58     -8.27
    1   13   29      6.54      7.10
    1   13   28      7.94     -0.55
    1   13   27      5.80     -1.09
    1   13   26     -1.17    -11.98
    1   13   25     -2.35      2.38
    1   13   24      0.71     12.42
    1   13   23      8.91     -2.14
    1   13   22     -0.16     -6.86
    1   13   21      1.14     -0.93
    1   13   20     -9.68    -12.00
    1   13   19     -0.57    -12.06
    1   13   18     -5.81      6.50
    1   13   17     -1.60      0.44
    1   13   16      3.03      2.93
    1   13   15      2.40      3.45
    1   13   14      3.58      5.95
    1   13   13     -3.08      1.29
    1   13   12      4.24     -5.31
    1   13   11     -6.53     -4.48
    1   13   10      1.44     -2.41
    1   13    9      3.75      2.90
    1   13    8     -1.45      0.13
    1   13    7     -1.75     -2.09
    1   13    6     -0.77      8.59
    1   13    5      3.20     10.36
    1   13    4     -1.77      7.12
    1   13    3      0.36      3.32
    1   13    2      2.66      3.67
    1   13    1      8.42      7.60
    1   13    0      7.02      2.41
    2   13   29      3.89      3.40
    2   13   28     10.64     -1.44
    2   13   27      1.96     -3.24
    2   13   26      4.45     -0.24
    2   13   25      2.16     -3.10
    2   13   24      3.17     -3.15
    2   13   23      0.70     -0.38
    2   13   22      5.19     -6.27
    2   13   21      5.91      1.11
    2   13   20     -5.85     -8.71
    2   13   19      9.29      0.58
    2   13   18     -0.73      6.34
    2   13   17     -0.89     -7.75
    2   13   16     -3.38      7.19
    2   13   15     -4.13     -4.58
    2   13   14      7.77      1.20
    2   13   13      2.45     -0.72
    2   13   12     -0.58     -0.86
    2   13   11     -7.13     -2.21
    2   13   10      3.29     -1.35
    2   13    9     -0.94      5.83
    2   13    8     -2.13     -5.19
    2   13    7      2.30      5.34
    2   13    6     -7.98      3.76
    2   13    5      1.98     -9.61
    2   13    4      1.67      1.71
    2   13    3      2.24      4.77
    2   13    2     10.20      0.15
    2   13    1      6.46      8.46
    2   13    0     -0.77     10.46
    3   13   27      1.92     -2.32
    3   13   26      0.69      0.08
    3   13   25     -1.55     -0.73
    3   13   24      4.39     -2.46
    3   13   23     -2.71     -1.95
    3   13   22     -2.69     -1.21
    3   13   21      8.01      1.36
    3   13   20      0.28      3.42
    3   13   19      5.63     -0.41
    3   13   18      5.60     -5.13
    3   13   17      8.52     -5.80
    3   13   16     -2.31      2.04
    3   13   15     -2.00     -3.20
    3   13   14      1.70      1.78
    3   13   13     -3.35     -6.80
    3   13   12      5.95     -2.48
    3   13   11      0.41      4.56
    3   13   10      0.57      2.45
    3   13    9     -0.51      2.91
    3   13    8     -0.40     -5.36
    3   13    7     -1.61      8.14
    3   13    6    -16.45    -11.66
    3   13    5     -1.66     -1.05
    3   13    4      4.87      4.02
    3   13    3      0.86     -0.16
    3   13    2      6.34     -0.83
    3   13    1    -12.12      9.33
    3   13    0      0.15      7.80
    4   13   26      2.67      1.99
    4   13   25     -2.78     -6.65
    4   13   24     -3.88      3.16
    4   13   23     -2.98      0.68
    4   13   22      2.34      3.60
    4   13   21      4.03     -0.47
    4   13   20      1.37     -1.85
    4   13   19      3.99      1.71
    4   13   18     -6.33     -1.96
    4   13   17      5.31     -0.81
    4   13   16      4.62     -7.05
    4   13   15      3.71     -3.02
    4   13   14     -1.68      1.17
    4   13   13     -3.92     -6.09
    4   13   12      7.61      3.06
    4   13   11     -4.00      6.35
    4   13   10     -2.36     -5.17
    4   13    9     -4.92      1.88
    4   13    8      2.43      1.50
    4   13    7      5.50      2.14
    4   13    6     -4.80     -6.61
    4   13    5     -2.10     10.57
    4   13    4     -4.69      0.94
    4   13    3    -19.42     -5.18
    4   13    2    -17.96      2.95
    4   13    1      0.11     13.00
    4   13    0     -1.00      2.66
    4   13   27      8.35      1.93
    5   13   24     -2.66      1.96
    5   13   23     -0.64     -5.20
    5   13   22     13.03      0.32
    5   13   21      1.08      4.19
    5   13   20     -7.82      4.28
    5   13   19      4.69      2.65
    5   13   18     -2.28     -7.34
    5   13   17      0.29     -2.10
    5   13   16     -3.57     -1.69
    5   13   15     -0.29     -0.06
    5   13   14     -0.98     -2.02
    5   13   13     -7.11      0.27
    5   13   12      3.48      2.01
    5   13   11     -7.56     -0.40
    5   13   10     -1.42     -1.99
    5   13    9     -4.81      2.40
    5   13    8      7.45      2.74
    5   13    7     -0.12      2.96
    5   13    6     -1.89     -0.75
    5   13    5      0.78     -2.12
    5   13    4     -6.98     -0.67
    5   13    3    -11.07     -1.29
    5   13    2    -37.54      0.82
    5   13    1      8.94     10.06
    5   13    0     -7.07     -1.90
    5   13   25      1.08     -6.34
    5   13   26     -1.28     -8.11
    6   13   22      2.65      3.88
    6   13   21     -1.70     -2.02
    6   13   20     -0.67      1.88
    6   13   19      1.17     -0.98
    6   13   18      1.47     -6.00
    6   13   17      4.51      3.34
    6   13   16     -3.73      3.56
    6   13   15     -4.73      1.66
    6   13   14      2.55      2.09
    6   13   13     -6.76      3.88
    6   13   12      0.77     -9.71
    6   13   11    -11.88     -1.46
    6   13   10      2.60     -5.03
    6   13    9     -0.59     -0.78
    6   13    8      2.20      4.05
    6   13    7     -1.23     -6.59
    6   13    6     -2.04      2.24
    6   13    5      0.38      0.68
    6   13    4     -7.30     -6.62
    6   13    3      4.02     -3.72
    6   13    2    -18.40      6.62
    6   13    1     -2.55      8.73
    6   13    0    -11.84     -3.00
    6   13   23      8.61     -3.12
    6   13   24     12.21     -1.55
    6   13   25     -4.64     -0.09
    6   13   26     -7.68    -11.70
    7   13   21      2.88      8.44
    7   13   20      5.08      3.37
    7   13   19      0.96     -0.20
    7   13   18      8.01      0.34
    7   13   17      6.88      5.54
    7   13   16      5.85      3.35
    7   13   15     -1.32      2.76
    7   13   14     -0.06      1.94
    7   13   13     -7.49     -0.92
    7   13   12      6.94    -12.79
    7   13   11     -3.73     -1.33
    7   13   10     -3.52      3.27
    7   13    9      1.88      2.07
    7   13    8      0.51    -12.35
    7   13    7     -0.76     -0.09
    7   13    6      1.79      3.26
    7   13    5      1.06     -3.22
    7   13    4     13.70     -3.09
    7   13    3      4.83     -0.24
    7   13    2     -5.76     12.12
    7   13    1     -3.52     14.58
    7   13   22     -1.31     -4.04
    7   13   23     -2.64     -9.29
    7   13   24      3.90      8.44
    7   13   25     -6.18     -2.56
    8   13   22     -7.37     -4.00
    8   13   21    -16.00     -1.24
    8   13   20      7.29     -3.52
    8   13   19      6.31      7.71
    8   13   18     14.86     12.89
    8   13   17      8.15     -5.97
    8   13   16      0.09     -1.06
    8   13   15     -0.84      5.87
    8   13   14      4.80      1.87
    8   13   13      0.29     -1.28
    8   13   12      1.38     -8.37
    8   13   11     -2.55      1.10
    8   13   10      0.79      7.99
    8   13    9      1.48     12.97
    8   13    8     -2.54     -5.74
    8   13    7     -4.12      3.18
    8   13    6      9.61     -4.53
    8   13    5      0.20     -1.40
    8   13    4     17.89      0.40
    8   13    3      7.72     -2.72
    8   13    2     -6.10      7.35
    8   13    1     13.96     15.58
    8   13    0     25.89      3.04
    8   13   23     -2.23      2.85
    8   13   24      4.66      0.45
    8   13   25      5.07     -6.11
    9   13   23      2.38     -2.51
    9   13   22      3.67     -4.93
    9   13   21    -16.97      1.21
    9   13   20      9.51      4.77
    9   13   19     -5.16     -2.19
    9   13   18      0.63      8.23
    9   13   17      6.51     -2.09
    9   13   16      1.87     -6.40
    9   13   15      1.89     -4.31
    9   13   14      4.10     -5.63
    9   13   13      3.28     -0.04
    9   13   12      0.01      4.21
    9   13   11     -3.51      3.14
    9   13   10     -3.35     -0.02
    9   13    9     -7.14      7.50
    9   13    8      3.96     11.22
    9   13    7      0.92      6.89
    9   13    6      4.28      3.60
    9   13    5     -2.74     -0.66
    9   13    4      1.03    -12.71
    9   13    3      1.35     -5.90
    9   13    2     -4.24     -3.87
    9   13    1     14.75     -0.14
    9   13    0     30.44      0.59
    9   13   24     -3.78      3.46
   10   13   22      3.33     14.47
   10   13   21     -2.74     -5.56
   10   13   20     10.04      3.82
   10   13   19     -9.46      2.02
   10   13   18     -2.65     -3.14
   10   13   17     -2.41     -4.25
   10   13   16     -2.51     -7.76
   10   13   15      3.68     -6.94
   10   13   14      8.05     -0.59
   10   13   13      3.85     -0.57
   10   13   12     -3.10     -3.53
   10   13   11     -1.66     -8.30
   10   13   10      2.32      7.35
   10   13    9     -5.71     -1.68
   10   13    8     -6.51      8.67
   10   13    7      3.81      5.08
   10   13    6      7.79     -0.47
   10   13    5     -3.25    -13.19
   10   13    4    -14.25    -11.38
   10   13    3     -5.49      4.86
   10   13    2      6.08    -15.86
   10   13    1     -0.96    -10.32
   10   13    0     -5.84     -1.38
   10   13   23      5.38     -9.20
   11   13   21      7.86     -0.46
   11   13   20      1.68      4.84
   11   13   19     -0.61      1.24
   11   13   18     -1.58     -5.15
   11   13   17     -4.34     -1.29
   11   13   16      1.47     -4.47
   11   13   15     -1.12     -9.60
   11   13   14      8.84      9.53
   11   13   13      0.54     -2.11
   11   13   12     -6.45     -0.37
   11   13   11      9.02     -4.60
   11   13   10     -0.66      0.60
   11   13    9      5.17      2.45
   11   13    8     -3.62      5.35
   11   13    7      1.89    -13.86
   11   13    6      3.25     -2.96
   11   13    5     -5.79     -3.00
   11   13    4     -6.11    -18.49
   11   13    3     11.20      8.37
   11   13    2      7.76     -7.64
   11   13    1    -10.38      3.48
   11   13    0    -34.82     -0.92
   11   13   22      3.01      6.78
   11   13   23     -5.81    -13.39
   12   13   20     -5.59     -3.76
   12   13   19      5.51      0.34
   12   13   18      1.40      1.78
   12   13   17     -3.35     -9.21
   12   13   16      2.43      1.52
   12   13   15     -2.25      1.79
   12   13   14     -1.74      5.48
   12   13   13     -3.18      4.06
   12   13   12     -1.90     13.33
   12   13   11     15.80      7.64
   12   13   10     -5.50     -8.74
   12   13    9     10.05      2.96
   12   13    8      7.28      7.19
   12   13    7     -3.22     -5.24
   12   13    6     -5.03     -5.61
   12   13    5     -1.13      1.65
   12   13    4      0.96     -9.60
   12   13    3     12.07     12.48
   12   13    2     -9.43      7.52
   12   13    1      8.48     18.41
   12   13    0     -0.69      1.11
   12   13   21     -2.44     -2.02
   12   13   22      0.59      4.77
   13   13    0      1.17      0.04
   13   13    1     15.98     18.86
   13   13    2     -0.13     14.30
   13   13    3     -7.62      8.24
   13   13    4     -9.99      0.62
   13   13    5      5.87      4.48
   13   13    6     -0.35      6.40
   13   13    7     -3.85      4.75
   13   13    8      5.83      1.24
   13   13    9     12.10     11.61
   13   13   10      0.18     -6.29
   13   13   11     -4.59      5.45
   13   13   12     -1.55     -0.24
   13   13   13      5.88      5.95
   13   13   14     -1.09      7.89
   13   13   15     -5.70      6.29
   13   13   16     -8.42      1.80
   13   13   17     -3.55     -3.19
   13   13   18      0.52      0.53
   13   13   19      2.98     -2.70
    0   14    0     -9.03      1.00
    0   14    1     -0.69      0.57
    0   14    2     -6.32     -1.86
    0   14    3      0.34     -3.60
    0   14    4      9.71      4.50
    0   14    5     -0.87     13.46
    0   14    6     -4.03     -0.01
    0   14    7      1.42     11.04
    0   14    8     12.30      0.05
    0   14    9     -0.62     -9.18
    0   14   10      0.56      0.42
    0   14   11      0.49     -1.15
    0   14   12     -3.12     -0.14
    0   14   13      0.03     -7.31
    0   14   14      0.67     -0.48
    0   14   15     -0.30      3.82
    0   14   16     -5.23     -0.01
    0   14   17     -0.29     -2.15
    0   14   18     -2.95     -0.63
    0   14   19     -0.31      5.34
    0   14   20      9.97      1.72
    0   14   21      0.67     -3.29
    0   14   22     15.32     -0.62
    0   14   23     -0.50      7.96
    0   14   24     -3.18      0.37
    0   14   25     -0.01     -7.94
    0   14   26      8.70     -0.07
    0   14   27      2.21     -4.11
    0   14   28     -1.13     -0.06
    1   14   28      5.00      1.53
    1   14   27      6.87     -6.83
    1   14   26     -0.71     -4.81
    1   14   25     -1.37      1.06
    1   14   24      4.34     -2.61
    1   14   23      6.16      1.48
    1   14   22     11.25     -8.94
    1   14   21     -2.04     -3.11
    1   14   20      1.53      5.92
    1   14   19      1.17      1.24
    1   14   18     -0.64      1.71
    1   14   17     -2.89      6.26
    1   14   16     -2.48      1.29
    1   14   15      3.98     -2.61
    1   14   14     -2.65     -0.76
    1   14   13      3.04     -2.86
    1   14   12     -1.40     -5.44
    1   14   11     -0.48     -0.80
    1   14   10      0.52     -3.15
    1   14    9      5.01     -1.64
    1   14    8      8.39      2.57
    1   14    7     -6.02      2.43
    1   14    6      0.56      6.84
    1   14    5      2.24      6.90
    1   14    4      0.21      9.62
    1   14    3      0.56      1.18
    1   14    2     -2.27      0.80
    1   14    1      3.92     -0.63
    1   14    0     -5.90      6.27
    2   14   28      5.54     -0.01
    2   14   27      4.04      1.73
    2   14   26     -4.56      3.09
    2   14   25      4.01      3.75
    2   14   24      2.24     -8.94
    2   14   23     -1.21      0.70
    2   14   22      5.69     -3.07
    2   14   21      5.02     -6.20
    2   14   20     -5.64     -0.64
    2   14   19     -2.21      4.84
    2   14   18      3.87      0.39
    2   14   17      1.26     -0.27
    2   14   16     -0.76      3.05
    2   14   15     -5.90      2.37
    2   14   14     -0.33     -5.55
    2   14   13      8.89     -0.69
    2   14   12     -4.22     -1.69
    2   14   11     -0.81     -2.52
    2   14   10      4.56     -2.40
    2   14    9      1.55      5.49
    2   14    8     -3.16      3.14
    2   14    7     -2.45      1.26
    2   14    6     -3.27      8.81
    2   14    5      3.19    -11.68
    2   14    4     -5.14      6.23
    2   14    3      0.11      3.08
    2   14    2     -0.17      4.08
    2   14    1      3.35     -2.90
    2   14    0      4.28     14.21
    3   14   27      4.08     -0.16
    3   14   26     -4.68      7.55
    3   14   25     -2.48      5.53
    3   14   24     -1.68     -4.47
    3   14   23     -3.99     -2.92
    3   14   22     -3.20     -1.16
    3   14   21      3.55      0.71
    3   14   20      1.05     -0.52
    3   14   19      1.83      5.73
    3   14   18      6.24     -1.65
    3   14   17      1.44     -5.22
    3   14   16      2.96      0.54
    3   14   15     -8.09      3.16
    3   14   14     -1.61      2.49
    3   14   13      4.08     -2.50
    3   14   12      3.29     -4.12
    3   14   11      3.91      4.64
    3   14   10     -0.70      2.62
    3   14    9      1.82     -4.31
    3   14    8    -12.06      0.53
    3   14    7     -3.12      0.24
    3   14    6     -9.20     -0.54
    3   14    5     -4.38     -4.99
    3   14    4      3.47     17.91
    3   14    3      2.78    -10.42
    3   14    2     -1.53      4.74
    3   14    1     -2.46     -3.67
    3   14    0      0.47      4.47
    4   14   25     -3.06     -0.04
    4   14   24     -3.74      5.03
    4   14   23     -3.20      0.09
    4   14   22     -1.04     -5.33
    4   14   21      0.81     -3.52
    4   14   20      7.17     -1.86
    4   14   19      3.27      6.26
    4   14   18     -1.86      4.91
    4   14   17      2.13     -3.12
    4   14   16      4.70      2.36
    4   14   15      0.90     -0.10
    4   14   14     -0.93      3.64
    4   14   13     -3.52      0.85
    4   14   12      5.90     -0.75
    4   14   11      1.48     11.59
    4   14   10    -15.79     -4.47
    4   14    9      3.56     -5.80
    4   14    8      3.45      4.48
    4   14    7     -3.47     -9.45
    4   14    6     -0.51     -1.20
    4   14    5     -3.36      1.66
    4   14    4      0.29     10.70
    4   14    3    -11.46    -14.09
    4   14    2    -10.84      7.37
    4   14    1      8.51      0.97
    4   14    0     -4.56     -0.57
    4   14   26     -0.65      7.80
    5   14   24     -1.66      4.60
    5   14   23      5.29     -4.10
    5   14   22      8.82     -0.70
    5   14   21     -0.29      1.77
    5   14   20     -1.59      3.65
    5   14   19      6.53     -0.61
    5   14   18     -0.11     -2.52
    5   14   17     -0.47     -2.96
    5   14   16     -4.52      5.16
    5   14   15      3.35      1.96
    5   14   14     -0.42     -1.97
    5   14   13     -1.50      2.57
    5   14   12     -5.18      3.98
    5   14   11     -3.28      2.43
    5   14   10     -6.23     -4.80
    5   14    9     -2.94     -0.68
    5   14    8      6.19     -0.21
    5   14    7     -0.28      2.32
    5   14    6      1.79     -2.93
    5   14    5     -1.70    -12.90
    5   14    4      0.25      0.65
    5   14    3     -9.68     -4.31
    5   14    2    -20.54     -1.31
    5   14    1      4.68     -1.77
    5   14    0      7.02     -2.03
    5   14   25      1.68     -2.91
    6   14   22      0.41      2.05
    6   14   21      5.73      1.98
    6   14   20      2.51      3.65
    6   14   19     -1.81     -4.36
    6   14   18     -3.43     -5.94
    6   14   17      1.04     -7.07
    6   14   16     -7.16      1.15
    6   14   15     -1.44      0.69
    6   14   14      0.29      8.35
    6   14   13      0.37      0.01
    6   14   12     -1.85     -9.44
    6   14   11     -8.95     -0.93
    6   14   10     -3.04     -6.64
    6   14    9      1.69      2.76
    6   14    8     -3.27     -0.54
    6   14    7      4.23     -5.30
    6   14    6      0.09     -1.59
    6   14    5     -3.75     -0.68
    6   14    4     -3.42    -14.82
    6   14    3     -7.98    -13.00
    6   14    2     -5.51     -1.73
    6   14    1     -1.81     -2.92
    6   14    0      9.56     -4.32
    6   14   23      9.88      1.25
    6   14   24      5.85      8.01
    6   14   25      0.47      3.87
    7   14   20     -3.07      3.20
    7   14   19     -5.98     -9.77
    7   14   18     -0.04     -2.79
    7   14   17     -5.36      1.79
    7   14   16     -0.76     -0.69
    7   14   15     -3.99     -3.11
    7   14   14      4.23      3.31
    7   14   13    -11.26      1.56
    7   14   12      5.97     -7.18
    7   14   11      9.39     -2.62
    7   14   10    -10.21      3.11
    7   14    9      4.48      5.98
    7   14    8     -4.69     -9.44
    7   14    7      7.61     -5.25
    7   14    6      4.42     -4.12
    7   14    5     -4.60     -1.60
    7   14    4     -0.93     -5.00
    7   14    3     -0.45     -7.03
    7   14    2     -1.51      2.21
    7   14    1     -4.58     -1.06
    7   14    0     13.72     -2.75
    7   14   21      6.05      9.46
    7   14   22     -0.31      0.52
    7   14   23     -0.62      2.69
    7   14   24      2.16     13.52
    8   14   21     -6.13      3.34
    8   14   20     -2.75     -1.88
    8   14   19     -2.15     -0.60
    8   14   18      3.29      1.65
    8   14   17    -10.97     -3.09
    8   14   16     -1.45     -5.18
    8   14   15     -8.39     12.27
    8   14   14     10.69      7.78
    8   14   13     -2.10      2.48
    8   14   12      1.82     -0.42
    8   14   11      9.94      0.79
    8   14   10    -11.84      3.27
    8   14    9      9.90      5.27
    8   14    8      2.36     -2.86
    8   14    7      1.34     -0.24
    8   14    6     -0.10     -4.13
    8   14    5      6.72     -1.73
    8   14    4      8.25      2.91
    8   14    3      3.20      4.81
    8   14    2    -10.59     11.98
    8   14    1     13.49     10.58
    8   14    0     18.71      1.15
    8   14   22     -1.90      2.65
    8   14   23     -4.06      2.62
    8   14   24      1.49      6.70
    9   14   22      1.72     -7.73
    9   14   21    -11.27      1.09
    9   14   20     -3.31      6.11
    9   14   19     -4.15     -7.16
    9   14   18     -0.15      2.87
    9   14   17     -3.94      6.73
    9   14   16      2.23     -3.64
    9   14   15      0.06      7.33
    9   14   14      4.90      3.52
    9   14   13     -1.80     -2.19
    9   14   12     -1.89      8.63
    9   14   11      3.88      4.58
    9   14   10     -7.64     -2.15
    9   14    9      9.80      6.46
    9   14    8     -1.85      2.09
    9   14    7     -1.12     -1.78
    9   14    6     -0.38     -5.65
    9   14    5     -1.51      6.52
    9   14    4     -2.80     -0.74
    9   14    3     20.42     12.60
    9   14    2     -8.58      8.84
    9   14    1      0.51      9.92
    9   14    0     11.25      1.28
    9   14   23      5.91     -3.86
   10   14   21     -3.86    -15.39
   10   14   20      3.06     -2.61
   10   14   19     -3.19     -3.82
   10   14   18     -4.73      5.52
   10   14   17     -3.10     -1.08
   10   14   16      2.62      1.22
   10   14   15      4.27      0.12
   10   14   14     -1.37      4.18
   10   14   13     -3.38      0.47
   10   14   12     -2.43     -3.63
   10   14   11      2.52     -1.77
   10   14   10     -1.56      5.87
   10   14    9      0.33      2.54
   10   14    8     -7.68     -5.28
   10   14    7      4.20      4.12
   10   14    6      5.41    -21.76
   10   14    5     -0.56     -3.67
   10   14    4    -19.21      3.96
   10   14    3      1.43     12.58
   10   14    2     -4.06     -3.47
   10   14    1      2.97     -9.47
   10   14    0    -10.14     -0.62
   10   14   22      1.27      8.96
   10   14   23     11.39      3.37
   11   14   20      7.04      4.15
   11   14   19     -6.60     -4.29
   11   14   18     -2.93     -1.69
   11   14   17     -3.32     -0.29
   11   14   16     -6.89      2.08
   11   14   15      2.42     -1.63
   11   14   14      5.89      5.96
   11   14   13     -9.15      3.72
   11   14   12     -6.39     -2.39
   11   14   11      8.60     -2.49
   11   14   10     -6.56      0.37
   11   14    9      1.52     -3.12
   11   14    8      6.08     -4.36
   11   14    7      7.84     -4.97
   11   14    6     -3.18    -20.16
   11   14    5    -10.52      5.86
   11   14    4    -12.58      2.54
   11   14    3      7.22    -13.81
   11   14    2     -5.60     -1.62
   11   14    1    -14.38    -16.03
   11   14    0    -26.56     -1.46
   11   14   21      6.79     -6.88
   11   14   22     -1.09      3.20
   12   14   19     -6.33      4.17
   12   14   18      0.41     -0.68
   12   14   17      1.24     -1.26
   12   14   16     -3.03      5.66
   12   14   15     -1.00     10.65
   12   14   14     -1.19     -0.88
   12   14   13     -5.31      2.42
   12   14   12     -7.89     12.76
   12   14   11     11.35     -0.59
   12   14   10     -6.80     -5.03
   12   14    9      6.25     -5.13
   12   14    8      5.52      2.47
   12   14    7     -8.08     -9.48
   12   14    6     -5.38     -6.49
   12   14    5     -4.65      1.13
   12   14    4     -1.38      4.48
   12   14    3      5.71     -8.32
   12   14    2    -13.06      0.50
   12   14    1     -6.20    -12.54
   12   14    0    -12.40      0.51
   12   14   20     -1.68     -6.86
   12   14   21     -2.95     -5.67
   13   14   18      1.50     -2.74
   13   14   17     -1.36      5.27
   13   14   16    -10.17      6.78
   13   14   15     -1.73      6.37
   13   14   14      1.67      6.33
   13   14   13      5.70     -3.53
   13   14   12     -3.02      3.55
   13   14   11     -3.23      3.30
   13   14   10    -10.92     -5.69
   13   14    9      7.42     -2.30
   13   14    8     -3.07      7.07
   13   14    7    -12.11     -8.04
   13   14    6      2.65      2.22
   13   14    5     -2.10     -0.08
   13   14    4    -11.37     -5.35
   13   14    3     -0.96      2.80
   13   14    2     -5.57      8.70
   13   14    1      6.57     -9.07
   13   14    0     -1.62      1.10
   13   14   19      1.10      2.82
   13   14   20     -2.44     -8.37
   14   14    0      7.76      0.67
   14   14    1     -9.15     -8.84
   14   14    2      0.12      0.94
   14   14    3     -3.28      0.48
   14   14    4    -14.71      3.31
   14   14    5      3.44      1.04
   14   14    6     -1.31    -12.55
   14   14    7     -3.62     -6.28
   14   14    8     -8.11     -0.15
   14   14    9      1.17      0.18
   14   14   10     -0.11    -11.32
   14   14   11     -4.90      5.75
   14   14   12     -4.26      1.06
   14   14   13     -4.56     -4.67
   14   14   14      0.12      4.66
   14   14   15      0.84     -1.29
   14   14   16     -6.37     -0.15
    0   15    0     -6.74      4.43
    0   15    1      0.02     -5.41
    0   15    2    -10.12     -3.11
    0   15    3      0.22    -14.31
    0   15    4     11.25      0.61
    0   15    5     -2.17      2.75
    0   15    6     -9.51     -0.07
    0   15    7      0.60     19.85
    0   15    8      3.75     -0.20
    0   15    9     -0.07      2.42
    0   15   10     -7.69     -0.08
    0   15   11      0.94      1.42
    0   15   12     -6.87     -0.16
    0   15   13     -0.66     -0.14
    0   15   14      0.18     -0.22
    0   15   15     -0.20     -1.91
    0   15   16      3.32     -0.17
    0   15   17      0.27     -1.34
    0   15   18     -5.31      0.33
    0   15   19     -0.46      2.36
    0   15   20     13.11      1.33
    0   15   21     -0.53    -16.02
    0   15   22      1.30     -0.27
    0   15   23      1.49     12.84
    0   15   24      0.27     -0.06
    0   15   25      0.70     -6.24
    0   15   26      5.36     -0.04
    1   15   27      2.31     -1.13
    1   15   26      1.39     -3.04
    1   15   25      4.42      2.41
    1   15   24      5.96     -7.53
    1   15   23      9.31      3.57
    1   15   22      1.37     -4.89
    1   15   21      0.84     -9.42
    1   15   20     -3.78      3.46
    1   15   19     -0.64     -1.14
    1   15   18      3.05    -17.45
    1   15   17     -5.15      2.35
    1   15   16     -0.70      0.59
    1   15   15      4.15     -6.34
    1   15   14     -3.28      4.16
    1   15   13      1.08      4.52
    1   15   12     -3.74     -2.09
    1   15   11     -1.50      7.67
    1   15   10     -0.80      1.11
    1   15    9      5.35      0.57
    1   15    8      2.71      6.18
    1   15    7      2.50      8.22
    1   15    6     -3.20     -2.29
    1   15    5      4.16      1.23
    1   15    4      0.83     -0.89
    1   15    3     -2.81     -7.01
    1   15    2      1.67     -2.93
    1   15    1     -1.39    -10.00
    1   15    0     -6.55      0.83
    2   15   27     -3.77      5.27
    2   15   26     -1.66     -0.74
    2   15   25      6.90      4.82
    2   15   24      5.00     -5.90
    2   15   23      1.00     -0.17
    2   15   22     -2.67     -0.80
    2   15   21     12.87     -0.56
    2   15   20     -5.21     -1.61
    2   15   19     -9.59     -0.87
    2   15   18     -2.31    -13.17
    2   15   17      2.74     -1.66
    2   15   16     -1.28     -8.42
    2   15   15     -2.52      1.37
    2   15   14     -3.77     -3.70
    2   15   13     -0.06      4.00
    2   15   12     -0.47      4.29
    2   15   11     -4.01      3.19
    2   15   10      5.86      3.02
    2   15    9      4.51      2.22
    2   15    8      0.33      5.36
    2   15    7      1.86     -2.81
    2   15    6      3.27     -4.39
    2   15    5      3.38    -10.72
    2   15    4     -2.93     -4.97
    2   15    3     -3.66      2.10
    2   15    2      2.32      4.87
    2   15    1     -0.45     -5.51
    2   15    0      9.71      2.76
    3   15   27     -3.56      3.60
    3   15   26      0.12      1.65
    3   15   25     -5.10      3.00
    3   15   24     -0.64     -1.42
    3   15   23     -2.80     -2.35
    3   15   22     -2.42     -0.36
    3   15   21      1.14      2.79
    3   15   20     -2.80      0.45
    3   15   19      6.88      7.73
    3   15   18     -0.55     -4.09
    3   15   17     -4.88     -4.01
    3   15   16      0.18    -10.50
    3   15   15     -5.71      4.63
    3   15   14     -0.29      0.91
    3   15   13      0.12     -4.77
    3   15   12      1.43      4.02
    3   15   11     -3.36     -3.61
    3   15   10      6.63      6.47
    3   15    9     -2.31     -0.99
    3   15    8    -10.92     -3.50
    3   15    7      1.41     -6.43
    3   15    6      5.37     -8.41
    3   15    5     -7.05     -4.10
    3   15    4      1.18      5.17
    3   15    3      5.04     -2.16
    3   15    2     -0.41     -1.30
    3   15    1      0.31      8.72
    3   15    0      5.52     -1.33
    4   15   25     -6.90      0.86
    4   15   24     -0.89      0.07
    4   15   23     -4.72      0.72
    4   15   22     -4.20     -7.02
    4   15   21     -5.78     -4.76
    4   15   20     -0.35      6.51
    4   15   19      3.77      6.69
    4   15   18      2.37     -2.14
    4   15   17      0.91     -1.40
    4   15   16     -0.68     -0.78
    4   15   15     -1.42     -2.84
    4   15   14      3.65      9.05
    4   15   13     -5.62     -2.34
    4   15   12      6.96      2.06
    4   15   11      0.45     -0.02
    4   15   10    -11.10      2.28
    4   15    9      3.27     -3.77
    4   15    8     -0.72     -3.46
    4   15    7     -8.54     -7.90
    4   15    6      2.43      1.15
    4   15    5     -1.51      8.73
    4   15    4     -2.41      1.30
    4   15    3      3.20      1.14
    4   15    2     -5.50     -2.92
    4   15    1      4.07     10.17
    4   15    0     -6.19     -0.25
    5   15   23      0.45     -2.27
    5   15   22     -3.68     -0.21
    5   15   21     -7.36     -0.36
    5   15   20     -4.89      7.36
    5   15   19      2.65     -1.65
    5   15   18      0.31     -4.70
    5   15   17      2.62     -1.32
    5   15   16     -1.43      2.21
    5   15   15      4.28     -4.07
    5   15   14      6.51     -0.31
    5   15   13     -4.61      2.15
    5   15   12     -0.03      4.24
    5   15   11      6.08     -1.46
    5   15   10     -1.05      6.07
    5   15    9     -3.56     -0.08
    5   15    8      0.13      0.89
    5   15    7      0.89      8.67
    5   15    6      2.77     -1.16
    5   15    5     -0.54      1.42
    5   15    4     -6.89     10.56
    5   15    3      0.11      6.30
    5   15    2    -10.93     -2.46
    5   15    1      2.93     -0.98
    5   15    0     -7.61      0.56
    5   15   24      0.83     -4.69
    6   15   21     -1.02      6.47
    6   15   20     -1.28      5.07
    6   15   19      1.99     -1.68
    6   15   18     -7.95     -2.01
    6   15   17      7.16     -6.52
    6   15   16      0.59     -3.60
    6   15   15     -0.86      4.47
    6   15   14      4.52      3.10
    6   15   13      0.94     -0.56
    6   15   12      4.88     -8.59
    6   15   11      2.37      1.85
    6   15   10      1.51      6.00
    6   15    9     -3.99      3.48
    6   15    8     -1.48      9.87
    6   15    7      7.97      4.77
    6   15    6      9.65     10.28
    6   15    5      0.59      4.99
    6   15    4    -11.59     -5.05
    6   15    3    -10.91     -7.45
    6   15    2    -10.30     -1.13
    6   15    1      2.88     -3.14
    6   15    0     -1.15     -1.10
    6   15   22     -5.23      2.15
    6   15   23     -2.18     -0.04
    6   15   24      5.21     -1.75
    7   15   20    -11.77      5.87
    7   15   19      2.01      0.20
    7   15   18     -0.45      1.11
    7   15   17      3.88      9.56
    7   15   16     -3.22     -4.01
    7   15   15      3.26     -0.28
    7   15   14      5.02     -2.42
    7   15   13     -8.22     -1.32
    7   15   12      8.69      1.12
    7   15   11      8.41     -0.25
    7   15   10     -2.41      4.72
    7   15    9     -3.22      7.93
    7   15    8     -3.65     14.97
    7   15    7      6.90    -11.65
    7   15    6     10.90      5.67
    7   15    5     -5.19      9.17
    7   15    4    -11.03      1.08
    7   15    3     -0.51     -9.03
    7   15    2     -2.81    -16.24
    7   15    1    -11.90     -5.67
    7   15    0      3.47     -1.47
    7   15   21     -0.80      3.89
    7   15   22      5.34      0.27
    7   15   23    -10.60      3.80
    7   15   24      5.18     -2.19
    8   15   20     -3.80     -1.07
    8   15   19     -0.15      4.67
    8   15   18     -3.71      5.79
    8   15   17     -0.76      7.07
    8   15   16     -6.40     -0.38
    8   15   15      5.21      3.24
    8   15   14      7.67      0.08
    8   15   13      0.94     -2.57
    8   15   12      3.08      3.22
    8   15   11      3.77     -6.96
    8   15   10    -11.94      2.65
    8   15    9     -2.18     -4.24
    8   15    8      6.86     19.60
    8   15    7      1.21     -0.85
    8   15    6     -2.40      1.91
    8   15    5      1.46     -3.58
    8   15    4     11.81      1.13
    8   15    3     -1.07     -5.98
    8   15    2     -1.23     -7.99
    8   15    1      8.06     -0.98
    8   15    0      4.21      1.21
    8   15   21      0.49      1.76
    8   15   22      5.38     -2.38
    8   15   23    -11.06     -4.90
    9   15   21     -0.19     -0.57
    9   15   20     -2.63      8.52
    9   15   19     -1.63     -6.17
    9   15   18     -3.78      5.96
    9   15   17      5.84      4.11
    9   15   16     -6.98      3.86
    9   15   15     10.78      6.12
    9   15   14      4.76     -4.92
    9   15   13     -2.29    -12.20
    9   15   12     -1.44     -1.09
    9   15   11      2.73     -6.54
    9   15   10     -3.93     -1.39
    9   15    9      6.81     -4.13
    9   15    8      2.50     10.18
    9   15    7    -11.62     -1.57
    9   15    6      8.24      0.04
    9   15    5     -2.21     -3.99
    9   15    4     12.06     -0.66
    9   15    3     19.32    -15.94
    9   15    2      5.10     -2.47
    9   15    1     -8.56      3.13
    9   15    0      9.77      1.67
    9   15   22      1.43    -13.63
    9   15   23     -0.47     -6.56
   10   15   20      0.91     -1.69
   10   15   19      4.88     -8.55
   10   15   18     -7.85     11.72
   10   15   17      1.93     -5.03
   10   15   16      0.39     -0.39
   10   15   15      5.06      4.38
   10   15   14     -2.02     -8.75
   10   15   13     -0.66      0.90
   10   15   12      3.18     -7.56
   10   15   11      8.43     -3.14
   10   15   10      3.70     -4.98
   10   15    9     -5.36     -1.96
   10   15    8      3.68     -6.58
   10   15    7     -1.33     -4.59
   10   15    6     16.89     -8.79
   10   15    5     -5.74     -6.14
   10   15    4      0.73      6.81
   10   15    3     -4.71    -15.86
   10   15    2      5.70     -8.58
   10   15    1     -1.64     -6.60
   10   15    0      9.40     -0.08
   10   15   21      2.14    -12.39
   10   15   22      1.01      3.71
   11   15   19     -3.87     -8.89
   11   15   18     -5.32      1.64
   11   15   17     -2.43     -2.59
   11   15   16     -4.69     -2.27
   11   15   15     -1.11      5.38
   11   15   14      8.96     -6.98
   11   15   13     -3.32      4.99
   11   15   12      3.75     -7.64
   11   15   11      9.56      3.70
   11   15   10     -6.31     -8.21
   11   15    9     -3.72     -6.52
   11   15    8     15.26     -1.12
   11   15    7      4.48     -3.46
   11   15    6      0.60    -14.80
   11   15    5    -18.80      1.94
   11   15    4     -1.34      4.03
   11   15    3     -7.25    -12.90
   11   15    2     -1.67      5.78
   11   15    1    -14.99    -11.20
   11   15    0     -4.26     -0.35
   11   15   20      5.55      4.31
   11   15   21      9.59     -4.30
   12   15   18      2.42      0.75
   12   15   17     -3.78      0.08
   12   15   16      2.55      0.87
   12   15   15     -2.59      5.33
   12   15   14      6.10     -4.42
   12   15   13     -4.50     -1.57
   12   15   12     -3.01      0.09
   12   15   11     11.03     -1.62
   12   15   10     -5.53      1.84
   12   15    9      3.41     -2.53
   12   15    8      0.22     -1.70
   12   15    7     -8.68     -2.72
   12   15    6     -6.82      0.53
   12   15    5     -3.32      4.72
   12   15    4     -5.48     -0.92
   12   15    3     -3.02     -4.14
   12   15    2    -10.93      9.03
   12   15    1    -13.45     -0.85
   12   15    0     -4.16      0.42
   12   15   19     -6.64     -5.01
   12   15   20     -2.82     -0.22
   13   15   17     -3.94     -0.01
   13   15   16     -3.88      4.77
   13   15   15     -1.11     -4.03
   13   15   14      8.52      2.68
   13   15   13      3.34     -4.51
   13   15   12      0.11     -0.78
   13   15   11      2.98     -2.65
   13   15   10     -5.64      3.28
   13   15    9      9.72     -1.83
   13   15    8    -15.39      7.43
   13   15    7     -4.48     -2.84
   13   15    6     -6.25     -2.19
   13   15    5      3.43      1.36
   13   15    4     -9.17      2.20
   13   15    3      5.72      2.07
   13   15    2     -6.33      1.45
   13   15    1     -1.77      1.08
   13   15    0     -1.69      0.85
   13   15   18      3.81      0.86
   13   15   19     -3.61     -0.36
   14   15   15      5.62      1.19
   14   15   14      1.27     -1.13
   14   15   13      0.25     -4.90
   14   15   12      2.40     -0.30
   14   15   11      2.19      2.21
   14   15   10      0.07     -5.76
   14   15    9      7.91     -7.19
   14   15    8    -10.81     14.36
   14   15    7     -2.44     -9.61
   14   15    6     -6.25    -14.04
   14   15    5     13.27     -0.65
   14   15    4     -2.59      6.70
   14   15    3      9.82     -0.31
   14   15    2     -2.50      2.65
   14   15    1     -5.65     -6.90
   14   15    0      3.36      0.05
   14   15   18      3.96     -0.67
   15   15    0      2.56      0.57
   15   15    1     -6.77     -4.92
   15   15    2     -0.81     13.65
   15   15    3     18.23     -9.36
   15   15    4      6.85      0.89
   15   15    5      5.98     -8.88
   15   15    6     -1.14     -5.60
   15   15    7      5.37      1.03
   15   15    8     -8.51      1.22
   15   15    9    -10.27    -10.29
   15   15   10      0.07      2.45
   15   15   11      5.21     -5.04
   15   15   12      2.58      0.08
   15   15   13      5.12      4.57
    0   16    0     16.73      2.24
    0   16    1      0.98     -6.51
    0   16    2     -9.17     -1.43
    0   16    3     -1.25     -7.33
    0   16    4     -3.45      0.58
    0   16    5     -0.70     -2.59
    0   16    6     -2.67      0.55
    0   16    7      1.77     10.75
    0   16    8      3.59     -0.21
    0   16    9     -1.02      8.11
    0   16   10      6.68     -0.14
    0   16   11     -0.13     -7.21
    0   16   12      4.67     -0.66
    0   16   13     -0.28      2.34
    0   16   14      5.81      0.20
    0   16   15     -0.01     -2.78
    0   16   16      7.19     -0.42
    0   16   17      0.00      4.52
    0   16   18      3.00      0.53
    0   16   19      1.33      3.15
    0   16   20     17.14     -0.40
    0   16   21     -2.76     -2.23
    0   16   22     -0.44     -0.37
    0   16   23      2.09      7.76
    0   16   24     -0.37      0.13
    0   16   25     -0.01      2.17
    1   16   25      6.47      1.17
    1   16   24      3.26      0.05
    1   16   23      3.84      1.43
    1   16   22      3.86      5.35
    1   16   21     -6.25      3.81
    1   16   20      4.00      0.37
    1   16   19     -4.22      4.09
    1   16   18      7.66    -12.25
    1   16   17     -8.59      1.70
    1   16   16     -2.91      4.66
    1   16   15      7.15     -2.76
    1   16   14      1.30      1.28
    1   16   13     14.09      7.35
    1   16   12      6.84    -12.86
    1   16   11     -5.01     -2.40
    1   16   10      0.77      0.47
    1   16    9      2.86     -0.49
    1   16    8      4.02      3.88
    1   16    7      5.37      6.01
    1   16    6     -1.47     -0.91
    1   16    5      7.37     -1.10
    1   16    4     -8.07     -0.25
    1   16    3     -4.39     -5.73
    1   16    2      2.66     -1.03
    1   16    1      5.14     -9.24
    1   16    0      3.08     -1.42
    2   16   26     -3.11     -2.10
    2   16   25      6.44     -3.38
    2   16   24      2.60      2.69
    2   16   23     -5.86     -1.06
    2   16   22     -1.27      0.89
    2   16   21      2.87     11.32
    2   16   20      9.61      2.09
    2   16   19    -11.62     -4.55
    2   16   18     -5.53      0.72
    2   16   17     -0.21     -0.06
    2   16   16     -8.32     -5.55
    2   16   15      6.20      3.71
    2   16   14     -5.60     -1.18
    2   16   13      4.48     10.47
    2   16   12      1.70     -5.59
    2   16   11      4.66     -0.89
    2   16   10     -1.81     -4.08
    2   16    9      3.64     -5.47
    2   16    8      5.98      7.77
    2   16    7      1.63     -6.95
    2   16    6      3.35      6.44
    2   16    5      0.96      0.13
    2   16    4     -9.10     -6.83
    2   16    3      0.15     -4.05
    2   16    2      2.37      4.60
    2   16    1      1.66     -6.22
    2   16    0      3.74     -0.91
    3   16   26     -0.23     -1.60
    3   16   25     -0.77     -5.99
    3   16   24     -4.82     -4.49
    3   16   23     -9.33     -0.89
    3   16   22      4.40     -1.85
    3   16   21    -13.16      0.29
    3   16   20      2.08      9.74
    3   16   19      9.57     -0.72
    3   16   18     -6.17      4.97
    3   16   17     -6.29     -3.07
    3   16   16     -6.93     -5.49
    3   16   15     -0.38      4.07
    3   16   14      0.08     -1.51
    3   16   13      1.63      5.89
    3   16   12     -8.12     -0.66
    3   16   11      4.40     -4.17
    3   16   10      2.97      2.78
    3   16    9     -3.45     -2.95
    3   16    8      7.68      7.42
    3   16    7     11.03    -11.10
    3   16    6     11.27      8.06
    3   16    5    -11.32      1.80
    3   16    4     -4.52      2.19
    3   16    3     -2.90     -1.53
    3   16    2     -0.85     -1.92
    3   16    1     -2.87      1.25
    3   16    0      2.12     -1.11
    4   16   24     -7.35     -9.64
    4   16   23     -9.69     -1.58
    4   16   22      5.41     -6.78
    4   16   21    -15.50     -5.36
    4   16   20     -2.77     15.68
    4   16   19      4.23     -4.05
    4   16   18      2.21      0.25
    4   16   17     -2.30     -2.27
    4   16   16     -7.80      0.81
    4   16   15     -3.68     -2.60
    4   16   14      6.32      4.88
    4   16   13     -3.44      2.85
    4   16   12     -3.49     -5.09
    4   16   11      4.98     -9.89
    4   16   10     -5.77      6.34
    4   16    9     -2.38     -0.65
    4   16    8     12.31      2.38
    4   16    7      0.42     -0.97
    4   16    6     19.74     18.20
    4   16    5     -6.13      8.10
    4   16    4      4.51      0.62
    4   16    3     -5.89      2.37
    4   16    2     -3.59     -3.48
    4   16    1     -9.51      1.99
    4   16    0      1.88      0.74
    5   16   23     -0.13      2.20
    5   16   22     -3.55     -0.95
    5   16   21     -3.45     -3.68
    5   16   20     -1.13     10.60
    5   16   19     -6.27     -7.87
    5   16   18      2.42      1.20
    5   16   17     -3.86      0.01
    5   16   16     -4.62      1.38
    5   16   15      2.67     -3.98
    5   16   14      5.86      2.48
    5   16   13     -7.37     -1.84
    5   16   12     -0.43     -1.01
    5   16   11      5.31     -6.63
    5   16   10      0.83      0.02
    5   16    9     -4.70      3.18
    5   16    8      6.99     -0.42
    5   16    7     -8.08      9.69
    5   16    6     16.30      3.38
    5   16    5     -2.67      9.48
    5   16    4      5.95     18.25
    5   16    3     -6.18      1.09
    5   16    2      3.53     -6.52
    5   16    1     -4.74     -0.21
    5   16    0      3.10      1.04
    5   16   24     -1.59     -6.37
    6   16   21      6.41      4.08
    6   16   20      3.48      2.30
    6   16   19     -6.03     -3.32
    6   16   18     -6.36      0.66
    6   16   17     -2.50     -7.10
    6   16   16      5.84      1.26
    6   16   15     -4.75      2.35
    6   16   14      4.32      4.15
    6   16   13     -2.07      0.11
    6   16   12      0.62     -5.56
    6   16   11      4.73      7.34
    6   16   10      2.57     -2.70
    6   16    9    -10.44     -1.90
    6   16    8      1.70     -3.84
    6   16    7     -2.61      6.88
    6   16    6     13.17      6.03
    6   16    5     -2.81      5.50
    6   16    4     -8.73      2.17
    6   16    3    -15.10      0.79
    6   16    2      9.23      1.88
    6   16    1      3.54     -5.30
    6   16    0      9.68     -0.35
    6   16   22     -5.97      6.07
    6   16   23      8.01      0.73
    7   16   20    -10.92     -1.43
    7   16   19     -6.13      0.65
    7   16   18      5.77     -4.82
    7   16   17     -1.15      1.09
    7   16   16      2.05      1.88
    7   16   15      0.58     -0.49
    7   16   14      1.05     -2.82
    7   16   13     -1.83     -2.76
    7   16   12      4.55      4.05
    7   16   11      0.98      8.03
    7   16   10      3.00     -3.96
    7   16    9     -4.98      4.52
    7   16    8     -6.68      0.69
    7   16    7     -5.16    -17.57
    7   16    6      2.07     -2.57
    7   16    5    -10.22     16.66
    7   16    4     -9.37     -0.07
    7   16    3     -0.02     -6.94
    7   16    2      3.12     -8.36
    7   16    1    -15.77     -9.30
    7   16    0     15.88     -1.74
    7   16   21      3.82     -0.53
    7   16   22     -0.17      5.20
    7   16   23      1.72      4.37
    8   16   18     -1.74      0.27
    8   16   17      4.30      4.33
    8   16   16      0.43     -0.91
    8   16   15      3.30     -8.18
    8   16   14     -0.07     -3.62
    8   16   13      1.39      3.51
    8   16   12      1.74      5.85
    8   16   11     -1.71     -6.73
    8   16   10     -5.75     -4.53
    8   16    9    -10.03     -2.05
    8   16    8      5.88      4.72
    8   16    7     -3.84     -2.22
    8   16    6    -10.34     -9.04
    8   16    5     -8.90      1.00
    8   16    4      5.47     -4.00
    8   16    3      7.75     -9.65
    8   16    2     -0.58    -12.11
    8   16    1      1.64     -5.80
    8   16    0     -4.80     -0.01
    8   16   19     -9.06     -1.85
    8   16   20     -6.85    -10.52
    8   16   21     -2.89      4.94
    8   16   22     -7.62     -4.06
    9   16   20     -8.88     -4.16
    9   16   19     -9.03     -1.57
    9   16   18     -6.18     -1.37
    9   16   17     10.05      3.00
    9   16   16     -4.77      0.95
    9   16   15      3.50      1.24
    9   16   14      5.50     -1.40
    9   16   13     -9.21     -5.54
    9   16   12     -0.74      0.97
    9   16   11     -1.13      0.49
    9   16   10     -4.66     -2.00
    9   16    9     -2.92      1.70
    9   16    8      4.78     -2.79
    9   16    7    -12.70     -0.08
    9   16    6      2.84    -10.23
    9   16    5      7.32     -1.41
    9   16    4      1.22     -4.97
    9   16    3     19.52    -13.41
    9   16    2     -1.56     -9.54
    9   16    1      6.01      3.56
    9   16    0     -0.27      0.06
    9   16   21     -3.17      1.43
    9   16   22     -7.14    -16.12
   10   16   19      2.28     -1.25
   10   16   18     -5.65      3.67
   10   16   17     -0.54      3.53
   10   16   16      1.28      0.03
   10   16   15     -4.67      3.73
   10   16   14      4.04      2.05
   10   16   13     -0.14      7.25
   10   16   12      3.91      6.33
   10   16   11      3.99      4.90
   10   16   10     -0.17     -6.83
   10   16    9    -12.92      6.58
   10   16    8     -6.62    -12.15
   10   16    7      4.93     -2.61
   10   16    6     10.68      0.93
   10   16    5      8.04      9.92
   10   16    4      0.59      0.22
   10   16    3      8.22    -12.75
   10   16    2      1.53     -7.37
   10   16    1      6.70     10.37
   10   16    0     14.07     -2.48
   10   16   20     -3.85    -15.70
   10   16   21      1.92     -2.60
   11   16   18     -0.39     -5.67
   11   16   17     -1.06     -0.66
   11   16   16      0.84      5.90
   11   16   15     -6.82      9.74
   11   16   14      5.72      2.52
   11   16   13      5.52      1.74
   11   16   12      6.52      5.06
   11   16   11      4.96      5.63
   11   16   10     -4.26     -7.46
   11   16    9     -8.08      0.48
   11   16    8      1.36     -0.94
   11   16    7      6.33      5.99
   11   16    6     -3.26      3.35
   11   16    5     -7.53     10.05
   11   16    4     11.33      4.38
   11   16    3     -0.70      8.74
   11   16    2      5.77      2.47
   11   16    1      0.64      2.45
   11   16    0      1.16     -2.22
   11   16   19     -1.68     -2.96
   11   16   20      0.45     -8.44
   11   16   21      5.63     -0.07
   12   16   17     -1.69      1.31
   12   16   16      0.05     -1.62
   12   16   15     -0.84      2.44
   12   16   14     -0.07      5.34
   12   16   13     -5.79     -7.78
   12   16   12     -0.24     -2.46
   12   16   11      4.53     -1.53
   12   16   10     -1.70      4.30
   12   16    9     -5.28     -1.88
   12   16    8      5.17     -7.36
   12   16    7     -8.15      6.14
   12   16    6      5.28     15.98
   12   16    5     -1.86     10.00
   12   16    4      2.52     -4.58
   12   16    3     -3.82     11.36
   12   16    2     -7.36      3.72
   12   16    1     -0.21      3.10
   12   16    0      4.71      1.37
   12   16   18      5.40     -2.99
   12   16   19      1.70     -7.76
   12   16   20     -4.46     -0.30
   13   16   15     -3.21     -8.23
   13   16   14      4.35      0.79
   13   16   13     -7.83     -3.47
   13   16   12     -5.27     -3.61
   13   16   11     -3.76     -5.02
   13   16   10      4.11      7.20
   13   16    9     -5.53     -0.04
   13   16    8      1.26     -3.10
   13   16    7     -8.89      5.17
   13   16    6     -0.17     -1.59
   13   16    5      3.36     -1.09
   13   16    4     -0.53      0.93
   13   16    3      0.62     -0.45
   13   16    2     -2.99    -10.05
   13   16    1     -2.88      8.40
   13   16    0     -3.11      3.44
   13   16   19      3.48     -0.44
   14   16   14      0.68     -1.48
   14   16   13     -4.54     -7.26
   14   16   12      2.81     -1.83
   14   16   11     -6.46      4.80
   14   16   10      0.46      1.54
   14   16    9     -0.61     -0.11
   14   16    8      5.74     11.07
   14   16    7     -7.80      0.16
   14   16    6     -5.88    -14.38
   14   16    5      1.53     -9.78
   14   16    4      3.12     -4.03
   14   16    3      0.62     -5.26
   14   16    2     -0.13     -7.28
   14   16    1     -1.75      4.90
   14   16    0      1.41      1.13
   15   16   12      1.57      3.77
   15   16   11     -0.68     -1.32
   15   16   10      5.96      8.13
   15   16    9     -1.10     -4.35
   15   16    8      2.58      0.52
   15   16    7     -2.10      7.15
   15   16    6      8.18     -0.92
   15   16    5     -6.12     -8.30
   15   16    4      1.62    -10.40
   15   16    3      2.76    -11.53
   15   16    2     -2.22      7.70
   15   16    1     -2.14      2.68
   15   16    0      9.13      0.03
   16   16    2      1.67     13.86
   16   16    3      1.42     -2.21
   16   16    4      1.89      0.35
   16   16    5     -5.77     -8.36
   16   16    6     -0.39      2.86
   16   16    7     -5.68      5.05
   16   16    8     15.93      0.27
   16   16    9      2.00      2.40
   16   16   10     -0.07      4.62
    0   17    0      5.94      1.71
    0   17    1     -0.09     -0.89
    0   17    2     -9.34     -0.78
    0   17    3     -0.18      9.31
    0   17    4      3.36     -0.37
    0   17    5     -0.52     -8.63
    0   17    6      1.75     -1.60
    0   17    7      0.38     -3.79
    0   17    8     -6.68      0.27
    0   17    9     -0.02     15.96
    0   17   10     -1.77      1.04
    0   17   11     -0.06     -1.53
    0   17   12      1.02     -1.03
    0   17   13     -0.65     -1.96
    0   17   14      0.97      0.29
    0   17   15     -0.13      5.25
    0   17   16      7.42     -0.42
    0   17   17      0.41      4.11
    0   17   18      7.84      0.60
    0   17   19      1.33    -11.64
    0   17   20      9.84     -0.93
    0   17   21     -7.78     -6.96
    0   17   22      2.99     -0.35
    0   17   23      1.90     -9.35
    1   17   23      4.50     -8.63
    1   17   22      2.73     -2.79
    1   17   21    -12.55     -2.66
    1   17   20      6.92    -14.31
    1   17   19     -3.96     -6.04
    1   17   18      5.90    -10.45
    1   17   17     -6.15     -3.45
    1   17   16     -0.04      2.27
    1   17   15     -6.00      2.74
    1   17   14      3.46     -4.61
    1   17   13      8.50      0.51
    1   17   12     -0.69     -6.16
    1   17   11     -1.10     -2.95
    1   17   10    -18.26      6.04
    1   17    9      5.77      6.36
    1   17    8      2.25     -5.50
    1   17    7     -0.28     -0.90
    1   17    6     -0.03      3.51
    1   17    5      5.39     -7.97
    1   17    4     -2.48      7.84
    1   17    3     -5.26      3.49
    1   17    2      4.55     -1.74
    1   17    1     14.08     -1.07
    1   17    0     -0.38     -1.29
    2   17   24     -2.79      9.77
    2   17   23      2.80     -4.14
    2   17   22    -11.79     -7.07
    2   17   21     -1.44      3.03
    2   17   20      8.91     -8.83
    2   17   19     -4.07    -10.33
    2   17   18      1.07      0.31
    2   17   17     -0.31     -1.73
    2   17   16     -2.81     -0.73
    2   17   15      0.77      1.75
    2   17   14     -2.19      3.50
    2   17   13     -1.24      0.53
    2   17   12     -6.03     -3.70
    2   17   11     12.43     -2.61
    2   17   10    -16.35     -5.44
    2   17    9     -1.48      1.94
    2   17    8      4.14     -2.64
    2   17    7     -3.56     -6.16
    2   17    6     -2.23      6.77
    2   17    5     -1.22      4.67
    2   17    4     -6.04     -2.72
    2   17    3      0.80     -6.03
    2   17    2      9.56      1.35
    2   17    1      3.88     -1.84
    2   17    0      3.84     -0.76
    3   17   24     -9.80     -0.25
    3   17   23      2.12     -3.45
    3   17   22    -10.50      4.21
    3   17   21     -1.23     -6.43
    3   17   20     -9.93      5.54
    3   17   19      8.77     -2.01
    3   17   18     -1.06     -0.89
    3   17   17      2.52      3.90
    3   17   16     -1.00      4.34
    3   17   15      7.11     -2.53
    3   17   14      0.60     10.61
    3   17   13      0.18      5.91
    3   17   12     -1.41      3.71
    3   17   11      5.71      2.60
    3   17   10     -5.09     -4.44
    3   17    9     -1.27      5.70
    3   17    8      5.55     -4.17
    3   17    7      8.34      0.38
    3   17    6     -4.77     -3.55
    3   17    5     -8.69      6.93
    3   17    4     -1.62     -0.90
    3   17    3     -3.49     -2.00
    3   17    2      4.29      0.39
    3   17    1     -1.97     -2.13
    3   17    0      1.27     -0.48
    4   17   24    -14.65     -6.65
    4   17   23      2.56     -8.56
    4   17   22     -1.76      5.21
    4   17   21     -1.07     -1.72
    4   17   20    -19.54      7.01
    4   17   19      7.49      1.18
    4   17   18     -3.55     -4.30
    4   17   17      4.36      2.65
    4   17   16     -2.50      7.60
    4   17   15      3.45      0.03
    4   17   14      6.55     13.01
    4   17   13     -2.35      4.73
    4   17   12      0.93      4.95
    4   17   11      8.26      1.51
    4   17   10     -7.59      7.40
    4   17    9      5.36     11.01
    4   17    8      6.94     -5.65
    4   17    7      8.55     13.37
    4   17    6      4.06     -0.72
    4   17    5     -3.96      3.77
    4   17    4      6.52     -4.93
    4   17    3     -9.28      0.59
    4   17    2     -4.11      0.19
    4   17    1     -3.15      2.01
    4   17    0     -0.13      0.66
    5   17   22     -2.66     -1.66
    5   17   21      7.71     -2.31
    5   17   20    -10.52     -1.70
    5   17   19     -1.71     -3.00
    5   17   18     -1.75      2.07
    5   17   17     -2.53      5.40
    5   17   16     -5.35     -0.41
    5   17   15      2.56      1.94
    5   17   14      2.18      9.00
    5   17   13      0.33     -3.29
    5   17   12      0.29     11.90
    5   17   11      1.22      3.22
    5   17   10     -7.64      1.39
    5   17    9      9.43      9.05
    5   17    8      1.85      0.63
    5   17    7     -3.58      8.90
    5   17    6      5.81     -1.21
    5   17    5     -0.41      8.48
    5   17    4     12.84      3.95
    5   17    3    -15.18     -4.38
    5   17    2     -3.12     -6.01
    5   17    1     -7.53      8.63
    5   17    0      1.20      0.58
    6   17   21      6.38     -0.81
    6   17   20      4.40     -2.59
    6   17   19     -4.30      3.12
    6   17   18     -2.44     -2.50
    6   17   17      3.17     -0.30
    6   17   16      1.88     -3.71
    6   17   15     -5.68      3.40
    6   17   14      0.84      1.63
    6   17   13     -0.46     -0.25
    6   17   12      0.32     10.11
    6   17   11      4.87      5.62
    6   17   10     -1.33     -3.30
    6   17    9     -9.00     -8.33
    6   17    8     -4.50     -6.77
    6   17    7     -5.29      9.04
    6   17    6      9.34      3.79
    6   17    5     -4.42      7.25
    6   17    4     -3.64      2.64
    6   17    3    -21.95      5.33
    6   17    2     11.35      7.22
    6   17    1      1.25      3.97
    6   17    0     -8.99     -0.76
    6   17   22     -1.84     -2.52
    6   17   23      4.63     -1.48
    7   17   19     -6.50      3.75
    7   17   18      6.54    -11.09
    7   17   17      7.72      2.73
    7   17   16      6.62     -1.98
    7   17   15      0.78      4.55
    7   17   14      2.48     -3.46
    7   17   13     -3.69     -5.73
    7   17   12      8.59      4.60
    7   17   11     -6.17     -0.15
    7   17   10      2.26     -4.37
    7   17    9     -4.96     -2.04
    7   17    8     -7.67    -11.69
    7   17    7     -9.77     -0.37
    7   17    6     -1.84      3.59
    7   17    5    -10.41     15.34
    7   17    4     -4.44      4.36
    7   17    3      2.64      3.60
    7   17    2     -5.37      6.93
    7   17    1    -11.71      0.03
    7   17    0     13.45     -2.27
    7   17   20     -0.29     -2.56
    7   17   21     -0.67     -1.48
    7   17   22      2.36      6.51
    8   17   17      0.28      3.35
    8   17   16     11.68     -7.84
    8   17   15      1.06     -5.52
    8   17   14      2.38     -1.50
    8   17   13      4.35      4.73
    8   17   12      3.25      7.50
    8   17   11     -7.58    -13.88
    8   17   10     -5.94     -7.67
    8   17    9    -10.62      3.49
    8   17    8     -0.59     -4.09
    8   17    7     -0.76      8.60
    8   17    6     -8.36      2.61
    8   17    5     -5.71      9.43
    8   17    4     -3.21     -1.30
    8   17    3     11.49     -3.49
    8   17    2     -4.69     -3.84
    8   17    1     -4.47     -3.55
    8   17    0     -3.57     -0.85
    8   17   18      2.40     -5.88
    8   17   19     -5.69     -9.22
    8   17   20      2.71     -3.54
    8   17   21     -7.00      7.63
    8   17   22     -4.03      7.14
    9   17   18      3.30     -4.06
    9   17   17     -2.98     -4.89
    9   17   16     -0.98     -8.32
    9   17   15     -0.44     -6.27
    9   17   14      1.45      0.61
    9   17   13      3.26     -3.75
    9   17   12     -0.34      1.17
    9   17   11      2.44      2.41
    9   17   10    -11.38      7.88
    9   17    9     -6.74      8.90
    9   17    8      2.78     -0.97
    9   17    7     -4.76      2.21
    9   17    6     -5.05     -8.76
    9   17    5      6.79      0.99
    9   17    4     -3.28     -0.54
    9   17    3      1.35     -1.48
    9   17    2     -2.73     -8.01
    9   17    1     10.29     -1.02
    9   17    0    -11.64      0.18
    9   17   19     -5.54     -6.81
    9   17   20      2.92      1.57
    9   17   21     -5.46      0.85
   10   17   18      3.63      5.22
   10   17   17     -2.79     -2.25
   10   17   16     -4.47     -5.61
   10   17   15      0.15     -9.52
   10   17   14      0.21     -3.94
   10   17   13      8.82      3.50
   10   17   12     -3.94      0.45
   10   17   11      4.24      2.55
   10   17   10     -2.56      3.99
   10   17    9     -5.09     14.11
   10   17    8     -3.98     -1.04
   10   17    7      3.75     -2.22
   10   17    6      9.00     -0.97
   10   17    5      0.85      7.21
   10   17    4     -6.28    -12.73
   10   17    3     -6.45     -9.05
   10   17    2     -1.33     -3.38
   10   17    1      4.95     11.59
   10   17    0     -2.78     -1.79
   10   17   19      2.52     -5.01
   10   17   20      5.56     -4.96
   11   17   17      8.72     -6.33
   11   17   16     -0.46      7.81
   11   17   15     -0.66      4.96
   11   17   14      1.66     -8.98
   11   17   13      9.13      1.09
   11   17   12     -3.43     -3.35
   11   17   11      4.05      1.58
   11   17   10      0.29     -2.93
   11   17    9     -6.11      6.37
   11   17    8      3.82     -2.12
   11   17    7      5.58      7.21
   11   17    6     -1.93     -2.79
   11   17    5     -1.59      0.49
   11   17    4      7.87     -3.05
   11   17    3     -9.68      7.97
   11   17    2     -0.42    -10.25
   11   17    1     -4.24      0.84
   11   17    0     -2.78     -4.08
   12   17   15      5.07      4.24
   12   17   14     -0.81      2.89
   12   17   13     -1.80     -4.58
   12   17   12     -1.42     -6.64
   12   17   11     -0.98      7.56
   12   17   10     -4.07     -1.41
   12   17    9     -5.34     -0.76
   12   17    8      5.25    -17.09
   12   17    7      0.02      3.72
   12   17    6      3.24      5.66
   12   17    5      0.41      0.70
   12   17    4     -2.70      1.20
   12   17    3     -4.36     10.15
   12   17    2     -2.34     -3.03
   12   17    1      5.28     -7.14
   12   17    0      9.56      0.00
   13   17   14      1.73      2.33
   13   17   13     -6.08     -4.24
   13   17   12     -5.73     -3.72
   13   17   11     -0.34      3.06
   13   17   10      0.26      0.03
   13   17    9     -7.18      1.18
   13   17    8      2.11    -13.99
   13   17    7     -3.30      4.31
   13   17    6    -11.62     -2.51
   13   17    5      3.24     -2.58
   13   17    4     -4.19      9.88
   13   17    3      2.21     -2.03
   13   17    2      4.36      3.09
   13   17    1      4.43      1.01
   13   17    0      9.70      2.79
   14   17   13     -1.19    -13.43
   14   17   12      0.64     -4.57
   14   17   11      0.22      1.46
   14   17   10     -2.09     -1.21
   14   17    9     -0.89      2.20
   14   17    8      5.23     -1.55
   14   17    7     -3.71      5.98
   14   17    6    -14.40     -7.25
   14   17    5      0.87     -2.56
   14   17    4     -2.98      5.86
   14   17    3     -1.14     -0.67
   14   17    2      5.10      4.98
   14   17    1      2.60      1.17
   14   17    0      5.32      0.26
   15   17   11     -0.89     -6.50
   15   17   10      4.59      3.88
   15   17    9      5.59     -2.30
   15   17    8     -1.88     -6.95
   15   17    7      1.18      2.25
   15   17    6      7.48      2.16
   15   17    5      0.41      5.98
   15   17    4     -4.53     -8.57
   15   17    1      1.10     -3.11
   15   17    0      0.02     -0.78
   15   17    2     -4.27     11.51
   15   17    3     -8.68      0.61
   16   17    9      3.37     -6.62
   16   17    8      5.45     -0.61
   16   17    7      1.73      2.28
   16   17    6      3.78     -0.03
   16   17    5      1.40     -0.52
   16   17    2     -7.99     10.15
   16   17    3     -4.37      5.20
   16   17    4      3.36     -9.45
   17   17    6      0.54     -3.18
    0   18    0     -2.34      9.14
    0   18    1     -1.32    -16.28
    0   18    2     -9.22      0.58
    0   18    3     -1.01      2.41
    0   18    4      3.24     -1.06
    0   18    5     -0.12     -3.94
    0   18    6     -5.41     -0.70
    0   18    7     -1.40      5.70
    0   18    8      0.23      1.01
    0   18    9      2.87     13.29
    0   18   10     12.42     -0.35
    0   18   11     -0.69    -10.27
    0   18   12     12.15     -2.36
    0   18   13     -0.43    -12.41
    0   18   14    -13.44      1.18
    0   18   15     -0.22      8.12
    0   18   16     -3.61     -0.10
    0   18   17      0.00     10.56
    0   18   18      8.88     -0.17
    0   18   19      0.72      3.52
    0   18   20     -1.62     -0.04
    0   18   21     -7.94      4.77
    1   18   21    -21.18      2.69
    1   18   20      1.88      1.96
    1   18   19     -0.48      3.45
    1   18   18     -0.93     -1.79
    1   18   17      2.22      1.03
    1   18   16     -6.88     -1.57
    1   18   15     -8.22      2.32
    1   18   14     -2.72     -4.39
    1   18   13      4.05     -7.08
    1   18   12      8.36      5.68
    1   18   11      4.43     -2.53
    1   18   10     -3.44     -0.96
    1   18    9     -1.90      4.34
    1   18    8      4.56     -9.17
    1   18    7     -2.75      5.23
    1   18    6     -3.30      3.54
    1   18    5      0.92     -1.06
    1   18    4     -4.21      1.92
    1   18    3     -7.60      1.58
    1   18    2     -1.61     -7.69
    1   18    1      8.55    -15.78
    1   18    0     -4.19      3.51
    2   18   22    -11.65      0.58
    2   18   21    -14.82      1.37
    2   18   20      1.94      9.52
    2   18   19     -1.67     -3.39
    2   18   18      1.19      1.64
    2   18   17      1.10     -4.38
    2   18   16     -4.67      2.30
    2   18   15     -8.23      0.67
    2   18   14      0.25      3.45
    2   18   13    -10.95     -8.47
    2   18   12     -2.58      1.37
    2   18   11      6.47      4.31
    2   18   10     -7.21      2.81
    2   18    9     -2.14      4.23
    2   18    8      3.99      1.07
    2   18    7     -3.55     -3.64
    2   18    6     -4.46      1.13
    2   18    5      1.75      6.27
    2   18    4     -9.69     -2.47
    2   18    3     -2.88     -0.34
    2   18    2      3.54     -1.01
    2   18    1     -4.99     -6.39
    2   18    0     -5.08      0.12
    3   18   22     -7.00     11.41
    3   18   21     -1.72     -0.89
    3   18   20     -3.59     14.35
    3   18   19     -6.92      1.00
    3   18   18      5.20      1.41
    3   18   17      0.59     -2.29
    3   18   16      3.30     -0.91
    3   18   15     -0.37     -1.31
    3   18   14     -0.99      9.88
    3   18   13    -12.33      1.42
    3   18   12      0.15      7.28
    3   18   11     -9.58      1.20
    3   18   10     -7.34      3.39
    3   18    9      0.83      2.89
    3   18    8      5.19      5.93
    3   18    7      6.62      1.81
    3   18    6     -4.82     -1.46
    3   18    5      3.70      1.78
    3   18    4     -6.09      2.99
    3   18    3     -1.33     -1.08
    3   18    2     -4.38     -3.67
    3   18    1     -3.35      3.12
    3   18    0      0.69      0.01
    4   18   23      6.91     -4.33
    4   18   22      6.69     14.63
    4   18   21     -1.48      4.62
    4   18   20     -4.09      8.86
    4   18   19     -2.94      5.41
    4   18   18      1.32     -0.37
    4   18   17      0.15     -4.16
    4   18   16      2.40     -1.13
    4   18   15      0.03      6.49
    4   18   14     -4.09      2.19
    4   18   13     -7.96      2.21
    4   18   12      3.69      2.96
    4   18   11     -5.61      6.21
    4   18   10     -5.86      5.32
    4   18    9      7.08     -3.05
    4   18    8      9.96      4.07
    4   18    7      7.78      7.49
    4   18    6     -6.28     -2.02
    4   18    5     10.47     -1.45
    4   18    4     -3.43      5.01
    4   18    3     -6.15     -2.03
    4   18    2     -5.17     -2.42
    4   18    1      4.82      0.09
    4   18    0      4.32      0.43
    5   18   22      9.26      9.27
    5   18   21      3.05     -1.21
    5   18   20      0.20     -2.43
    5   18   19     -1.08     -3.17
    5   18   18      0.12      6.59
    5   18   17     -5.10      2.47
    5   18   16     -5.40      0.28
    5   18   15     -4.16      4.71
    5   18   14    -10.42     -4.96
    5   18   13      1.56      4.17
    5   18   12      1.48     -7.68
    5   18   11     -4.05      8.77
    5   18   10     -5.54     -3.62
    5   18    9     16.62     -2.10
    5   18    8      7.12      6.12
    5   18    7      8.52     -4.29
    5   18    6     -5.84      3.74
    5   18    5      3.31     -0.70
    5   18    4      2.95      2.03
    5   18    3     -9.18     -6.35
    5   18    2     -2.76      5.12
    5   18    1     -2.13      3.02
    5   18    0      7.95      0.25
    6   18   21     -0.38     -2.99
    6   18   20      4.90      2.89
    6   18   19     -5.20     -0.96
    6   18   18      3.10      4.76
    6   18   17      1.94     -4.25
    6   18   16     -2.17      3.98
    6   18   15    -11.20      6.08
    6   18   14     -8.25     -4.94
    6   18   13     -0.15      2.28
    6   18   12     -4.24     -5.69
    6   18   11     12.47     -0.35
    6   18   10     -2.35     -8.83
    6   18    9      2.05     -5.79
    6   18    8      2.68      4.29
    6   18    7      2.08     -3.71
    6   18    6      5.45      5.08
    6   18    5     -1.30     -3.62
    6   18    4     -7.62     -0.57
    6   18    3     -8.53     -1.48
    6   18    2     15.09     13.34
    6   18    1     10.35      8.28
    6   18    0    -11.94      0.57
    7   18   19     -6.66      2.97
    7   18   18      3.79      3.76
    7   18   17      3.82     -0.81
    7   18   16      5.23      7.49
    7   18   15     -1.92     -0.06
    7   18   14      2.74      3.63
    7   18   13     -2.46     -7.41
    7   18   12      5.62     -3.53
    7   18   11      6.35     -2.50
    7   18   10     -1.00     -1.30
    7   18    9      1.82     -1.19
    7   18    8      7.65     -5.23
    7   18    7     -6.08      3.33
    7   18    6     -1.03      5.04
    7   18    5     -8.18     -7.35
    7   18    4     -6.41     -1.15
    7   18    3     15.44      6.94
    7   18    2     -3.21      1.32
    7   18    1     -1.26      5.47
    7   18    0     10.36     -0.65
    7   18   20      1.43      2.39
    7   18   21     -3.32     -0.29
    8   18   17     -8.99      4.49
    8   18   16      9.51      6.27
    8   18   15      2.65     -1.76
    8   18   14      5.39      1.36
    8   18   13      6.10     -2.78
    8   18   12      3.30      7.63
    8   18   11     -1.57     -2.84
    8   18   10      5.31     -4.85
    8   18    9      0.94     11.78
    8   18    8     -1.09     -4.56
    8   18    7     -1.63      4.31
    8   18    6     -2.22      3.00
    8   18    5     -5.69      0.96
    8   18    4     -9.39     -6.12
    8   18    3      7.03      0.09
    8   18    2     -4.69      1.25
    8   18    1     -1.91     -4.95
    8   18    0      2.56     -0.75
    8   18   21      0.04      5.65
    9   18   15      0.47      1.66
    9   18   14     -5.44      1.98
    9   18   13      4.44     -0.33
    9   18   12      1.16     -3.85
    9   18   11      3.40     11.35
    9   18   10     -4.45     10.94
    9   18    9     -0.04      9.93
    9   18    8     -2.21     -5.31
    9   18    7     -6.88      1.51
    9   18    6    -12.90     -8.17
    9   18    5     -5.62     -7.05
    9   18    4     -1.61     10.03
    9   18    3     -2.13     -0.02
    9   18    2      2.41      2.95
    9   18    1      6.96     -4.15
    9   18    0    -11.71      0.81
   10   18   17    -11.41      2.53
   10   18   16     -9.05     -4.75
   10   18   15      0.48     -3.19
   10   18   14     -6.89     -1.80
   10   18   13     -1.61      5.65
   10   18   12    -11.85     -0.64
   10   18   11      1.07     -0.52
   10   18   10     -4.23      7.46
   10   18    9      2.08      3.55
   10   18    8     -3.93      3.33
   10   18    7    -10.62    -10.52
   10   18    6     -1.97     -0.47
   10   18    5     -4.83      0.22
   10   18    4    -10.22     -3.92
   10   18    3      0.39     -0.58
   10   18    2     12.10      6.53
   10   18    1      9.69      6.02
   10   18    0    -10.89      1.12
   11   18   15     -8.84      1.04
   11   18   14     -0.92     -5.34
   11   18   13      1.56     -0.09
   11   18   12     -5.93      3.69
   11   18   11      6.33     -9.29
   11   18   10     -5.15      8.51
   11   18    9     -8.86    -10.28
   11   18    8      1.72      5.97
   11   18    7     -4.41     -8.15
   11   18    6     -5.24     -6.64
   11   18    5      7.25      0.70
   11   18    4      5.65      0.30
   11   18    3     -0.88     16.33
   11   18    2     -1.15    -10.91
   11   18    1     -5.04     -1.79
   11   18    0      3.12     -1.49
   12   18   14      2.90      0.67
   12   18   13      5.33     -8.09
   12   18   12      3.79      3.29
   12   18   11      1.18      0.26
   12   18   10     -5.89      6.45
   12   18    9     -5.40    -11.44
   12   18    8     -2.75     -4.59
   12   18    7     -0.45     -6.53
   12   18    6      2.07      3.15
   12   18    5      1.40      5.64
   12   18    4     -0.07      5.31
   12   18    3     -1.56     11.11
   12   18    2     -0.11     -8.99
   12   18    1      0.06     -4.35
   12   18    0     -4.09     -0.37
   13   18   13      3.35     -4.95
   13   18   12     -0.39     -1.10
   13   18   11      1.14      2.58
   13   18   10     -5.65     -2.74
   13   18    9     -3.07     -1.37
   13   18    8     -3.85     -0.43
   13   18    7     -1.86      0.03
   13   18    6     -7.26      8.94
   13   18    5     -4.51     -0.03
   13   18    4      0.27     12.98
   13   18    3     -2.45      0.96
   13   18    2     -5.28     -0.63
   13   18    1      3.67      1.24
   13   18    0      4.45      0.30
   14   18   11      5.03      0.49
   14   18   10     -6.39     -5.97
   14   18    9     -2.40      3.28
   14   18    8     -2.37      0.86
   14   18    7     -3.64      6.25
   14   18    3     -4.19     -0.86
   14   18    2      3.53      1.27
   14   18    1      2.40      1.42
   14   18    0      6.47     -1.41
   14   18    4     -3.78     10.50
   14   18    5     -4.64     -3.21
   14   18    6     -8.31      9.44
   15   18    9      3.24      5.67
   15   18    8     -4.66     -4.46
   15   18    7     -2.12     -2.45
   15   18    0      8.10     -2.22
   15   18    1      4.32      0.55
   15   18    2      7.31      5.45
   15   18    3    -10.82     -0.35
   15   18    4     -5.14     -1.96
   15   18    5     -1.19      3.25
   15   18    6      1.33      5.67
   16   18    3     -5.71      5.78
   16   18    4      2.51     -6.45
   16   18    5      0.22     -1.90
    0   19    0     23.26      4.04
    0   19    1      1.05     -8.43
    0   19    2     11.38     -0.91
    0   19    3     -2.16     -3.18
    0   19    4      1.21     -0.10
    0   19    5      2.03     -4.76
    0   19    6      1.38     -0.04
    0   19    7     -4.61     -0.56
    0   19    8      4.79     -0.29
    0   19    9      4.58     11.20
    0   19   10     -4.42      1.82
    0   19   11     -2.27    -12.33
    0   19   12     -7.29     -0.09
    0   19   13      0.15    -15.51
    0   19   14     -7.04      0.81
    0   19   15     -0.23     -0.97
    0   19   16     -1.62      0.26
    0   19   17     -0.18      1.53
    0   19   18      9.91     -0.16
    1   19   19      6.18     -0.05
    1   19   18      0.89     -6.35
    1   19   17     -0.03     -3.38
    1   19   16     -0.56     -4.45
    1   19   15     -4.03     -4.98
    1   19   14     -3.36     -0.44
    1   19   13      6.52     -6.62
    1   19   12      1.32      8.84
    1   19   11      1.96     -5.90
    1   19   10     -2.82     -4.34
    1   19    9     -7.26      1.48
    1   19    8     -3.23     -0.33
    1   19    7     -1.31      2.68
    1   19    6      4.87      3.17
    1   19    5     -6.78     -3.08
    1   19    4      2.73     -4.51
    1   19    3     -2.45      3.30
    1   19    2      9.59     -8.34
    1   19    1      5.40    -11.31
    1   19    0     19.78      2.40
    2   19   19      1.00      5.14
    2   19   18      0.67     -9.02
    2   19   17      0.28     -4.67
    2   19   16     -2.63      1.54
    2   19   15     -2.16     -1.69
    2   19   14      2.08      4.22
    2   19   13     -2.03     -9.35
    2   19   12      5.01      0.96
    2   19   11      2.37      3.95
    2   19   10      5.21     -2.17
    2   19    9      7.87      1.21
    2   19    8     -2.73     -0.34
    2   19    7     -7.40     -4.36
    2   19    6      2.68     -1.14
    2   19    5     -0.51      0.31
    2   19    4     -4.25     -6.62
    2   19    3      2.57      8.23
    2   19    2     15.21      3.51
    2   19    1     -4.86     -5.92
    2   19    0      2.31      0.49
    3   19   20      0.95      2.49
    3   19   19     -7.85      8.36
    3   19   18     -0.90      0.95
    3   19   17      2.18     -4.25
    3   19   16     -0.06     -3.34
    3   19   15      2.89     -1.73
    3   19   14      3.75      6.27
    3   19   13     -3.91      0.01
    3   19   12      1.46      1.78
    3   19   11      4.04      1.71
    3   19   10      3.62     -5.10
    3   19    9      5.26     -1.53
    3   19    8      2.30      0.93
    3   19    7      4.91     -2.64
    3   19    6      5.02     -7.52
    3   19    5      7.19     -1.81
    3   19    4     -4.14      2.15
    3   19    3      1.75      3.31
    3   19    2     -4.19     -3.76
    3   19    1     -2.07      3.38
    3   19    0      8.90      0.21
    4   19   21     -1.28      2.79
    4   19   20     -0.47      1.27
    4   19   19      4.44      4.07
    4   19   18     -1.17      2.34
    4   19   17     -0.06     -6.42
    4   19   16     -0.23     -2.00
    4   19   15      0.61      5.16
    4   19   14     -5.89     -3.87
    4   19   13      4.41     -5.29
    4   19   12      4.80     -0.38
    4   19   11      4.90      7.84
    4   19   10     -2.85     -1.41
    4   19    9      6.75     -9.14
    4   19    8      0.98     -1.22
    4   19    7     -2.22      3.77
    4   19    6     -0.09    -13.44
    4   19    5     13.26      1.28
    4   19    4     -0.21      6.85
    4   19    3     -2.64      3.90
    4   19    2     -7.15     -2.16
    4   19    1     -2.88     -7.41
    4   19    0     -2.01     -0.05
    5   19   22      3.48      5.93
    5   19   21      3.16     -2.74
    5   19   20     -1.09     -3.98
    5   19   19     11.12     -4.88
    5   19   18     -2.32     -1.49
    5   19   17     -1.27     -0.96
    5   19   16     -0.98      1.17
    5   19   15      1.78     -5.03
    5   19   14    -12.37     -0.13
    5   19   13      3.87      1.35
    5   19   12      6.42    -10.76
    5   19   11      3.80      2.75
    5   19   10     -8.45     -3.20
    5   19    9     10.00     -0.29
    5   19    8     -5.65     -3.71
    5   19    7     -1.33     -3.02
    5   19    6     -3.98     -6.61
    5   19    5     -7.76      2.46
    5   19    4      3.19      5.57
    5   19    3     -5.13     -0.21
    5   19    2     -4.94      3.80
    5   19    1     -3.85     -9.43
    5   19    0     -9.88      0.39
    6   19   20     -0.78      1.44
    6   19   19      4.07     -3.19
    6   19   18      0.76     -4.18
    6   19   17      3.79     -6.65
    6   19   16      1.57      1.68
    6   19   15     -1.23     -0.73
    6   19   14     -6.87      4.19
    6   19   13      0.03     -3.39
    6   19   12      0.97     -4.11
    6   19   11      7.95     -5.63
    6   19   10     -4.83     -3.76
    6   19    9      3.10      9.92
    6   19    8     -4.39      1.06
    6   19    7     -3.62     -7.51
    6   19    6     -2.02     -1.85
    6   19    5    -12.56     -2.10
    6   19    4     -4.86     -2.73
    6   19    3     -8.59     -2.44
    6   19    2      5.46      3.24
    6   19    1      4.22     -2.83
    6   19    0    -19.96      0.58
    7   19   18      1.90      0.87
    7   19   17      0.76     -1.41
    7   19   16     -3.27      0.86
    7   19   15     -1.78     -3.34
    7   19   14      8.05      5.89
    7   19   13     -1.27     -7.71
    7   19   12      8.59     -2.04
    7   19   11      3.60      0.32
    7   19   10     -5.83     11.04
    7   19    9     -1.99      2.30
    7   19    8      6.51      3.31
    7   19    7     -2.83      3.66
    7   19    6     -5.75      1.12
    7   19    5     -8.40    -10.93
    7   19    4     -2.10     -0.92
    7   19    3      7.36      3.52
    7   19    2     -0.81    -13.15
    7   19    1     -8.29      0.34
    7   19    0     -3.28      0.65
    8   19   16     -0.68      3.35
    8   19   15      3.27      5.39
    8   19   14     11.31     -6.60
    8   19   13     -3.21     -8.36
    8   19   12      0.70      7.89
    8   19   11     -6.14     -3.25
    8   19   10     10.42      7.85
    8   19    9      0.44      5.64
    8   19    8     -4.99      8.49
    8   19    7      1.48      1.88
    8   19    6      0.66      5.69
    8   19    5      0.81     -0.36
    8   19    4     -1.71     -4.24
    8   19    3     -1.83      3.97
    8   19    2      4.26      3.44
    8   19    1      1.61     -2.97
    8   19    0      9.35      0.92
    9   19   14      3.78     -1.05
    9   19   13     -1.35     -3.08
    9   19   12     -1.85     -3.55
    9   19   11    -10.88      3.24
    9   19   10     -1.76     14.08
    9   19    9      2.53     -3.89
    9   19    8     -1.60      2.50
    9   19    7      1.04      7.18
    9   19    6     -0.17      3.75
    9   19    5     -0.68     -6.83
    9   19    4      5.49      8.37
    9   19    3      1.10     -0.55
    9   19    2     11.31      5.98
    9   19    1     -0.46      2.79
    9   19    0      8.99      1.57
   10   19   15     18.64     -0.99
   10   19   14      3.75      0.32
   10   19   13     -4.84      1.40
   10   19   12    -10.36      0.07
   10   19   11     -4.35     -0.14
   10   19   10     -5.06      6.81
   10   19    9      5.31     -2.20
   10   19    8      3.05      5.89
   10   19    7     -4.53     -6.33
   10   19    6      6.16      4.66
   10   19    5      1.97     -0.14
   10   19    4     -1.37     -1.01
   10   19    3      6.88      0.13
   10   19    2     18.43      0.99
   10   19    1      0.96      0.14
   10   19    0     -6.02      0.91
   11   19   14      1.63      0.79
   11   19   13     -0.72     -0.67
   11   19   12      4.54     -0.14
   11   19   11      5.00     -3.42
   11   19   10     -4.96      7.27
   11   19    9     -1.44     -4.79
   11   19    8      4.99      6.96
   11   19    7      0.32     -6.63
   11   19    6      3.07     -5.86
   11   19    5      6.31      2.03
   11   19    4      4.16      2.70
   11   19    3      1.72     10.16
   11   19    2     -2.84     -4.31
   11   19    1     -1.56     -9.41
   11   19    0      8.94     -0.42
   12   19   13     -0.88     -4.29
   12   19   12      9.43      1.64
   12   19   11     -1.24      0.41
   12   19   10      4.19      3.06
   12   19    9     -0.49     -4.07
   12   19    7      2.75     -2.02
   12   19    6      0.35      1.15
   12   19    5     -1.26      5.75
   12   19    4     -1.25      4.45
   12   19    3     -4.46     -0.53
   12   19    2      2.64      5.01
   12   19    1     -4.71     -2.78
   12   19    0     -2.92     -0.36
   12   19    8      0.82     -1.88
   13   19   11     -7.62      3.63
   13   19   10      3.97     -3.83
   13   19    5     -4.39     -0.57
   13   19    4      3.00      5.22
   13   19    3     -6.98     -1.26
   13   19    2     -6.61      3.19
   13   19    1      0.26      0.33
   13   19    0      7.04     -0.50
   13   19    6     -1.41      4.31
   14   19    2      0.68     -2.31
   14   19    1      3.74     -2.77
   14   19    0      1.36     -0.29
   14   19    3     -1.69     -0.85
   14   19    4      0.06     -0.04
   14   19    5     -3.34     -4.17
   15   19    1      5.24     -2.11
   15   19    2      3.65     -2.36
   15   19    3     -1.87     -4.46
    0   20    0      4.87     -2.95
    0   20    1      0.34     -4.47
    0   20    2      6.16     -1.75
    0   20    3      1.05     -4.60
    0   20    4    -13.39     -0.27
    0   20    5      7.52      3.52
    0   20    6     -6.85      0.86
    0   20    7     -5.49    -14.64
    0   20    8    -11.45     -1.75
    0   20    9      4.48      3.77
    0   20   10     -5.84      0.19
    0   20   11     -0.81      0.53
    0   20   12     -8.70     -0.04
    0   20   13      0.93     -1.97
    0   20   14      4.81     -0.40
    0   20   15      0.18     13.26
    1   20   16      1.33     -4.32
    1   20   15     -3.75      5.85
    1   20   14     -4.37     -2.46
    1   20   13      0.44     12.67
    1   20   12     -1.81      1.05
    1   20   11      0.80     -1.47
    1   20   10     -6.11     -3.60
    1   20    9      4.38      0.09
    1   20    8    -14.44      4.28
    1   20    7      3.28     -4.01
    1   20    6     -2.67      6.73
    1   20    5     -5.56     -2.57
    1   20    4     -3.92     -3.28
    1   20    3      1.48      5.25
    1   20    2      0.02    -13.28
    1   20    1      6.26     -7.19
    1   20    0      9.08      0.02
    2   20   18      1.34     -3.36
    2   20   17      0.48      0.00
    2   20   16     -1.14     -6.19
    2   20   15      0.29      6.57
    2   20   14     -5.30     -5.70
    2   20   13      0.89      7.45
    2   20   12      1.31      0.50
    2   20   11     -5.02      1.11
    2   20   10     -1.81     -1.07
    2   20    9      8.35      5.34
    2   20    8     -9.01      2.16
    2   20    7     -1.35     -3.92
    2   20    6      4.86      5.85
    2   20    5     -0.06     -3.04
    2   20    4     -6.96     -9.55
    2   20    3     -4.49     11.85
    2   20    2     11.63      0.52
    2   20    1     -0.23     -8.11
    2   20    0     -6.55      0.37
    3   20   18      2.40      0.04
    3   20   17      2.66      1.23
    3   20   16     -1.82     -7.92
    3   20   15      1.38      3.46
    3   20   14      0.12     -1.66
    3   20   13     -6.91      8.06
    3   20   12     -3.10     -0.59
    3   20   11      2.15     -1.74
    3   20   10      4.66     -2.08
    3   20    9     -6.92     -4.64
    3   20    8     -2.37      7.65
    3   20    7      8.78     -0.46
    3   20    6     10.70    -10.13
    3   20    5     -0.86     -0.63
    3   20    4      1.62      0.90
    3   20    3     -6.20      3.64
    3   20    2     -2.63      4.44
    3   20    1     -5.73     -3.72
    3   20    0      5.19      0.48
    4   20   19      7.43     -1.19
    4   20   18      2.55      0.64
    4   20   17     -3.63      1.62
    4   20   16      1.92     -0.06
    4   20   15     -5.10      8.95
    4   20   14     -0.51     -6.37
    4   20   13     -3.38     -1.07
    4   20   12     -0.41      0.15
    4   20   11     -3.52      2.59
    4   20   10      0.49      3.29
    4   20    9     -3.02    -12.15
    4   20    8      2.39      2.93
    4   20    7     -2.40      0.38
    4   20    6      9.87    -12.10
    4   20    5      2.76     -0.80
    4   20    4      9.27      4.06
    4   20    3     -3.13      8.18
    4   20    2      1.15      7.50
    4   20    1    -14.47    -12.26
    4   20    0     -0.11     -0.39
    5   20   19      9.42     -2.54
    5   20   18     -2.67     -2.77
    5   20   17     -8.16      2.56
    5   20   16      6.77     -0.43
    5   20   15      1.37     -0.12
    5   20   14     -2.89      1.07
    5   20   13     -3.73      8.74
    5   20   12      2.58     -7.63
    5   20   11     -3.17     -1.75
    5   20   10     -3.46      2.31
    5   20    9     -0.94      0.63
    5   20    8      1.52      3.51
    5   20    7     -6.80     -6.58
    5   20    6     11.18     -5.63
    5   20    5     -2.71      3.85
    5   20    4     11.70      3.81
    5   20    3     -1.87      4.37
    5   20    2      1.90     -5.62
    5   20    1     -5.18    -10.43
    5   20    0     -4.51      0.61
    6   20   19      2.39     -2.51
    6   20   18     -2.44     -3.49
    6   20   17     -3.02     -1.06
    6   20   16      9.22     -2.31
    6   20   15      0.92      1.35
    6   20   14     -5.65     -0.47
    6   20   13      0.03      4.82
    6   20   12      3.51     -4.00
    6   20   11      1.18     -0.62
    6   20   10      4.49      3.98
    6   20    9      2.81     12.50
    6   20    8      2.47      5.14
    6   20    7     -2.46     -5.60
    6   20    6      3.28     -2.26
    6   20    5     -1.57     -2.14
    6   20    4      3.69     -6.92
    6   20    3     -0.23      8.34
    6   20    2     -1.03    -11.25
    6   20    1     -3.59     -3.55
    6   20    0     -4.20      0.74
    7   20   18      2.74     -1.51
    7   20   17     -2.36     -2.11
    7   20   16      0.35     -0.81
    7   20   15     -5.04     -2.06
    7   20   14      6.99     -0.33
    7   20   13      0.97      0.63
    7   20   12      4.86     -5.80
    7   20   11      7.50     11.22
    7   20   10     -1.09     12.99
    7   20    9      5.70     -0.02
    7   20    8      5.65      2.90
    7   20    7      0.86      2.26
    7   20    6     -3.81     -3.58
    7   20    5      3.07     -7.07
    7   20    4     -1.58     -2.48
    7   20    3      7.87      5.51
    7   20    2     -5.44    -20.94
    7   20    1    -10.51     12.52
    7   20    0      0.06      2.17
    8   20   16      1.56      3.23
    8   20   15     -0.97      0.05
    8   20   14     11.22     -5.45
    8   20   13     -3.89      0.54
    8   20   12     -4.59      0.12
    8   20   11      2.72      1.17
    8   20   10      7.09      3.80
    8   20    9      4.14     -1.85
    8   20    8     -1.72      5.82
    8   20    7      0.38     -1.32
    8   20    6     -7.81     -2.24
    8   20    5      3.11     -2.03
    8   20    4     -2.34     -6.73
    8   20    3     -1.65     10.93
    8   20    2      2.52     -4.47
    8   20    1      6.04      7.03
    8   20    0      3.21      0.25
    9   20   14      5.06      1.13
    9   20   13      2.81      1.39
    9   20   12     -1.75     -4.73
    9   20   11    -11.41      1.64
    9   20   10      2.05      0.42
    9   20    9     -0.30    -10.73
    9   20    8     -1.48     -1.61
    9   20    7     -3.65      5.26
    9   20    6     -0.66      2.94
    9   20    5     -3.52     -2.74
    9   20    4      0.48     -7.38
    9   20    3     -5.97      1.12
    9   20    2      3.97      1.77
    9   20    1     -3.35     -0.68
    9   20    0      6.41     -1.16
   10   20   11     -1.35      0.48
   10   20   10      5.01     -4.27
   10   20    9     -4.60     -1.96
   10   20    8      0.39     -1.96
   10   20    7    -11.02     -2.53
   10   20    6      1.25      5.91
   10   20    5     -2.64     -0.15
   10   20    4      4.94     -6.71
   10   20    3     -3.19     -3.63
   10   20    2      6.11     -6.04
   10   20    1    -16.83     -4.70
   10   20    0     -7.96     -0.80
   11   20   13     -1.81     -3.18
   11   20   12      6.07     -6.84
   11   20    9     -2.49     -0.73
   11   20    8     -4.01      0.07
   11   20    7     -4.69     -1.42
   11   20    6      4.79      2.77
   11   20    5     -4.29     -0.54
   11   20    4      2.41     -3.58
   11   20    3     -1.10      5.13
   11   20    2     -2.45    -10.62
   11   20    1     -0.58      1.37
   11   20    0      8.15      0.08
   12   20    7      0.38      6.27
   12   20    6     -5.08      0.66
   12   20    5     -0.61      0.38
   12   20    4     -2.74     -7.14
   12   20    3      0.31      2.18
   12   20    2      8.17      0.17
   12   20    1     -0.74     11.54
   12   20    0      8.20      0.19
   13   20    4     -0.25     -5.98
   13   20    3     -1.64     -1.32
   13   20    2      1.07      0.88
   13   20    1      2.09      7.21
   13   20    0     12.87     -0.18
   14   20    1      2.66     -2.31
   14   20    0     -0.39     -0.10
    0   21    0     -6.56      0.67
    0   21    1     -0.39      0.64
    0   21    2      2.43      0.12
    0   21    3     -0.50     -2.60
    0   21    4     -8.54     -0.87
    0   21    5      4.63      9.38
    0   21    6      2.00      1.03
    0   21    7     -2.16     -0.49
    0   21    8     -9.14      0.58
    0   21    9      1.83      4.09
    0   21   10      2.12     -0.30
    0   21   11     -0.66      5.13
    0   21   12    -10.92     -0.10
    0   21   13      0.15     -6.54
    1   21   14    -10.54      4.64
    1   21   13     -2.87      7.63
    1   21   12     -4.95     -0.03
    1   21   11      4.64      2.73
    1   21   10     -4.18     -4.85
    1   21    9      2.24      2.50
    1   21    8     -3.83      2.54
    1   21    7     -7.11     -0.11
    1   21    6     -2.95      7.64
    1   21    5      0.45      3.61
    1   21    4     -0.89      6.60
    1   21    3     -0.34      3.87
    1   21    2     -1.15     -8.45
    1   21    1      6.73     -0.25
    1   21    0      3.60      0.05
    2   21   14     -4.85     -2.22
    2   21   13      3.02      6.49
    2   21   12     -0.44      0.76
    2   21   11      1.10      2.40
    2   21   10     -6.39     -0.55
    2   21    9     -3.40     14.02
    2   21    8     -0.26     -1.58
    2   21    7     -1.74     -4.10
    2   21    6     -1.66     -1.00
    2   21    5      0.87     -3.52
    2   21    4     -4.09     -1.41
    2   21    3     -5.70      9.11
    2   21    2     12.69     -0.69
    2   21    1      8.94     -0.45
    2   21    0     -2.44     -2.13
    3   21   15     -0.69      3.31
    3   21   14      2.85      0.13
    3   21   13     -2.23      9.15
    3   21   12      3.89     -3.28
    3   21   11      1.43      1.56
    3   21   10      1.13     -2.17
    3   21    9     -7.86      6.86
    3   21    8     -4.00      2.70
    3   21    7      8.32      6.89
    3   21    6      4.56    -16.18
    3   21    5     -8.22     -1.67
    3   21    4      4.01     -1.70
    3   21    3      5.69      0.11
    3   21    2      3.77      6.29
    3   21    1     -0.88      6.18
    3   21    0      6.22     -1.49
    4   21   15     -4.47      0.89
    4   21   14      4.98     -0.10
    4   21   13     -3.84      2.82
    4   21   12      7.25      3.97
    4   21   11     -3.27      3.67
    4   21   10      2.30      0.84
    4   21    9     -0.15     -2.13
    4   21    8      1.78     -6.29
    4   21    7      2.18      4.24
    4   21    6      3.31     -8.64
    4   21    5     -3.51     -0.55
    4   21    4      7.31     -2.21
    4   21    3      5.64     10.54
    4   21    2      3.24      6.90
    4   21    1     -6.91      3.01
    4   21    0      3.59     -0.83
    5   21   15      2.27     -8.50
    5   21   14     -2.04      5.89
    5   21   13     -2.83      3.45
    5   21   12      0.34      5.18
    5   21   11     -1.80     -3.68
    5   21   10      3.99      1.77
    5   21    9      5.83      1.03
    5   21    8      3.49     -3.04
    5   21    7     -4.89     -2.97
    5   21    6      8.59     -9.27
    5   21    5      3.13      4.08
    5   21    4      9.46     -3.00
    5   21    3     -3.87      5.36
    5   21    2     -3.72     -1.65
    5   21    1      3.20      5.49
    5   21    0     -3.93      1.50
    6   21   15      3.54     -3.01
    6   21   14    -17.92      2.77
    6   21   13      3.16     -1.13
    6   21   12     -1.66      4.50
    6   21   11      2.05     -5.78
    6   21   10      5.31      0.55
    6   21    9      4.88      6.32
    6   21    8      2.31     -1.79
    6   21    7      1.44     10.88
    6   21    6      5.26     -8.64
    6   21    5      1.04     -8.89
    6   21    4      2.12     -2.63
    6   21    3     -0.70      9.72
    6   21    2     -4.64     -0.17
    6   21    1     -0.66      1.23
    6   21    0     -1.31      1.80
    7   21   15      0.26      1.76
    7   21   14     -9.73      2.37
    7   21   13      2.03     -1.55
    7   21   12     -5.30     -1.29
    7   21   11      3.81      4.97
    7   21   10     -3.56      0.17
    7   21    9      3.61      1.26
    7   21    8     -3.23     -4.92
    7   21    7     -0.20     17.36
    7   21    6      2.13      1.49
    7   21    5      2.37     -2.14
    7   21    4     -3.23      9.14
    7   21    3      5.01      1.05
    7   21    2     -3.45     -1.33
    7   21    1     -3.96     10.06
    7   21    0     13.72      2.57
    8   21   15      1.26     -3.32
    8   21   14     -0.85     -0.88
    8   21   13     -2.79      2.71
    8   21   12     -4.04     -1.40
    8   21   11     -2.47     -1.09
    8   21   10     -2.74     -2.40
    8   21    9      0.20      2.95
    8   21    8     -0.97      4.30
    8   21    7     -0.27     12.33
    8   21    6    -11.52      4.23
    8   21    5      4.07      3.41
    8   21    4      0.60     10.32
    8   21    3      1.60      9.93
    8   21    2      6.18      0.51
    8   21    1      2.24      6.10
    8   21    0      6.45     -1.87
    9   21   13      4.05     -0.49
    9   21   12      2.72     -1.56
    9   21   11    -10.84     -1.75
    9   21   10      2.88     -0.94
    9   21    9      1.65     -2.38
    9   21    8      1.40      6.12
    9   21    7      5.34      8.41
    9   21    6     -3.08      8.69
    9   21    5      5.01      4.40
    9   21    4     -1.75     -2.97
    9   21    3     -2.11      6.48
    9   21    2     -1.93      4.54
    9   21    1     -0.55      0.52
    9   21    0     -1.41     -4.25
   10   21   11      2.80     -2.13
   10   21   10      9.84     -1.20
   10   21    9      0.46      2.40
   10   21    8      2.87      3.91
   10   21    7      3.88     -0.39
   10   21    6     -4.28      8.04
   10   21    5     11.66     -0.49
   10   21    4     -2.50     -3.52
   10   21    3     -0.01     -0.34
   10   21    2    -10.23      2.92
   10   21    1    -15.22      1.11
   10   21    0     -8.68     -1.41
   11   21    8     -6.67     -2.08
   11   21    7      6.23     -2.24
   11   21    6      0.80      9.52
   11   21    5      1.91     -6.37
   11   21    4     -9.46     -1.39
   11   21    3      1.05      2.06
   11   21    2     -9.94     -3.21
   11   21    1     -0.95      5.77
   11   21    0     -0.85      0.52
   12   21    6     -8.71      0.39
   12   21    5     -0.96     -7.25
   12   21    4     -7.10     -2.88
   12   21    3     -0.53      4.78
    0   22    0     -1.54      3.75
    0   22    1      0.08      5.37
    0   22    2      0.55      1.36
    0   22    3     -0.56      8.22
    0   22    4      5.37      2.45
    0   22    5      1.61     -0.93
    0   22    6     17.05     -0.67
    0   22    7      1.14      8.67
    0   22    8      7.26      0.11
    1   22    8      9.18     11.45
    1   22    7     -2.89      1.74
    1   22    6      7.30     -0.83
    1   22    5      7.51      4.46
    1   22    4      5.49      1.95
    1   22    3     -2.81      1.20
    1   22    2     -2.99     -2.66
    1   22    1      3.78      3.99
    1   22    0      0.04      1.55
    2   22    9     -1.57      5.84
    2   22    8      7.09      6.40
    2   22    7      3.06     -2.81
    2   22    6     -5.57     -6.29
    2   22    5     -0.58     -0.56
    2   22    4     -1.32      4.66
    2   22    3     -3.99     -2.69
    2   22    2      2.10     -3.84
    2   22    1      7.52      0.39
    2   22    0     -7.61     -2.57
    3   22    9      0.79      5.93
    3   22    8     -5.55      1.10
    3   22    7      4.35      4.07
    3   22    6     -3.77     -6.31
    3   22    5    -11.78     -1.58
    3   22    4     -2.32      4.91
    3   22    3      8.58     -5.64
    3   22    2     -2.40      6.11
    3   22    1     -4.72      5.49
    3   22    0     -0.65     -5.87
    4   22    9     -1.73      3.46
    4   22    8     -6.00     -6.55
    4   22    7      2.33      2.70
    4   22    6     -5.41      2.75
    4   22    5     -1.94     -0.60
    4   22    4     -1.10      5.34
    4   22    3      1.19      4.75
    4   22    2     -2.05      5.88
    4   22    1     -2.29      6.88
    4   22    0      5.23     -5.45
    5   22    9      5.11      1.54
    5   22    8     -1.83     -3.76
    5   22    7     -3.13      0.56
    5   22    6     -0.32      0.50
    5   22    5      4.70     -2.61
    5   22    4     -0.98      3.94
    5   22    3     -8.01     -2.27
    5   22    2     -5.13      4.82
    5   22    1      8.06      7.20
    5   22    0      1.05     -1.38
    6   22    8      4.74      1.37
    6   22    7      3.56      5.75
    6   22    6      2.88     -0.45
    6   22    5     -3.69    -21.78
    6   22    4    -11.46      8.55
    6   22    3     -5.90     -2.91
    6   22    2     -1.76      4.20
    6   22    1      3.08      0.49
    6   22    0     -4.37     -0.20
    7   22    7     -0.15      1.85
    7   22    6      7.57      7.40
    7   22    5     -8.74    -14.50
    7   22    4    -11.31      8.43
    7   22    3     -1.41     -9.15
    7   22    2     -7.73      4.80
    0    1    0    607.82     -2.29
    1    1    0    -21.67     -1.51
    0    2    0    -52.21     -0.34
    1    2    0   -110.22     -0.80
    0    3    0   -156.57     -2.62
    3    5    0    -13.51     -3.15
    1    6    0      4.01     -0.52
    0    9    0    -13.94     -0.44
    5   11    0     -6.33     -0.10
    6   12    0      5.94     -1.24
    7   13    0      0.93      0.25
   16   16    0     10.42     -1.03
   16   17    0     -5.04     -0.13
    7   22    0      4.11      1.05
    0   23    0      3.69      1.34
    1   23    0      1.79      0.40
    2   23    0     -5.20     -0.43
    3   23    0     -1.31     -1.22
    4   23    0      5.71     -1.06
    0    1    1     -1.35    -48.67
    1    1    1     -7.00     -4.78
    0    2    1     -0.25     52.67
    1    2    1     54.25    -15.73
    2    2    1    -29.54    -27.68
    2    3    1    -23.64     -3.64
    0    4    1     -0.11    -34.62
   16   16    1      0.72     -0.95
   16   17    1      0.23     -5.65
    7   22    1      1.68      1.71
    0   23    1     -0.37     -5.29
    1   23    1      1.98     -4.53
    2   23    1      0.24     -1.99
    3   23    1     -5.41      2.25
    4   23    1      0.46      5.33
    0    1    2   -296.19     -0.33
    1    1    2      2.01     30.07
    0    2    2    -10.09     -0.28
    1    2    2     47.76    -51.28
    3    3    2      0.33     33.54
    4    4    2      2.60     -4.86
    0   23    2      1.49     -1.01
    1   23    2     -1.37     -3.26
    2   23    2     -1.83     -6.19
    3   23    2     -1.95      4.97
    4   23    2     -1.56      3.17
    0    1    3     -0.26     84.57
    1    1    3    -41.45     42.06
    0   23    3     -0.03      4.08
    1   23    3     -5.01     -5.10
    2   23    3     -0.48     -7.98
    3   23    3      8.72     -2.98
    0    0    4     -7.42      0.38
    0    4    4    -16.69      0.33
    0   23    4      2.06      1.23
    1   23    4     -1.10     -3.70
    2   23    4     -0.77      3.54
    3   23    4      1.65      4.18
    0    1    5     -0.24    -28.71
    1    1    5    -12.77    -13.13
    2    2    5     25.55     25.42
    0   23    5     -0.05    -11.01
    1   23    5      0.29     -0.87
    2   23    5     -0.70     -0.49
    0    1    6     45.85      0.55
    1    1    6     -1.23     40.15
    0   23    6     -5.62     -0.87
    1   23    6     -1.91     -6.86
    0    1    7     -0.41    -28.59
    1    1    8     16.32      0.63
    0    2    9      0.72    -12.55
    0   22    9     -0.66      1.58
    1   22    9      1.01     -1.36
    0   22   10      3.37      0.57
    1   22   10      0.49      3.80
    2   22   10     -3.03      8.72
    3   22   10     -3.88      4.00
    4   22   10     -5.46     -0.14
    0   22   11     -0.59      0.87
    1   22   11      3.77      1.76
    2   22   11      4.70     -0.67
    0    2   13     -0.55    -13.87
   15   15   14     -0.37     -8.48
    0   21   14     -3.75     -0.57
    0    2   15      0.70    -11.34
    9   19   15     11.27      5.87
    0   21   15     -0.57      3.42
    1   21   15     -1.52     -5.12
   14   15   16     -2.83      3.59
   13   16   16     -5.46     -3.19
    9   18   16     -4.37      1.31
    0   20   16     -4.85      0.58
   14   14   17      0.11      0.68
    9   18   17    -13.36      1.27
    0   20   17      0.48     13.18
    1   20   17     -0.72      5.93
   14   14   18     -0.09     -3.46
    8   18   18     -0.36      6.53
    0   19   19      1.76     -2.52
   13   13   20     -3.32      0.22
    0   19   20      1.87     -0.13
    1   19   20      2.66      1.96
   13   13   21     -2.97     -3.07
    0   18   22     -0.38      0.12
    1    1   23     -7.18      8.06
   12   12   23      1.88     -2.42
    0    1   24      1.12      0.66
   11   12   24      5.61     -4.20
   10   13   24     -1.94     -3.43
    9   14   24     -0.17      5.94
    0    4   25      0.36      2.17
    6    6   25     -1.68     -1.76
   11   11   25      3.70      3.62
   10   12   25     -2.74      5.13
    9   13   25      9.38     -8.04
    7   14   25     -1.72      3.67
    5   15   25     -2.71     -0.42
   10   10   26      0.03      1.50
    9   11   26      5.30     -1.93
   10   11   26      4.04      2.23
    8   12   26     -2.23     -1.72
    9   12   26      2.54      0.19
    7   13   26     -1.87    -15.24
    8   13   26     -0.68     -1.45
    5   14   26     -0.34      3.67
    6   14   26     -3.08      1.48
    9   10   27      8.14     -3.34
   10   10   27      6.30     -6.64
    8   11   27      0.64      1.99
    9   11   27     -0.36      1.66
    6   12   27     -3.54     -1.81
    7   12   27     -2.00      7.70
    8   12   27     -2.10      3.95
    5   13   27      5.76      2.91
    6   13   27     -1.32     -1.18
    4   14   27      3.98      0.38
    9    9   28     -1.30     -0.33
    7   10   28     -2.54     -5.64
    8   10   28     -0.36    -12.78
    9   10   28     -6.37      0.15
    6   11   28     -2.19     -4.84
    7   11   28     -1.38      1.61
    8   11   28      1.19     -5.10
    5   12   28     -2.65     -3.43
    6   12   28      1.67     -3.01
    3   13   28      2.54      2.47
    4   13   28     -8.70     -3.59
    7    8   29     -2.28      6.64
    8    8   29     -0.42      0.39
    7    9   29      4.09      3.55
    8    9   29     -0.04      2.94
    6   10   29      4.46     -4.90
    7   10   29     -0.27     -6.92
    5   11   29     -0.91      4.63
    6   11   29      4.39      6.62
    3   12   29     -3.82     -4.24
    4   12   29     -1.33     -2.29
    5    8   30    -11.59     -2.61
    6    8   30     -8.16     -4.00
    7    8   30     -8.13     -4.72
    8    8   30      0.14     -5.35
    6    9   30     -0.80     -3.68
    7    9   30      0.02     -5.32
    5   10   30      0.07      1.79
    3   11   30      0.58     -2.84
    7    7   31     -4.64      5.92
    0    9   31      2.06     -4.93
    1    9   31     -1.74     -0.85
    2    9   31     -6.89      4.05
    3    9   31      0.01      3.00
    4    9   31      0.66      2.34
    0    8   32    -11.35     -0.27
    1    8   32     -2.89     -0.11
    2    8   32      8.88      1.73
    0    6   33      1.94      1.27
    1    6   33     12.34      0.65
    0    3   34      2.59     -0.76
    0    0    0      0.00      0.00
# SQUEEZE RESULTS (Version =  91117)
# Note: Data are Listed for all Voids in the P1 Unit Cell
# i.e. Centre of Gravity, Solvent Accessible Volume,
# Recovered number of Electrons in the Void and
# Details about the Squeezed Material
loop_
  _platon_squeeze_void_nr
  _platon_squeeze_void_average_x
  _platon_squeeze_void_average_y
  _platon_squeeze_void_average_z
  _platon_squeeze_void_volume
  _platon_squeeze_void_count_electrons
  _platon_squeeze_void_content
   1 -0.005  0.005 -0.003      4849      1569 ' '
# Missing Reflections Below sin(th)/lambda = 0.25
loop_
  _platon_missing_refln_index_h
  _platon_missing_refln_index_k
  _platon_missing_refln_index_l
  _platon_missing_refln_theta
    0    1    0     1.138
    1    1    0     1.609
    0    2    0     2.276
    1    2    0     2.544
    0    3    0     3.414
    3    5    0     6.647
    1    6    0     6.936
    0    1    1     1.375
    1    1    1     1.784
    0    2    1     2.403
    1    2    1     2.659
    2    2    1     3.310
    2    3    1     4.177
    0    4    1     4.620
    0    1    2     1.918
    1    1    2     2.230
    0    2    2     2.750
    1    2    2     2.976
    3    3    2     5.073
    4    4    2     6.632
    0    1    3     2.580
    1    1    3     2.820
    0    0    4     3.088
    0    4    4     5.506
    0    1    5     4.026
    1    1    5     4.184
    2    2    5     5.030
    0    1    6     4.773
    1    1    6     4.907
    0    1    7     5.528
    1    1    8     6.392
    0    2    9     7.328
_platon_squeeze_void_probe_radius                  1.20
_platon_squeeze_details
)
TITL p20201223c10_a.res in P4(1)22
CELL   17.9001   17.9001   26.3870     90.00     90.00     90.00
SPGR P4122
# Solvent Accessible Volume =      4871
# Electrons Found in S.A.V. =      1508
# Note: Atoms in Void are Labelled as Cxxx and Qxxx for all Others
C101 1.002 0.253 0.016 !       6.80 eA-3
Q102 0.833 0.746 0.446 !       4.90 eA-3
C103 0.935 0.998 0.603 !       4.31 eA-3
Q104 0.752 0.841 0.341 !       3.88 eA-3
C105 0.396 0.937 0.680 !       3.85 eA-3
C106 0.917 0.514 0.414 !       3.03 eA-3
C107 0.896 0.234 0.338 !       3.02 eA-3
C108 0.882 0.374 0.048 !       2.95 eA-3
C109 0.966 0.470 0.069 !       2.86 eA-3
C110 1.007 0.141 0.173 !       2.80 eA-3
C111 0.189 0.207 0.747 !       2.79 eA-3
C112 0.810 0.831 0.545 !       2.72 eA-3
C113 0.045 0.560 0.594 !       2.67 eA-3
C114 0.082 0.797 0.603 !       2.65 eA-3
C115 0.188 0.982 0.890 !       2.54 eA-3
Q116 0.168 0.831 0.570 !       2.54 eA-3
C117 0.232 0.891 0.455 !       2.51 eA-3
C118 0.767 0.076 0.882 !       2.47 eA-3
C119 0.140 0.862 0.995 !       2.46 eA-3
C120 0.768 0.889 0.549 !       2.46 eA-3
C121 0.818 0.739 0.932 !       2.45 eA-3
C122 0.276 0.204 0.359 !       2.44 eA-3
C123 0.078 0.329 0.975 !       2.36 eA-3
C124 0.752 0.667 0.892 !       2.35 eA-3
C125 0.896 0.778 0.633 !       2.34 eA-3
Q126 0.501 0.250 0.962 !       2.29 eA-3
C127 0.222 0.698 0.125 !       2.24 eA-3
C128 0.309 0.893 0.685 !       2.22 eA-3
C129 0.580 0.167 0.725 !       2.22 eA-3
C130 0.269 0.955 0.358 !       2.20 eA-3
C131 0.047 0.173 0.861 !       2.19 eA-3
C132 0.901 0.385 0.530 !       2.19 eA-3
C133 0.545 0.921 0.304 !       2.14 eA-3
C134 0.308 0.106 0.815 !       2.14 eA-3
C135 0.885 0.736 0.974 !       2.11 eA-3
C136 0.763 0.145 0.953 !       2.10 eA-3
C137 0.440 0.872 0.719 !       2.09 eA-3
C138 0.454 0.891 0.758 !       2.07 eA-3
C139 0.753 0.170 0.921 !       2.07 eA-3
C140 0.434 0.109 0.830 !       2.05 eA-3
C141 0.559 0.154 0.767 !       2.04 eA-3
C142 0.140 0.610 0.032 !       2.04 eA-3
C143 0.894 0.828 0.210 !       2.03 eA-3
C144 0.420 0.137 0.795 !       2.03 eA-3
C145 0.570 0.957 0.296 !       2.02 eA-3
C146 0.010 0.141 0.869 !       2.01 eA-3
C147 0.837 0.205 0.875 !       2.00 eA-3
C148 0.073 0.155 0.465 !       2.00 eA-3
C149 0.221 0.144 0.243 !       2.00 eA-3
Q150 0.293 0.144 0.795 !       1.99 eA-3
C151 0.188 0.842 0.415 !       1.99 eA-3
C152 0.622 0.112 0.177 !       1.99 eA-3
C153 0.171 0.173 0.499 !       1.99 eA-3
C154 0.170 0.065 0.728 !       1.98 eA-3
C155 1.001 0.142 0.211 !       1.97 eA-3
C156 0.263 0.949 0.414 !       1.96 eA-3
C157 0.733 0.894 0.718 !       1.96 eA-3
C158 0.818 0.878 0.577 !       1.96 eA-3
Q159 0.207 0.200 0.793 !       1.95 eA-3
C160 0.110 0.918 0.281 !       1.95 eA-3
C161 0.377 0.839 0.230 !       1.94 eA-3
Q162 0.733 0.095 0.528 !       1.92 eA-3
C163 0.893 0.877 0.264 !       1.91 eA-3
C164 0.214 0.014 0.117 !       1.90 eA-3
C165 0.875 0.955 0.443 !       1.89 eA-3
C166 0.785 1.003 0.649 !       1.89 eA-3
Q167 0.338 0.751 0.610 !       1.89 eA-3
Q168 0.694 0.752 0.784 !       1.88 eA-3
C169 0.171 0.781 0.283 !       1.88 eA-3
C170 0.881 0.375 0.006 !       1.87 eA-3
C171 0.455 0.891 0.226 !       1.87 eA-3
C172 0.155 0.855 0.773 !       1.86 eA-3
C173 0.155 0.058 0.911 !       1.85 eA-3
C174 0.768 0.708 0.920 !       1.85 eA-3
C175 0.972 0.907 0.328 !       1.84 eA-3
C176 0.063 0.159 0.168 !       1.83 eA-3
C177 0.650 0.155 0.668 !       1.82 eA-3
Q178 0.736 0.169 0.330 !       1.82 eA-3
C179 0.892 0.812 0.760 !       1.82 eA-3
C180 0.828 0.807 0.764 !       1.81 eA-3
C181 0.213 0.219 0.689 !       1.81 eA-3
C182 0.112 0.939 0.960 !       1.81 eA-3
C183 0.866 0.206 0.370 !       1.81 eA-3
C184 0.102 0.938 0.913 !       1.80 eA-3
C185 0.360 0.186 0.307 !       1.80 eA-3
C186 0.515 0.077 0.757 !       1.79 eA-3
C187 0.252 0.971 0.094 !       1.79 eA-3
C188 0.333 0.934 0.685 !       1.77 eA-3
C189 0.954 0.296 0.581 !       1.76 eA-3
C190 0.140 0.654 0.041 !       1.76 eA-3
C191 0.826 0.203 0.917 !       1.75 eA-3
C192 0.193 0.359 0.445 !       1.75 eA-3
C193 0.735 0.799 0.756 !       1.75 eA-3
C194 0.804 0.357 0.555 !       1.74 eA-3
C195 0.686 0.688 0.875 !       1.74 eA-3
Q196 0.228 0.233 0.015 !       1.74 eA-3
C197 0.439 0.064 0.258 !       1.74 eA-3
C198 0.067 0.180 0.719 !       1.73 eA-3
Q199 0.829 0.428 0.095 !       1.73 eA-3
)
;
_shelx_fab_checksum              85705
_olex2_submission_special_instructions 'No special instructions were received'
loop_
_space_group_symop_operation_xyz
'x, y, z'
'-x, -y, z+1/2'
'-y, x, z+1/4'
'y, -x, z+3/4'
'-x, y, -z'
'x, -y, -z+1/2'
'y, x, -z+3/4'
'-y, -x, -z+1/4'
loop_
_atom_site_label
_atom_site_type_symbol
_atom_site_fract_x
_atom_site_fract_y
_atom_site_fract_z
_atom_site_U_iso_or_equiv
_atom_site_adp_type
_atom_site_occupancy
_atom_site_site_symmetry_order
_atom_site_calc_flag
_atom_site_refinement_flags_posn
_atom_site_refinement_flags_adp
_atom_site_refinement_flags_occupancy
_atom_site_disorder_assembly
_atom_site_disorder_group
Co1 Co 0.500000 0.74921(15) 0.500000 0.0305(7) Uani 1 2 d S T P . .
Co2 Co 0.33311(11) 0.74815(12) 0.57526(7) 0.0379(6) Uani 1 1 d . . . . .
Cl1 Cl 0.2449(7) 0.7551(7) 0.625000 0.087(5) Uani 0.5 2 d S T P . .
O3 O 0.5925(5) 0.2902(5) 0.1230(4) 0.040(2) Uani 1 1 d . . . . .
O6 O -0.1648(5) 0.4133(5) 0.2519(3) 0.050(3) Uani 1 1 d D . . . .
O4 O 0.4962(5) 0.2485(5) 0.0802(3) 0.046(2) Uani 1 1 d D . . . .
O2 O 0.4224(5) 0.6663(5) 0.5019(3) 0.043(2) Uani 1 1 d . . . . .
O1 O 0.3000(5) 0.6911(6) 0.5164(3) 0.042(3) Uani 1 1 d . . . . .
O5 O -0.1428(6) 0.3449(6) 0.1873(3) 0.052(3) Uani 1 1 d . . . . .
C1 C 0.3534(9) 0.6595(8) 0.4913(5) 0.041(4) Uani 1 1 d . . . . .
C17 C 0.5239(8) 0.2788(8) 0.1168(5) 0.031(3) Uani 1 1 d . U . . .
C24 C -0.1265(8) 0.3808(9) 0.2243(5) 0.039(4) Uani 1 1 d . . . . .
C14 C 0.4715(7) 0.3057(7) 0.1560(5) 0.032(3) Uani 1 1 d . U . . .
C2 C 0.3311(7) 0.6087(7) 0.4478(5) 0.029(3) Uani 1 1 d . U . . .
N2 N 0.2348(6) 0.3781(8) 0.2465(5) 0.057(4) Uani 1 1 d . . . . .
N1 N 0.3304(7) 0.4348(7) 0.2978(5) 0.050(4) Uani 1 1 d . . . . .
C4 C 0.3685(8) 0.5238(8) 0.3821(5) 0.041(4) Uani 1 1 d . . . . .
H4 H 0.406408 0.500270 0.362607 0.050 Uiso 1 1 d R U . . .
C21 C -0.0438(7) 0.3873(8) 0.2402(6) 0.037(4) Uani 1 1 d . . . . .
C13 C 0.4917(8) 0.3545(8) 0.1943(5) 0.037(4) Uani 1 1 d . . . . .
H13 H 0.542678 0.367924 0.198225 0.045 Uiso 1 1 calc R U . . .
C5 C 0.2931(8) 0.5127(10) 0.3684(6) 0.054(5) Uani 1 1 d . . . . .
C11 C 0.3641(8) 0.3585(8) 0.2237(5) 0.036(4) Uani 1 1 d . . . . .
C9 C 0.3076(9) 0.3902(11) 0.2605(5) 0.059(5) Uani 1 1 d . . . . .
C19 C 0.0826(10) 0.3657(12) 0.2197(7) 0.079(7) Uani 1 1 d . . . . .
H19 H 0.119187 0.342591 0.198819 0.095 Uiso 1 1 calc R U . . .
N3 N 0.2022(7) 0.4542(9) 0.3175(6) 0.069(5) Uani 1 1 d . . . . .
C6 C 0.2385(9) 0.5560(9) 0.3938(5) 0.056(5) Uani 1 1 d . . . . .
H6 H 0.187901 0.553672 0.383100 0.067 Uiso 1 1 d R U . . .
C15 C 0.3977(10) 0.2800(9) 0.1547(5) 0.054(5) Uani 1 1 d . . . . .
H15 H 0.383539 0.244339 0.129849 0.064 Uiso 1 1 calc R U . . .
C12 C 0.4390(8) 0.3842(9) 0.2268(7) 0.060(5) Uani 1 1 d . . . . .
H12 H 0.452728 0.421117 0.250956 0.072 Uiso 1 1 calc R U . . .
C3 C 0.3882(9) 0.5676(9) 0.4230(5) 0.045(4) Uani 1 1 d . . . . .
H3 H 0.438512 0.570665 0.434232 0.054 Uiso 1 1 d R U . . .
C22 C -0.0245(8) 0.4194(8) 0.2843(6) 0.047(4) Uani 1 1 d . . . . .
H22 H -0.061989 0.438521 0.306252 0.056 Uiso 1 1 calc R U . . .
C7 C 0.2593(9) 0.6026(9) 0.4341(5) 0.052(4) Uani 1 1 d . U . . .
H7 H 0.222447 0.630009 0.452081 0.063 Uiso 1 1 d R U . . .
C16 C 0.3441(10) 0.3058(10) 0.1896(5) 0.059(5) Uani 1 1 d . . . . .
H16 H 0.294630 0.286593 0.189175 0.071 Uiso 1 1 calc R U . . .
C18 C 0.1051(8) 0.4052(12) 0.2602(6) 0.070(6) Uani 1 1 d . . . . .
C8 C 0.2744(10) 0.4658(10) 0.3246(7) 0.061(5) Uani 1 1 d . . . . .
C20 C 0.0062(10) 0.3574(12) 0.2071(7) 0.081(7) Uani 1 1 d . . . . .
H20 H -0.009354 0.332398 0.177212 0.098 Uiso 1 1 calc R U . . .
C10 C 0.1864(9) 0.4117(12) 0.2774(9) 0.086(7) Uani 1 1 d . . . . .
C23 C 0.0497(11) 0.4245(11) 0.2977(8) 0.076(6) Uani 1 1 d . . . . .
H23 H 0.064008 0.440286 0.330687 0.092 Uiso 1 1 calc R U . . .
loop_
_atom_site_aniso_label
_atom_site_aniso_U_11
_atom_site_aniso_U_22
_atom_site_aniso_U_33
_atom_site_aniso_U_23
_atom_site_aniso_U_13
_atom_site_aniso_U_12
Co1 0.0297(15) 0.0316(15) 0.0304(13) 0.000 0.0014(11) 0.000
Co2 0.0394(12) 0.0402(12) 0.0340(10) 0.0006(10) 0.0041(9) -0.0042(10)
Cl1 0.098(8) 0.098(8) 0.064(7) 0.013(4) 0.013(4) -0.064(10)
O3 0.029(6) 0.041(6) 0.050(6) -0.008(5) -0.009(5) 0.002(5)
O6 0.053(7) 0.063(8) 0.033(6) 0.004(6) -0.013(6) -0.017(6)
O4 0.034(6) 0.044(6) 0.062(6) -0.005(6) 0.004(5) 0.013(5)
O2 0.037(6) 0.040(6) 0.051(6) -0.006(5) -0.012(5) -0.013(5)
O1 0.028(6) 0.056(7) 0.043(6) -0.003(5) -0.005(5) -0.011(5)
O5 0.079(9) 0.056(7) 0.021(5) -0.009(5) -0.017(5) 0.004(6)
C1 0.041(10) 0.035(9) 0.046(9) -0.007(7) 0.010(8) -0.011(7)
C17 0.032(3) 0.031(3) 0.030(3) -0.0005(14) -0.0013(14) -0.0001(14)
C24 0.038(10) 0.044(10) 0.034(8) -0.014(8) 0.016(7) 0.012(7)
C14 0.015(6) 0.030(7) 0.050(8) -0.020(6) 0.006(6) -0.013(5)
C2 0.017(6) 0.043(8) 0.029(6) -0.014(6) 0.001(5) -0.012(6)
N2 0.028(8) 0.070(10) 0.075(9) -0.049(8) 0.003(7) 0.002(6)
N1 0.030(7) 0.062(9) 0.059(8) -0.040(7) 0.006(7) 0.003(7)
C4 0.031(9) 0.051(10) 0.043(9) -0.009(8) 0.018(7) 0.002(7)
C21 0.016(7) 0.040(9) 0.054(10) -0.022(7) 0.003(7) 0.002(6)
C13 0.031(9) 0.036(9) 0.045(9) -0.010(7) -0.013(7) 0.003(7)
C5 0.020(8) 0.083(13) 0.059(11) -0.025(10) -0.002(8) -0.004(8)
C11 0.026(8) 0.045(10) 0.039(8) -0.022(7) -0.014(7) -0.004(6)
C9 0.045(11) 0.107(16) 0.023(8) -0.021(9) 0.002(7) 0.016(10)
C19 0.035(11) 0.133(19) 0.069(12) -0.047(12) -0.009(10) 0.024(12)
N3 0.030(8) 0.079(11) 0.098(12) -0.064(10) 0.006(8) -0.004(7)
C6 0.039(10) 0.082(13) 0.046(9) -0.038(9) 0.004(8) 0.027(9)
C15 0.070(13) 0.062(12) 0.029(8) -0.016(8) -0.004(8) -0.005(9)
C12 0.021(9) 0.061(12) 0.098(14) -0.030(10) -0.016(9) 0.001(8)
C3 0.051(10) 0.057(11) 0.029(8) -0.004(8) -0.012(7) 0.012(8)
C22 0.017(8) 0.051(10) 0.072(12) -0.012(9) -0.009(8) 0.008(7)
C7 0.046(9) 0.089(10) 0.022(6) -0.024(7) -0.008(7) 0.021(8)
C16 0.052(11) 0.084(14) 0.040(9) -0.042(9) 0.010(8) -0.017(10)
C18 0.024(9) 0.141(18) 0.045(10) -0.037(11) -0.006(8) -0.028(10)
C8 0.061(13) 0.061(12) 0.059(11) -0.014(9) -0.017(10) 0.018(9)
C20 0.043(11) 0.124(19) 0.076(13) -0.071(13) -0.009(10) 0.024(11)
C10 0.021(9) 0.098(16) 0.139(18) -0.076(14) 0.003(11) 0.010(9)
C23 0.067(14) 0.090(16) 0.072(13) -0.024(12) 0.024(11) 0.007(12)
loop_
_atom_type_symbol
_atom_type_description
_atom_type_scat_dispersion_real
_atom_type_scat_dispersion_imag
_atom_type_scat_source
C C 0.0033 0.0016 'International Tables Vol C Tables 4.2.6.8 and 6.1.1.4'
H H 0.0000 0.0000 'International Tables Vol C Tables 4.2.6.8 and 6.1.1.4'
Cl Cl 0.1484 0.1585 'International Tables Vol C Tables 4.2.6.8 and 6.1.1.4'
Co Co 0.3494 0.9721 'International Tables Vol C Tables 4.2.6.8 and 6.1.1.4'
N N 0.0061 0.0033 'International Tables Vol C Tables 4.2.6.8 and 6.1.1.4'
O O 0.0106 0.0060 'International Tables Vol C Tables 4.2.6.8 and 6.1.1.4'
loop_
_geom_angle_atom_site_label_1
_geom_angle_atom_site_label_2
_geom_angle_atom_site_label_3
_geom_angle
_geom_angle_site_symmetry_1
_geom_angle_site_symmetry_3
_geom_angle_publ_flag
O6 Co1 O6 90.5(5) 7_565 3_665 ?
O4 Co1 O6 86.6(3) 6_565 7_565 ?
O4 Co1 O6 91.8(3) 2_665 7_565 ?
O4 Co1 O6 86.6(3) 2_665 3_665 ?
O4 Co1 O6 91.8(3) 6_565 3_665 ?
O4 Co1 O4 177.8(5) 6_565 2_665 ?
O2 Co1 O6 91.7(4) . 7_565 ?
O2 Co1 O6 176.5(4) . 3_665 ?
O2 Co1 O6 176.5(4) 5_656 7_565 ?
O2 Co1 O6 91.7(4) 5_656 3_665 ?
O2 Co1 O4 90.6(4) . 2_665 ?
O2 Co1 O4 91.0(4) 5_656 2_665 ?
O2 Co1 O4 91.0(4) . 6_565 ?
O2 Co1 O4 90.6(4) 5_656 6_565 ?
O2 Co1 O2 86.2(6) 5_656 . ?
O3 Co2 Cl1 97.6(4) 2_665 . ?
O3 Co2 O5 112.3(4) 2_665 7_565 ?
O1 Co2 Cl1 107.8(3) . . ?
O1 Co2 O3 122.4(4) . 2_665 ?
O1 Co2 O5 114.4(4) . 7_565 ?
O5 Co2 Cl1 97.4(5) 7_565 . ?
Co2 Cl1 Co2 108.3(8) . 8_666 ?
C17 O3 Co2 121.5(9) . 2_664 ?
C24 O6 Co1 139.5(10) . 4_464 ?
C17 O4 Co1 140.6(9) . 2_664 ?
C1 O2 Co1 136.6(10) . . ?
C1 O1 Co2 114.3(9) . . ?
C24 O5 Co2 115.4(10) . 7_455 ?
O2 C1 O1 124.2(13) . . ?
O2 C1 C2 118.6(13) . . ?
O1 C1 C2 117.1(13) . . ?
O3 C17 C14 118.4(12) . . ?
O4 C17 O3 125.3(13) . . ?
O4 C17 C14 116.3(12) . . ?
O6 C24 O5 129.5(16) . . ?
O6 C24 C21 111.0(13) . . ?
O5 C24 C21 119.6(12) . . ?
C13 C14 C17 123.5(12) . . ?
C13 C14 C15 118.2(13) . . ?
C15 C14 C17 118.4(12) . . ?
C3 C2 C1 118.1(12) . . ?
C7 C2 C1 120.4(12) . . ?
C7 C2 C3 121.6(12) . . ?
C10 N2 C9 112.3(13) . . ?
C9 N1 C8 114.0(13) . . ?
C5 C4 H4 118.8 . . ?
C3 C4 H4 119.6 . . ?
C3 C4 C5 121.6(13) . . ?
C22 C21 C24 121.0(12) . . ?
C22 C21 C20 123.7(14) . . ?
C20 C21 C24 115.2(13) . . ?
C14 C13 H13 119.4 . . ?
C12 C13 C14 121.2(14) . . ?
C12 C13 H13 119.4 . . ?
C4 C5 C6 117.5(14) . . ?
C4 C5 C8 120.0(14) . . ?
C6 C5 C8 121.9(14) . . ?
C12 C11 C9 118.2(13) . . ?
C16 C11 C9 120.8(14) . . ?
C16 C11 C12 120.9(15) . . ?
N2 C9 C11 113.7(12) . . ?
N1 C9 N2 125.9(14) . . ?
N1 C9 C11 119.6(14) . . ?
C18 C19 H19 119.0 . . ?
C18 C19 C20 122.0(16) . . ?
C20 C19 H19 119.0 . . ?
C8 N3 C10 114.2(14) . . ?
C5 C6 H6 119.5 . . ?
C7 C6 C5 120.1(15) . . ?
C7 C6 H6 120.4 . . ?
C14 C15 H15 119.4 . . ?
C14 C15 C16 121.3(14) . . ?
C16 C15 H15 119.4 . . ?
C13 C12 C11 119.0(15) . . ?
C13 C12 H12 120.5 . . ?
C11 C12 H12 120.5 . . ?
C2 C3 H3 120.7 . . ?
C4 C3 C2 118.2(14) . . ?
C4 C3 H3 121.1 . . ?
C21 C22 H22 120.0 . . ?
C21 C22 C23 119.9(14) . . ?
C23 C22 H22 120.0 . . ?
C2 C7 C6 120.6(14) . . ?
C2 C7 H7 119.2 . . ?
C6 C7 H7 120.2 . . ?
C11 C16 C15 119.0(16) . . ?
C11 C16 H16 120.5 . . ?
C15 C16 H16 120.5 . . ?
C19 C18 C10 124.2(16) . . ?
C19 C18 C23 117.8(16) . . ?
C23 C18 C10 115.6(15) . . ?
N1 C8 C5 118.7(15) . . ?
N3 C8 N1 126.0(16) . . ?
N3 C8 C5 115.1(15) . . ?
C21 C20 C19 116.4(15) . . ?
C21 C20 H20 121.8 . . ?
C19 C20 H20 121.8 . . ?
N2 C10 N3 127.3(15) . . ?
N2 C10 C18 113.7(15) . . ?
N3 C10 C18 118.7(14) . . ?
C22 C23 C18 118.1(17) . . ?
C22 C23 H23 120.9 . . ?
C18 C23 H23 120.9 . . ?
loop_
_geom_bond_atom_site_label_1
_geom_bond_atom_site_label_2
_geom_bond_distance
_geom_bond_site_symmetry_2
_geom_bond_publ_flag
Co1 O6 2.187(10) 3_665 ?
Co1 O6 2.187(10) 7_565 ?
Co1 O4 2.117(8) 6_565 ?
Co1 O4 2.117(8) 2_665 ?
Co1 O2 2.033(10) . ?
Co1 O2 2.033(10) 5_656 ?
Co2 Cl1 2.057(11) . ?
Co2 O3 1.958(10) 2_665 ?
Co2 O1 1.951(9) . ?
Co2 O5 1.992(11) 7_565 ?
O3 C17 1.256(15) . ?
O6 C24 1.156(14) . ?
O4 C17 1.213(15) . ?
O2 C1 1.273(17) . ?
O1 C1 1.294(16) . ?
O5 C24 1.203(16) . ?
C1 C2 1.517(18) . ?
C17 C14 1.479(18) . ?
C24 C21 1.544(19) . ?
C14 C13 1.383(17) . ?
C14 C15 1.398(19) . ?
C2 C3 1.418(19) . ?
C2 C7 1.341(19) . ?
N2 C9 1.371(19) . ?
N2 C10 1.334(19) . ?
N1 C9 1.331(19) . ?
N1 C8 1.348(19) . ?
C4 H4 0.9500 . ?
C4 C5 1.412(19) . ?
C4 C3 1.380(19) . ?
C21 C22 1.342(19) . ?
C21 C20 1.36(2) . ?
C13 H13 0.9500 . ?
C13 C12 1.38(2) . ?
C5 C6 1.415(19) . ?
C5 C8 1.47(2) . ?
C11 C9 1.51(2) . ?
C11 C12 1.420(19) . ?
C11 C16 1.352(18) . ?
C19 H19 0.9500 . ?
C19 C18 1.34(2) . ?
C19 C20 1.42(2) . ?
N3 C8 1.32(2) . ?
N3 C10 1.33(2) . ?
C6 H6 0.9501 . ?
C6 C7 1.400(19) . ?
C15 H15 0.9500 . ?
C15 C16 1.41(2) . ?
C12 H12 0.9500 . ?
C3 H3 0.9499 . ?
C22 H22 0.9500 . ?
C22 C23 1.38(2) . ?
C7 H7 0.9499 . ?
C16 H16 0.9500 . ?
C18 C10 1.53(2) . ?
C18 C23 1.44(2) . ?
C20 H20 0.9500 . ?
C23 H23 0.9500 . ?
loop_
_geom_torsion_atom_site_label_1
_geom_torsion_atom_site_label_2
_geom_torsion_atom_site_label_3
_geom_torsion_atom_site_label_4
_geom_torsion
_geom_torsion_site_symmetry_1
_geom_torsion_site_symmetry_2
_geom_torsion_site_symmetry_3
_geom_torsion_site_symmetry_4
_geom_torsion_publ_flag
Co1 O6 C24 O5 -54(3) 4_464 . . . ?
Co1 O6 C24 C21 125.9(14) 4_464 . . . ?
Co1 O4 C17 O3 -48(2) 2_664 . . . ?
Co1 O4 C17 C14 130.8(12) 2_664 . . . ?
Co1 O2 C1 O1 -68(2) . . . . ?
Co1 O2 C1 C2 114.5(14) . . . . ?
Co2 O3 C17 O4 -5.3(19) 2_664 . . . ?
Co2 O3 C17 C14 176.5(9) 2_664 . . . ?
Co2 O1 C1 O2 -2.4(19) . . . . ?
Co2 O1 C1 C2 174.8(9) . . . . ?
Co2 O5 C24 O6 -5(2) 7_455 . . . ?
Co2 O5 C24 C21 174.5(10) 7_455 . . . ?
O3 C17 C14 C13 12(2) . . . . ?
O3 C17 C14 C15 -166.9(14) . . . . ?
O6 C24 C21 C22 8(2) . . . . ?
O6 C24 C21 C20 -173.4(16) . . . . ?
O4 C17 C14 C13 -165.9(13) . . . . ?
O4 C17 C14 C15 15(2) . . . . ?
O2 C1 C2 C3 4(2) . . . . ?
O2 C1 C2 C7 -177.1(14) . . . . ?
O1 C1 C2 C3 -173.7(13) . . . . ?
O1 C1 C2 C7 6(2) . . . . ?
O5 C24 C21 C22 -172.2(14) . . . . ?
O5 C24 C21 C20 7(2) . . . . ?
C1 C2 C3 C4 -177.3(13) . . . . ?
C1 C2 C7 C6 179.7(14) . . . . ?
C17 C14 C13 C12 173.2(15) . . . . ?
C17 C14 C15 C16 -177.2(14) . . . . ?
C24 C21 C22 C23 179.9(16) . . . . ?
C24 C21 C20 C19 177.2(17) . . . . ?
C14 C13 C12 C11 6(2) . . . . ?
C14 C15 C16 C11 2(3) . . . . ?
C4 C5 C6 C7 -6(3) . . . . ?
C4 C5 C8 N1 -1(3) . . . . ?
C4 C5 C8 N3 174.8(17) . . . . ?
C21 C22 C23 C18 9(3) . . . . ?
C13 C14 C15 C16 3(2) . . . . ?
C5 C4 C3 C2 -7(2) . . . . ?
C5 C6 C7 C2 2(2) . . . . ?
C9 N2 C10 N3 1(3) . . . . ?
C9 N2 C10 C18 174.8(18) . . . . ?
C9 N1 C8 C5 176.7(16) . . . . ?
C9 N1 C8 N3 2(3) . . . . ?
C9 C11 C12 C13 178.6(15) . . . . ?
C9 C11 C16 C15 177.5(15) . . . . ?
C19 C18 C10 N2 4(3) . . . . ?
C19 C18 C10 N3 178(2) . . . . ?
C19 C18 C23 C22 -17(3) . . . . ?
C6 C5 C8 N1 170.4(17) . . . . ?
C6 C5 C8 N3 -14(3) . . . . ?
C15 C14 C13 C12 -7(2) . . . . ?
C12 C11 C9 N2 163.6(16) . . . . ?
C12 C11 C9 N1 -7(2) . . . . ?
C12 C11 C16 C15 -4(3) . . . . ?
C3 C2 C7 C6 -1(2) . . . . ?
C3 C4 C5 C6 8(2) . . . . ?
C3 C4 C5 C8 179.9(15) . . . . ?
C22 C21 C20 C19 -4(3) . . . . ?
C7 C2 C3 C4 4(2) . . . . ?
C16 C11 C9 N2 -18(2) . . . . ?
C16 C11 C9 N1 171.5(16) . . . . ?
C16 C11 C12 C13 0(3) . . . . ?
C18 C19 C20 C21 -4(3) . . . . ?
C8 N1 C9 N2 4(3) . . . . ?
C8 N1 C9 C11 173.3(16) . . . . ?
C8 C5 C6 C7 -177.1(17) . . . . ?
C8 N3 C10 N2 4(4) . . . . ?
C8 N3 C10 C18 -170(2) . . . . ?
C20 C21 C22 C23 1(3) . . . . ?
C20 C19 C18 C10 176(2) . . . . ?
C20 C19 C18 C23 14(3) . . . . ?
C10 N2 C9 N1 -5(3) . . . . ?
C10 N2 C9 C11 -175.0(17) . . . . ?
C10 N3 C8 N1 -5(3) . . . . ?
C10 N3 C8 C5 179.8(18) . . . . ?
C10 C18 C23 C22 -179.8(18) . . . . ?
C23 C18 C10 N2 166(2) . . . . ?
C23 C18 C10 N3 -20(3) . . . . ?
