#------------------------------------------------------------------------------
#$Date: 2021-11-03 22:01:22 +0200 (Wed, 03 Nov 2021) $
#$Revision: 270224 $
#$URL: file:///home/coder/svn-repositories/cod/cif/4/51/90/4519083.cif $
#------------------------------------------------------------------------------
#
# This file is available in the Crystallography Open Database (COD),
# http://www.crystallography.net/
#
# All data on this site have been placed in the public domain by the
# contributors.
#
data_4519083
loop_
_publ_author_name
'Wang, Lu'
'Wang, Kecheng'
'An, Hao-Tian'
'Huang, Hongliang'
'Xie, Lin-Hua'
'Li, Jian-Rong'
_publ_section_title
;
 A Hydrolytically Stable Cu(II)-Based Metal-Organic Framework with Easily
 Accessible Ligands for Water Harvesting.
;
_journal_issue                   41
_journal_name_full               'ACS applied materials &amp; interfaces'
_journal_page_first              49509
_journal_page_last               49518
_journal_paper_doi               10.1021/acsami.1c15240
_journal_volume                  13
_journal_year                    2021
_chemical_formula_sum            'C14 H12 Cu2 N10 O4'
_chemical_formula_weight         511.42
_space_group_crystal_system      tetragonal
_space_group_IT_number           88
_space_group_name_Hall           '-I 4ad'
_space_group_name_H-M_alt        'I 41/a :2'
_atom_sites_solution_hydrogens   geom
_audit_creation_method           SHELXL-2018/1
_cell_angle_alpha                90
_cell_angle_beta                 90
_cell_angle_gamma                90
_cell_formula_units_Z            8
_cell_length_a                   15.8050(6)
_cell_length_b                   15.8050(6)
_cell_length_c                   22.386(3)
_cell_measurement_reflns_used    1704
_cell_measurement_temperature    293(2)
_cell_measurement_theta_max      67.5140
_cell_measurement_theta_min      5.5710
_cell_volume                     5592.0(8)
_computing_cell_refinement       'CrysAlisPro 1.171.40.53 (Rigaku OD, 2019)'
_computing_data_collection       'CrysAlisPro 1.171.40.53 (Rigaku OD, 2019)'
_computing_data_reduction        'CrysAlisPro 1.171.40.53 (Rigaku OD, 2019)'
_computing_structure_refinement  'SHELXL-2018/1 (Sheldrick, 2018)'
_diffrn_ambient_temperature      293(2)
_diffrn_detector_area_resol_mean 5.1688
_diffrn_measured_fraction_theta_full 0.997
_diffrn_measured_fraction_theta_max 0.990
_diffrn_measurement_device_type  'SuperNova, Dual, Cu at home/near, AtlasS2'
_diffrn_measurement_method       '\w scans'
_diffrn_radiation_type           CuK\a
_diffrn_radiation_wavelength     1.54178
_diffrn_reflns_av_R_equivalents  0.0980
_diffrn_reflns_av_unetI/netI     0.0659
_diffrn_reflns_Laue_measured_fraction_full 0.997
_diffrn_reflns_Laue_measured_fraction_max 0.990
_diffrn_reflns_limit_h_max       19
_diffrn_reflns_limit_h_min       -16
_diffrn_reflns_limit_k_max       19
_diffrn_reflns_limit_k_min       -17
_diffrn_reflns_limit_l_max       27
_diffrn_reflns_limit_l_min       -27
_diffrn_reflns_number            16644
_diffrn_reflns_point_group_measured_fraction_full 0.997
_diffrn_reflns_point_group_measured_fraction_max 0.990
_diffrn_reflns_theta_full        67.679
_diffrn_reflns_theta_max         76.497
_diffrn_reflns_theta_min         3.423
_diffrn_source                   'micro-focus sealed X-ray tube'
_exptl_absorpt_coefficient_mu    2.168
_exptl_absorpt_correction_T_max  1.00000
_exptl_absorpt_correction_T_min  0.31040
_exptl_absorpt_correction_type   multi-scan
_exptl_absorpt_process_details
; 
CrysAlisPro 1.171.40.53 (Rigaku Oxford Diffraction, 2019) 
Empirical absorption correction using spherical harmonics, 
 implemented in SCALE3 ABSPACK scaling algorithm. 
;
_exptl_crystal_density_diffrn    1.215
_exptl_crystal_description       block
_exptl_crystal_F_000             2048
_refine_diff_density_max         0.406
_refine_diff_density_min         -0.471
_refine_diff_density_rms         0.067
_refine_ls_extinction_coef       0.00011(3)
_refine_ls_extinction_expression Fc^*^=kFc[1+0.001xFc^2^\l^3^/sin(2\q)]^-1/4^
_refine_ls_extinction_method     'SHELXL-2018/1 (Sheldrick 2018)'
_refine_ls_goodness_of_fit_ref   1.034
_refine_ls_hydrogen_treatment    constr
_refine_ls_matrix_type           full
_refine_ls_number_parameters     137
_refine_ls_number_reflns         2909
_refine_ls_number_restraints     0
_refine_ls_restrained_S_all      1.034
_refine_ls_R_factor_all          0.1024
_refine_ls_R_factor_gt           0.0585
_refine_ls_shift/su_max          0.001
_refine_ls_shift/su_mean         0.000
_refine_ls_structure_factor_coef Fsqd
_refine_ls_weighting_details
'w=1/[\s^2^(Fo^2^)+(0.0811P)^2^+2.6025P] where P=(Fo^2^+2Fc^2^)/3'
_refine_ls_weighting_scheme      calc
_refine_ls_wR_factor_gt          0.1520
_refine_ls_wR_factor_ref         0.1838
_reflns_Friedel_coverage         0.000
_reflns_number_gt                1745
_reflns_number_total             2909
_reflns_threshold_expression     'I > 2\s(I)'
_cod_data_source_file            am1c15240_si_002.cif
_cod_data_source_block           BUT-205
_cod_original_sg_symbol_H-M      'I 41/a'
_cod_database_code               4519083
_shelx_shelxl_version_number     2018/1
_shelx_space_group_comment
; 
The symmetry employed for this shelxl refinement is uniquely defined 
by the following loop, which should always be used as a source of 
symmetry information in preference to the above space-group names. 
They are only intended as comments. 
;
_shelx_res_file
; 
TITL shelxt_a.res in I4(1)/a 
    shelx.res 
    created by SHELXL-2018/1 at 09:00:30 on 05-Jan-2021 
CELL  1.54178  15.8050  15.8050  22.3859   90.000   90.000   90.000 
ZERR     8.00   0.0006   0.0006   0.0028    0.000    0.000    0.000 
LATT   2 
SYMM  1/2 - X, - Y, 1/2 + Z 
SYMM  3/4 - Y, 1/4 + X, 1/4 + Z 
SYMM  3/4 + Y, 3/4 - X, 3/4 + Z 
SFAC  C    H    N    O    CU 
UNIT  112 96 80 32 16 
MERG   2 
FMAP   2 
acta 
PLAN   20 
BOND   $H 
LIST   6 
L.S.  10 
WGHT    0.081100    2.602500 
EXTI    0.000107 
FVAR       0.15204 
CU1   5    1.042199    0.524252    0.445102    11.00000    0.05345    0.05283 = 
         0.05191    0.01403    0.00240    0.00329 
O2    4    0.932034    0.376384    0.501770    11.00000    0.08175    0.06885 = 
         0.06319    0.00515   -0.00369   -0.01221 
O1    4    1.000064    0.411016    0.418078    11.00000    0.09823    0.04962 = 
         0.07575    0.00362    0.01359   -0.00864 
N1    3    0.929517    0.573837    0.429394    11.00000    0.05398    0.06038 = 
         0.05383    0.01325   -0.00906    0.00230 
N2    3    0.825310    0.645755    0.382821    11.00000    0.06510    0.06794 = 
         0.04836    0.01379   -0.01080    0.00099 
N3    3    0.857219    0.536058    0.519917    11.00000    0.05686    0.08874 = 
         0.07464    0.02744    0.00759    0.01604 
C3    1    0.863135    0.572893    0.465288    11.00000    0.05421    0.05552 = 
         0.06175    0.00988   -0.00870    0.00846 
C1    1    0.903873    0.617620    0.380547    11.00000    0.05830    0.06760 = 
         0.05264    0.01443   -0.00847    0.00592 
AFIX  43 
H1    2    0.939001    0.627110    0.347898    11.00000   -1.20000 
AFIX   0 
C6    1    0.961187    0.360686    0.451767    11.00000    0.07530    0.05305 = 
         0.07439    0.00540   -0.01286   -0.00339 
C2    1    0.798481    0.616993    0.437114    11.00000    0.06018    0.08349 = 
         0.05923    0.01731   -0.00227    0.00936 
N4    3    0.717712    0.588416    0.523590    11.00000    0.08810    0.24495 = 
         0.10824    0.09944    0.04285    0.08096 
N5    3    0.656418    0.667071    0.446485    11.00000    0.07857    0.30113 = 
         0.12562    0.09334    0.01892    0.09398 
AFIX  93 
H5A   2    0.658607    0.690658    0.411899    11.00000   -1.20000 
H5B   2    0.610986    0.670342    0.467500    11.00000   -1.20000 
AFIX   0 
C7    1    0.954501    0.271485    0.430209    11.00000    0.09842    0.05270 = 
         0.12957    0.00408   -0.02091   -0.01041 
AFIX  23 
H7A   2    0.931270    0.270746    0.390106    11.00000   -1.20000 
H7B   2    0.916691    0.239874    0.456032    11.00000   -1.20000 
AFIX   0 
C4    1    0.723916    0.625148    0.467667    11.00000    0.06987    0.18257 = 
         0.10096    0.05074    0.01336    0.04395 
C5    1    0.783218    0.546590    0.545965    11.00000    0.07505    0.18679 = 
         0.10625    0.06856    0.03467    0.04951 
AFIX  43 
H5    2    0.776256    0.522457    0.583534    11.00000   -1.20000 
AFIX   0 
HKLF    4 
  
  
  
  
REM  shelxt_a.res in I4(1)/a 
REM R1 =  0.0585 for    1745 Fo > 4sig(Fo)  and  0.1024 for all    2909 data 
REM    137 parameters refined using      0 restraints 
  
END 
  
WGHT      0.0799      2.7932 
  
REM Highest difference peak  0.406,  deepest hole -0.471,  1-sigma level  0.067 
Q1    1   0.8832  0.3004  0.4210  11.00000  0.05    0.41 
Q2    1   0.7769  0.6114  0.4864  11.00000  0.05    0.37 
Q3    1   1.0000  0.5000  0.5000  10.50000  0.05    0.37 
Q4    1   0.6184  0.6234  0.5820  11.00000  0.05    0.35 
Q5    1   0.8935  0.5317  0.5298  11.00000  0.05    0.32 
Q6    1   0.7949  0.6687  0.3569  11.00000  0.05    0.29 
Q7    1   0.9923  0.5665  0.4806  11.00000  0.05    0.27 
Q8    1   0.9581  0.5724  0.4279  11.00000  0.05    0.26 
Q9    1   0.9856  0.5407  0.4585  11.00000  0.05    0.24 
Q10   1   0.9564  0.4462  0.4992  11.00000  0.05    0.24 
Q11   1   0.7513  0.6584  0.4372  11.00000  0.05    0.23 
Q12   1   0.9197  0.5869  0.4075  11.00000  0.05    0.23 
Q13   1   0.9523  0.4230  0.4190  11.00000  0.05    0.23 
Q14   1   0.9177  0.3701  0.4437  11.00000  0.05    0.23 
Q15   1   0.9846  0.4906  0.4187  11.00000  0.05    0.23 
Q16   1   0.9190  0.4100  0.5297  11.00000  0.05    0.23 
Q17   1   0.9204  0.4841  0.4981  11.00000  0.05    0.21 
Q18   1   0.7826  0.6693  0.3986  11.00000  0.05    0.21 
Q19   1   0.9396  0.5869  0.3273  11.00000  0.05    0.21 
Q20   1   0.7613  0.6058  0.3672  11.00000  0.05    0.21 
;
_shelx_res_checksum              1399
_shelx_hkl_file
; 
   0   0  -4 1179.83   26.47 
   0   0   4 1161.41   17.61 
   0   0   6    1.19    2.34 
   0   0  -6    1.28    4.80 
   0   0   8 2942.81   42.34 
   0   0  -8 3128.06   63.48 
   0   0 -10   -0.48    5.94 
   0   0 -12  634.00   38.52 
   0   0  14    5.14    9.63 
   0   0 -14  -11.68    9.72 
   0   0  16  633.76   50.98 
   0   0 -16  602.72   47.54 
   0   0  18   12.07    7.70 
   0   0  20   49.47   10.77 
   0   0  22   -7.41    5.73 
   0   0  24    2.55    5.62 
   0   0  24    0.21    4.03 
   0   0  26    0.62    3.74 
   0   0  26    2.50    3.15 
  -1   0   1 5597.12   43.47 
   0   1   3  365.15   12.64 
   0   1   3  369.01   13.12 
   0  -1  -3  349.72   12.30 
  -1   0  -3  369.99   12.36 
   1   0   3  368.39   13.01 
  -1   0   5  175.26    7.92 
  -1   0  -5  167.34   11.86 
   1   0   5  180.33   11.44 
   0   1   5  161.79   10.17 
   0  -1  -5  167.26   11.86 
   0   1   7  499.03   18.71 
  -1   0  -7  519.09   23.78 
   1   0  -7  544.77   25.97 
   1   0   7  541.71   21.59 
   0  -1  -7  509.79   23.44 
   0   1  -7  533.48   25.70 
   0  -1  -9  148.05   15.76 
  -1   0  -9  162.44   16.18 
   1   0   9  154.35   12.91 
  -1   0   9  102.40    6.57 
   0   1   9  134.80   10.86 
   1   0  -9  156.23   17.02 
   0   1  -9  143.39   16.16 
   1   0 -11  188.73   20.58 
   0   1  11  200.77   22.18 
   0   1 -11  186.38   20.70 
  -1   0 -11  179.25   18.99 
   0  -1 -11  173.27   19.01 
  -1   0  13   17.38   11.01 
   1   0 -13   20.60    9.44 
   0   1  13   11.83    9.42 
   0   1 -13   10.92    7.45 
  -1   0 -13   21.39    8.98 
   0  -1 -13   19.67    9.59 
  -1   0  15  261.58   33.13 
   0   1 -15  242.06   29.00 
  -1   0 -15  257.20   29.85 
   1   0  15  248.51   30.52 
   0  -1 -15  257.90   29.95 
   0   1  15  257.09   30.75 
   1   0 -15  254.90   30.87 
   0   1 -17  101.89   21.38 
   1   0 -17   98.74   21.21 
  -1   0  17  101.52   23.48 
   0  -1  17  114.44   25.72 
   0   1  17  101.28   13.69 
  -1   0  17  116.89   15.28 
   1   0  17  108.02   14.03 
   0  -1  17  114.79   15.44 
   0   1  19   26.21    9.53 
   1   0  19   15.11    6.96 
   0  -1  19   23.28    9.46 
  -1   0  19   13.74    8.30 
   0   1  21    8.32    5.59 
   0  -1  21    8.17    5.58 
   1   0  21   21.02    8.03 
  -1   0  21   18.37    7.60 
   1   0  23    0.37    4.45 
   0  -1  23   -2.15    4.71 
  -1   0  23    7.30    5.64 
   0   1  23   -7.95    5.72 
   1   0  23    3.92    4.24 
  -1   0  25    0.94    4.13 
   0   1  25   -1.21    4.42 
   1   0  25    4.87    4.87 
   0  -1  25    6.85    4.92 
   0   1 -25    1.30    4.33 
   0  -1  25    3.98    3.87 
  -1   0  25    1.12    3.93 
   0   1  25    1.52    3.89 
   1   0  25   -2.85    3.52 
  -1   0  27    9.24    3.29 
   0   1  27    3.45    2.34 
  -1   1   0   -0.50    1.15 
   1   1  -2    4.23    1.40 
  -1   1   2    5.11    2.55 
  -1  -1  -4    4.54    2.69 
  -1   1  -4    0.30    3.47 
   1   1   4    1.62    2.60 
  -1   1   4    1.22    3.29 
   1  -1  -4    1.90    3.44 
   1   1   6  160.87   11.37 
  -1   1  -6  183.79   14.38 
  -1   1   6  182.65   15.00 
  -1  -1  -6  157.34   11.49 
  -1   1   6  161.74   10.77 
   1  -1  -6  177.85   14.24 
   1   1  -8  201.85   17.78 
  -1   1   8  211.97   19.03 
  -1   1   8  198.21   12.36 
   1  -1  -8  214.24   17.83 
   1   1   8  188.12   13.53 
  -1  -1  -8  189.33   15.17 
  -1   1  -8  205.55   17.64 
  -1   1  10   87.17    8.36 
  -1   1  10  125.47   16.99 
   1   1 -10  111.62   15.97 
  -1  -1 -10  107.77   14.18 
   1  -1 -10  124.98   15.97 
   1   1  10  110.87   11.59 
  -1   1 -10  108.67   15.30 
   1   1  12   -0.16    5.82 
  -1   1 -12    0.12    5.89 
  -1   1  12    4.83    6.51 
   1  -1 -12    5.79    7.65 
  -1  -1 -12    6.65    7.60 
   1   1 -12   -6.77    8.26 
  -1   1  14   25.56   11.45 
   1   1 -14   49.08   14.01 
   1   1  14   41.08   12.86 
  -1   1 -14   41.57   13.83 
  -1  -1 -14   33.49   11.25 
   1  -1 -14   45.83   12.91 
   1  -1 -16   14.90   13.33 
   1   1 -16  -16.71   11.96 
  -1  -1  16    8.53   12.92 
  -1   1 -16   11.82   11.95 
  -1   1  16   -4.14    8.56 
   1   1 -18    0.94    9.42 
  -1  -1  18   13.62   10.08 
   1  -1  18   -0.70    7.11 
  -1   1  18   22.54    9.46 
   1   1  18   18.72    8.44 
  -1  -1  18   15.39    8.58 
   1  -1  20   -7.20    7.08 
   1   1  20    9.70    7.23 
  -1  -1  20    1.33    5.97 
  -1   1  20   -4.58    6.41 
   1  -1  22    0.79    4.85 
   1   1  22  -10.01    6.73 
  -1  -1  22   -2.23    5.75 
  -1   1  22    2.63    5.34 
   1   1  22    2.78    3.90 
  -1   1 -24   18.46    6.88 
   1   1  24   10.39    5.84 
  -1  -1  24   32.34    7.74 
  -1   1  24   11.17    6.20 
   1  -1  24   17.61    6.48 
   1   1  24   25.39    6.32 
  -1   1  24   22.67    6.22 
   1  -1  24   13.91    4.88 
  -1   1  26    0.84    3.51 
   1   1 -26    8.71    4.39 
  -1   1  26   -1.25    3.81 
   1   1  26    3.11    2.56 
  -1  -1  26    2.68    3.04 
   1   2  -1 5049.25   46.82 
  -2   1  -1 4961.41   53.69 
  -2   1   1 4784.79   56.26 
   1   2  -1 4768.62   47.81 
  -1  -2  -3  228.47    7.80 
  -2   1   3  214.61   13.89 
   1   2  -3  230.44    8.65 
   1   2   3  232.08    8.03 
   1   2   5  205.89   11.26 
  -1  -2  -5  198.03   10.49 
   1   2   5  208.08   13.63 
  -2   1   5  220.16   16.60 
   1   2  -7 1047.95   37.80 
  -1  -2  -7  963.38   29.14 
  -2   1  -7 1034.15   35.95 
   1   2   7 1060.34   33.06 
   2  -1  -7 1059.74   38.74 
   1   2   7 1024.72   31.85 
  -2   1   7 1075.04   40.64 
   1   2   9  572.72   28.45 
  -1  -2  -9  540.65   26.56 
  -2   1   9  597.85   35.00 
  -2   1   9  519.84   20.97 
   1   2  -9  568.79   32.08 
   1   2   9  537.94   25.72 
   2  -1  -9  580.84   32.16 
  -2   1  -9  556.01   30.29 
   2  -1 -11  204.23   22.25 
  -2   1 -11  175.86   19.93 
  -1  -2 -11  177.07   19.02 
   1   2  11  192.98   20.08 
   1   2  11  162.36   15.34 
   1   2 -11  188.27   21.29 
  -2   1  11  182.41   22.47 
  -1  -2 -13  162.95   21.39 
   2  -1 -13  192.45   24.20 
   1   2 -13  173.06   22.45 
  -2   1 -13  148.73   21.41 
   1   2  13  179.33   21.10 
  -2   1  13  175.46   24.92 
   1   2 -15   26.29   12.65 
  -2   1  15   52.31   17.38 
   2  -1 -15   25.79   12.94 
   2  -1 -17    1.53   10.63 
   1   2 -17   40.23   15.43 
  -2   1  17   36.67   17.10 
  -1  -2  17   35.23   15.91 
  -2   1  17   32.24    8.58 
   1   2  17   22.83    8.45 
  -1  -2  17   29.49   10.66 
   2  -1  17   32.05   10.05 
   1   2 -19   19.90   14.08 
  -1  -2  19    8.06   12.97 
  -2   1  19   11.85    7.53 
   1   2  19   16.72    7.74 
  -1  -2  19   19.19    8.67 
   2  -1  19   22.07    7.34 
   2  -1  21    1.09    5.34 
  -1  -2  21   -0.24    5.08 
   1   2  21    3.23    5.35 
  -2   1  21   -0.28    5.45 
   1   2  21    7.72    5.42 
   2  -1  23   19.65    7.33 
   1   2  23   14.77    6.44 
  -1  -2  23   16.16    7.53 
  -2   1  23   14.58    7.13 
   1   2 -25    1.43    4.30 
   1   2  25    7.48    5.30 
   2  -1  25   -1.58    4.34 
  -2   1  25   -1.56    3.80 
  -1  -2  25    1.10    2.94 
  -2   1  25    5.05    4.31 
   1   2  25   -4.63    4.01 
   1   2  27    2.02    3.34 
  -2   1  27    1.03    2.38 
  -2   0   0  272.02   11.17 
   0   2   0  291.95   11.74 
  -2   0   2 2416.14   40.81 
   0   2   2 2465.54   32.25 
  -2   0  -2 2458.15   31.70 
  -2   0   4  420.07   20.95 
   0   2   4  380.43   16.29 
   0  -2  -4  396.50   16.16 
   2   0   4  396.22   18.06 
   0   2   4  408.84   17.69 
   0   2  -6  715.21   29.07 
  -2   0  -6  677.95   24.83 
   0   2   6  692.80   25.27 
   0  -2  -6  674.05   24.94 
   2   0   6  724.52   27.09 
   0   2   6  694.79   26.46 
   0   2   8    5.39    3.89 
   0  -2  -8    4.68    4.72 
   2   0   8    3.85    6.15 
   0   2  -8    5.84    6.14 
  -2   0  -8    3.44    4.32 
   2   0  -8   10.07    6.10 
   0   2   8    2.30    4.68 
  -2   0   8    2.82    1.92 
   2   0 -10  806.66   40.23 
   0   2  10  701.25   28.57 
   0  -2 -10  722.04   35.76 
  -2   0  10  807.78   44.23 
   0   2 -10  739.26   38.04 
   0   2  10  774.07   38.04 
  -2   0 -10  721.40   35.66 
   0   2  12   94.69   16.02 
  -2   0  12  103.89   18.43 
   0  -2 -12   93.52   15.96 
   2   0 -12   84.72   15.79 
  -2   0 -12  100.97   16.13 
   0   2 -12  100.32   16.75 
   0   2 -14  109.28   19.20 
   0  -2 -14  136.09   21.29 
   2   0 -14  140.99   21.93 
   0   2  14  122.61   19.39 
  -2   0  14  140.29   24.63 
  -2   0 -14  127.06   20.68 
  -2   0  16   11.68   10.58 
   2   0 -16    2.37    8.72 
   2   0  16    3.52    5.49 
  -2   0  18  172.37   31.90 
   2   0 -18  164.50   29.34 
   0  -2  18  161.64   31.63 
   0   2 -18  167.37   29.38 
   0  -2  18  194.20   20.66 
  -2   0  18  178.33   18.76 
   2   0  18  188.31   19.48 
   0   2  18  178.13   17.99 
   2   0  20    1.22    6.22 
   0   2  20    1.47    5.72 
  -2   0  20   -6.46    6.68 
   0  -2  20   12.09    7.35 
   2   0  22   16.21    7.06 
   0  -2  22   -1.49    4.89 
  -2   0  22    6.63    5.51 
   0   2  22   21.20    7.49 
   2   0  22   18.02    6.16 
   0   2  22   19.36    7.00 
   0  -2  24   -5.71    4.88 
   0   2 -24    3.34    5.27 
   2   0  24   -1.03    4.05 
  -2   0  24    0.87    4.25 
   0   2  24  -13.07    6.00 
   0   2  24    4.99    4.07 
   0  -2  24    9.98    4.65 
   2   0  24   -0.08    3.10 
   0   2  26   22.11    6.31 
   0   2 -26   10.37    4.34 
  -2   0  26   15.18    4.63 
   2   0 -26   14.10    5.21 
   2   0  26   12.01    4.60 
  -2   0  26   10.21    4.17 
   0   2  26   13.86    4.75 
  -1   2  -1  112.47    8.70 
   2   1   1  110.58    5.12 
   2   1  -1  104.49    7.23 
  -2  -1  -1  104.90    5.14 
  -1   2   1  110.01    8.39 
  -1   2   3    7.67    3.95 
   1  -2  -5   22.91    6.93 
  -1   2  -5   16.74    5.91 
   2   1   5   15.53    5.57 
  -2  -1  -5   17.40    4.48 
  -1   2   5   12.91    5.35 
   2   1  -7   -2.55    5.24 
  -2  -1  -7   -1.58    3.79 
   1  -2  -7    8.11    5.87 
   2   1   7    3.57    4.91 
  -1   2  -7    8.66    6.77 
  -1   2   7   -3.00    3.32 
  -1   2   7   -3.47    4.84 
   2   1   9  551.83   26.98 
  -1   2   9  570.95   32.14 
  -1   2  -9  558.11   31.09 
   1  -2  -9  552.30   30.75 
   2   1  -9  561.63   32.45 
  -2  -1  -9  556.73   27.94 
  -1   2   9  548.72   24.69 
   2   1 -11   80.18   14.30 
  -1   2 -11   90.07   14.52 
  -1   2  11   80.70   14.80 
   2   1  11   66.74   10.34 
  -1   2  11   56.96    8.79 
   1  -2 -11   62.14   12.88 
  -2  -1 -11   69.62   12.57 
   2   1 -13   84.78   17.28 
   1  -2 -13   70.88   15.41 
  -2  -1 -13   81.04   16.79 
  -1   2 -13   67.86   14.50 
  -1   2  13   74.13   16.45 
  -2  -1  13   75.71   18.42 
   2   1  13   72.16   14.41 
   1  -2 -15   11.72   11.30 
  -1   2  15    5.53   10.50 
  -1   2 -15    4.88    8.19 
  -2  -1  15   21.33   12.57 
   2   1 -15    0.19    8.32 
   2   1 -17   84.62   20.70 
  -2  -1  17  107.97   26.15 
  -2  -1  17   71.29   14.23 
   1  -2  17  106.19   16.72 
   2   1  17   89.99   13.81 
  -1   2  17   94.85   13.26 
   2   1 -19   47.78   17.32 
  -2  -1  19   56.58   21.27 
   1  -2  19   63.64   12.71 
  -2  -1  19   62.00   13.16 
   2   1  19   48.75   10.67 
  -1   2  19   48.29   10.38 
  -1   2  21   -8.32    5.44 
   2   1  21   -0.58    5.23 
  -2  -1  21   -2.72    5.96 
   1  -2  21    9.50    6.82 
   2   1  21    0.28    3.96 
   1  -2  23   21.88    7.47 
  -1   2  23   29.43    7.71 
  -1   2 -23   28.92    8.58 
   2   1  23   31.35    8.41 
  -2  -1  23   27.89    8.08 
   1  -2  23   30.77    6.44 
  -1   2  23   39.75    9.00 
   2   1  23   32.92    7.43 
  -2  -1  25   18.61    6.11 
  -1   2 -25   18.29    6.34 
   2   1  25   17.47    5.92 
  -1   2  25   21.62    7.01 
   2   1  25   18.30    5.27 
  -1   2  25   28.53    6.54 
  -2  -1  25   26.65    6.47 
  -1   2  27    6.01    3.74 
   2   1 -27    5.58    2.78 
  -1   2  27    1.69    2.74 
  -2  -1  27    4.11    2.47 
  -2   2   0 1245.97   31.23 
   2   2   0 1220.17   21.56 
  -2   2  -2  171.11   12.32 
  -2   2   2  176.15   13.04 
   2   2  -2  173.94   10.76 
   2   2  -2  167.30   11.10 
   2   2  -4   30.58    4.92 
   2   2   4   34.70    6.79 
  -2   2   4   44.56    8.47 
   2  -2  -4   36.79    7.50 
   2   2  -6  107.14   12.25 
   2   2   6  111.29    8.71 
  -2  -2  -6  102.47    8.33 
   2  -2  -6  117.93   13.46 
   2   2   6  106.95   11.42 
  -2   2   6  111.59   13.49 
   2  -2  -8 1159.30   43.81 
   2   2  -8 1152.78   43.63 
   2   2   8 1110.85   38.00 
  -2   2   8 1130.54   37.24 
  -2   2   8 1167.90   45.39 
  -2  -2  -8 1133.62   34.08 
   2   2   8 1115.20   33.96 
  -2   2  -8 1146.85   42.69 
  -2   2 -10    2.37    5.50 
  -2   2  10    9.52    4.63 
  -2  -2 -10   15.32    6.91 
   2   2  10    1.83    4.82 
   2   2 -10   13.04    7.02 
   2   2  10   10.94    6.15 
  -2   2  10   22.54   10.29 
   2  -2 -10    7.02    6.68 
   2   2 -12  106.73   17.88 
   2   2  12   76.50   12.66 
  -2   2  12   85.10   16.52 
   2   2  12   79.52   12.18 
  -2   2 -12   97.54   16.09 
   2  -2 -12   88.45   16.40 
   2   2 -14   38.36   12.91 
  -2   2  14   33.64   11.96 
   2  -2 -14   44.33   13.68 
   2   2 -16  204.93   29.92 
   2  -2 -16  179.50   26.97 
  -2   2  16  166.89   27.91 
  -2  -2  16  193.13   32.48 
   2  -2  16  177.31   19.17 
  -2   2  16  144.44   15.20 
   2   2  16  190.59   17.74 
   2   2 -18   10.52   13.00 
  -2  -2  18   28.75   17.35 
  -2   2  18    2.11    6.04 
   2  -2  18   11.77    8.48 
   2   2  18   16.82    7.19 
  -2  -2  18   14.68    9.98 
   2   2  20   74.84   13.01 
   2  -2  20   72.20   13.07 
  -2  -2  20   68.90   12.62 
  -2   2  20   82.34   13.25 
   2   2  20   80.60   12.37 
  -2   2 -22   40.64   10.53 
   2   2  22   36.82    8.94 
   2  -2  22   30.10    8.88 
  -2   2  22   42.85   10.18 
  -2  -2  22   40.21   10.16 
   2   2  22   44.20    8.70 
   2   2  24    7.12    4.81 
  -2  -2  24    9.19    4.38 
   2  -2  24    6.93    4.35 
  -2   2  24   -0.91    4.56 
   2   2  24   12.94    5.03 
   2   2  26    2.74    3.97 
   2   2 -26   -2.30    3.76 
  -2   2  26    1.66    4.20 
  -2   2  26    2.46    3.24 
  -2  -2  26    1.72    2.73 
   2   2  26    4.62    2.89 
  -3   2   1 1520.85   39.95 
  -3   2  -1 1511.47   38.81 
   2   3  -1 1479.63   34.15 
   2   3  -1 1462.45   32.27 
   2   3  -3   35.48    6.08 
   2   3  -3   31.33    7.20 
  -3   2   3   31.56    7.74 
   2   3   5  503.46   24.40 
   2   3  -5  473.99   15.96 
   2   3  -5  498.28   24.90 
  -3   2   5  500.00   27.29 
   3  -2  -5  517.95   26.84 
   2   3   7  407.93   15.80 
   2   3   7  474.12   25.86 
   2   3  -7  456.65   27.04 
   3  -2  -7  478.44   28.71 
  -2  -3  -7  432.97   17.32 
  -3   2   7  477.47   29.70 
   3  -2  -9   10.15    5.73 
   2   3   9   10.54    5.39 
   2   3   9   16.45    5.04 
  -3   2   9   17.52    8.02 
  -2  -3  -9   16.60    6.00 
   2   3  -9   12.26    8.03 
  -3   2  11   38.77   12.69 
   3  -2 -11   47.65   12.81 
   2   3  11   31.94    9.03 
   2   3 -11   40.65   12.58 
  -3   2  13  167.71   27.22 
   3  -2 -13  128.71   20.76 
   2   3 -13  107.51   19.48 
   3  -2 -15  262.38   31.32 
   2   3 -15  261.81   32.43 
  -3   2  15  234.59   32.16 
   2   3 -17   29.22   13.35 
  -3   2  17   42.55   16.36 
  -2  -3  17   25.05   16.48 
   3  -2 -17   25.13   14.08 
   3  -2  17   36.01    9.95 
  -2  -3  17   26.55   10.30 
   2   3  17   41.87    9.86 
  -3   2  17   32.36    9.31 
   2   3  17   35.46    9.06 
  -2  -3  19   32.08   16.77 
   2   3 -19   29.09   15.39 
   2   3  19   23.23    8.14 
  -3   2 -19   18.78    8.21 
  -2  -3  19   45.78   11.01 
  -3   2  19   -1.50    5.64 
   3  -2  19   17.44    7.73 
   2   3  19   14.39    6.43 
  -3   2  21  109.33   14.39 
   2   3  21  122.51   15.19 
   3  -2  21  105.32   14.07 
  -2  -3  21  103.35   14.96 
   2   3  21  111.20   13.24 
   3  -2  23   -2.34    5.79 
   2   3  23    7.21    6.44 
  -3   2  23    2.66    5.75 
  -2  -3  23    4.53    4.30 
   2   3  23    5.68    4.40 
  -3   2  25    1.95    4.38 
   2   3 -25   -0.45    3.96 
   2   3  25   -0.86    3.77 
   2   3  25   -1.71    2.81 
  -3   2  25   10.75    5.65 
   2   3  27    4.25    3.57 
   2   3 -27    1.87    2.29 
  -3   2  27   10.84    3.81 
  -3   1   0    1.76    3.32 
   1   3  -2 2213.80   41.97 
  -3   1   2 2216.60   47.25 
  -3   1  -2 2174.54   41.84 
   1   3  -2 2170.95   37.21 
  -3   1   4  674.00   29.03 
   1   3   4  673.54   25.95 
  -1  -3  -4  653.71   17.78 
   1   3  -4  657.15   17.34 
   1   3   4  654.07   17.61 
  -1  -3  -6  487.63   18.74 
   1   3  -6  530.96   26.87 
   1   3   6  499.34   19.74 
   1   3   6  543.82   25.12 
   3  -1  -6  537.52   28.08 
  -3   1   6  522.30   28.52 
   1   3   8  137.67   14.11 
  -1  -3  -8  143.93   12.56 
  -3   1   8  136.34   17.17 
   1   3  -8  154.79   17.12 
   1   3   8  143.13   13.46 
   3  -1  -8  153.42   17.71 
   1   3 -10    7.28    6.79 
  -1  -3 -10    1.03    5.25 
   1   3  10    3.57    4.88 
   3  -1 -10    9.12    7.37 
  -3   1  10    5.56    9.00 
   1   3  10   -0.78    5.13 
   1   3  12   24.49    8.90 
   1   3 -12    8.43    7.80 
   1   3  12    4.77    4.36 
   3  -1 -12   10.91    7.41 
  -3   1  12    8.22    8.46 
  -3   1  14  456.20   42.64 
   3  -1 -14  446.80   38.76 
   1   3 -14  450.70   38.94 
  -3   1  16   14.31   15.04 
   3  -1 -16   10.82    9.91 
   1   3 -16   18.27   11.48 
   3  -1  16    8.87    7.75 
   1   3  16    7.91    6.17 
  -1  -3  18   23.93   16.49 
  -3   1  18   14.86   14.11 
   3  -1 -18   -1.13   11.89 
   1   3 -18    5.23   12.07 
  -3   1  18    7.21    6.18 
  -1  -3  18    4.05    7.36 
   3  -1  18    1.80    5.73 
   1   3  18   10.72    5.98 
  -3   1  20    9.10    6.32 
  -1  -3  20    5.64    6.19 
   3  -1  20    1.31    5.87 
   1   3  20   -0.15    5.56 
   1   3  20    5.52    4.29 
  -1  -3  22   28.72    8.67 
   1   3  22   42.14    9.72 
   3  -1  22   42.05    9.81 
  -3   1  22   34.58    9.28 
   1   3  22   48.69    9.60 
   3  -1  24   -3.20    5.09 
   1   3  24   -2.01    4.53 
  -3   1  24    1.46    4.69 
   1   3 -24    9.63    6.76 
   1   3  24    6.71    4.23 
  -3   1  26    0.21    3.34 
   1   3  26    4.51    3.64 
   1   3 -26   -1.19    2.95 
  -3   1  26    0.24    2.91 
   1   3  26    4.38    3.15 
  -3   0  -1  186.71   11.19 
  -3   0   1  190.70   12.77 
   0   3   1  208.18   11.83 
  -3   0   3 1218.70   36.00 
   0   3   3 1148.14   27.86 
  -3   0   5  244.34   19.23 
   0   3   5  237.45   14.68 
   3   0   5  234.40   17.89 
   0   3   5  243.54   16.50 
   0  -3  -5  247.02   14.69 
   0   3   7  409.13   22.54 
  -3   0   7  425.02   27.89 
   0   3  -7  405.67   24.61 
   3   0  -7  400.32   25.26 
   0   3   7  423.66   23.18 
   0  -3  -7  396.89   21.62 
   0   3   9  483.60   27.85 
   0  -3  -9  465.58   26.93 
   0   3  -9  453.13   29.38 
   3   0  -9  483.66   30.85 
  -3   0   9  515.24   34.46 
   0   3   9  458.69   25.57 
  -3   0  11  149.32   21.60 
   0  -3 -11  140.09   17.38 
   0   3  11  128.72   15.05 
   0   3 -11  158.72   20.34 
   3   0 -11  148.28   19.80 
   0   3  11  126.82   16.87 
   0   3 -13  291.26   29.70 
   3   0 -13  268.52   29.11 
   0  -3 -13  287.77   28.50 
  -3   0  13  283.83   33.72 
   0   3  13  275.52   27.38 
   0   3 -15   -6.59    8.05 
  -3   0  15   13.83   11.34 
   3   0 -15   17.65   11.43 
   0   3 -17   13.66   12.70 
   3   0 -17   36.73   16.17 
  -3   0  17   29.28   16.10 
   0  -3  17   27.50   10.60 
   3   0  17   27.21    8.66 
  -3   0  17   40.87   15.15 
   0   3  17   36.26    9.28 
   0  -3  19   70.02   22.48 
  -3   0  19   48.73   18.72 
   3   0 -19   60.98   21.36 
  -3   0  19   66.36   12.58 
   3   0  19   68.82   12.28 
   0   3  19   67.12   12.34 
   0  -3  19   81.77   15.32 
   3   0  21    3.16    5.31 
  -3   0  21    0.10    4.86 
   0   3  21    8.32    5.95 
   0   3  21    5.53    6.10 
   0  -3  23    0.05    5.77 
   0   3 -23    8.12    5.99 
   3   0  23    4.88    5.58 
   0   3  23    4.31    5.29 
  -3   0  23   -2.25    4.47 
   0   3  23   -2.32    4.48 
  -3   0  25   -3.12    3.51 
   0   3 -25   -1.48    3.80 
   0   3  25   -2.88    4.62 
   3   0  25    3.04    4.57 
  -3   0  25    5.23    4.07 
   0   3  25    4.05    4.03 
   0   3  27   -0.94    3.38 
   3   0 -27    7.46    3.50 
  -3   0  27    1.78    2.64 
   0   3  27    1.03    2.34 
  -1   3   0   -0.88    3.37 
   3   1   0    2.36    3.02 
  -3  -1   0   -0.44    3.38 
   3   1  -2    1.98    4.12 
  -3  -1   2    3.76    4.86 
  -1   3   2    2.39    4.54 
  -3  -1  -2    2.07    2.89 
   3   1   4    8.26    5.60 
  -1   3   4   12.74    5.53 
   1  -3  -6  347.74   20.89 
  -1   3   6  355.55   21.39 
   3   1   6  362.35   21.80 
  -1   3  -6  384.44   22.79 
  -1   3   6  357.92   21.43 
   3   1  -6  363.29   22.73 
  -1   3   8  104.79   13.91 
   1  -3  -8  104.52   13.26 
  -1   3   8   98.63   12.38 
   3   1  -8  104.76   14.20 
  -1   3  -8  110.59   14.61 
   3   1   8   97.93   12.60 
  -1   3 -10    1.80    5.99 
  -1   3  10    3.65    6.22 
   3   1 -10    2.02    6.35 
   1  -3 -10    2.78    5.06 
  -1   3  10    2.13    3.76 
   3   1  10   -0.18    5.45 
  -3  -1  10    2.70    7.58 
   3   1 -12  203.97   24.13 
  -1   3 -12  196.82   23.67 
   1  -3 -12  230.02   23.98 
  -1   3  12  200.90   23.33 
  -3  -1  12  239.60   30.07 
   3   1 -14   27.43   11.76 
  -1   3  14   28.84   12.27 
  -3  -1  14   26.83   14.63 
   1  -3 -14   22.84   12.34 
  -1   3 -14    9.85    8.09 
  -3  -1  16   30.52   15.20 
   3   1 -16   23.64   12.01 
  -1   3  16   31.21    9.20 
   3   1  16   30.20    8.88 
   1  -3  16   26.38    9.33 
   3   1 -18    4.58    8.98 
  -3  -1  18   11.03   12.82 
   3   1  18   12.13    7.78 
  -3  -1  18    4.21    7.00 
   1  -3  18   22.36    9.67 
  -1   3  18    6.81    5.83 
   3   1  18    7.90    6.07 
   1  -3  20   11.24    6.53 
  -3  -1  20    3.24    5.58 
  -1   3  20   11.91    6.90 
   3   1  20    8.65    5.87 
   3   1  20    6.67    4.22 
   3   1  22   30.04    8.96 
  -1   3 -22   31.65    8.63 
  -1   3  22   32.51    9.20 
  -3  -1  22   32.22    8.39 
   1  -3  22   28.19    8.27 
   3   1  22   33.09    6.80 
  -1   3  22   42.47    9.39 
  -3  -1  24   10.70    5.15 
  -1   3 -24   12.57    6.13 
   3   1  24   26.87    7.30 
  -1   3  24   20.62    6.24 
   3   1  26   -3.25    3.54 
   3   1 -26    5.20    4.76 
  -1   3  26    4.04    3.97 
  -1   3  26   -0.41    3.25 
  -3  -1  26    1.99    3.16 
   3   2   1  351.69   11.50 
  -2   3   1  384.91   20.12 
   3   2  -1  391.29   20.27 
  -3  -2  -1  344.78   12.21 
   3   2  -1  349.67   15.83 
  -2   3  -1  388.44   19.82 
   3   2  -3  137.35   11.14 
   3   2  -3  150.15   13.06 
  -2   3   3  162.34   14.20 
   3   2   5  362.77   21.42 
   3   2  -5  355.48   21.23 
  -2   3   5  353.31   21.75 
   2  -3  -5  360.85   21.90 
   2  -3  -7  416.29   26.22 
  -2   3   7  437.94   27.35 
   3   2  -7  420.62   26.50 
   3   2   7  433.00   25.15 
   2  -3  -9   24.05    7.84 
   3   2  -9   20.97    8.15 
   3   2   9   21.01    5.78 
  -2   3   9   16.98    6.31 
  -2   3   9   17.14    7.17 
   3   2   9   28.59    7.61 
  -2   3  11   11.08    8.47 
   3   2  11    4.63    5.63 
   3   2 -11    4.23    6.24 
  -2   3  11    4.71    4.87 
   2  -3 -11    1.29    6.98 
  -2   3  13    0.87    6.83 
  -3  -2  13    5.48   10.48 
   2  -3 -13    2.34    7.48 
   3   2 -13   -2.29    7.70 
   2  -3 -15    8.83    9.69 
   3   2 -15   -0.53    8.94 
  -3  -2  15    6.63    9.65 
  -2   3  15   -3.99    7.75 
   3   2 -17   28.69   14.21 
  -3  -2  17   18.50   15.59 
  -3  -2  17    4.29    7.46 
   3   2  17   19.14    7.78 
   2  -3  17   11.52    8.17 
  -2   3  17    9.87    6.08 
   3   2  17    7.89    5.49 
   3   2 -19    7.64    9.00 
  -2   3  19   -1.93    6.35 
   3   2  19   20.03    7.08 
   2  -3  19   22.28   10.22 
  -3  -2  19    1.51    5.96 
   3   2  19    1.36    5.01 
  -2   3  21    6.35    6.10 
  -2   3 -21    5.79    6.05 
  -3  -2  21    7.72    5.36 
   3   2  21   11.19    6.42 
   2  -3  21    2.17    5.60 
   3   2  21    5.28    4.35 
  -2   3 -23    2.28    4.48 
  -2   3  23    7.37    5.81 
  -3  -2  23   -2.56    4.85 
   3   2  23    0.55    4.89 
   3   2  23    0.48    3.58 
  -2   3  23    5.19    5.21 
   3   2  25    2.01    3.79 
  -2   3  25   -2.21    4.12 
   3   2 -27   -1.12    2.67 
  -2   3  27    0.76    2.66 
  -2   3  27    3.87    2.52 
   3   3   0   -0.66    3.71 
   3   3   0    0.48    4.70 
  -3   3   0   -2.77    5.21 
  -3   3   2   64.36   10.13 
   3   3  -2   66.05    8.71 
  -3   3  -2   74.45   10.66 
   3   3  -2   71.22    9.10 
   3   3  -4  836.74   28.07 
  -3   3   4  863.88   35.60 
   3   3  -4  828.19   31.29 
   3   3   4  885.65   33.23 
   3   3   6  150.14   15.28 
   3  -3  -6  153.33   16.46 
   3   3  -6  151.82   16.11 
  -3   3   6  157.16   17.11 
   3  -3  -8   93.69   14.53 
   3   3   8   96.93   13.45 
   3   3  -8  102.12   14.92 
  -3   3   8   92.72   15.07 
   3  -3 -10    7.23    5.92 
  -3   3  10    7.80    5.49 
   3   3 -10    0.18    5.68 
   3   3  10   12.37    7.40 
  -3   3  10   17.22    7.03 
   3   3 -12  261.09   28.59 
  -3   3  12  263.99   30.11 
   3  -3 -12  262.66   27.01 
   3   3  12  252.05   23.70 
   3  -3 -14   64.30   17.81 
   3   3 -14   54.77   15.67 
  -3   3  14   51.36   16.71 
   3  -3 -16   94.72   20.41 
  -3  -3  16  123.99   28.00 
  -3   3  16  117.50   24.70 
   3   3 -16  100.77   22.61 
   3  -3  16  101.49   15.75 
  -3   3  16  103.18   13.55 
   3   3  16  131.19   15.90 
   3   3  16   91.59   11.79 
  -3  -3  18    7.15   11.70 
   3   3 -18  -12.27   11.22 
  -3   3 -18    6.18    6.48 
  -3   3  18    2.76    5.92 
   3  -3  18    4.83    6.62 
   3   3  18    0.82    6.23 
  -3  -3  18   18.90   10.87 
   3   3  18    0.53    5.11 
  -3   3 -20   35.42    8.70 
  -3   3  20   30.58    9.82 
   3   3  20   32.93    9.73 
  -3  -3  20   44.10   11.06 
   3  -3  20   16.97    7.98 
   3   3  20   30.06    7.76 
   3   3  22   35.13    9.85 
  -3   3 -22   19.85    7.27 
  -3  -3  22   20.93    7.78 
   3  -3  22    7.39    4.71 
  -3   3  22   13.83    7.13 
   3   3  22   18.56    6.42 
   3   3  24   17.69    6.62 
  -3   3  24   20.48    7.12 
  -3   3  24   24.93    6.74 
   3   3  24   21.69    5.95 
   3   3  26   -4.36    3.84 
   3   3 -26   -0.78    3.01 
  -3   3  26   -0.22    3.24 
  -3   3  26   -0.65    2.75 
  -3  -3  26    1.95    2.47 
  -4   3   1  171.98   16.82 
   3   4  -1  160.70   13.96 
   3   4   1  178.94   15.19 
  -4   3  -1  166.44   15.89 
   3   4  -1  151.83   12.08 
   3   4   3 1026.85   37.05 
  -4   3  -3  983.85   38.08 
  -4   3   3  984.60   39.68 
   3   4  -3  990.08   34.72 
   3   4  -3  993.26   32.83 
   3   4  -5   61.25   10.03 
   3   4  -5   59.35    8.65 
   3   4   5   57.14   10.13 
   4  -3  -5   58.25   11.30 
  -4   3   5   65.12   12.13 
   3   4  -7  253.14   21.92 
   4  -3  -7  268.54   24.36 
   3   4   7  257.31   21.51 
  -4   3   7  275.68   25.01 
  -4   3   9   12.01    7.29 
   3   4  -9   12.20    6.32 
   3   4   9   12.09    7.09 
   4  -3  -9   10.38    6.19 
   4  -3 -11    9.12    7.65 
   3   4 -11   22.94    9.63 
   3   4  11   29.56    9.78 
  -4   3  11   20.09    9.66 
   4  -3 -13   96.30   18.58 
   3   4  13   85.88   15.67 
  -4   3  13   60.89   17.12 
   3   4 -13   92.22   18.88 
   4  -3 -15   86.75   19.24 
   3   4 -15  121.72   22.62 
  -4   3  15  132.52   27.02 
   3   4  15  109.55   14.27 
   4  -3  15  103.03   13.96 
   3   4  15   81.02   10.79 
   3   4 -17    2.00   11.57 
  -3  -4  17   12.97   10.84 
  -4   3  17   13.26   11.68 
   4  -3 -17   13.18   13.67 
   3   4  17   -3.49    6.78 
  -4   3  17    0.13    5.33 
   4  -3  17    9.88    7.43 
   3   4  17    1.27    5.03 
  -4   3  19   13.60    7.91 
   3   4  19    5.28    6.85 
   4  -3  19   11.52    6.88 
   3   4  19   -3.87    4.64 
   3   4  21    7.68    7.51 
   4  -3  21   -1.32    5.34 
  -4   3  21    6.77    5.17 
   3   4  21   -4.92    4.62 
   3   4  23   14.54    6.61 
  -4   3  23   11.36    6.64 
   3   4  23   23.01    5.79 
  -4   3  25    2.03    3.91 
   3   4 -25    4.25    3.69 
   3   4  25    0.52    3.30 
   3   4  25    1.15    3.01 
   3   4 -27    0.75    2.05 
  -4   3  27    0.91    2.25 
   2   4   0    6.91    4.16 
  -4   2   0    9.58    6.05 
  -4   2  -2 1813.57   47.04 
  -4   2   2 1820.04   49.89 
   2   4  -2 1781.85   40.62 
   2   4  -2 1801.72   42.47 
  -2  -4  -4    4.62    1.90 
   2   4   4    3.55    4.85 
   2   4  -4    5.90    3.45 
  -4   2   4    2.85    5.79 
   4  -2  -4    2.61    4.90 
   2   4  -4    4.11    5.24 
   2   4  -6  413.42   16.55 
  -4   2   6  459.46   29.60 
   2   4  -6  440.84   26.58 
   2   4   6  419.85   24.97 
   4  -2  -6  447.20   28.48 
   2   4  -8   36.28   10.03 
   2   4   8   48.97    9.59 
   4  -2  -8   41.53   10.64 
  -4   2   8   35.59   10.46 
   2   4  10  625.15   35.29 
   2   4 -10  586.98   37.33 
  -4   2  10  628.11   42.29 
   4  -2 -10  621.06   39.60 
   2   4 -12   20.12    8.64 
   4  -2 -12   10.07    7.08 
   2   4  12   16.69    8.12 
  -4   2  12   22.03   11.42 
   2   4 -14  -10.29   11.10 
   4  -2 -14   -7.18    8.90 
  -4   2  14   13.53   10.11 
   4  -2 -16   32.28   14.77 
  -4   2  16   28.73   14.42 
   2   4 -16   24.72   12.67 
   2   4  16   32.87    7.72 
  -2  -4  16   18.24    9.10 
   4  -2  16   26.03    8.50 
  -4   2  16   18.21    7.43 
   2   4  16   30.39    8.02 
   4  -2 -18   92.25   23.26 
   2   4 -18  127.28   25.41 
  -4   2  18   89.03   25.10 
  -2  -4  18  131.51   31.30 
  -2  -4  18  130.86   18.17 
   2   4  18  131.90   16.11 
  -4   2  18  111.12   14.67 
   4  -2  18  120.97   16.24 
   2   4  18  120.45   14.76 
  -4   2  20   49.39   10.46 
   2   4  20   59.17   11.67 
  -2  -4  20   36.22   10.28 
   4  -2  20   54.38   11.69 
   2   4  20   66.55   11.29 
   4  -2  22  -12.38    7.28 
   2   4  22    3.22    5.42 
  -4   2  22   -6.11    5.08 
   2   4  22   -3.52    5.49 
  -4   2  24    7.36    4.64 
   2   4 -24    9.53    5.69 
   2   4  24    5.40    4.83 
   2   4  24   11.87    4.91 
  -4   2  24    6.75    4.35 
   2   4 -26    4.97    3.89 
  -4   2  26    2.24    2.39 
   2   4  26    3.69    3.73 
  -4   2  26   -0.09    2.78 
   2   4  26    4.20    3.20 
  -4   1  -1   34.13    7.81 
   1   4  -1   32.13    7.63 
  -4   1   1   33.90    7.98 
   1   4  -3 1505.54   35.39 
  -4   1  -3 1453.42   39.15 
   1   4  -3 1489.15   40.56 
  -4   1   3 1486.48   45.06 
   1   4   3 1554.07   31.49 
   4  -1  -5  124.35   14.38 
   1   4  -5  134.69   14.81 
   1   4   5  122.41    9.51 
   1   4   5  131.29   13.71 
  -1  -4  -5  111.40    9.33 
  -4   1   5  122.13   15.10 
   1   4  -5  116.97    8.76 
  -4   1   7   62.73   11.73 
   1   4   7   71.30   10.85 
   1   4   7   60.85    7.79 
   4  -1  -7   68.58   12.58 
  -1  -4  -7   69.34    8.80 
   1   4  -7   67.49   11.68 
   4  -1  -9  477.33   32.46 
   1   4   9  496.16   30.00 
  -1  -4  -9  453.26   24.59 
  -4   1   9  489.62   34.65 
   1   4   9  438.87   24.01 
   1   4  -9  490.95   31.79 
   1   4  11  228.70   22.01 
   4  -1 -11  220.32   24.09 
  -4   1  11  224.58   26.89 
   1   4 -11  196.43   23.12 
  -4   1  13   70.58   18.29 
   4  -1 -13   56.33   14.72 
   1   4 -13   68.91   15.91 
   4  -1 -15   63.54   16.65 
  -4   1  15   61.58   19.21 
   1   4 -15   56.49   15.87 
   4  -1 -17    1.48   11.07 
  -4   1  17   29.47   16.31 
   1   4 -17   -1.21   12.71 
  -1  -4  17    9.05    8.71 
   4  -1  17    9.67    6.28 
   1   4  17   13.91    7.46 
  -4   1  17    9.13    6.17 
   1   4  17   28.45    8.69 
  -1  -4  19    4.09    8.02 
   1   4  19   22.81    8.48 
   4  -1  19    7.87    6.73 
  -4   1  19    2.29    5.44 
   1   4  19   11.37    6.15 
   4  -1  21   19.70    7.33 
   1   4  21    6.46    5.81 
  -1  -4  21    1.55    5.42 
  -4   1  21    5.17    5.92 
   1   4  21   12.91    6.61 
   4  -1  23   -0.36    5.04 
   1   4 -23   -3.20    4.79 
  -4   1  23   -1.84    4.47 
   1   4  23    9.05    6.22 
   1   4  23    2.88    4.76 
   1   4  25   26.69    6.97 
   1   4 -25   18.38    7.47 
  -4   1  25   14.18    5.00 
   1   4  25   29.27    6.93 
  -4   1  25   33.64    6.72 
   1   4  27    1.63    2.51 
  -4   1  27   -0.48    2.38 
  -4   0   0    3.19    5.11 
   0   4   2  253.72   15.07 
  -4   0  -2  233.36   14.79 
  -4   0   2  235.99   17.23 
   4   0  -2  257.58   17.59 
   0   4   4   46.54    8.95 
   0   4  -4   49.00    8.73 
   4   0  -4   59.73   10.44 
   0   4   4   43.25    7.15 
  -4   0   4   39.16    8.72 
   0   4  -6   26.04    7.21 
   0   4   6   27.44    6.46 
   0  -4  -6   29.38    6.58 
   0   4   6   29.12    7.94 
   4   0  -6   34.08    8.78 
  -4   0   6   27.70    7.78 
   0   4  -6   26.86    4.64 
   0   4   8 1346.52   43.43 
   0  -4  -8 1317.34   43.04 
   0   4   8 1387.62   47.00 
   0   4  -8 1324.07   49.18 
  -4   0   8 1377.32   54.82 
   4   0  -8 1347.56   50.98 
   0   4 -10   16.87    7.60 
  -4   0  10    4.10    6.47 
   0   4  10   11.15    5.92 
   4   0 -10   13.85    8.40 
   0  -4 -10   16.61    8.11 
   0   4  10   16.96    7.61 
   0   4  12    6.01    6.23 
  -4   0  12    6.39    7.29 
   0  -4 -12    9.33    8.23 
   0   4 -12    8.40    6.98 
   4   0 -12   15.86   10.11 
   0   4  12   11.85    5.81 
   4   0 -14    3.91    8.32 
  -4   0  14   -7.21   10.91 
   0   4 -14   -1.67    8.00 
   4   0 -16   11.27   11.19 
   0   4 -16   16.04   10.04 
  -4   0  16   30.12   14.64 
   4   0  16   22.21    8.53 
   0  -4  16   32.11   11.00 
   0   4  16   25.43    7.71 
  -4   0  18   11.00   13.47 
   4   0 -18   -1.10    8.54 
   0  -4  18    7.87    8.55 
  -4   0  18    7.92    8.27 
   4   0  18    2.83    5.58 
   0   4  18    5.81    6.93 
   0   4  20   67.49   12.40 
   4   0  20   54.43   11.49 
  -4   0  20   51.75   10.65 
   0  -4  20   53.56   12.03 
   0   4  20   61.21   11.31 
   4   0  22   -0.57    5.48 
  -4   0  22   -8.55    6.49 
   0   4 -22   -0.24    5.11 
   0   4  22    2.93    5.25 
   0   4  22   -1.93    4.83 
   0   4 -24    5.79    4.44 
  -4   0  24    8.10    4.83 
   4   0  24    5.66    4.65 
   0   4  24   12.03    6.23 
   0   4  24    8.98    4.62 
   0   4  26    3.24    3.85 
   0   4 -26   -0.87    2.83 
   0   4  26    0.99    2.89 
  -4   0  26    1.85    3.09 
  -4  -1   1   51.54    8.77 
   4   1  -1   51.65    8.44 
  -4  -1  -1   55.16    7.78 
  -1   4   1   65.11    8.83 
   4   1   1   52.23    7.33 
  -4  -1   3    6.41    6.32 
   4   1  -3   -2.89    5.89 
  -1   4   3   -2.90    5.27 
  -4  -1  -3    1.22    2.91 
   4   1  -5    3.42    5.46 
  -1   4   5    3.34    4.78 
   4   1   5    3.12    5.11 
  -4  -1   5   -1.45    5.85 
   1  -4  -7  846.64   35.39 
   4   1   7  811.53   36.69 
  -4  -1   7  867.41   42.47 
  -1   4   7  805.54   35.79 
  -1   4  -7  833.04   37.55 
   4   1  -7  812.22   37.45 
  -1   4   7  862.46   36.40 
   1  -4  -9  250.98   21.87 
  -1   4   9  270.57   22.07 
  -4  -1   9  292.22   28.16 
   4   1   9  265.54   22.85 
   4   1  -9  274.15   24.59 
  -1   4  -9  269.61   23.69 
  -1   4   9  271.67   23.65 
  -1   4  11   45.26   11.70 
   4   1 -11   52.65   12.83 
  -4  -1  11   49.93   15.39 
  -1   4  11   40.55    9.39 
  -1   4 -11   52.56   12.36 
   1  -4 -11   52.01   11.53 
  -4  -1  13  149.41   25.42 
  -1   4  13  157.29   22.14 
   4   1 -13  167.67   23.69 
   1  -4 -13  147.99   21.36 
  -4  -1  15  141.97   28.05 
   4   1 -15  107.15   23.20 
  -4  -1  17   10.44   13.38 
   4   1 -17   18.20   11.97 
   1  -4  17   19.32    9.34 
  -1   4  17   11.33    6.28 
   4   1  17   23.41    9.04 
  -1   4  19   19.67    7.28 
   4   1  19   27.65    8.73 
  -4  -1  19   13.12    6.91 
   1  -4  19   24.26    9.73 
   1  -4  21   81.69   13.29 
   4   1  21   76.15   12.34 
  -1   4  21   92.80   13.98 
  -1   4 -21  102.94   14.22 
  -4  -1  21   57.03   10.47 
  -1   4  21   98.95   13.83 
  -1   4 -23   34.98    8.84 
  -1   4  23   46.58    9.81 
   4   1  23   46.83   10.36 
  -4  -1  23   27.59    7.12 
  -1   4  23   46.54    8.90 
  -1   4 -25    0.56    3.49 
   4   1  25    0.08    4.09 
  -1   4  25    3.93    5.49 
  -1   4  25    1.98    3.45 
  -1   4  27    4.80    3.25 
   4   1 -27    0.84    2.58 
  -1   4  27    2.65    2.36 
  -4  -1  27    4.63    2.45 
  -2   4   0   82.88   10.86 
  -4  -2   0   68.65    8.36 
   4   2   0   67.02    8.15 
   4   2   0   76.47   11.02 
   4   2  -2    6.04    5.15 
  -4  -2   2    7.26    6.00 
   4   2  -2    6.90    6.12 
   4   2   2    3.65    2.53 
  -4  -2  -2    4.57    2.93 
  -2   4   2    8.56    6.03 
  -2   4   4   16.85    6.32 
   4   2  -4   16.61    6.33 
   4   2   4   13.53    6.30 
  -2   4   6  450.04   27.42 
   2  -4  -6  432.13   26.61 
   4   2   6  443.92   26.77 
   4   2  -6  449.34   27.20 
   4   2   8    3.41    6.07 
  -2   4   8   -1.09    5.80 
   2  -4  -8   -0.47    5.28 
  -2   4   8   -1.29    6.13 
   4   2  -8    1.15    5.67 
  -4  -2  10  464.29   38.02 
   2  -4 -10  447.57   31.78 
   4   2  10  403.30   28.53 
  -2   4  10  448.36   33.64 
   4   2 -10  434.33   32.91 
  -2   4  10  423.92   28.85 
   2  -4 -12   77.75   16.51 
   4   2 -12  112.15   19.54 
  -2   4  12   94.80   13.89 
   4   2  12   77.17   14.20 
  -4  -2  12   92.06   21.53 
  -2   4  12  103.67   18.87 
   2  -4 -14   -4.52    8.53 
   4   2 -14    0.68    7.88 
  -2   4  14    5.09    7.10 
  -4  -2  14    3.06    9.39 
   4   2 -16   70.30   19.20 
  -4  -2  16   78.91   22.69 
   4   2  16   70.02   12.35 
   2  -4  16   76.55   15.20 
  -2   4  16   64.53   10.94 
   4   2  16   47.08    8.84 
   4   2 -18   56.82   19.48 
  -4  -2  18   48.30   19.66 
   4   2  18   55.06   12.33 
   2  -4  18   53.53   13.30 
  -2   4  18   55.70   11.21 
   4   2  18   48.41    8.92 
  -2   4  20   31.87    9.00 
  -2   4 -20   34.31    9.21 
   4   2  20   42.35   10.35 
   2  -4  20   33.20    9.66 
   4   2  20   32.37    7.56 
  -2   4 -22   -0.11    4.85 
  -2   4  22   -6.96    5.43 
   4   2  22   -2.77    5.30 
   4   2  22    6.50    4.87 
  -2   4  22    2.17    4.52 
   4   2  24    4.13    4.80 
  -2   4  24    3.37    4.91 
  -2   4 -24    6.63    4.29 
  -2   4  24    2.09    4.11 
   4   2 -26   14.85    5.41 
  -2   4  26    8.56    4.33 
   4   2  26    1.16    3.26 
  -4  -2  26   12.97    4.39 
  -2   4  26    7.69    3.50 
   4   3  -1   74.40    8.72 
   4   3   1   78.60    6.62 
   4   3   1   81.57   10.93 
  -3   4   1   84.44   11.32 
   4   3  -1   96.45   12.21 
  -3   4  -1   80.98   11.20 
  -4  -3  -1   75.67    7.08 
  -4  -3   1   82.17   10.42 
   4   3  -3   86.63   11.50 
   4   3   3   95.89   12.13 
   4   3  -3   89.19   10.55 
  -3   4   3   87.19   11.95 
  -3   4   5  680.21   34.61 
   4   3  -5  668.50   31.72 
   4   3   5  688.99   33.47 
   4   3  -7   75.33   12.94 
   4   3   7   67.38   12.44 
   3  -4  -7   84.17   14.05 
  -3   4   7   79.91   13.71 
   3  -4  -9  228.16   23.51 
   4   3   9  237.16   22.82 
  -3   4   9  247.20   22.93 
   4   3  -9  198.65   21.98 
  -3   4   9  223.69   24.26 
  -3   4  11  714.98   46.70 
   4   3 -11  668.11   43.23 
  -3   4  11  656.18   36.73 
   3  -4 -11  680.83   43.38 
   4   3  11  688.15   39.98 
   4   3 -13   34.56   12.48 
   3  -4 -13   52.09   15.10 
  -3   4  13   56.91   15.96 
  -4  -3  13   37.28   16.28 
   4   3  13   43.19   11.52 
   4   3 -15   17.55    8.80 
  -4  -3  15   23.65   14.23 
   3  -4 -15   16.53    9.48 
  -3   4  15   25.68   12.79 
   4   3  15   21.65    7.29 
  -3   4  15   25.84    7.56 
   3  -4  15   37.34   11.30 
  -4  -3  17  207.05   35.96 
   4   3 -17  174.13   29.22 
   3  -4  17  199.24   22.51 
  -3   4 -17  195.26   18.87 
   4   3  17  226.39   20.69 
  -3   4  17  198.38   19.02 
   4   3  17  193.98   16.77 
  -3   4  19   89.27   13.98 
  -3   4 -19   95.02   13.69 
   3  -4  19   83.30   14.58 
   4   3  19   95.38   14.20 
   4   3  19   93.63   12.22 
  -3   4  21   -1.45    5.64 
   4   3  21    1.93    6.08 
  -3   4 -21   10.65    6.25 
   4   3  21   -5.28    4.84 
  -3   4 -23   27.45    7.34 
   4   3  23   34.34    7.97 
  -3   4  23   30.94    8.77 
  -3   4  23   34.57    8.12 
   4   3  23   27.31    6.32 
  -3   4  25   18.87    5.96 
   4   3 -25   27.26    6.95 
   4   3  25   21.34    6.76 
  -3   4  25   22.16    5.69 
   4   3 -27    2.48    2.60 
  -3   4  27    2.32    2.82 
   4   4   0  143.12   14.42 
  -4   4   0  157.30   16.36 
   4   4   0  135.18   10.84 
   4   4  -2  299.46   20.88 
   4   4   2  305.63   21.60 
   4   4  -2  275.70   17.96 
  -4   4   2  302.17   23.14 
  -4   4  -2  312.03   22.66 
   4   4   4   93.98   13.31 
   4   4  -4   93.56   12.50 
  -4   4   4  107.64   15.24 
   4   4  -4  117.32   13.51 
   4  -4  -6    5.57    5.85 
  -4   4   6   -0.77    6.40 
   4   4   6    3.42    4.95 
   4   4  -6    5.20    5.81 
  -4   4   8   68.76   13.75 
   4   4  -8   75.92   13.91 
   4  -4  -8   70.64   15.15 
   4   4   8   65.00   12.59 
  -4   4  10  390.41   35.15 
   4   4 -10  382.69   32.60 
   4  -4 -10  395.05   33.65 
   4   4  10  392.41   31.46 
   4   4  12   72.46   15.11 
   4   4 -12  100.40   18.77 
  -4   4  12   63.37   16.49 
   4  -4 -12   70.90   17.61 
   4   4 -14    9.25    8.84 
  -4   4  14   21.12   13.40 
   4  -4 -14    3.89    8.09 
  -4  -4  14   20.27   14.05 
   4   4 -16   90.57   22.96 
  -4  -4  16  101.48   24.57 
  -4   4  16  128.91   26.74 
   4  -4 -16  102.57   22.08 
  -4   4  16   98.04   13.64 
  -4   4 -16   83.62   12.14 
   4   4  16  111.65   14.77 
   4  -4  16   90.48   15.15 
   4   4  16   81.70   11.57 
   4   4  18   61.92   12.15 
  -4   4 -18   52.83   10.56 
   4  -4  18   49.74   11.42 
  -4   4  18   43.29   10.40 
   4   4  18   42.03    9.24 
   4   4  20   18.24    8.54 
  -4   4 -20   11.23    6.61 
  -4   4  20   14.32    6.79 
   4   4  20   17.00    6.21 
   4   4 -22   27.62    7.33 
   4   4  22   23.80    7.38 
  -4   4  22   17.35    7.83 
   4   4  22   18.98    5.36 
  -4   4  22   35.71    8.50 
   4   4 -24    5.64    5.53 
  -4   4  24    0.01    4.25 
   4   4  24    0.52    3.61 
  -4   4  24    2.92    3.80 
   4   4  24    2.86    3.75 
  -4   4  26    6.23    3.64 
   4   4 -26    1.29    2.67 
   4   4  26    2.35    3.53 
  -4   4  26    7.84    3.11 
  -4  -4  26    5.09    2.93 
  -5   4  -1  337.25   25.73 
   4   5  -1  343.48   23.45 
   4   5   1  331.99   23.55 
  -5   4   1  347.80   26.37 
   4   5  -1  327.97   19.48 
   4   5   3    4.85    5.00 
  -5   4   3   18.79    8.26 
   4   5  -3    2.50    4.29 
  -5   4  -3    2.16    5.84 
   4   5  -3    0.52    4.33 
   4   5  -5  601.05   29.23 
   4   5  -5  595.73   32.90 
  -5   4   5  586.33   37.28 
   4   5   5  613.42   34.50 
   4   5  -7   16.57   10.02 
   4   5   7   12.79    7.98 
  -5   4   7   12.00    9.27 
   5  -4  -7   18.45   10.51 
   5  -4  -9   36.63   12.46 
   4   5   9   20.53    8.51 
   4   5  -9    8.71    6.47 
  -5   4   9   14.25    9.75 
  -5   4  11   -3.24    8.92 
  -5   4  11    7.26    7.78 
   4   5  11    4.06    7.92 
   4   5 -11    6.96    8.29 
   5  -4 -11   -4.02    8.28 
   4   5  13  375.17   34.77 
   5  -4 -13  318.32   35.24 
  -5   4  13  339.94   38.52 
   4   5 -13  313.99   34.23 
   4   5 -15   88.87   21.03 
  -4  -5  15  134.57   28.64 
   5  -4 -15   88.14   21.03 
  -5   4  15  113.04   26.04 
   4   5  15  117.24   14.46 
  -5   4  15   83.54   11.77 
   5  -4  15   99.07   15.01 
   4   5  15  149.39   14.72 
   4   5 -17   -1.03    8.72 
   5  -4 -17   -5.77   12.95 
  -5   4  17   -0.61    9.41 
  -4  -5  17   20.42   12.57 
   4   5  17    5.88    5.95 
   5  -4  17  -12.65    8.94 
  -5   4  17   11.84    6.99 
   4   5  17    9.43    5.49 
   4   5  19    1.41    5.37 
  -5   4  19    6.05   11.10 
   4   5  19   -1.96    4.23 
   4   5 -21   56.94    9.74 
  -5   4  21   59.87   12.09 
   4   5  21   57.14   11.14 
   4   5  21   58.36    9.10 
   4   5  23    3.25    4.78 
   4   5 -23   10.77    6.21 
  -5   4  23    9.27    5.15 
   4   5  23    6.72    3.95 
  -5   4  23   14.35    6.39 
  -5   4  25   -2.43    2.85 
   4   5  25    5.66    4.40 
   4   5 -25    1.04    3.06 
   4   5  25    3.65    2.58 
  -5   4  25    2.37    3.19 
  -5   4 -25    3.92    3.42 
   3   5   0   -1.74    4.44 
  -5   3   0    6.21    6.04 
   3   5   2 1630.90   49.36 
  -5   3   2 1652.46   54.45 
  -5   3  -2 1637.29   52.42 
   3   5  -2 1606.28   44.62 
   3   5  -2 1615.01   45.86 
   3   5  -4    0.32    5.81 
   3   5  -4    1.46    4.15 
  -5   3   4    8.56    6.07 
   3   5   4    2.90    4.73 
  -5   3   6  857.94   44.44 
   3   5  -6  875.92   40.27 
   3   5  -6  853.68   30.41 
   3   5   6  854.02   39.86 
   5  -3  -6  915.11   44.80 
   3   5  -8   33.67    9.55 
  -5   3   8   42.51   12.27 
   3   5   8   41.15   10.37 
   5  -3  -8   40.53   10.84 
   3   5  10   62.33   13.58 
   3   5 -10   57.53   13.11 
  -5   3  10   51.73   14.24 
   5  -3 -10   50.60   14.06 
   3   5  12   22.63   10.11 
  -5   3  12    9.70   11.17 
   5  -3 -12    7.74    7.52 
   3   5 -12   21.41   10.98 
  -5   3  14  557.01   50.60 
   5  -3 -14  545.31   46.79 
   3   5 -14  597.52   47.65 
   3   5 -16    5.18   10.78 
   5  -3 -16    7.06   10.11 
  -5   3  16    7.72    9.32 
   3   5  16   14.16    7.78 
   5  -3  16   15.39    8.03 
  -5   3  16   11.51    6.45 
   3   5  16    4.64    4.56 
  -5   3  18    7.66    5.90 
   3   5  18    0.81    5.44 
   3   5  18    2.04    4.65 
   5  -3  20    9.77    5.51 
  -5   3  20   27.76    8.37 
   3   5  20   20.95    8.12 
   3   5  20   28.48    7.90 
  -5   3  22   28.52    8.02 
   3   5  22   42.75    9.81 
   3   5  22   44.35    8.53 
   3   5  24   -3.23    5.07 
  -5   3  24   -3.03    3.63 
   3   5 -24    2.29    4.53 
  -5   3  24    5.29    3.90 
   3   5  24    1.25    3.42 
   3   5 -26    2.62    3.33 
   3   5  26    3.75    3.73 
  -5   3 -26    4.76    3.16 
  -5   3  26    4.34    3.70 
   2   5  -1   58.15    9.14 
  -5   2  -1   67.21   10.83 
   2   5   1   50.05    9.04 
  -5   2   1   57.46   10.17 
   2   5  -3 2292.06   55.63 
  -5   2   3 2269.22   62.46 
   2   5  -3 2268.97   50.32 
   2   5   3 2259.18   57.24 
  -5   2  -3 2280.88   58.71 
   5  -2  -5 1262.25   48.78 
   2   5   5 1233.99   44.83 
   2   5  -5 1289.89   45.82 
  -5   2   5 1291.71   50.95 
   2   5  -5 1180.88   33.05 
   2   5  -7  177.33   18.82 
  -5   2   7  172.48   20.78 
   5  -2  -7  178.29   20.51 
   2   5   7  181.27   18.92 
   2   5   9  297.14   25.28 
   2   5  -9  289.30   26.31 
  -5   2   9  295.12   29.20 
   5  -2  -9  277.79   27.36 
   2   5  11  140.36   19.06 
   5  -2 -11  115.75   19.44 
  -5   2  11  129.86   22.13 
   2   5 -11  118.15   18.62 
   2   5 -13  117.08   20.85 
  -5   2  13  126.23   22.27 
   5  -2 -13  111.71   21.39 
   2   5  13  128.30   19.43 
   5  -2 -15   89.90   20.13 
  -5   2  15  107.57   25.48 
   2   5 -15  103.59   21.76 
   2   5  15  102.87   13.70 
   5  -2  15  100.73   14.00 
   2   5  15   89.37   11.61 
   5  -2 -17   83.55   21.66 
  -5   2  17   66.28   22.23 
   2   5 -17   89.41   23.04 
  -2  -5  17   71.06   14.82 
  -5   2  17   67.14   12.27 
   5  -2  17   87.69   14.58 
   2   5  17  106.39   14.45 
   2   5  17   95.01   12.68 
   5  -2  19   83.87   13.71 
  -5   2  19   71.13   12.14 
   2   5  19  103.33   14.75 
   2   5  19   88.79   12.70 
   2   5  21    0.65    5.07 
   5  -2  21    4.89    4.99 
  -5   2  21    4.45    5.76 
   2   5  21    0.24    4.49 
   2   5  23   27.40    7.64 
   2   5 -23   14.26    6.98 
  -5   2  23   17.41    5.96 
   2   5  23   33.66    7.63 
   2   5  25    0.65    3.62 
   2   5 -25    5.67    4.65 
   2   5  25   10.77    4.51 
  -5   2  25   11.75    4.38 
   2   5  27   -0.31    2.33 
  -5   2  27    0.20    1.93 
  -5   1   0   -2.03    6.09 
   1   5   0    4.67    4.98 
  -5   1  -2   12.59    6.39 
  -5   1   2   12.39    6.10 
   1   5   2   11.20    4.82 
   1   5  -2   16.01    6.25 
   1   5  -4 2330.22   49.12 
   1   5  -4 2327.87   57.81 
   1   5   4 2315.93   43.89 
   1   5   4 2340.12   59.48 
  -5   1   4 2329.90   64.33 
   5  -1  -4 2381.44   62.70 
  -5   1   6   41.73   10.86 
   1   5  -6   47.16    9.94 
  -1  -5  -6   39.35    6.83 
   5  -1  -6   50.68   11.22 
   1   5  -6   39.69    5.92 
   1   5   6   45.49    9.88 
   1   5   6   43.00    6.67 
  -1  -5  -8  268.86   18.05 
   1   5   8  305.90   24.60 
   1   5  -8  292.72   25.20 
  -5   1   8  293.04   27.38 
   5  -1  -8  303.01   26.66 
   1   5   8  259.41   16.77 
   5  -1 -10    0.84    7.22 
  -5   1  10   -4.05    8.08 
   1   5  10    5.50    6.17 
   1   5 -10   -7.40    6.92 
   1   5  12  584.21   37.72 
   1   5 -12  584.35   41.88 
  -5   1  12  546.17   45.37 
   5  -1 -12  578.23   42.48 
   5  -1 -14   -4.06    9.33 
   1   5 -14   -3.63    7.71 
  -5   1  14    9.17   12.47 
   5  -1 -16  231.64   32.73 
   1   5 -16  230.78   31.52 
  -5   1  16  247.60   38.35 
   1   5  16  262.71   20.87 
   5  -1  16  252.95   21.15 
  -1  -5  16  225.09   23.11 
   1   5  16  224.81   19.02 
   5  -1 -18    2.16    8.47 
  -5   1  18   15.32   12.64 
   1   5  18    2.39    6.01 
   5  -1  18    1.71    5.98 
  -5   1  18    7.98    5.36 
  -1  -5  18  -10.41    9.95 
   1   5  18    4.24    4.79 
   1   5  20    5.34    5.78 
   5  -1  20   19.68    7.75 
  -5   1  20    0.65    4.78 
   1   5  20   21.42    7.58 
  -5   1  22   -5.14    4.75 
   5  -1  22   -7.23    6.21 
   1   5  22   -1.79    4.67 
   1   5 -22   -2.93    5.64 
   1   5  22    3.38    5.10 
   1   5 -24   32.42    7.53 
   1   5  24   47.55    8.76 
   1   5  24   30.30    6.95 
   1   5 -26   -0.52    2.54 
   1   5  26   -4.91    4.13 
  -5   1  26    1.09    2.61 
   1   5  26   -2.95    2.64 
  -5   0  -1    0.73    4.62 
   0   5  -1    1.50    5.41 
   0   5   1   -3.61    5.92 
  -5   0   1    1.96    5.35 
   5   0  -1    3.05    4.68 
  -5   0  -3   27.87    6.76 
   5   0  -3   31.61    8.51 
   0   5   3   25.53    5.81 
   0   5   3   29.54    7.42 
   0   5  -3   28.59    6.67 
  -5   0   3   24.27    8.30 
   0   5   5    2.93    4.05 
   5   0  -5    1.03    5.27 
   0   5  -5    6.18    4.23 
  -5   0   5   10.32    7.32 
   0   5   5   -0.44    4.24 
   0   5   7  721.48   36.16 
   0   5  -7  763.28   37.78 
   0   5  -7  664.16   22.40 
  -5   0   7  707.86   39.61 
   5   0  -7  737.19   38.71 
   0   5   7  704.97   30.49 
   0  -5  -7  736.92   32.55 
   0   5   9  154.04   17.99 
   0   5  -9  167.35   19.75 
   0  -5  -9  156.27   17.14 
  -5   0   9  153.59   21.61 
   5   0  -9  136.90   19.12 
   0   5   9  139.83   15.48 
   5   0 -11   80.81   16.10 
  -5   0  11   61.38   14.83 
   0   5  11   70.18   13.24 
   0   5 -11   62.41   14.87 
   5   0 -13   74.53   17.58 
  -5   0  13   79.46   19.58 
   0   5  13   85.36   14.60 
   0   5 -13   75.77   16.88 
  -5   0  15   93.06   24.10 
   5   0 -15  101.16   23.42 
   0   5  15   93.42   12.70 
   5   0  15   93.70   13.62 
   5   0 -17   23.18   14.91 
  -5   0  17   15.22   14.04 
   0  -5  17   -0.01    7.58 
   5   0  17   12.32    7.83 
   0   5  17    5.39    5.83 
   0   5  17    7.23    7.15 
   0  -5  19    1.80    7.42 
   5   0  19   25.29    9.06 
   0   5  19   24.09    9.07 
   0   5  19   28.61    7.37 
   5   0  21    2.12    4.99 
   0   5 -21    5.85    5.36 
   0   5  21   -5.55    6.40 
   0   5  23   14.61    6.92 
   5   0  23    9.78    5.83 
   0   5 -23   15.78    7.15 
   0   5  23   16.42    5.53 
   0   5 -25    2.22    3.92 
   0   5  25    4.70    4.26 
   0   5  25    0.01    3.58 
   0   5  27    1.69    2.60 
  -5   0  27    2.01    2.44 
   5   1   0    9.73    6.11 
  -5  -1   0   -6.31    5.42 
  -5  -1  -2   62.64    8.40 
  -1   5   2   74.81   10.44 
   5   1  -2   66.72   10.35 
  -5  -1   2   61.12   10.19 
  -5  -1   4   65.16   11.84 
  -1   5   4   68.45   10.02 
   5   1   4   74.22   12.97 
   5   1  -4   67.42   11.85 
   5   1   6  926.01   41.92 
   1  -5  -6  896.53   37.31 
  -5  -1   6  906.94   43.30 
   5   1  -6  927.64   41.19 
  -1   5   6  944.89   41.32 
  -1   5   6  897.39   36.82 
  -1   5   8   -3.03    5.13 
  -1   5   8   -3.13    5.20 
   1  -5  -8   -2.02    5.38 
  -5  -1   8    6.00    8.06 
   5   1  -8   -7.19    6.90 
   5   1 -10   19.32    8.86 
   1  -5 -10   16.36    7.88 
  -5  -1  10   26.77   11.37 
  -1   5  10   25.87    9.17 
  -1   5  10   15.38    6.67 
  -5  -1  12   12.15   11.19 
   1  -5 -12    4.60    6.36 
  -1   5  12    0.22    7.29 
  -1   5  12    2.68    5.38 
   5   1 -12    8.03    7.32 
  -5  -1  14  418.74   44.46 
   5   1 -14  369.65   36.66 
   5   1 -16   17.18   12.85 
  -5  -1  16    9.47   12.40 
   1  -5  16   22.96    9.11 
   5   1  16   13.76    6.95 
  -1   5  16   18.51    7.42 
  -5  -1  18   39.55   17.50 
   5   1 -18   41.24   19.10 
  -1   5  18   33.58    9.45 
   1  -5  18   36.59   10.92 
   5   1  18   37.08   10.13 
  -1   5  18   35.02    9.25 
  -1   5  20   17.18    6.84 
   5   1  20   18.35    7.21 
  -1   5 -20   17.22    6.92 
  -1   5  20   23.20    8.09 
  -1   5  22   64.78   11.62 
   5   1  22   53.94   10.49 
  -1   5 -22   52.56   11.07 
  -1   5  22   76.01   11.74 
  -1   5 -24    1.22    4.03 
   5   1  24   -9.96    5.21 
  -1   5  24   -1.33    4.66 
  -1   5  24   -0.63    3.95 
  -1   5 -26   -1.21    2.57 
  -1   5  26    3.44    3.62 
  -1   5  26    5.89    3.57 
  -5  -1  26    2.22    3.19 
   5   2  -1  191.44   18.21 
   5   2   1  169.87   17.23 
  -2   5   1  178.52   16.38 
  -5  -2   1  165.83   15.12 
   5   2  -1  169.19   14.16 
   5   2   1  161.04   11.75 
  -5  -2  -1  153.50   12.22 
  -5  -2   3   38.68    9.15 
   5   2   3   39.68    9.52 
   5   2   3   33.90    4.54 
  -2   5   3   52.64    9.90 
  -5  -2  -3   33.13    4.83 
   5   2  -3   34.98    7.99 
   5   2   5  152.09   17.08 
   5   2  -5  168.13   17.20 
  -5  -2   5  145.51   18.00 
  -2   5   5  150.93   16.24 
  -5  -2   7    1.46    5.98 
   5   2   7    3.67    6.18 
   5   2  -7    1.24    6.02 
   2  -5  -7   -0.31    5.27 
  -2   5   7    3.02    5.22 
  -2   5   7    3.26    5.45 
  -2   5   9   38.04   10.22 
  -5  -2   9   35.35   12.48 
   5   2  -9   44.04   12.46 
  -2   5   9   40.56   11.00 
   2  -5  -9   46.82   11.79 
   5   2   9   50.69   12.22 
   2  -5 -11  -10.93   10.53 
   5   2 -11    4.84    7.72 
  -5  -2  11    5.02    9.72 
  -2   5  11    0.62    5.26 
  -2   5  11   -3.75    5.86 
  -5  -2  13   50.06   17.83 
   2  -5 -13   45.47   14.88 
   5   2 -13   45.92   14.83 
  -2   5  13   46.63   14.02 
   5   2 -15   15.00   12.02 
  -5  -2  15    5.00   10.11 
  -2   5  15   11.93    6.31 
   2  -5  15   16.95    8.72 
   5   2  15   23.01    9.36 
   5   2 -17  -13.92   12.78 
  -5  -2  17   13.34   15.01 
   2  -5  17    3.05    7.85 
   5   2  17   -1.18    6.48 
  -2   5 -17    0.54    5.96 
  -2   5  17    0.67    5.60 
  -2   5  19    2.50    5.35 
   5   2  19   18.43    8.29 
  -2   5 -19    9.30    6.10 
  -2   5 -21   12.37    7.04 
   5   2  21    6.96    6.11 
  -2   5  21   12.72    7.43 
  -2   5  21    5.72    5.07 
  -2   5  23   -2.82    5.20 
   5   2  23    6.44    5.35 
  -2   5 -23    6.79    5.07 
  -2   5  23    0.03    4.10 
   5   2 -25    1.07    2.98 
  -2   5 -25    9.24    4.15 
   5   2  25    1.48    3.52 
  -2   5  25    2.38    3.92 
  -2   5  25    5.67    3.98 
  -2   5  27   -0.39    2.32 
  -2   5  27   -1.53    1.87 
   5   3   0   -1.19    3.42 
  -3   5   0   -8.35    6.46 
   5   3   0   -6.57    5.69 
  -5  -3   0    2.80    4.32 
   5   3   2    8.01    2.52 
  -3   5   2   10.29    7.15 
  -5  -3   2    4.89    5.56 
   5   3   2    6.59    5.57 
   5   3  -2    5.29    4.22 
  -5  -3  -2   10.83    3.62 
   5   3  -2    7.58    6.13 
  -3   5   4  140.12   16.69 
   5   3   4  135.32   15.84 
  -5  -3   4  128.32   16.33 
   5   3  -4  126.23   14.92 
   5   3   6  452.93   30.37 
  -5  -3   6  428.49   32.35 
   5   3  -6  438.98   29.01 
  -3   5   6  470.85   31.63 
  -5  -3   8  120.02   20.17 
   5   3  -8  106.37   16.53 
   5   3   8  117.31   16.88 
  -3   5   8  130.03   18.88 
   3  -5  -8  121.07   18.23 
  -5  -3  10   46.14   15.31 
   3  -5 -10   31.36    9.76 
   5   3  10   50.11   13.15 
  -3   5  10   60.41   14.27 
   5   3 -10   45.46   13.79 
  -3   5  10   53.03   12.54 
  -5  -3  12  113.06   23.48 
   5   3  12  112.87   18.65 
   3  -5 -12   99.53   19.03 
  -3   5  12   95.68   15.63 
  -3   5  12  120.47   21.69 
   5   3 -12  108.98   20.53 
  -3   5  14   97.38   20.96 
   5   3 -14   89.49   21.32 
  -5  -3  14   98.19   23.62 
   3  -5 -14   88.79   20.18 
  -5  -3  16   73.72   21.44 
   5   3 -16   71.05   20.11 
   5   3  16   92.52   13.44 
  -3   5  16   72.30   11.70 
  -3   5 -16   72.84   11.99 
   3  -5  16   74.81   14.68 
   5   3  16   57.84    9.58 
  -3   5 -18   -2.44    6.00 
  -3   5  18   -4.31    6.10 
   5   3  18    5.21    7.29 
   5   3  18   -0.39    3.87 
   5   3  20   15.66    8.30 
  -3   5  20   17.70    7.66 
  -3   5 -20   19.32    7.36 
  -3   5  20   21.86    8.10 
   5   3  20   16.43    5.90 
   5   3  22   19.88    7.87 
  -3   5 -22    6.04    5.64 
  -3   5  22   24.05    8.63 
  -3   5  22   25.16    7.51 
   5   3 -24   14.00    5.26 
  -3   5  24   16.35    6.35 
  -3   5 -24   12.55    5.04 
   5   3  24   11.32    6.04 
  -3   5  24   25.36    6.26 
  -3   5  26    4.52    3.23 
   5   3 -26   -2.48    3.21 
  -3   5  26   -1.24    2.47 
   5   4  -1   19.89    7.23 
  -5  -4   1   14.44    7.08 
   5   4   1    8.69    3.63 
  -5  -4  -1   10.07    3.31 
  -4   5   1   19.94    8.57 
   5   4   1   17.58    7.09 
   5   4  -1    8.98    4.40 
  -4   5  -1   19.22    7.52 
   5   4   3    5.31    6.64 
   5   4  -3    8.51    5.29 
   5   4  -3    5.45    5.79 
  -4   5   3    5.65    5.25 
   5   4   5   22.98    8.70 
   5   4  -5   17.22    7.49 
  -4   5   5   16.42    7.76 
   4  -5  -7   26.95   11.29 
   5   4   7   25.39    9.09 
  -4   5   7   27.54   10.52 
   5   4  -7   20.00    8.40 
   5   4   9  107.53   17.66 
  -4   5   9  110.64   19.46 
   4  -5  -9  115.18   19.98 
   5   4  -9  100.50   17.91 
  -4   5  11    7.82    8.96 
   5   4 -11   11.57    9.10 
   5   4  11   14.14    9.32 
  -4   5  11   19.45    9.80 
   4  -5 -11   13.16    8.50 
  -5  -4  11   17.36   11.63 
  -5  -4  13   28.72   14.69 
   5   4  13   34.46   12.29 
  -4   5  13   57.59   18.33 
   4  -5 -13   44.73   16.67 
   5   4 -13   30.80   13.01 
  -4   5  15   -5.48    8.99 
   4  -5 -15   -9.08   11.60 
  -5  -4  15    8.47   13.19 
   5   4 -15    6.61   10.77 
  -4   5  15    1.10    4.91 
  -4   5 -15    6.33    5.43 
   5   4  15   12.16    6.44 
   5   4  15    4.93    5.12 
  -5  -4  17  -12.89   12.75 
   5   4 -17   -9.30   11.32 
   5   4  17   -0.03    5.96 
  -4   5 -17    3.12    6.45 
  -4   5  17    3.02    6.62 
   5   4  17   -3.63    4.57 
   5   4  19   17.31    8.28 
  -4   5 -19   11.17    6.40 
  -4   5  19    6.11    6.62 
   5   4  19    7.64    3.80 
  -4   5  21    8.84    6.46 
   5   4  21   -2.75    5.02 
  -4   5 -21    2.08    4.38 
   5   4  21    2.34    3.96 
  -4   5  21   -0.75    4.37 
   5   4 -23   -1.00    3.34 
   5   4  23   -1.73    4.28 
  -4   5  23    7.81    5.33 
  -4   5  23   -0.67    4.13 
   5   4  23   -4.48    3.24 
  -4   5  25    6.06    3.94 
   5   4  25   -2.75    3.29 
   5   4 -25    1.34    3.26 
  -4   5  25    3.21    3.40 
  -5  -5   0   -8.02    5.13 
   5   5   0    5.48    6.45 
   5   5   0    1.89    3.58 
  -5   5   0    0.06    5.73 
   5   5  -2   59.01   11.01 
  -5   5   2   49.03   11.80 
   5   5   2   52.71   12.26 
   5   5  -2   51.53    9.46 
  -5   5  -2   51.61   11.27 
   5   5  -4  877.26   39.06 
   5   5   4  887.50   43.18 
  -5   5   4  863.79   45.81 
   5   5  -4  831.29   38.85 
   5   5  -6   10.40    6.98 
  -5   5   6   15.04    9.06 
   5  -5  -6    9.73    8.41 
   5   5   6   13.00    7.38 
  -5   5   8   12.77    9.09 
   5   5   8   16.36    9.63 
   5  -5  -8   18.57   10.68 
   5   5  -8   22.46   10.25 
   5   5  10   31.57   12.68 
   5   5 -10   31.17   11.37 
  -5   5  10   27.88   12.82 
   5  -5 -10   34.23   12.22 
   5   5  12  420.46   37.30 
   5   5 -12  413.54   39.40 
   5  -5 -12  364.74   37.59 
  -5   5  12  398.27   41.17 
  -5  -5  14  -13.75   14.01 
   5  -5 -14    7.50    8.79 
  -5   5  14  -15.61   13.08 
   5   5 -14    9.25    8.33 
   5   5  14   -1.43    4.96 
  -5   5 -14   -3.27    5.52 
  -5   5  14   -2.47    4.78 
   5   5  14   -0.81    3.97 
  -5   5  16   70.58   20.82 
   5  -5 -16   55.62   18.40 
  -5  -5  16   75.36   24.30 
   5   5 -16   54.73   18.46 
  -5   5 -16   83.39   12.11 
   5   5  16   83.15   13.31 
  -5   5  16   92.49   13.52 
   5   5  16   75.21   11.43 
  -5   5  18    1.98    6.20 
   5   5  18    7.31    6.78 
  -5   5 -18   -4.72    4.29 
   5   5  18    4.12    4.94 
   5   5 -20   27.61    8.07 
   5   5  20   26.07    9.19 
  -5   5  20   34.26    9.31 
  -5   5 -20   17.33    7.37 
   5   5  20   33.86    7.38 
   5   5 -22    1.27    3.44 
  -5   5  22    6.43    5.47 
   5   5  22    2.19    4.31 
   5   5  22    9.62    4.21 
  -5   5  22    8.73    6.00 
  -5   5  24   10.18    4.83 
   5   5 -24   16.81    5.46 
   5   5  24   15.22    5.69 
  -5   5  24   17.66    5.01 
   5   5  24   10.19    3.56 
  -5   5 -24    7.33    4.38 
   5   5 -26    5.73    2.88 
  -5   5  26    0.62    2.05 
   5   6  -1    8.21    5.71 
   5   6   1    9.98    7.38 
   5   6  -1    7.81    6.15 
  -6   5   1   -0.07    6.99 
  -6   5  -1    2.13    5.77 
  -6   5   3  514.82   36.95 
  -6   5  -3  520.79   36.28 
   5   6  -3  556.12   32.96 
   5   6   3  519.59   34.45 
   5   6  -3  500.03   29.60 
   5   6   5  317.21   28.52 
   5   6  -5  305.42   23.57 
  -6   5   5  304.50   30.67 
   5   6  -5  316.89   26.54 
   5   6  -7   28.45   11.10 
  -6   5   7   29.81   12.57 
   5   6   7   26.35   11.18 
   6  -5  -7   36.43   12.68 
  -6   5   9   55.00   16.22 
   6  -5  -9   58.28   16.09 
   5   6   9   49.57   13.32 
   5   6  -9   40.86   12.96 
  -6   5  11  226.53   31.53 
   5   6  11  243.83   30.09 
   5   6 -11  225.82   28.94 
   6  -5 -11  218.47   30.11 
  -6   5  13   64.78   18.93 
   6  -5 -13   92.30   21.12 
  -5  -6  13   70.80   22.47 
   5   6  13   85.75   19.11 
   5   6 -13   52.41   16.51 
  -6   5  13   48.20    9.42 
  -6   5  13   60.85   10.08 
   5   6  13   64.13   10.40 
   5   6 -15   37.58   10.00 
   6  -5 -15   48.86   19.65 
   5   6 -15   10.26   10.98 
  -5  -6  15   24.65   14.12 
  -6   5  15   26.49   15.70 
  -6   5  15   33.34    8.94 
   5   6  15   30.55    9.73 
   5   6  15   15.02    6.44 
   5   6 -17    1.81    5.64 
   5   6  17   -2.24    5.33 
  -6   5  17   -1.11    6.43 
   5   6  17    1.79    5.32 
   5   6 -19   25.27    7.11 
   5   6  19   34.44    8.90 
  -6   5  19   31.61    9.37 
   5   6  19   25.03    6.85 
   5   6 -21    1.49    3.69 
   5   6  21    6.36    5.59 
  -6   5  21   10.81    7.18 
   5   6  21    3.26    3.36 
  -6   5  21    0.02    4.90 
  -6   5  23   -0.80    4.05 
   5   6  23    5.97    4.54 
   5   6 -23    5.58    4.43 
   5   6  23    4.46    3.07 
  -6   5  23    4.01    4.19 
   5   6 -25    1.07    1.80 
   5   6 -25    6.28    3.37 
  -6   5  25    1.26    2.97 
  -6   5 -25    5.06    2.76 
   4   6   0  637.78   34.04 
  -6   4   0  592.26   36.47 
   4   6  -2  210.84   19.72 
   4   6   2  207.55   20.68 
  -6   4  -2  187.50   20.65 
   4   6  -2  193.75   17.35 
  -6   4   2  201.02   21.61 
   4   6   4  113.01   16.05 
   4   6  -4  133.29   14.94 
   4   6  -4  129.49   16.51 
  -6   4   4  119.48   17.97 
   4   6  -6  328.52   27.17 
   6  -4  -6  317.07   29.62 
   4   6  -6  322.25   21.97 
  -6   4   6  348.78   31.67 
   4   6   6  326.97   27.61 
  -6   4   8   37.73   13.25 
   4   6   8   33.65   10.87 
   6  -4  -8   35.47   12.67 
   4   6  -8   29.76    9.43 
  -6   4  10   14.58   11.06 
   4   6 -10    2.20    6.67 
   6  -4 -10   -5.14   11.19 
   4   6  10    0.60    7.16 
   4   6 -12   61.27   16.87 
  -6   4  12   54.39   16.71 
   6  -4 -12   51.28   16.27 
   4   6  12   68.05   16.22 
   6  -4 -14    0.78    9.70 
   4   6  14  -15.26   11.50 
   4   6 -14    4.09    8.07 
  -6   4  14   -2.44   10.95 
   4   6  14   -6.24    5.69 
  -6   4  14   -2.68    4.34 
   4   6  14    4.14    5.25 
   4   6 -16    5.77    6.34 
  -6   4  16  -10.04   11.15 
  -4  -6  16   14.49   13.54 
   6  -4 -16    3.38    9.12 
   4   6 -16    7.46    8.83 
   4   6  16  -12.59    6.85 
  -6   4  16   -0.69    6.10 
   4   6  16    4.77    5.23 
   4   6 -18   26.20    7.71 
   4   6  18   16.40    8.22 
  -6   4  18    6.39    5.46 
   4   6  18   11.08    5.66 
   4   6  20   15.75    7.22 
  -6   4  20   17.76    7.60 
   4   6  20   19.68    6.60 
   4   6 -22    5.02    5.17 
  -6   4  22   -1.97    4.86 
   4   6  22    2.23    4.36 
   4   6  22   -4.12    3.90 
   4   6  24    0.95    3.27 
   4   6 -24   -0.94    3.50 
  -6   4  24    5.04    3.54 
   4   6  24    5.76    3.54 
   4   6 -26   -2.59    2.21 
   4   6  26    0.62    2.06 
  -6   4  26    0.89    2.09 
  -6   3   1  134.19   17.58 
   3   6   1  156.75   16.58 
  -6   3  -1  156.43   18.41 
   3   6  -1  154.25   16.30 
   3   6   3 1922.10   58.88 
  -6   3  -3 1953.00   62.65 
   3   6  -3 1928.32   53.34 
   3   6  -3 1892.99   55.23 
  -6   3   3 1860.70   64.04 
   3   6  -5  118.59   13.04 
   6  -3  -5  151.04   20.11 
   3   6   5  133.54   17.18 
   3   6  -5  129.15   17.20 
  -6   3   5  115.47   17.51 
   3   6   7  220.60   22.53 
   3   6  -7  204.69   22.32 
  -6   3   7  200.79   24.83 
   6  -3  -7  208.60   23.83 
   3   6   9    4.28    6.21 
   6  -3  -9   -4.96    7.72 
   3   6  -9   11.49    9.31 
  -6   3   9    3.43    7.87 
   3   6  11  226.72   26.48 
  -6   3  11  220.72   29.69 
   3   6 -11  200.64   26.25 
   6  -3 -11  215.97   28.18 
   3   6  13  222.03   27.92 
  -6   3  13  214.48   31.84 
   3   6 -13  212.09   28.05 
   6  -3 -13  180.34   27.79 
   6  -3 -15   61.32   17.34 
   3   6 -15   74.71   18.39 
  -6   3  15   52.45   20.32 
   3   6  15   73.24   12.38 
  -6   3  15   42.44    8.78 
   6  -3  15   59.70   11.88 
   3   6  15   72.38   11.20 
  -6   3  17    0.20   10.57 
   6  -3 -17    3.73   10.08 
  -3  -6  17   19.38   13.96 
   3   6 -17   -0.98   11.27 
   3   6  17   -1.88    5.77 
  -6   3  17   10.26    6.92 
   6  -3  17    0.87    5.85 
   3   6  17    1.22    4.81 
  -6   3  19    7.58    5.10 
   3   6  19    9.23    6.75 
   3   6  19    7.86    5.77 
   3   6  21   17.20    7.65 
  -6   3  21   15.88    6.50 
   3   6 -21   11.12    6.97 
   3   6  21   12.75    6.57 
   3   6 -23    3.15    4.43 
   3   6  23   12.99    6.46 
   3   6  23    8.37    4.33 
   3   6 -25    6.01    3.61 
   3   6  25    4.30    4.26 
   3   6  25   11.65    4.22 
  -6   3  25    9.28    4.07 
  -6   2   0  100.38   13.97 
   2   6   0   97.48   12.87 
   2   6  -2   26.28    6.83 
  -6   2   2   31.63    9.82 
  -6   2  -2   32.80    9.36 
   2   6   2   24.40    7.85 
  -6   2  -4 1263.41   47.95 
   2   6  -4 1253.23   40.97 
   2   6  -4 1295.20   46.95 
  -6   2   4 1245.40   52.32 
   6  -2  -4 1247.24   51.06 
   2   6   4 1208.30   46.80 
   2   6   6   15.40    7.93 
   2   6  -6   11.61    4.45 
   6  -2  -6    6.13    6.73 
  -6   2   6    8.47    6.01 
   2   6  -6   12.29    7.44 
   6  -2  -8    0.50    6.61 
   2   6   8   14.99    7.08 
  -6   2   8    9.22    8.23 
   2   6  -8    4.72    6.19 
   6  -2 -10   16.07   10.29 
   2   6  10   12.36    8.18 
  -6   2  10   16.09    9.63 
   2   6 -10   16.05    8.82 
   2   6  12    5.33    6.43 
   6  -2 -12   14.50    8.00 
   2   6 -12   14.13    8.11 
  -6   2  12   11.92   10.97 
  -6   2  14   -1.82    9.52 
   6  -2 -14   19.59   11.93 
   2   6 -14   17.97   12.07 
   6  -2  14   19.81    7.71 
   2   6  14   26.05    7.91 
   2   6  14   10.12    5.57 
   6  -2 -16    6.48   10.85 
   2   6 -16    7.33    9.16 
  -6   2  16   -8.79   15.23 
   2   6  16    7.30    6.91 
   6  -2  16   -1.74    6.95 
   2   6  16   17.11    7.08 
   2   6  18    2.99    5.72 
   6  -2  18   -3.12    5.92 
   2   6  18    2.98    4.83 
   2   6  20   13.99    7.03 
   6  -2  20    3.48    5.54 
   2   6  20   18.20    5.70 
   2   6  22   10.20    5.92 
   2   6 -22    4.39    5.15 
   2   6  22    2.98    3.97 
   2   6 -24    2.13    3.83 
   2   6  24    0.29    3.90 
   2   6  24   -1.89    3.41 
   2   6 -26   -0.41    2.39 
   2   6  26    2.05    2.75 
  -6   2  26   -1.50    2.65 
   2   6  26   -1.83    2.37 
  -6   1   1    1.89    4.94 
   1   6  -1    2.85    4.70 
   1   6   1    0.75    5.64 
  -6   1  -1    1.86    5.04 
  -6   1  -3   24.49    7.78 
  -6   1   3   21.33    9.03 
   6  -1  -3   22.62    8.17 
   1   6  -3   23.11    7.19 
   1   6   3   20.11    7.76 
   1   6   5  880.22   40.71 
  -6   1   5  829.20   43.33 
   6  -1  -5  858.51   42.38 
   1   6  -5  847.65   32.47 
   6  -1  -7   16.81    9.53 
   1   6   7    8.01    6.93 
   1   6  -7   18.69    8.60 
  -6   1   7   12.66    7.78 
   6  -1  -9    9.54    7.27 
   1   6   9   10.50    6.77 
  -6   1   9    8.78    7.93 
   1   6  -9    9.63    6.52 
   6  -1 -11   35.32   13.41 
  -6   1  11   35.67   14.15 
   1   6 -11   24.87   11.00 
   1   6  13  138.87   20.66 
   6  -1 -13  126.63   23.62 
  -6   1  13  150.71   26.48 
   1   6 -13  127.71   21.86 
   6  -1 -15   70.31   16.81 
  -6   1  15   95.93   23.85 
   6  -1  15   69.74   12.01 
   1   6  15   59.09   10.83 
   1   6  15   79.19   11.66 
   6  -1 -17   11.37   11.86 
  -6   1  17   -2.80   12.91 
   6  -1  17    1.24    5.99 
   1   6  17   -2.48    6.32 
   1   6  17   -1.67    4.66 
   1   6  19   34.38    9.48 
   6  -1  19   21.72    8.03 
   1   6  19   25.95    8.01 
   6  -1  21   29.13    8.26 
   1   6 -21   34.48    9.57 
   1   6  21   39.79    9.30 
   1   6  21   31.89    8.59 
   1   6 -23    1.15    4.21 
   1   6  23   17.04    7.06 
   1   6  23   13.46    6.16 
   1   6  25   -2.17    3.69 
   1   6 -25    0.96    2.82 
   1   6  25   -2.29    3.47 
  -6   1  25    1.60    2.70 
   0   6   0   -0.42    5.34 
  -6   0   0   -2.05    4.52 
   0   6  -2   10.03    6.90 
  -6   0  -2    4.76    4.50 
   6   0  -2    7.50    6.70 
   0   6   2   12.91   14.11 
  -6   0   2    6.12    6.77 
   6   0  -4   47.63    9.75 
   0   6   4   41.08    9.02 
   0   6  -4   49.19    9.48 
   0   6   4   46.93    8.21 
  -6   0   4   56.18   12.16 
  -6   0  -4   48.12    8.84 
   6   0  -6   32.94    9.60 
   0   6  -6   30.16    7.08 
   0   6   6   35.67    9.05 
  -6   0   6   26.28    7.76 
   0  -6  -6   25.67    7.35 
   0   6   6   38.19    7.03 
   0   6   8    0.61    5.18 
   6   0  -8    0.97    7.30 
  -6   0   8    3.84    8.91 
   0   6   8    0.40    5.45 
   0  -6  -8    3.74    6.40 
   0   6  10   60.48   12.85 
  -6   0  10   69.81   17.10 
   6   0 -10   65.93   14.40 
   6   0 -12   46.31   14.47 
   0   6  12   50.43   12.71 
  -6   0  12   49.34   17.14 
   6   0 -14    0.02    9.76 
  -6   0  14    2.74   10.76 
   0   6  14    5.59    4.78 
   0   6  14   12.93    6.06 
   6   0 -16   65.10   18.91 
  -6   0  16   57.16   21.17 
   6   0  16   47.52   10.53 
   0   6  16   47.39    9.67 
   0   6  16   52.03   10.27 
   6   0  18   57.57   11.59 
   0   6  18   44.11   10.65 
   0   6 -18   43.98    9.99 
   0   6  18   37.78    9.09 
   0   6  20   38.41    9.81 
   0   6 -20   29.12    8.61 
   6   0  20   17.46    6.99 
   0   6  20   36.49    9.35 
   0   6  22    0.01    5.43 
   6   0  22   -0.88    5.04 
   0   6 -22   -4.43    5.47 
   0   6  22    5.81    4.44 
   0   6  24    7.84    5.16 
   0   6 -24   -1.56    3.84 
   0   6  24    8.11    4.52 
   6   0 -26    2.93    2.82 
   0   6 -26    2.80    2.61 
   0   6  26    4.66    3.87 
   0   6  26    5.84    3.12 
  -6   0  26    9.71    3.64 
  -6  -1  -1    6.79    4.74 
   6   1  -1    5.16    4.97 
   6   1   1    1.90    5.37 
  -6  -1   1    7.63    5.67 
  -1   6   3  168.65   16.39 
  -6  -1  -3  151.52   13.60 
  -6  -1   3  155.05   18.03 
   6   1  -3  162.61   17.06 
  -1   6   5  493.55   32.47 
  -6  -1   5  472.33   33.16 
   6   1  -5  491.90   31.04 
  -1   6   5  493.58   28.15 
   6   1  -7   41.60   11.09 
  -6  -1   7   36.29   11.88 
   1  -6  -7   48.39   10.76 
  -1   6   7   40.03   10.08 
  -1   6  -7   55.22    9.94 
  -1   6   7   40.70    9.11 
  -1   6   9  172.35   20.87 
  -6  -1   9  164.01   23.64 
   6   1  -9  169.89   21.96 
   1  -6  -9  166.69   19.62 
  -1   6   9  177.42   19.21 
  -1   6  11  318.53   28.94 
  -6  -1  11  339.61   36.13 
   6   1 -11  338.07   32.70 
   6   1 -13   50.41   15.58 
  -6  -1  13   36.91   15.98 
  -1   6  13   33.24   11.36 
  -6  -1  15  108.03   24.90 
   6   1 -15   86.30   20.60 
   6   1  15   92.82   13.22 
  -1   6  15   89.42   12.59 
  -1   6 -15  109.83   15.06 
  -1   6  15  104.85   13.53 
   6   1 -17  254.10   35.87 
  -6  -1  17  268.00   41.30 
   6   1  17  263.14   21.91 
  -1   6 -17  286.46   22.57 
  -1   6  17  292.78   22.63 
  -1   6  17  276.78   22.24 
  -1   6 -19   29.13    8.10 
  -1   6  19   35.31    9.38 
   6   1  19   23.51    8.32 
  -1   6  19   31.57    8.22 
  -1   6  21    0.87    5.49 
   6   1  21    4.25    5.49 
  -1   6 -21    4.51    5.16 
  -1   6  21   -0.48    4.40 
  -1   6  23    2.23    6.16 
  -1   6 -23  -12.99    5.32 
   6   1  23    0.09    4.51 
  -1   6  23    6.55    4.75 
   6   1 -25   15.26    4.87 
  -1   6 -25    8.07    4.48 
  -1   6  25   25.25    6.63 
  -1   6  25   22.08    5.35 
  -2   6   0   87.30   12.80 
   6   2   0   71.29    9.84 
  -6  -2   0   69.21   10.30 
  -2   6   2  272.08   21.67 
   6   2   2  271.07   23.39 
  -6  -2   2  257.41   21.91 
   6   2  -2  260.75   20.21 
   6   2   2  260.63   15.68 
  -6  -2  -2  247.01   16.35 
  -2   6   4  172.79   18.31 
   6   2   4  153.56   19.14 
  -6  -2   4  168.84   19.39 
   6   2  -4  175.98   18.23 
  -6  -2   6    6.63    7.02 
   6   2  -6   -1.72    6.19 
   6   2   6    8.90    8.96 
  -2   6   6   -2.27    6.81 
  -2   6   6   -2.57    5.40 
   6   2   8  156.84   20.19 
  -6  -2   8  127.87   19.99 
   6   2  -8  142.54   19.31 
  -2   6   8  144.26   19.71 
   2  -6  -8  144.66   18.59 
  -2   6   8  153.69   19.30 
  -6  -2  10  392.32   38.20 
  -2   6  10  432.52   33.57 
   6   2 -10  426.35   35.42 
   2  -6 -10  417.57   34.08 
  -2   6  10  431.81   34.09 
  -2   6  12   39.43   12.35 
  -6  -2  12   25.94   13.49 
   6   2 -12   23.02   11.13 
   2  -6 -12   40.10   12.98 
  -2   6  12   37.80   13.02 
   6   2 -14   18.53   12.68 
  -6  -2  14   37.54   16.05 
  -2   6  14   24.07    7.54 
  -2   6 -14   26.33    7.26 
   6   2 -16   33.61   15.24 
  -6  -2  16   53.38   17.95 
  -2   6 -16   57.88   11.18 
  -2   6  16   47.07   10.17 
   6   2  16   56.81   12.19 
  -2   6 -18  128.60   14.86 
   6   2  18  129.33   16.01 
  -2   6  18  120.84   15.23 
  -2   6  18  120.44   15.30 
   6   2  20   11.70    7.15 
  -2   6  20    9.96    7.94 
  -2   6 -20    7.16    5.37 
  -2   6  20   13.50    6.99 
   6   2  22    5.81    5.40 
  -2   6 -22    5.28    5.12 
  -2   6  22   11.37    6.57 
  -2   6  22   10.18    6.02 
   6   2 -24    3.01    3.73 
  -2   6 -24    4.64    3.83 
   6   2  24   -3.73    4.49 
  -2   6  24   11.47    4.93 
   6   2 -26    5.85    3.50 
  -2   6  26    2.29    2.98 
  -6  -2  26    7.25    3.17 
  -2   6  26    3.40    2.54 
  -3   6   1  128.69   15.99 
  -3   6  -1  125.60   15.80 
   6   3   1  127.07   16.58 
   6   3  -1  149.88   19.00 
  -6  -3   1  105.36   13.72 
   6   3   1  111.39   10.37 
   6   3  -1  124.66   13.05 
  -6  -3  -1  114.35   11.63 
   6   3   3  145.66   17.98 
  -3   6   3  116.92   15.82 
  -6  -3   3  112.39   15.80 
   6   3  -3  132.96   15.39 
   6   3   5  127.47   17.42 
  -6  -3   5  128.41   18.59 
   6   3  -5  136.99   17.25 
  -3   6   5  132.57   17.36 
   6   3   7  853.47   45.17 
  -6  -3   7  784.88   47.76 
   6   3  -7  825.22   44.24 
   3  -6  -7  857.28   46.61 
  -3   6   7  872.17   46.38 
  -3   6   9  289.94   28.71 
  -6  -3   9  273.99   31.76 
   6   3  -9  257.30   27.54 
   3  -6  -9  265.74   28.22 
   6   3   9  282.51   27.53 
  -3   6   9  284.25   29.05 
  -6  -3  11   71.15   19.23 
   6   3 -11   59.90   15.92 
   6   3  11   98.65   18.46 
   3  -6 -11   79.95   16.95 
  -3   6  11   83.41   17.14 
  -3   6  11   84.71   16.67 
  -6  -3  13  446.34   47.75 
   6   3 -13  433.09   40.84 
   3  -6 -13  388.70   38.16 
  -3   6  13  418.35   39.84 
  -6  -3  15  258.16   38.64 
   6   3 -15  230.00   33.35 
   6   3  15  221.76   19.60 
  -3   6  15  232.17   19.34 
  -3   6 -15  220.97   18.53 
  -6  -3  17    6.91   10.92 
   6   3 -17   -2.24   11.90 
  -3   6  17    3.30    5.95 
  -3   6 -17    3.60    5.07 
   6   3  17    1.89    5.87 
  -3   6  19   47.80   10.91 
   6   3  19   64.95   11.87 
  -3   6 -19   56.04   10.27 
  -3   6  19   59.31   10.77 
  -3   6  21   68.70   12.31 
  -3   6 -21   49.57   10.44 
   6   3  21   49.50   11.16 
  -3   6  21   61.83   10.26 
   6   3 -23   15.87    5.93 
  -3   6  23   14.64    6.62 
   6   3  23   12.53    6.24 
  -3   6 -23    9.78    5.02 
  -3   6  23   25.30    6.38 
   6   3 -25   -1.39    2.23 
   6   3 -25    2.33    4.04 
  -3   6  25    6.47    3.98 
  -3   6  25    1.57    3.31 
   6   4   0  485.24   31.61 
  -4   6   0  470.19   31.71 
   6   4   0  442.25   21.31 
  -6  -4   0  421.38   24.16 
  -6  -4   2   -0.80    6.18 
   6   4  -2    3.17    4.80 
   6   4  -2    1.42    6.53 
   6   4   2    0.72    5.77 
  -4   6   2   -3.97    6.93 
  -4   6   4   18.59    9.56 
   6   4  -4    6.80    5.21 
  -6  -4   4    6.24    9.14 
   6   4   4    9.08    7.36 
   6   4   6    4.30    6.42 
  -6  -4   6    5.40    9.99 
   6   4  -6    3.82    6.34 
  -4   6   6    1.18    5.98 
   6   4   8  491.31   36.41 
  -6  -4   8  498.40   43.30 
   6   4  -8  501.43   36.96 
   4  -6  -8  511.38   39.76 
  -4   6   8  518.46   39.68 
   6   4 -10   84.63   18.39 
  -6  -4  10   82.92   20.36 
   6   4  10  103.62   18.75 
   4  -6 -10  129.02   22.21 
  -4   6  10  111.31   20.38 
  -4   6  10   95.42   18.20 
   6   4  12  361.76   34.62 
  -4   6  12  370.69   34.32 
  -6  -4  12  382.86   44.18 
   6   4 -12  355.14   36.54 
   4  -6 -12  345.02   36.55 
  -4   6  12  383.09   39.33 
  -4   6  14   -7.14   11.89 
   4  -6 -14   11.67   10.89 
  -6  -4  14   10.98   12.58 
   6   4 -14    6.35    9.65 
   6   4  14    3.79    5.86 
  -4   6 -14   -3.05    4.90 
  -4   6  14   -0.77    5.61 
   6   4  14   -4.88    5.17 
   6   4 -16    4.05   11.51 
  -6  -4  16   -2.62   11.26 
  -4   6 -16   -2.32    5.30 
   6   4  16    9.45    6.92 
  -4   6  16    5.30    6.25 
   6   4  16    5.89    5.09 
   6   4  18   17.44   11.09 
  -4   6 -18    5.71    5.43 
  -4   6  18   11.12    6.98 
   6   4  18    7.46    4.99 
  -4   6  20   26.53    8.52 
   6   4  20   17.58    8.40 
  -4   6 -20   27.65    8.13 
   6   4  20   39.91    7.42 
  -4   6  20   31.90    7.95 
   6   4 -22   -0.52    4.01 
  -4   6 -22    0.41    3.96 
  -4   6  22    0.87    5.24 
   6   4  22   -3.37    5.13 
  -4   6  22   -2.24    4.45 
   6   4 -24    1.99    2.95 
  -4   6  24    1.91    3.81 
   6   4 -24    9.77    5.39 
   6   4  24   -0.05    3.32 
  -4   6  24    8.36    5.55 
   6   4 -26    1.67    2.16 
  -4   6  26   -0.51    1.99 
  -5   6   1  274.72   26.51 
   6   5  -1  298.68   25.86 
   6   5   1  295.91   25.83 
  -5   6  -1  290.01   26.58 
  -6  -5   1  289.34   22.88 
   6   5  -1  275.28   19.16 
  -5   6   3  333.55   29.64 
   6   5  -3  325.21   26.59 
  -6  -5   3  319.19   27.89 
   6   5  -3  306.82   23.56 
   6   5   3  351.97   29.44 
   6   5  -5   89.04   14.92 
  -6  -5   5   79.24   16.25 
   6   5   5   79.02   15.11 
  -5   6   5   67.38   14.65 
  -6  -5   7   -1.14    8.86 
   6   5   7   10.85    8.32 
   5  -6  -7   11.63    7.80 
  -5   6   7    3.36    7.47 
   6   5  -7    4.50    7.96 
   6   5   9  179.75   24.16 
  -6  -5   9  179.30   29.00 
   6   5  -9  180.55   24.71 
   5  -6  -9  175.95   26.02 
  -5   6   9  176.00   25.51 
   6   5  11  426.76   38.31 
  -5   6  11  459.65   40.47 
  -6  -5  11  437.20   47.17 
   6   5 -11  412.94   39.26 
   5  -6 -11  394.73   40.01 
  -5   6  11  464.59   43.94 
  -6  -5  13   -3.48   11.28 
   6   5 -13    2.85    9.09 
   6   5  13   13.64   10.76 
   5  -6 -13   15.67   12.96 
  -5   6  13   -1.41   10.83 
  -5   6  13    0.50    5.02 
  -5   6  13   13.18    6.98 
  -5   6 -13  -11.10    6.24 
   6   5  13   -0.75    4.16 
   6   5 -15   16.06   13.07 
  -5   6  15   13.84    9.84 
  -6  -5  15   27.83   16.48 
   6   5  15   17.10    7.23 
  -5   6 -15   16.67    7.18 
  -5   6  15   17.71    7.98 
   6   5  15   12.58    6.07 
  -5   6 -17   34.51    8.49 
  -5   6  17   35.98    9.53 
   6   5  17   40.72    8.90 
   6   5  17   37.03    7.95 
   6   5 -19   23.08    8.02 
  -5   6  19   22.21    7.57 
  -5   6 -19   17.38    7.28 
   6   5  19   21.17    8.31 
   6   5  19   27.75    6.65 
  -5   6  19   13.59    6.60 
   6   5 -21    3.31    3.81 
   6   5  21    0.91    4.12 
  -5   6  21    3.43    6.04 
  -5   6 -21    6.65    4.38 
  -5   6  21   -3.62    4.79 
   6   5  21    1.49    3.29 
   6   5 -23    1.91    2.87 
  -5   6  23   -7.62    4.56 
   6   5 -23    4.17    4.42 
   6   5  23    5.20    4.18 
  -5   6  23    1.60    3.50 
  -5   6 -23    0.68    3.95 
  -5   6  25    4.88    2.70 
   6   5 -25    8.37    3.79 
  -5   6  25    5.11    3.46 
   6   6   0   69.50   13.74 
  -6   6   0   53.45   13.37 
  -6   6   2  418.32   34.78 
  -6   6  -2  391.88   33.11 
   6   6  -2  414.78   30.91 
   6   6   2  428.49   33.13 
  -6  -6   2  376.49   30.59 
   6   6  -2  364.57   24.46 
   6   6  -4   -1.03    6.31 
   6   6  -4    6.05    5.57 
  -6  -6   4    7.41    9.47 
   6   6   4    6.10    8.47 
  -6   6   4   11.61    7.16 
   6   6   6  189.71   23.59 
  -6   6   6  184.28   24.98 
   6   6  -6  200.54   23.09 
   6  -6  -6  187.72   24.65 
   6   6   8    3.53    7.21 
   6  -6  -8    5.36    9.38 
  -6   6   8   15.56   11.10 
   6   6  -8    4.07    7.80 
   6   6  10  376.50   37.12 
  -6  -6  10  389.69   44.95 
   6   6 -10  363.45   36.38 
   6  -6 -10  373.12   39.42 
  -6   6  10  353.97   38.76 
   6   6 -12   15.85    7.73 
   6   6 -12   26.17   13.09 
  -6  -6  12    8.80   11.01 
   6   6  12   22.93   13.37 
   6  -6 -12   35.10   16.66 
  -6   6  12   -8.80   11.70 
  -6   6  12   22.91    7.04 
  -6   6  12   17.13    6.69 
  -6   6 -12   14.16    6.34 
   6   6  12   15.59    6.30 
   6   6 -12    6.84    4.47 
   6   6 -14    7.95    7.32 
  -6  -6  14   -6.76   16.26 
   6   6  14   23.48   12.73 
  -6   6  14    5.46   13.16 
   6   6 -14   17.26   12.74 
   6  -6 -14    4.78   12.59 
  -6   6  14    8.26    5.29 
  -6   6  14    4.83    5.81 
  -6   6 -14    7.86    5.86 
   6   6  14   12.78    6.01 
   6   6 -16   34.52   10.18 
  -6   6  16   22.03    8.06 
   6   6  16   23.60    7.24 
  -6   6 -16   25.72    7.47 
   6   6  16   32.63    7.92 
   6   6 -18   77.76   11.71 
  -6   6 -18   61.59   10.47 
   6   6  18   87.74   12.03 
  -6   6  18   81.63   12.85 
   6   6  18   81.76   10.81 
   6   6 -20   -3.03    4.19 
  -6   6  20  -10.11    6.68 
   6   6  20   -1.35    4.28 
  -6   6  20   -1.50    4.11 
   6   6  20    0.29    3.49 
   6   6 -22    0.43    3.20 
  -6   6  22   -8.33    5.06 
   6   6  22    0.39    4.02 
   6   6 -22    5.44    5.35 
  -6   6  22    1.13    4.16 
   6   6  22    2.95    3.34 
  -6   6 -22   -3.12    5.22 
   6   6 -24    0.92    1.79 
   6   6 -24    2.31    2.78 
  -6   6  24   -6.00    3.45 
   6   6  24    1.16    2.68 
  -6   6  24    1.99    2.72 
  -6   6 -24    5.03    3.20 
  -7   6  -1   89.50   17.89 
   6   7  -1   78.76   15.63 
   6   7   1   69.99   13.96 
  -7   6   1   65.78   15.00 
   6   7   3   75.98   16.29 
  -6  -7   3   54.84   15.85 
   6   7  -3   72.00   13.42 
  -7   6   3   86.96   17.67 
   6   7  -3   70.78   13.18 
  -7   6   5    2.94    6.78 
   6   7   5   -0.92    6.16 
   6   7  -5    6.21    7.84 
   6   7  -5    2.97    6.89 
   6   7   7   28.05   10.31 
   7  -6  -7   48.95   15.66 
  -7   6   7   30.13   13.67 
   6   7  -7   31.71   12.08 
   6   7   9  139.20   23.62 
   6   7  -9  122.50   21.44 
   7  -6  -9  119.25   24.09 
  -7   6   9  151.51   27.73 
   6   7 -11   -2.00    5.87 
   6   7  11   21.44    9.48 
  -6  -7  11  -15.18   16.85 
   6   7  11    2.86    9.69 
  -7   6  11    4.95   10.80 
   7  -6 -11   -3.24   10.36 
   6   7 -11   -5.54    9.56 
  -7   6  11    3.43    4.71 
  -7   6  11    5.89    5.19 
   6   7  11    0.16    4.27 
   6   7 -11   -5.06    4.84 
   6   7 -13    7.74    7.41 
   6   7 -13    6.54    9.57 
  -6  -7  13   11.20   13.41 
   7  -6 -13    9.28   11.98 
   6   7  13    4.10    9.87 
  -7   6  13   -8.60   10.46 
  -7   6  13    2.16    6.02 
  -7   6 -13    1.63    5.09 
  -7   6  13    8.00    6.09 
   6   7  13    5.75    5.64 
   6   7 -13   -0.81    4.55 
   6   7 -15   24.48    7.47 
  -7   6  15   28.68    8.52 
   6   7  15   35.35    7.93 
   6   7 -17   52.96    9.60 
  -7   6  17   52.72   10.00 
   6   7  17   47.45    9.56 
   6   7  17   63.00   10.01 
   7  -6  19    5.42    5.72 
   6   7 -19    4.48    4.78 
   6   7  19   -3.10    4.39 
  -7   6  19   -9.27    6.94 
   6   7  19    3.23    3.79 
  -7   6  19    1.20    5.25 
   6   7 -21   -0.37    3.05 
   6   7 -21    5.75    5.05 
   6   7 -21    4.39    4.83 
  -7   6  21    7.87    4.76 
   6   7  21    2.81    3.85 
   6   7  21    4.23    3.70 
  -7   6  21   15.46    7.02 
  -7   6 -21    2.08    4.29 
   6   7 -23    1.51    2.75 
   6   7 -23    0.40    2.94 
   6   7  23    0.42    2.46 
  -7   6  23    1.36    3.83 
  -7   6 -23    1.43    3.25 
   6   7  23   -0.89    2.14 
   5   7   0    4.64    5.42 
  -7   5   0    3.17    7.00 
   5   7   2  462.98   34.09 
   5   7  -2  446.22   31.95 
  -7   5   2  450.79   36.42 
  -7   5  -2  416.67   34.38 
   5   7  -4   -2.60    5.96 
  -7   5   4    0.67    7.81 
   5   7   4    4.16    7.23 
   5   7  -4   -2.09    5.63 
   5   7   6  144.35   21.17 
   5   7  -6  149.16   20.11 
   7  -5  -6  143.01   22.94 
  -7   5   6  151.05   23.30 
   5   7   8   70.02   15.71 
   7  -5  -8   71.03   18.35 
  -7   5   8   56.81   17.76 
   5   7  -8   50.96   14.01 
   5   7  10  126.12   22.15 
  -7   5  10   92.04   21.91 
   7  -5 -10  122.90   23.00 
   5   7 -10   95.34   19.73 
   5   7 -12    5.18    7.69 
   5   7 -12   -2.53    9.31 
   5   7  12    9.00   11.82 
  -7   5  12    6.22   11.32 
   7  -5 -12    0.32    9.99 
  -7   5  12   -8.00    5.37 
   5   7  12   -3.04    4.90 
   5   7 -12    0.98    3.94 
   5   7 -14   81.58   12.86 
   5   7 -14   79.69   20.53 
   7  -5 -14   90.05   22.30 
  -7   5  14   60.36   21.03 
  -5  -7  14   59.38   20.61 
   5   7  14   69.48   19.20 
   5   7  14   71.91   11.36 
  -7   5  14   72.34   11.27 
  -7   5  14   56.30   10.47 
   5   7  14   93.70   12.32 
   5   7 -16    5.33    5.83 
  -7   5  16    2.55    5.03 
   5   7  16   -4.51    4.87 
   5   7  16   -2.04    4.58 
   5   7 -18   29.04    8.03 
   7  -5  18   12.16    8.09 
  -7   5  18   25.97    7.36 
   5   7  18   12.08    6.38 
   5   7  18   19.37    6.37 
   5   7 -20    1.19    3.48 
   5   7 -20   -0.61    4.57 
  -7   5  20    7.86    5.35 
   5   7  20    6.53    5.73 
   5   7  20    4.66    4.04 
   5   7  22   17.92    6.59 
   5   7 -22   18.52    6.05 
  -7   5  22   14.57    6.35 
   5   7  22   20.87    5.48 
   5   7 -24    1.20    2.36 
   5   7  24   -0.40    2.79 
   5   7 -24    1.47    3.05 
   5   7  24    0.26    2.14 
  -7   5  24    0.14    2.62 
  -7   5 -24   -1.26    3.57 
  -7   4   1   -1.92    6.13 
   4   7  -1    0.65    5.54 
   4   7   1   -2.07    7.10 
  -7   4  -1    4.25    7.85 
   4   7   3  747.34   41.53 
  -7   4   3  718.76   44.84 
   4   7  -3  756.73   38.59 
  -7   4  -3  784.52   45.22 
   4   7   5  209.73   23.55 
   4   7  -5  198.62   18.91 
   4   7  -5  183.86   20.82 
   7  -4  -5  201.05   25.21 
  -7   4   5  198.87   24.69 
  -7   4   7    0.11    7.58 
   4   7   7   13.67    7.79 
   7  -4  -7    2.09    8.70 
   4   7  -7    4.00    8.50 
  -7   4   9   14.96   11.79 
   4   7   9    8.48    7.30 
   7  -4  -9   13.66   10.68 
   4   7  -9    1.73    7.89 
   7  -4 -11  114.04   21.21 
  -7   4  11   93.82   22.18 
   4   7  11   95.77   19.41 
   4   7 -11   97.88   19.74 
   4   7 -13   55.10   10.47 
  -7   4  13   80.08   22.22 
   7  -4 -13   49.36   16.04 
   4   7  13   63.03   16.83 
   4   7 -13   64.27   17.61 
   4   7  13   54.33   10.10 
  -7   4  13   38.75    8.16 
   4   7  13   63.28   10.65 
   4   7 -15   -3.97    5.25 
   7  -4 -15   13.69   12.72 
  -7   4  15    1.07    9.89 
   4   7 -15    3.04   10.96 
   4   7  15    6.73    6.44 
   4   7  15   -1.83    5.46 
   7  -4  17   21.46    9.61 
   4   7 -17   28.75    8.14 
   4   7  17   19.49    7.82 
  -7   4  17   14.92    6.72 
   4   7  17   15.42    6.89 
   4   7  19   74.53   12.13 
  -7   4  19   61.50   10.97 
   4   7 -19   81.21   12.71 
   4   7  19   68.53   10.95 
   4   7  21    5.87    5.67 
   4   7 -21    2.01    4.71 
   4   7  21    4.16    4.10 
   4   7 -23    7.59    4.13 
   4   7  23   -1.36    3.65 
  -7   4  23    0.61    3.22 
   4   7  23    6.69    3.78 
   4   7 -25    2.90    2.26 
   4   7 -25    0.18    2.22 
   4   7  25    2.11    2.88 
  -7   4  25    1.41    2.91 
  -7   4 -25   -1.44    2.68 
  -7   3   0   -5.80    6.61 
   3   7   0   -0.40    5.45 
  -7   3  -2    3.23    6.18 
   3   7  -2    6.90    7.40 
   3   7   2    7.34    7.11 
  -7   3   2    5.95    8.43 
  -7   3  -4 3721.81   94.25 
   3   7  -4 3750.97   80.29 
   3   7   4 3668.34   89.65 
  -7   3   4 3713.35   99.71 
   7  -3  -4 3640.08   96.29 
  -7   3   6   33.28   13.05 
   7  -3  -6   26.14   10.18 
   3   7  -6   24.88    9.48 
   3   7   6   18.45    7.40 
  -7   3   8   48.57   15.00 
   7  -3  -8   60.20   16.31 
   3   7   8   56.84   13.44 
   3   7  -8   44.77   12.00 
  -7   3  10    7.01    9.12 
   7  -3 -10    9.21    7.71 
   3   7  10    0.51    6.70 
   3   7 -10    2.11    7.67 
   3   7  12  500.65   42.09 
   3   7 -12  463.50   41.48 
   7  -3 -12  475.51   43.94 
  -7   3  12  490.45   47.86 
   3   7  14    4.45    9.05 
  -7   3  14   11.90   12.25 
   3   7 -14    3.17    9.08 
   7  -3 -14   20.50   13.67 
   3   7  14   17.52    7.57 
   3   7  14    4.39    4.76 
   7  -3  16   27.02    9.50 
  -7   3  16   14.84   12.63 
   7  -3 -16   34.44   15.69 
   3   7  16   15.41    8.32 
   3   7  16   18.80    7.17 
   3   7  18   -3.84    6.53 
   3   7  18   -0.12    4.63 
   3   7 -20   94.83   13.64 
   3   7  20   93.25   14.52 
   3   7  20  103.41   12.66 
   3   7  22    4.05    5.63 
   3   7 -22   -2.79    4.41 
   3   7  22    8.27    5.22 
   3   7  24   10.37    5.07 
   3   7 -24   17.90    5.75 
  -7   3  24   15.51    5.40 
   3   7  24   13.79    4.62 
   3   7 -26    0.07    1.83 
   2   7  -1  374.77   26.46 
   2   7   1  372.90   27.28 
  -7   2  -1  357.06   27.77 
  -7   2   1  357.60   28.68 
   2   7  -3  201.50   19.13 
  -7   2  -3  181.52   20.36 
   2   7   3  198.01   20.44 
  -7   2   3  202.06   22.70 
   7  -2  -3  207.21   22.27 
   2   7  -5 1399.35   46.09 
   2   7   5 1399.92   55.87 
  -7   2   5 1373.77   61.17 
   7  -2  -5 1412.15   59.57 
   2   7   7  181.99   21.68 
  -7   2   7  167.21   23.27 
   7  -2  -7  168.35   22.52 
   2   7   9   16.74    9.36 
   7  -2  -9    1.51    7.76 
  -7   2   9   10.21    8.55 
   2   7  -9   17.41   10.02 
   2   7  11  124.86   20.99 
   7  -2 -11  157.92   25.94 
  -7   2  11  156.64   26.34 
   2   7 -11  121.34   20.22 
   2   7  13  170.20   24.97 
   7  -2 -13  177.19   28.39 
  -7   2  13  146.22   27.38 
   7  -2  13  123.32   13.96 
   2   7  13  137.28   14.96 
   2   7  13  121.98   13.37 
   7  -2 -15  -17.80   12.94 
  -7   2  15   -2.21   13.96 
   2   7  15    6.57    5.40 
   7  -2  15    0.48    6.33 
   2   7  15   13.79    6.56 
   2   7  17    9.03    6.56 
   7  -2  17    3.16    5.36 
   2   7  17    4.22    5.14 
   2   7  19   -3.34    5.48 
   2   7 -19    1.02    5.63 
   2   7  19   14.24    6.21 
   2   7  21    9.66    7.13 
   2   7 -21   21.37    7.97 
   2   7  21    9.23    5.08 
   2   7  23    7.34    4.84 
   2   7  23    7.84    4.17 
   2   7 -25    3.61    2.99 
   2   7  25    0.38    2.96 
   2   7  25    4.20    3.31 
  -7   2  25    1.07    2.57 
   1   7   0    2.23    5.05 
  -7   1   0   -5.21    6.80 
   1   7   2  541.50   33.23 
  -7   1  -2  510.27   31.49 
   1   7  -2  515.86   30.48 
  -7   1   2  514.71   33.90 
   7  -1  -2  507.51   32.65 
  -7   1   4    7.04    7.35 
   1   7  -4   -5.77    6.12 
   1   7   4    4.44    5.53 
   7  -1  -4   10.00    7.35 
  -7   1  -4    3.84    5.49 
   1   7  -6  973.63   37.43 
   1   7   6  990.73   47.85 
  -7   1   6  931.65   51.28 
   7  -1  -6  981.30   49.94 
   7  -1  -8   17.40   10.66 
   1   7   8    9.12    7.24 
  -7   1   8   11.42   10.01 
   1   7  10  312.73   29.58 
  -7   1  10  300.68   34.76 
   7  -1 -10  322.34   32.59 
   7  -1 -12    6.23    8.64 
   1   7  12    1.09    6.45 
  -7   1  12  -12.84   14.80 
   7  -1 -14  259.44   34.08 
  -7   1  14  219.34   35.12 
   1   7  14  236.61   18.93 
   7  -1  14  217.48   18.47 
   1   7  14  214.22   18.21 
   7  -1 -16   -4.04   10.87 
   1   7 -16    4.79    6.52 
   1   7  16    5.96    6.11 
   7  -1  16   11.36    7.46 
   1   7  16   -9.16    6.24 
   1   7  18   16.53    7.56 
   1   7 -18    1.15    4.98 
   7  -1  18   19.45    8.09 
   1   7  18    1.32    4.81 
   1   7  20   25.22    8.80 
   1   7 -20   15.39    6.44 
   7  -1  20   10.72    6.75 
   1   7  20   23.41    7.70 
   1   7  22   57.93   10.62 
   1   7 -22   44.32    9.47 
   1   7  22   68.56   10.35 
   1   7  24    1.32    4.47 
   1   7 -24   -3.56    3.83 
   1   7  24   -2.15    3.91 
   1   7 -26    0.99    2.18 
   1   7  26    3.75    2.91 
   1   7 -26    2.25    2.27 
  -7   1  26    1.84    2.71 
   1   7  26    4.42    2.51 
  -7   0  -1  176.99   18.07 
   0   7  -1  191.16   19.14 
  -7   0   1  188.59   20.44 
   7   0  -1  187.39   19.15 
   0   7   1  206.67   20.83 
   0   7  -3  205.62   19.60 
  -7   0   3  195.48   22.04 
   7   0  -3  210.57   21.20 
   0   7   3  215.03   21.76 
  -7   0  -3  202.35   18.99 
   0   7   5  112.12   16.64 
   0   7  -5  102.34   13.32 
   7   0  -5  109.89   16.32 
   0   7   5  104.78   12.87 
  -7   0   5  105.20   17.89 
   0   7   7  244.66   19.61 
   0   7   7  260.64   25.58 
  -7   0   7  234.53   26.99 
   7   0  -7  276.65   27.32 
   0  -7  -7  232.23   21.47 
   0   7   9  173.46   22.64 
  -7   0   9  136.55   21.92 
   7   0  -9  128.54   20.89 
   7   0 -11   35.59   13.21 
   0   7  11   45.48   13.39 
  -7   0  11   48.64   16.64 
   7   0 -13   51.67   16.25 
   0   7  13   46.06   14.02 
  -7   0  13   50.70   18.29 
   0   7  13   33.13    7.74 
   0   7 -13   47.59    9.65 
   0   7  13   37.33    7.36 
   7   0 -15  181.77   30.05 
  -7   0  15  202.50   35.07 
   0   7 -15  210.58   18.82 
   0   7  15  212.93   18.67 
   7   0  15  175.64   17.29 
   0   7  15  193.44   18.10 
   0   7 -17   16.91    7.71 
   0   7  17    8.84    6.39 
   7   0  17   14.62    7.02 
   0   7  17    0.77    5.03 
   0   7  19   44.98   10.28 
   0   7 -19   41.12    8.88 
   7   0  19   33.83    9.52 
   0   7  19   42.35    9.63 
   0   7  21   23.59    8.07 
   0   7 -21   16.66    7.30 
   7   0  21    6.97    6.04 
   0   7  21   29.26    8.00 
   0   7  23    4.39    4.75 
   0   7 -23   11.32    5.45 
   0   7  23   10.66    4.98 
   7   0 -25    5.74    3.69 
   0   7 -25    2.13    2.73 
   0   7  25   -0.48    2.99 
   0   7  25    0.56    2.59 
  -7  -1   0    0.49    5.37 
   7   1   0   -7.14    6.54 
  -1   7   2  118.40   16.49 
  -7  -1   2  105.74   16.04 
   7   1  -2  127.90   16.24 
   7   1   2  110.85   12.75 
  -7  -1  -2  108.70   13.23 
  -1   7   4  594.22   37.69 
  -1   7   4  589.52   32.51 
  -7  -1   4  598.59   38.69 
   7   1  -4  605.60   35.72 
   7   1  -6    3.27    6.31 
  -1   7   6    2.60    5.86 
  -7  -1   6    2.28    7.61 
  -1   7  -6    3.79    4.74 
  -1   7   6   -3.10    4.47 
  -1   7   8   61.57   11.74 
   7   1  -8   53.02   13.98 
  -7  -1   8   64.29   16.62 
  -1   7   8   65.60   14.63 
   1  -7  -8   48.65   12.32 
   7   1 -10    2.28    7.30 
  -7  -1  10    6.72    8.67 
  -1   7  10   16.19    7.86 
  -1   7  12  175.95   23.71 
  -7  -1  12  198.07   31.48 
   7   1 -12  181.55   26.90 
   7   1 -14    3.15    9.12 
  -7  -1  14   -1.26   12.42 
  -1   7  14   -0.38    5.16 
   7   1  14    1.37    4.99 
  -1   7 -14   -1.87    6.22 
  -1   7  14   -7.13    5.39 
   7   1 -16  156.17   29.35 
  -7  -1  16  121.38   28.86 
   7   1  16  152.69   16.25 
  -1   7  16  152.67   16.39 
  -1   7 -16  160.61   16.67 
  -1   7  16  142.79   15.80 
   7   1  18    5.25    5.81 
  -1   7 -18   -0.34    5.02 
  -1   7  18   13.16    7.24 
  -1   7  18   -0.45    5.13 
  -1   7  20   17.60    7.81 
  -1   7 -20   13.26    6.86 
   7   1  20    3.79    5.65 
  -1   7  20   10.26    5.54 
  -1   7 -22   -0.96    4.36 
  -1   7  22   -1.84    5.04 
   7   1  22   -0.19    4.53 
  -1   7  22    3.28    4.39 
   7   1 -24   20.06    6.09 
  -1   7  24   33.08    7.28 
  -1   7 -24   13.75    5.13 
  -1   7  24   33.03    6.55 
   7   1 -26    4.84    3.12 
  -1   7  26   -0.41    2.45 
  -1   7  26   -1.15    2.11 
  -7  -1  26    0.92    2.49 
   7   2  -1   -1.95    5.02 
   7   2   1   -2.83    5.53 
  -7  -2  -1    4.59    5.71 
  -2   7   1    1.59    5.77 
  -7  -2   1    5.68    5.57 
  -2   7   3  298.00   25.19 
  -7  -2   3  302.22   26.63 
   7   2  -3  311.23   24.69 
  -2   7   5  125.24   16.82 
  -2   7   5  122.42   19.02 
  -7  -2   5  112.00   17.65 
   7   2  -5  126.49   17.11 
  -7  -2   7   24.63   10.77 
   7   2  -7   20.77    7.63 
  -2   7   7   32.35   10.08 
   2  -7  -7   32.47   10.90 
  -2   7   7   28.45   10.77 
   2  -7  -9  117.69   19.49 
  -7  -2   9  110.70   21.35 
  -2   7   9  111.79   18.54 
  -2   7   9  117.63   17.89 
   7   2  -9  126.09   20.37 
   7   2 -11  113.13   21.38 
  -2   7  11  122.49   20.14 
  -7  -2  11  126.48   24.97 
   7   2 -13   11.86   11.72 
  -7  -2  13   27.82   15.33 
  -2   7  13   15.65    7.05 
  -2   7  13   16.99    6.62 
  -2   7 -13   13.48    6.71 
  -2   7  13    5.05    5.53 
   7   2 -15   21.26   12.02 
  -7  -2  15   33.88   17.07 
  -2   7 -15   29.33    8.91 
  -2   7  15   28.99    8.46 
   7   2  15   19.31    7.09 
  -2   7  15   28.37    8.14 
   7   2  17   53.77   10.75 
  -2   7 -17   62.46   11.75 
  -2   7  17   54.31   10.84 
  -2   7  17   43.39    9.30 
  -2   7  19   16.00    8.10 
  -2   7 -19    9.34    6.07 
   7   2  19   15.73    6.45 
  -2   7  19   34.26    8.80 
  -2   7  21   -0.95    5.48 
  -2   7 -21   -1.30    4.29 
   7   2  21   -2.48    4.40 
  -2   7  21   -1.61    4.98 
   7   2 -23    9.52    5.64 
  -2   7 -23    9.96    5.46 
  -2   7  23   11.49    6.33 
  -2   7  23   13.07    4.67 
   7   2 -25    4.10    3.01 
  -2   7  25    8.63    4.19 
  -2   7 -25    6.09    3.23 
  -2   7  25    3.59    2.71 
   7   3   0    3.31    4.33 
  -3   7   0   10.70    7.21 
  -7  -3   0   -0.26    4.84 
   7   3   2  164.44   20.95 
  -3   7   2  142.35   18.20 
  -7  -3   2  139.01   18.23 
   7   3  -2  132.85   15.97 
   7   3  -4   -2.40    5.99 
   7   3   4    7.82    8.62 
  -7  -3   4    6.61    8.66 
  -3   7   4    0.16    5.40 
  -3   7   6  312.73   28.80 
   7   3   6  299.25   28.33 
  -7  -3   6  259.49   28.83 
   7   3  -6  293.22   27.21 
   7   3   8   25.39   12.15 
   7   3  -8   14.91    8.03 
  -7  -3   8   26.68   11.61 
   3  -7  -8   19.05   10.61 
  -3   7   8   13.94    9.83 
  -3   7   8    6.10    7.51 
   7   3 -10    5.62    7.75 
  -7  -3  10    2.97    9.38 
   3  -7 -10   16.58   10.81 
  -3   7  10    4.87    7.33 
  -3   7  10    0.98    9.00 
  -3   7  12   38.29   12.17 
   7   3 -12   22.23   11.93 
  -7  -3  12   34.15   16.43 
   7   3 -14  200.57   30.96 
  -7  -3  14  242.04   38.05 
  -3   7  14  212.32   18.27 
  -3   7 -14  217.25   18.24 
  -3   7  14  196.81   17.97 
   7   3 -16   33.66   15.67 
  -7  -3  16   11.24   11.11 
   7   3  16   36.18    9.07 
  -3   7 -16   47.35   10.00 
  -3   7  16   30.64    8.15 
  -3   7  16   32.72    8.90 
   7   3  18   43.15    9.59 
  -3   7 -18   38.95    8.73 
  -3   7  18   34.38    9.33 
  -3   7  18   43.19    9.29 
  -3   7 -20   19.72    7.37 
   7   3  20    1.94    4.74 
  -3   7  20    6.26    6.60 
  -3   7  20    4.74    5.25 
   7   3 -22   30.89    8.03 
  -3   7  22   13.85    7.59 
  -3   7 -22    9.80    4.88 
   7   3  22    7.24    4.82 
  -3   7  22   19.77    7.76 
   7   3 -24    1.72    3.07 
  -3   7 -24   -1.55    3.26 
  -3   7  24   -1.33    3.92 
  -3   7  24    2.78    2.78 
   7   3 -26    2.05    1.90 
  -3   7  26    2.38    2.22 
  -4   7   1   92.40   15.62 
   7   4  -1  108.52   18.06 
   7   4   1   95.36   16.72 
  -7  -4   1   96.15   14.24 
   7   4  -1   88.28   12.13 
  -7  -4   3   25.13   10.21 
   7   4   3   24.87    8.99 
   7   4  -3   17.63    6.83 
  -4   7   3   24.14    9.96 
   7   4  -5   27.14    8.42 
   7   4   5   31.26   10.72 
  -4   7   5   23.57   10.91 
  -7  -4   5   28.28   10.34 
  -4   7   7  192.54   24.83 
   7   4   7  173.80   23.11 
  -7  -4   7  173.19   25.92 
   7   4  -7  174.37   22.72 
   4  -7  -7  160.70   23.32 
  -7  -4   9   21.76   12.17 
   7   4   9   22.51   10.82 
   4  -7  -9   40.59   14.18 
  -4   7   9   35.38   13.06 
  -4   7   9   35.06   13.07 
   7   4  -9   21.78   12.17 
   7   4  11  271.73   31.78 
  -4   7  11  291.06   32.32 
  -7  -4  11  284.28   38.21 
   7   4 -11  258.38   31.52 
   4  -7 -11  271.30   32.75 
  -4   7  11  272.20   33.13 
   7   4 -13    6.87   10.10 
  -7  -4  13  -11.25   14.02 
  -4   7  13   11.10    6.02 
  -4   7 -13   14.25    6.27 
  -4   7  13    2.69    6.02 
   7   4 -15    8.67   11.87 
  -7  -4  15   28.66   19.29 
  -4   7 -15   31.22    8.75 
   7   4  15   16.75    7.11 
  -4   7  15   26.20    9.09 
  -4   7  15   32.31    8.02 
  -4   7 -17   -0.35    4.49 
  -4   7  17   15.83    6.71 
   7   4  17    0.32    4.80 
  -4   7  17    0.70    5.38 
   7   4  19   10.24    5.59 
  -4   7 -19   24.01    6.60 
  -4   7  19   19.40    7.86 
  -4   7  19   24.59    7.78 
   7   4 -21    2.46    4.76 
  -4   7 -21   -7.30    5.17 
  -4   7  21   -3.76    5.87 
  -4   7 -21    2.88    4.84 
  -4   7  21    3.30    4.34 
   7   4 -23    0.13    3.34 
   7   4  23    4.89    3.69 
  -4   7 -23   -8.49    3.98 
  -4   7  23    0.57    4.81 
  -4   7  23   -0.07    3.16 
  -4   7  25    0.62    2.68 
   7   4 -25    6.16    3.13 
  -4   7  25   -0.56    2.61 
   7   5   0    1.97    6.18 
  -5   7   0   -0.66    6.09 
  -5   7   2   51.46   13.68 
   7   5  -2   56.73   13.70 
   7   5   2   46.64   12.25 
  -7  -5   2   46.88   11.45 
   7   5  -2   39.45    9.09 
   7   5  -4   10.30    7.40 
  -7  -5   4   13.25    9.74 
   7   5   4   10.24    9.03 
  -5   7   4    9.52    7.21 
   7   5  -6   88.83   16.51 
  -5   7   6  101.60   18.88 
   7   5   6   96.82   17.83 
  -7  -5   6   75.62   18.42 
  -5   7   8   37.36   13.47 
   7   5   8   20.44   10.29 
  -7  -5   8   22.79   11.07 
   7   5  -8   33.69   12.00 
   5  -7  -8   22.29   12.29 
  -7  -5  10   97.00   21.90 
   7   5  10  119.80   22.06 
   5  -7 -10  120.93   24.53 
  -5   7  10  119.75   23.18 
  -5   7  10  104.30   22.57 
   7   5 -10  117.83   21.67 
   7   5  12   16.73   13.74 
   5  -7 -12   -2.57   10.92 
  -7  -5  12    8.89   13.03 
  -5   7  12    3.06    8.95 
   7   5 -12   12.62   11.85 
  -5   7  12   -0.31   11.26 
  -5   7  12   11.14    6.87 
  -5   7  12    3.29    6.23 
  -5   7 -12   13.72    6.46 
   7   5 -12   -5.68    4.32 
   7   5  12   -1.49    3.94 
  -7  -5  14   71.15   24.50 
   7   5 -14   82.40   20.63 
  -5   7 -14   96.83   12.86 
  -5   7  14  122.58   14.33 
  -5   7  14  124.46   14.95 
   7   5  14   92.44   11.57 
   7   5  16   25.95    7.89 
  -5   7 -16   15.66    6.07 
  -5   7  16   24.07    7.86 
  -5   7  16   18.60    7.30 
   7   5  16   13.67    5.64 
   7   5 -18    9.54    6.97 
   7   5  18    5.92    4.83 
  -5   7 -18   -2.92    4.46 
  -5   7  18    0.78    5.54 
   7   5  18    5.49    4.13 
  -5   7  18    6.47    5.26 
   7   5 -20    5.43    5.62 
  -5   7 -20   -4.76    4.36 
   7   5  20   -0.43    4.12 
  -5   7  20   -4.48    6.72 
  -5   7  20    1.47    4.06 
  -5   7 -20   -7.14    5.11 
   7   5 -22   18.25    5.93 
   7   5 -22   11.65    5.00 
  -5   7  22   26.67    7.65 
  -5   7 -22   16.61    5.53 
   7   5  22   15.21    5.72 
  -5   7  22   28.76    6.22 
  -5   7 -22   12.26    5.89 
   7   5 -24    3.18    2.23 
   7   5 -24    4.66    3.45 
  -5   7  24    3.51    3.47 
  -5   7  24    2.51    3.32 
   7   6  -1  206.69   23.21 
   7   6   1  213.23   24.95 
  -6   7   1  194.25   24.93 
  -6   7  -1  202.71   25.37 
   7   6   3   36.81   11.55 
  -7  -6   3   30.14   11.50 
   7   6  -3   43.44   12.48 
   7   6  -3   43.63   10.06 
  -6   7   3   37.07   12.37 
   7   6  -5   -8.10    7.59 
  -7  -6   5   -6.80   10.20 
  -6   7   5   10.36    9.39 
   7   6   5    3.80    7.22 
  -6   7   7  176.02   27.27 
   7   6   7  171.74   24.50 
  -7  -6   7  177.15   29.39 
   6  -7  -7  147.17   24.74 
   7   6  -7  142.81   22.03 
   7   6  -9  154.93   23.63 
  -7  -6   9  155.24   29.64 
   7   6   9  152.03   24.09 
   6  -7  -9  146.40   25.73 
  -6   7   9  166.47   27.53 
   7   6 -11   19.33    8.75 
   7   6 -11    6.65   10.23 
   7   6  11   17.69   12.21 
   6  -7 -11   27.55   15.09 
  -7  -6  11   13.20   14.18 
  -6   7  11   22.37   10.93 
  -6   7  11   20.54   13.93 
  -6   7  11   30.03    8.36 
  -6   7  11   15.86    6.05 
  -6   7 -11   17.97    6.37 
   7   6 -11   19.24    6.27 
   7   6  11   16.04    5.33 
   7   6 -13   43.32   11.13 
  -7  -6  13   17.54   15.13 
   7   6  13   29.58   13.56 
   7   6 -13   26.94   14.01 
   6  -7 -13   26.45   15.73 
  -6   7  13    6.29   10.09 
  -6   7  13   25.09    9.00 
  -6   7  13   27.78    8.51 
  -6   7 -13   10.16    5.65 
   7   6 -13   18.60    6.05 
   7   6  13   32.38    7.55 
   7   6 -15    4.60    6.38 
  -6   7 -15    3.09    4.98 
  -6   7  15   -3.45    6.56 
  -6   7  15   14.61    6.78 
   7   6  15    1.32    4.72 
   7   6 -17   54.00   12.03 
  -6   7 -17   20.46    7.25 
  -6   7  17   30.02    8.75 
   7   6  17   31.03    6.96 
  -6   7  17   27.37    8.16 
   6  -7  19    9.16    7.22 
   7   6 -19   13.49    6.90 
  -6   7  19   -0.13    5.81 
  -6   7 -19   -2.35    4.84 
   7   6  19    0.13    4.13 
  -6   7  19    4.21    4.69 
   7   6  19    3.24    3.76 
  -6   7 -19    1.62    5.09 
   7   6 -21   17.39    5.53 
  -6   7  21   32.76    8.56 
   7   6 -21   24.15    7.48 
   7   6  21   18.90    5.86 
  -6   7  21   10.49    5.89 
   7   6  21   19.67    4.58 
  -6   7 -21   10.79    6.36 
   7   6 -23    2.37    2.50 
  -6   7  23   -0.56    3.40 
   7   6 -23    1.63    3.52 
  -6   7 -23    0.98    3.02 
  -6   7  23    0.37    2.77 
  -7   7   0    3.02    7.25 
   7   7   0   -7.34    9.44 
  -7   7   2   -8.90    9.43 
   7   7  -2    3.18    7.28 
   7   7   2    7.14    7.09 
   7   7  -4  103.92   15.72 
   7   7  -4  106.74   17.77 
   7   7   4  115.99   20.38 
  -7   7   4   86.35   18.82 
   7   7  -6   60.71   14.74 
  -7   7   6   53.94   17.14 
  -7  -7   6   83.17   21.43 
   7   7   6   59.26   15.76 
   7  -7  -6   69.60   19.40 
  -7   7   8   -7.84   13.60 
  -7  -7   8  -13.74   14.37 
   7   7   8    0.16    8.64 
   7  -7  -8    1.55    9.68 
   7   7  -8    2.47    7.64 
   7   7  10   18.85    8.25 
   7   7 -10    8.65    6.01 
   7   7  10   14.36    9.39 
  -7  -7  10   21.98   18.60 
   7  -7 -10   32.25   15.61 
   7   7 -10   10.66    5.07 
  -7   7  10    1.96    9.28 
   7   7 -10    7.78   11.67 
  -7   7  10    8.14    5.13 
  -7   7 -10    7.41    5.73 
   7   7 -10   14.55    6.02 
   7   7  10   10.16    5.16 
  -7   7  10    5.49    5.43 
  -7   7 -10   21.32    9.49 
   7   7 -12   54.52   11.06 
   7   7 -12   50.66   17.43 
   7   7  12   48.25   17.41 
   7  -7 -12   54.90   19.80 
  -7  -7  12   16.54   15.90 
  -7   7  12   42.21   15.23 
  -7   7  12   53.77   10.07 
  -7   7 -12   51.72    9.92 
  -7   7  12   44.04    9.95 
   7   7  12   59.01    9.91 
   7   7 -12   46.36    8.65 
   7   7 -14   14.36    6.30 
  -7   7  14   10.27    5.82 
  -7   7 -14   11.09    5.75 
  -7   7  14    1.08    5.62 
   7   7  14    5.96    4.50 
  -7   7  14   17.99    7.17 
   7   7 -14    6.88    4.53 
   7   7 -16    4.99    7.39 
  -7   7 -16    7.63    5.19 
  -7   7  16    6.08    6.46 
   7   7  16   -1.46    4.37 
  -7   7  16    6.47    5.77 
   7  -7  18    7.93    7.55 
   7   7 -18   -0.45    4.23 
   7   7 -18    3.01    3.88 
  -7   7  18    2.41    4.80 
   7   7  18   14.39    5.16 
  -7   7 -18    5.35    6.67 
  -7   7  18    3.40    4.66 
   7   7 -20    3.59    4.11 
   7  -7  20    1.42    4.21 
   7   7 -20    7.80    4.69 
  -7   7  20   12.27    6.50 
   7   7 -20    8.72    5.04 
  -7   7 -20    1.39    5.20 
  -7   7  20    1.23    4.19 
   7   7  20    3.11    2.93 
   7   7 -22    5.27    3.01 
   7   7 -22    5.08    3.29 
   7   7 -22   -1.12    3.21 
  -7   7  22    9.06    4.32 
  -7   7  22    2.32    3.48 
  -7   7 -22    1.25    3.92 
   7   7 -24    0.79    1.97 
   7   8   1  162.14   24.84 
   7   8  -1  142.81   22.02 
  -8   7  -1  121.12   22.71 
  -8   7   1  148.17   24.41 
  -8   7   3  353.93   38.54 
   7   8  -3  359.08   33.27 
   7   8   3  367.17   36.65 
   7   8   5   28.77   12.46 
  -8   7   5   30.99   14.42 
   8  -7  -5   35.23   14.98 
   7   8  -7   -1.70    4.97 
   7   8   7   -4.03    5.07 
   7   8   7   -4.88    4.79 
  -7  -8   7    7.64   13.21 
  -8   7   7   11.47   14.11 
   7   8   7    8.58    8.94 
   8  -7  -7   12.62   11.18 
   7   8  -7   -4.74    9.51 
  -8   7   7    2.96    5.80 
   7   8   7    6.72    6.39 
  -8   7  -7    8.12    8.16 
  -8   7   7    4.24    5.03 
   7   8  -7    2.08    4.25 
   7   8   9  109.01   13.95 
   7   8  -9   94.09   12.83 
   7   8  -9   90.05   12.09 
   7   8   9   88.61   11.94 
  -8   7   9  107.31   25.18 
  -7  -8   9   96.32   29.63 
   7   8   9  105.27   23.73 
   8  -7  -9   80.53   21.32 
   7   8  -9   85.14   18.57 
  -8   7  -9   74.51   11.85 
  -8   7   9   91.17   13.14 
  -8   7   9   84.64   11.52 
   7   8   9  103.45   12.53 
   7   8  -9   97.07   12.07 
  -8   7  -9   96.65   14.91 
   7   8 -11   98.66   12.84 
   7   8 -11   95.64   13.76 
   7   8  11  126.34   16.11 
  -8   7  11   76.61   20.92 
   7   8  11  116.85   23.82 
   8  -7 -11  122.46   27.26 
  -7  -8  11   89.05   26.96 
   7   8 -11   93.33   23.01 
  -8   7  11   96.61   13.08 
  -8   7  11   86.62   12.08 
  -8   7 -11   74.90   11.72 
  -8   7 -11  101.67   14.72 
   7   8 -11  102.17   13.09 
   7   8  11   98.36   12.20 
   7   8 -13   37.90    9.52 
   7   8 -13   29.55    7.89 
  -8   7  13   33.08    8.82 
  -8   7 -13   37.54    8.59 
  -8   7  13   36.15    9.34 
   7   8  13   26.05    6.64 
  -8   7 -13   14.41    7.93 
   7   8 -13   28.58    7.37 
   7   8 -15    6.51    4.89 
   7   8 -15    9.65    6.04 
   7   8 -15    5.52    5.86 
  -8   7  15    6.63    5.35 
   7   8 -15    6.71    4.82 
   7   8  15    1.27    3.88 
  -8   7 -15    0.62    5.67 
   8  -7  17   38.23   11.97 
   7   8 -17   56.18    9.56 
   7   8 -17   48.51    8.76 
  -8   7  17   45.21    9.09 
   7   8 -17   51.54    9.85 
   7   8  17   57.74    9.24 
  -8   7 -17   54.80   11.46 
  -8   7  17   24.71    8.06 
   8  -7  19   24.57    8.14 
   7   8 -19   47.77    7.96 
   7   8 -19   31.50    7.04 
  -8   7  19   28.60    7.73 
   7   8 -19   30.47    7.42 
  -8   7  19   16.48    6.50 
  -8   7 -19   17.77    7.71 
   7   8  19   39.04    6.90 
   7   8 -21    1.42    2.70 
   7   8 -21   -0.09    2.62 
   7   8 -21    0.73    2.98 
  -8   7 -21   -3.61    4.12 
  -8   7  21    4.43    3.81 
   7   8  21    3.37    3.16 
   7   8 -23    1.73    2.39 
  -8   7 -23    4.21    2.84 
  -8   6   0  368.44   36.28 
   6   8   0  397.05   34.98 
   6   8   2   72.36   16.37 
   6   8  -2   68.32   16.00 
  -8   6   2   56.71   15.95 
  -8   6  -2   72.95   16.92 
  -8   6   4  108.57   21.21 
   6   8  -4   97.28   16.39 
   6   8   4   96.87   17.79 
  -8   6   6    0.50   10.17 
   6   8   6   10.86   10.29 
   8  -6  -6   -6.38   10.84 
   6   8  -6   -3.72    6.63 
   6   8   8  171.88   26.16 
   6   8  -8  171.05   25.49 
   8  -6  -8  201.51   30.25 
  -8   6   8  178.04   29.05 
  -8   6  -8  162.55   17.51 
   6   8  10   -3.33    9.97 
   8  -6 -10   -1.15    9.96 
   6   8 -10    5.49    5.23 
  -8   6  10    1.83   10.26 
   6   8 -10  -10.69   11.32 
   6   8 -10    7.94    6.52 
   6   8  10    2.66    5.91 
   6   8  10    1.81    4.73 
  -8   6  10   13.77    6.76 
   6   8 -10    1.10    4.92 
   6   8 -12   18.60    7.74 
   8  -6 -12   16.60   10.77 
  -6  -8  12    9.23   12.76 
   6   8  12   28.87   14.77 
  -8   6  12   16.25   15.38 
   6   8 -12   37.30   19.07 
  -8   6  12   13.58    5.85 
  -8   6  12   28.80    8.60 
   6   8 -12   16.01    6.67 
   6   8  12   22.37    7.08 
   6   8 -14    0.50    5.32 
  -8   6  14    2.28    5.42 
  -8   6  14    5.95    5.24 
   6   8  14   -3.09    5.14 
   6   8 -14   -0.20    4.11 
   8  -6  16   36.34   11.20 
   6   8 -16   29.03    7.64 
  -8   6  16   32.51    8.45 
   6   8 -16   45.50   10.50 
   6   8  16   54.71    9.94 
   6   8 -18    9.87    5.18 
   6   8  18   17.49    6.67 
  -8   6  18    4.78    5.67 
   6   8 -18   13.01    6.72 
   6   8  18   14.31    5.59 
  -8   6  18    5.36    6.33 
   6   8 -20   13.89    4.99 
   8  -6  20   15.40    5.66 
   6   8 -20   29.33    6.78 
   6   8 -20   31.84    7.60 
   6   8  20   20.02    6.24 
  -8   6  20   12.44    6.76 
  -8   6 -20   14.19    7.84 
   6   8  20   32.08    6.59 
   6   8 -22    3.67    3.46 
   6   8  22   -0.64    1.96 
   6   8 -22    0.62    2.95 
  -8   6  22   -0.73    2.79 
   6   8  22    0.54    2.59 
  -8   6 -22    1.79    4.27 
   6   8 -24    3.38    2.58 
  -8   5   1  296.99   31.57 
  -8   5  -1  290.83   30.64 
   5   8  -1  307.89   28.68 
   5   8   1  318.01   29.82 
  -8   5   3   12.71    8.55 
  -8   5  -3   13.28    8.15 
   5   8  -3   13.00    8.25 
   5   8   3   20.86    8.74 
   5   8   5  278.45   29.51 
   8  -5  -5  262.21   31.14 
  -8   5   5  289.28   33.96 
   5   8  -7  217.18   25.95 
   8  -5  -7  223.78   29.79 
   5   8   7  223.37   27.06 
  -8   5   7  260.23   32.81 
   5   8   9   38.78   13.12 
   8  -5  -9   36.44   15.25 
  -8   5   9   13.91    9.50 
   5   8  -9   25.28   12.01 
   5   8 -11    1.08    4.92 
   5   8  11   14.69    9.00 
   5   8  11   12.50   10.13 
   8  -5 -11   -5.58   12.03 
  -8   5  11  -16.18   12.50 
   5   8 -11   13.04    9.13 
  -8   5  11   -1.97    4.48 
   5   8  11    5.69    4.78 
   5   8 -11    0.61    4.44 
   5   8 -13  102.93   13.68 
   8  -5 -13  125.01   26.20 
   5   8  13  129.71   25.00 
  -8   5  13  123.39   27.31 
   5   8 -13  119.22   24.75 
  -8   5  13  106.52   13.56 
   5   8 -13   99.73   12.05 
   5   8  13  127.77   14.35 
   8  -5  15   54.28   12.90 
   5   8 -15   27.00    7.69 
   5   8  15   43.63    9.14 
   5   8  15   50.27    9.62 
   5   8 -17    8.61    4.42 
   8  -5  17   10.24    7.41 
   5   8 -17   10.42    5.93 
   5   8  17   15.19    6.46 
   5   8  17    8.54    5.00 
   5   8 -19   25.48    6.53 
   8  -5  19   16.26    6.47 
   5   8  19   24.75    8.18 
   5   8 -19   21.26    7.48 
   5   8  19   35.03    8.69 
   5   8 -21   24.08    6.50 
   5   8 -21   22.97    6.82 
   5   8  21   24.50    6.63 
  -8   5  21   16.86    6.68 
  -8   5 -21   15.99    7.17 
   5   8  21   26.99    6.14 
   5   8 -23    5.55    3.19 
   5   8  23    6.20    3.71 
   5   8 -23    6.29    3.60 
  -8   5  23    1.45    3.07 
  -8   5 -23    3.64    3.64 
   5   8  23    4.79    2.91 
  -8   4   0  129.28   20.78 
   4   8   0  131.87   18.63 
  -8   4   2   32.08   11.59 
   4   8  -2   31.70    9.90 
  -8   4  -2   23.80   11.56 
   4   8   2   36.96   11.21 
   4   8  -4   -6.43    7.52 
   4   8   4    7.07    7.85 
   8  -4  -4   -0.57    8.22 
  -8   4   4    4.34    7.57 
   4   8   6    6.67    5.79 
  -8   4   6   10.21    7.21 
   8  -4  -6    5.41    8.32 
  -8   4   8   23.23   11.55 
   4   8   8   28.66   12.17 
   8  -4  -8   41.71   16.10 
   4   8  -8   22.49    9.52 
   8  -4 -10   21.42   10.43 
  -8   4  10   14.50   11.79 
   4   8  10    8.04    8.27 
   4   8 -10    8.28    8.58 
   4   8  12   64.79   14.31 
   4   8 -12   23.78    7.71 
  -8   4  12   22.27   13.48 
   8  -4 -12   35.18   14.37 
   4   8  12   26.77   13.79 
   4   8 -12   14.35   11.20 
   4   8  12   21.04    7.53 
   4   8  12   30.37    7.85 
   4   8 -12   25.34    7.46 
   8  -4  14   17.48   10.08 
   4   8 -14   -3.09    5.71 
   8  -4 -14   10.24   13.74 
  -8   4  14   -9.91   14.68 
   4   8  14   -6.20    8.43 
   4   8  14    2.91    5.87 
   4   8  14    2.07    4.42 
   8  -4  16    6.64    7.25 
   4   8 -16    4.90    4.63 
   4   8  16    0.17    5.26 
   4   8 -16   -2.92    5.46 
   4   8  16    0.98    5.35 
   8  -4  18   44.48   10.94 
   4   8  18   58.24   11.65 
   4   8 -18   71.57   11.92 
   4   8  18   78.80   11.42 
   4   8  20    3.70    5.20 
   4   8 -20    3.91    4.52 
   4   8  20    4.22    3.84 
   4   8  22    1.45    4.10 
   4   8 -22    0.67    3.70 
  -8   4  22    3.60    4.12 
   4   8  22    4.59    3.54 
   4   8 -24    2.87    2.36 
   4   8  24    4.62    3.18 
   4   8 -24   -4.21    2.89 
  -8   4 -24   -1.68    3.41 
  -8   4  24    1.02    2.36 
   4   8  24   -0.06    2.31 
   3   8  -1   18.77    7.95 
   3   8   1   13.04    7.40 
  -8   3  -1   26.66   10.84 
  -8   3   1   17.85    8.00 
   3   8  -3  362.72   28.10 
   3   8   3  347.35   30.24 
  -8   3  -3  376.26   32.73 
   8  -3  -3  348.40   32.54 
  -8   3   3  365.60   33.61 
   3   8  -5  514.30   31.75 
   3   8   5  522.64   38.17 
   8  -3  -5  552.94   41.31 
  -8   3   5  515.79   41.18 
  -8   3   7   13.49   10.37 
   3   8   7    3.41    8.40 
   8  -3  -7    6.68    8.36 
  -8   3   9   10.18   10.53 
   8  -3  -9   -2.19   10.78 
   3   8   9    6.80    6.61 
   3   8  11  187.01   26.42 
   8  -3 -11  162.89   26.97 
  -8   3  11  165.27   28.15 
   3   8  11  169.20   16.66 
   3   8  11  169.34   15.68 
   8  -3  13   31.42   11.55 
  -8   3  13   39.94   16.62 
   8  -3 -13   16.32    9.72 
   3   8  13   18.28   10.84 
   3   8  13   33.81    8.39 
   3   8  13   26.07    6.71 
   8  -3  15   11.30    7.69 
  -8   3  15   -9.80   10.29 
   8  -3 -15    4.28   10.48 
   3   8  15    1.63    5.24 
   3   8 -15    7.95    6.89 
   3   8  15   11.64    6.11 
   8  -3  17    4.98    6.79 
   3   8  17   16.13    8.03 
   3   8 -17   22.78    8.55 
   3   8  17   20.57    7.24 
   3   8  19   29.82    9.74 
   3   8 -19   45.81   10.28 
   3   8  19   42.43    8.73 
   3   8  21   23.59    9.52 
   3   8 -21   10.34    5.99 
   3   8  21   21.20    7.05 
   3   8  23    9.93    5.05 
   3   8 -23   11.67    4.96 
   3   8  23   13.32    4.39 
   3   8 -25    0.17    1.87 
   3   8  25    1.33    2.24 
   3   8 -25    1.01    2.25 
  -8   3  25    1.09    2.07 
  -8   3 -25   -1.13    2.78 
   3   8  25   -0.79    2.09 
  -8   2   0   -1.19    7.84 
   2   8   0    6.38    5.84 
   2   8  -2   -2.36    6.28 
   2   8   2   -3.68    7.59 
  -8   2   2    3.77    6.62 
   8  -2  -2   -6.84    8.28 
  -8   2  -2  -10.41    8.52 
  -8   2   4   45.24   12.76 
   2   8  -4   63.64   12.57 
   2   8   4   43.66   11.46 
   8  -2  -4   43.99   12.91 
  -8   2  -4   46.79   12.36 
  -8   2   6   -8.21   10.22 
   8  -2  -6    3.20    8.23 
   2   8   6   -2.35    6.01 
  -8   2   8  117.01   22.31 
   8  -2  -8  120.26   21.15 
   2   8   8  105.87   18.07 
  -8   2  10   36.30   14.67 
   8  -2 -10   23.46   12.77 
   2   8  10   24.62   11.53 
   8  -2  12   16.20    7.42 
   8  -2 -12   10.86   10.77 
  -8   2  12   21.76   15.73 
   2   8  12   12.74    8.44 
   2   8  12    7.19    4.94 
   2   8 -12   12.60    7.14 
   2   8  12    8.03    4.67 
   8  -2  14    0.54    6.19 
   8  -2 -14    7.38   15.31 
  -8   2  14   13.62   11.50 
   2   8  14    4.91    8.46 
   2   8 -14    4.35    6.23 
   2   8  14    5.46    5.61 
   2   8  14    7.24    5.52 
   8  -2  16    1.02    5.62 
   2   8  16    2.09    5.53 
   2   8 -16   -1.62    6.01 
   2   8  16    0.25    4.43 
   2   8  18   -4.21    5.72 
   2   8 -18   -3.31    4.87 
   2   8  18    5.98    4.86 
   2   8  20    0.04    5.69 
   2   8 -20    2.50    4.76 
   2   8  20   -1.29    4.37 
   2   8  22   -1.89    4.91 
   2   8 -22   -1.65    3.90 
   2   8  22    4.66    4.70 
   2   8  24    2.04    4.18 
   2   8 -24   -0.30    2.77 
  -8   2  24    0.03    2.93 
   2   8  24   -1.42    2.93 
   1   8  -1    0.15    5.09 
   1   8   1   -2.87    6.06 
  -8   1   1    1.09    6.76 
   8  -1  -1   11.73    7.74 
  -8   1  -1    1.60    5.49 
   1   8  -3  410.64   30.36 
   1   8   3  414.43   32.17 
  -8   1  -3  411.83   30.87 
   8  -1  -3  411.83   32.51 
  -8   1   3  414.12   34.45 
   1   8  -5  211.53   20.58 
   1   8   5  201.24   23.41 
   8  -1  -5  206.41   23.89 
  -8   1   5  217.91   26.86 
   1   8   7  107.43   18.43 
   8  -1  -7  124.71   20.81 
  -8   1   7  119.29   22.66 
   8  -1  -9   44.40   14.72 
   1   8   9   45.90   13.18 
  -8   1   9   72.92   18.31 
   8  -1 -11   25.26   12.09 
   1   8  11   38.34   13.40 
  -8   1  11   38.25   17.41 
   8  -1  13   53.61   10.42 
   8  -1 -13   81.45   20.79 
   1   8  13   82.58   18.46 
  -8   1  13   68.36   19.47 
   1   8  13   83.74   11.84 
   1   8 -13   81.86   12.85 
   8  -1  13   51.30    9.30 
   1   8  13   94.08   12.63 
   8  -1 -15    3.71    9.95 
  -8   1  15   20.31   16.74 
   1   8 -15   13.61    7.67 
   1   8  15    9.90    5.72 
   8  -1  15    0.16    5.28 
   1   8  15   -5.43    6.01 
   1   8  17   19.59    7.64 
   1   8 -17    7.82    6.01 
   8  -1  17    6.10    5.20 
   1   8  17   22.49    7.35 
   1   8  19   44.75    9.96 
   1   8 -19   53.99   10.42 
   1   8  19   71.36   11.57 
   1   8  21   21.71    7.37 
   1   8 -21   18.70    7.04 
   1   8  21   26.42    7.07 
   1   8 -23    2.11    3.51 
   1   8  23    5.29    5.13 
   1   8  23    7.09    4.00 
   8  -1 -25    3.34    3.14 
   1   8 -25    3.26    2.58 
   1   8  25   -0.61    2.61 
   1   8 -25    1.31    2.37 
   1   8  25    0.28    2.36 
  -8   1  25    1.45    2.92 
   8   0   0    7.95    5.90 
   0   8   0    6.93    7.38 
  -8   0   0    4.36    6.84 
  -8   0  -2  264.30   24.00 
   0   8   2  286.62   26.71 
   0   8  -2  269.71   23.98 
   8   0  -2  305.10   26.62 
  -8   0   2  277.80   27.14 
   8   0   2  275.07   23.13 
   8   0  -4    2.50    7.48 
   0   8   4    4.04    5.59 
   0   8  -4    3.33    7.18 
  -8   0  -4    2.71    5.23 
  -8   0   4    0.38    6.97 
   8   0  -6   25.67   11.17 
   0   8  -6   21.37    6.95 
   0   8   6   29.11   11.11 
  -8   0   6   18.14    9.34 
   8   0  -8   43.06   14.04 
   0   8   8   44.07   11.80 
  -8   0   8   30.19   12.95 
   8   0 -10   31.48   11.51 
   0   8  10   49.22   14.33 
  -8   0  10   51.59   16.64 
   8   0 -12   -4.56   10.23 
   0   8  12    5.36    6.71 
  -8   0  12   -0.21   10.29 
   0   8  12   -5.39    5.30 
   0   8 -12   -8.21    6.43 
   0   8  12   -3.94    5.16 
   8   0 -14   45.18   17.17 
  -8   0  14   44.13   18.63 
   0   8 -14   52.94   10.89 
   8   0  14   31.06    8.42 
   0   8  14   45.98    9.72 
   0   8  14   36.93    9.29 
   8   0 -16   -4.06   10.90 
  -8   0  16    6.56   13.81 
   0   8 -16   -3.13    5.16 
   0   8  16    5.22    5.05 
   8   0  16    3.98    5.44 
   0   8  16   -1.62    5.02 
   8   0  18  140.51   15.27 
   0   8  18  160.62   16.83 
   0   8 -18  157.07   16.17 
   0   8  18  163.95   17.37 
   0   8  20    2.44    5.09 
   0   8 -20    2.63    5.17 
   0   8  20   -2.79    4.32 
   0   8 -22    0.12    3.92 
   0   8  22   -5.94    4.34 
   0   8  24   -2.23    3.93 
   0   8 -24    1.90    3.08 
   0   8  24   -0.78    2.69 
  -8  -1  -1  196.10   20.16 
  -1   8   1  216.00   23.62 
  -1   8  -1  225.63   23.65 
   8   1  -1  204.35   20.98 
   8   1   1  199.04   18.91 
  -8  -1   1  215.57   23.14 
  -8  -1  -3    6.13    6.48 
   8   1  -3   -1.46    5.93 
   8   1   3    8.26    5.69 
  -1   8   3    4.63    6.53 
  -1   8  -3    3.10    5.51 
  -8  -1   3    3.33    7.72 
  -1   8   5  171.91   18.83 
  -1   8   5  196.31   23.76 
  -1   8  -5  152.59   18.33 
  -8  -1   5  185.45   24.38 
   8   1  -5  171.68   21.05 
  -1   8   7  167.07   22.65 
  -8  -1   7  184.74   25.61 
   8   1  -7  173.99   22.57 
  -1   8   7  163.54   19.00 
   1  -8  -7  172.05   21.99 
   8   1  -9   39.84   13.52 
  -1   8   9   30.18   11.26 
  -8  -1   9   25.29   11.76 
   8   1 -11    6.21    9.35 
  -1   8  11   -3.71    8.49 
  -8  -1  11   10.26   12.06 
   8   1 -13   38.76   16.22 
  -1   8  13   38.01   11.66 
  -8  -1  13   68.04   21.46 
  -1   8 -13   39.90    9.28 
  -1   8  13   58.70    9.77 
  -1   8  13   48.87    9.85 
   8   1 -15  114.56   25.38 
  -8  -1  15   82.05   23.28 
   8   1  15   76.32   11.60 
  -1   8  15   86.20   12.24 
  -1   8 -15   96.36   13.76 
  -1   8  15   97.50   13.47 
   8   1  17   30.33    8.35 
  -1   8 -17   32.01    9.15 
  -1   8  17   46.59    9.99 
  -1   8  17   48.88   10.31 
  -1   8  19    6.10    5.30 
  -1   8 -19   -0.18    5.10 
   8   1  19   -1.30    4.96 
  -1   8  19    6.18    6.10 
  -1   8  21   38.13    9.15 
  -1   8 -21   32.54    8.41 
  -1   8  21   38.28    8.67 
  -1   8 -23    6.20    4.84 
  -1   8  23   15.03    5.74 
  -1   8  23   16.94    5.48 
   8   1 -25    1.16    2.56 
  -1   8 -25    5.50    3.04 
  -1   8  25    1.84    3.22 
  -1   8 -25   -1.80    2.68 
  -1   8  25   -1.39    2.59 
   8   2   0  539.55   30.75 
  -8  -2   0  543.31   33.79 
   8   2  -2   39.28    9.82 
  -8  -2   2   28.08   10.56 
   8   2  -4   -2.55    5.79 
  -2   8   4    1.81    5.40 
  -2   8   4   -2.46    6.93 
  -8  -2   4   10.23    9.27 
   8   2  -6   87.90   16.95 
  -2   8   6   77.98   14.57 
  -2   8   6   88.26   17.25 
  -8  -2   6   69.20   16.74 
  -2   8   8  771.09   44.79 
  -2   8   8  787.54   50.61 
  -8  -2   8  746.79   53.07 
   8   2  -8  768.59   48.83 
   2  -8  -8  731.10   47.07 
   8   2 -10   -4.18   11.60 
  -2   8  10    7.82    8.95 
  -8  -2  10   -0.34    9.42 
   8   2 -12   56.21   17.02 
  -2   8  12   76.09   18.00 
  -8  -2  12   48.94   16.12 
  -2   8  12   73.57   11.14 
  -2   8 -12   68.91   11.03 
  -2   8  12   69.91   10.71 
  -2   8  12   60.40   10.89 
  -8  -2  14    6.27   14.61 
   8   2 -14   -3.16   10.35 
  -2   8  14    7.66    5.84 
  -2   8 -14    1.78    5.73 
  -2   8  14    1.24    4.96 
  -2   8 -16  202.26   18.45 
   8   2  16  194.11   17.60 
  -2   8  16  200.02   18.88 
  -2   8  16  212.06   19.23 
   8   2  18    2.81    5.03 
  -2   8 -18   -2.06    5.00 
  -2   8  18    4.78    6.07 
  -2   8  18   -2.24    4.73 
   8   2  20   84.69   12.54 
  -2   8  20  112.58   14.56 
  -2   8 -20   82.96   12.66 
  -2   8  20  120.08   13.62 
  -2   8  22    6.25    5.45 
  -2   8 -22    4.68    4.59 
  -2   8  22    1.56    4.22 
   8   2 -24    0.19    2.77 
  -2   8 -24    0.52    2.72 
  -2   8  24    3.07    3.65 
  -2   8  24    3.92    3.30 
   8   3  -1  285.65   22.76 
  -8  -3   1  309.91   26.93 
   8   3  -3   91.25   14.49 
  -3   8   3   92.06   16.12 
  -8  -3   3   93.57   20.67 
   8   3  -5   20.34    8.74 
  -3   8   5   17.43    8.27 
  -8  -3   5   19.23   10.41 
   8   3  -7   16.09    9.24 
  -8  -3   7   10.32    9.88 
   3  -8  -7   11.70    9.71 
  -3   8   7   -4.47    9.28 
  -3   8   7   10.29    8.58 
  -3   8   9  397.04   36.36 
  -3   8   9  397.10   37.78 
  -8  -3   9  374.52   40.87 
   8   3  -9  384.51   36.18 
   3  -8  -9  353.47   35.92 
  -8  -3  11   96.49   23.42 
  -3   8  11   91.97   19.93 
   8   3 -11  111.36   21.97 
  -3   8  11   82.15   11.05 
  -3   8  11   79.82   11.51 
  -3   8 -11   92.18   11.92 
   8   3 -13   -0.30    4.81 
   8   3 -13    2.44    9.30 
  -3   8  13   -5.73    8.10 
  -8  -3  13   14.70   15.88 
  -3   8  13   -0.41    5.81 
  -3   8 -13    3.00    5.82 
  -3   8  13    6.26    6.26 
  -3   8  13   -7.32    6.64 
   8   3 -15   23.10   15.42 
  -8  -3  15    2.44   11.68 
  -3   8 -15    4.43    4.70 
  -3   8  15   12.60    7.06 
  -3   8  15    8.30    5.65 
  -3   8 -17   52.76   10.55 
  -3   8  17   81.03   12.61 
   8   3  17   53.71    9.48 
  -3   8  17   61.29   10.64 
  -3   8 -19   39.73    8.52 
   8   3  19   27.32    8.00 
  -3   8  19   32.02    9.57 
  -3   8  19   24.82    8.46 
   8   3 -21    1.66    4.44 
  -3   8  21    9.54    6.00 
   8   3  21   -4.76    5.02 
  -3   8 -21   -3.58    4.50 
  -3   8  21   -8.42    4.78 
   8   3 -23    2.68    3.61 
  -3   8  23    8.09    5.20 
  -3   8 -23    5.84    3.81 
  -3   8  23    5.76    3.53 
  -3   8 -25    6.74    2.59 
  -3   8  25    4.16    3.36 
   8   3 -25    4.05    2.98 
  -3   8  25    1.74    2.29 
  -4   8   2  484.87   36.92 
   8   4  -2  450.24   29.51 
  -8  -4   2  431.26   33.56 
   8   4   4  132.00   21.45 
  -4   8   4  116.53   18.72 
  -8  -4   4   98.27   18.51 
   8   4  -4  131.17   17.60 
  -4   8   6  332.16   32.87 
   8   4   6  326.20   31.77 
  -8  -4   6  292.92   32.79 
   8   4  -6  338.97   31.51 
   8   4  -8   -9.10    8.75 
  -4   8   8   -8.10   10.03 
  -8  -4   8    5.77   10.58 
   4  -8  -8   -2.46    8.98 
  -4   8   8    2.79   10.17 
  -4   8  10  662.38   50.94 
  -4   8  10  658.67   51.46 
  -8  -4  10  583.22   53.32 
   8   4 -10  618.64   48.20 
   4  -8 -10  609.67   51.14 
   8   4 -12   19.61   11.86 
  -8  -4  12   23.69   13.57 
  -4   8  12   21.29   10.78 
  -4   8 -12   19.73    7.13 
  -4   8  12   17.88    7.14 
  -4   8  12   19.88    7.41 
  -4   8  12   16.85    6.20 
  -4   8 -12    1.91    7.05 
   8   4 -12   17.48    5.50 
   8   4 -14    2.60   10.80 
  -8  -4  14    0.77   11.85 
  -4   8  14    7.56    5.64 
  -4   8 -14   -0.80    5.18 
   8   4 -14   -1.40    4.08 
  -4   8  14   12.14    7.28 
  -4   8 -16   -1.01    5.74 
  -4   8  16   -3.18    5.33 
  -4   8  16    4.56    5.67 
  -4   8 -18   81.15   11.58 
  -4   8  18   82.19   13.39 
   8   4  18   62.12   10.56 
  -4   8 -18   66.74   11.74 
  -4   8  18   70.98   11.83 
   8   4 -20    2.22    4.63 
  -4   8 -20   -1.80    4.49 
   8   4  20   -1.09    4.02 
  -4   8  20   -0.80    6.38 
  -4   8  20   11.42    6.62 
   8   4 -22    7.58    5.12 
  -4   8 -22    0.24    3.53 
  -4   8  22    4.52    5.49 
  -4   8  22    2.71    4.77 
   8   4 -24   -2.68    2.59 
   8   4 -24   -0.32    2.49 
  -4   8  24   -5.93    3.75 
  -4   8  24   -1.66    2.88 
  -5   8   1  407.77   35.71 
   8   5   1  391.19   34.11 
   8   5  -3   56.57   12.11 
   8   5   3   67.05   16.66 
  -5   8   3   65.20   15.28 
  -8  -5   3   56.25   13.90 
   8   5  -5    2.60    5.97 
   8   5   5   11.48   10.34 
  -8  -5   5   -5.04    7.57 
  -5   8   5    0.10    7.05 
  -5   8   7  210.08   28.99 
   8   5   7  221.62   28.43 
  -8  -5   7  223.79   32.22 
   8   5  -7  207.31   25.52 
   5  -8  -7  216.17   29.65 
  -5   8   9  158.59   27.13 
  -8  -5   9  127.47   25.65 
   8   5   9  181.94   27.11 
   5  -8  -9  164.86   28.26 
  -5   8   9  167.00   28.33 
   8   5  -9  158.39   25.82 
   8   5 -11   91.76   14.10 
   8   5 -11   86.60   20.91 
  -5   8  11  101.89   21.95 
   5  -8 -11   97.15   22.98 
  -8  -5  11   82.33   23.44 
  -5   8  11   92.91   22.52 
  -5   8 -11   91.68   12.15 
  -5   8  11   95.30   12.23 
  -5   8  11   95.55   13.13 
  -5   8 -11   91.42   13.16 
   8   5 -11   82.85   11.22 
   8   5 -13    7.88    6.84 
  -8  -5  13   25.33   20.02 
   8   5 -13   13.80   12.85 
  -5   8 -13   16.11    7.04 
  -5   8  13   14.17    7.14 
  -5   8  13   15.69    6.07 
  -5   8  13   11.59    6.35 
   8   5 -13   13.92    6.03 
  -5   8 -13   29.03    9.48 
   8   5 -15   67.33   12.22 
  -5   8  15   55.55   11.22 
  -5   8 -15   52.05    9.85 
  -5   8  15   56.54   10.04 
  -5   8 -15   51.97   11.15 
   8   5 -17   31.39    9.19 
  -5   8 -17   19.37    7.19 
  -5   8  17   24.79    9.50 
  -5   8 -17   19.44    8.25 
  -5   8  17   22.17    8.05 
   8   5 -19   30.90    8.32 
  -5   8  19   28.85    8.75 
  -5   8 -19   25.09    7.08 
  -5   8  19   11.49    8.10 
  -5   8 -19   12.54    7.06 
   8   5 -21    4.89    4.78 
  -5   8 -21    1.83    4.02 
  -5   8  21    3.83    5.69 
  -5   8  21    7.51    5.42 
  -5   8 -21    6.25    4.83 
   8   5 -23    4.76    3.18 
  -5   8  23    8.84    3.93 
   8   5 -23    4.95    3.82 
  -5   8  23    1.67    3.44 
  -6   8   0  461.53   39.74 
   8   6   0  479.17   38.47 
   8   6   2    8.02    7.11 
  -6   8   2   10.28    9.99 
  -6   8   4   -1.17    8.94 
   8   6   4    6.50    9.84 
   8   6  -6   11.19    8.55 
   8   6   6   -5.78    9.58 
  -8  -6   6    1.90   11.69 
  -6   8   6   20.13   12.67 
  -6   8   8  499.45   47.16 
   8   6   8  469.96   41.83 
   8   6  -8  497.18   41.86 
  -8  -6   8  461.39   49.88 
   6  -8  -8  502.94   48.24 
   8   6 -10    9.09    7.39 
  -6   8  10    2.34    9.49 
   8   6  10   17.68   15.95 
  -8  -6  10    5.66   11.62 
   6  -8 -10   -3.49   13.59 
  -6   8  10   12.89   13.78 
   8   6 -10   -5.58   10.42 
  -6   8 -10    8.96    6.38 
  -6   8  10   -6.79    5.30 
  -6   8  10   -3.42    5.16 
   8   6 -10    5.70    5.03 
  -6   8 -10    4.91    7.35 
   8   6  10    8.43    5.77 
   8   6 -12   74.52   13.06 
   8   6 -12  110.40   27.05 
  -6   8  12   73.57   21.93 
   6  -8 -12   53.33   19.65 
  -8  -6  12   47.98   19.87 
  -6   8 -12   67.72   11.05 
  -6   8  12   82.33   12.71 
  -6   8  12   60.49   10.64 
  -6   8 -12   75.10   12.99 
   8   6  12   68.34   10.25 
   8   6 -12   59.45    9.96 
   8   6 -14   18.67    8.02 
   8   6 -14   17.31    6.75 
  -6   8  14   24.36    8.31 
  -6   8 -14   13.90    5.67 
  -6   8  14   38.69    9.53 
  -6   8 -14   14.85    8.90 
   8   6 -14   18.33    5.69 
  -6   8  14   22.39    7.58 
   8   6  14   20.67    6.17 
   8   6 -16   62.49   10.70 
   8   6 -16   55.43    9.35 
  -6   8 -16   49.90    9.47 
  -6   8  16   93.78   14.13 
  -6   8  16   54.62   10.29 
   8   6  16   50.54    8.07 
  -6   8 -16   54.11   12.49 
   8   6 -18   -1.65    4.96 
   8   6 -18    0.80    3.94 
  -6   8  18    3.54    6.02 
  -6   8 -18    4.99    5.14 
   8   6  18    2.46    3.18 
  -6   8  18   -0.71    4.66 
  -6   8 -18  -13.24    6.44 
   6  -8  20   25.46    8.33 
  -6   8 -20   32.08    7.16 
  -6   8  20   38.61    8.88 
  -6   8 -20   22.48    8.26 
  -6   8  20   15.33    7.35 
   8   6 -22    3.44    3.31 
  -6   8  22    5.42    4.04 
   8   6 -22    0.75    3.01 
  -6   8 -22   -0.53    2.05 
  -6   8  22    7.18    4.14 
   8   6 -24   -0.41    1.80 
   8   7  -1   24.92   12.36 
   8   7   1   20.51   11.37 
  -7   8   1   26.29   12.87 
   8   7   3   24.44   13.13 
  -7   8   3   33.19   13.51 
   8   7   5   -2.20    9.80 
  -7   8   5   11.51   11.49 
   8   7  -7  147.01   15.00 
   8   7   7  137.31   23.38 
  -8  -7   7  143.56   30.93 
  -7   8   7  162.96   28.46 
   8   7  -7  113.00   20.86 
   7  -8  -7  149.20   26.91 
  -7   8   7  139.80   15.97 
  -7   8  -7  127.05   13.62 
  -7   8  -7  162.02   18.97 
  -7   8   7  134.94   14.96 
   8   7  -7  156.23   15.14 
   8   7  -9   68.89   11.83 
   8   7   9   69.56   10.98 
   8   7   9   72.30   11.14 
   8   7  -9   54.10   15.99 
   8   7  -9   50.72    8.62 
   8   7   9   57.41   18.06 
  -7   8   9   96.15   23.24 
  -8  -7   9   50.40   21.45 
   7  -8  -9   56.01   19.46 
  -7   8   9   68.15   12.05 
  -7   8  -9   63.85   10.67 
  -7   8   9   62.09   10.36 
  -7   8   9   65.95   11.52 
   8   7   9   66.32   10.10 
  -7   8  -9   66.72   13.07 
   8   7  -9   56.78    9.69 
   8   7 -11  120.28   15.33 
   8   7 -11   96.20   12.20 
  -7   8  11  153.77   30.45 
   8   7  11   97.00   22.69 
  -8  -7  11   83.52   27.90 
   7  -8 -11  101.22   24.23 
  -7   8  11   82.43   22.51 
   8   7 -11   87.40   20.73 
  -7   8 -11  117.80   14.64 
  -7   8  11  113.40   14.70 
  -7   8  11  103.12   14.21 
   8   7  11  125.46   13.81 
  -7   8 -11  109.46   15.78 
   8   7 -11  114.58   13.42 
   8   7 -13   -2.98    5.40 
   8   7 -13    4.63    4.77 
  -7   8  13    3.89    4.98 
  -7   8  13    4.99    5.46 
  -7   8 -13    6.88    6.21 
   8   7 -13   -0.94    4.42 
  -7   8 -13   11.13    7.51 
   8   7  13   -3.24    5.02 
   8   7 -15    2.77    5.07 
   8   7 -15    8.47    5.53 
  -7   8 -15    1.53    4.29 
  -7   8  15   -9.83    5.93 
  -7   8 -15    8.56    6.48 
   8   7  15    4.08    4.29 
   8   7 -15   -2.84    4.72 
  -7   8  15    0.82    4.44 
   8   7 -17    5.68    4.51 
   8   7 -17    0.28    3.34 
  -7   8 -17    2.04    4.29 
  -7   8  17   -2.49    6.03 
  -7   8 -17   -2.97    5.46 
   8   7  17   -3.71    4.13 
  -7   8  17    5.17    4.10 
   7  -8  19   15.75    7.90 
   8   7 -19   10.41    5.71 
   8   7 -19   10.76    5.08 
  -7   8 -19    9.51    5.38 
  -7   8  19   16.62    6.86 
   8   7 -19   23.29    7.05 
   8   7  19   12.61    4.66 
  -7   8  19    4.12    5.51 
  -7   8 -19    8.52    6.69 
   8   7 -21    4.81    3.38 
   8   7 -21   -1.03    3.55 
  -7   8  21    3.05    3.98 
  -7   8 -21    0.86    3.96 
  -7   8  21    4.27    3.43 
   8   7 -23   -0.04    2.13 
   8   8   0   95.88   19.81 
  -8   8   0   93.98   20.38 
  -8   8   2  224.75   31.17 
   8   8   2  255.92   32.06 
   8   8  -4   13.34    5.88 
   8   8   4   15.34    4.79 
  -8   8   4   23.31   12.89 
   8   8   4   34.73   13.41 
  -8   8   4   20.04    7.77 
  -8   8  -4   17.33    8.42 
   8   8   4   14.56    6.56 
   8   8  -4   22.80    7.07 
  -8   8   4   15.08    7.35 
   8   8  -4   18.41    6.73 
   8   8  -6   45.02    8.90 
   8   8   6   33.15    7.46 
   8   8   6   33.32    7.60 
   8   8   6   40.03    8.55 
   8   8  -6   32.43    7.57 
   8  -8  -6   18.36   11.62 
  -8   8   6   33.68   14.57 
   8   8   6   30.34   13.53 
  -8   8  -6   32.63    7.60 
  -8   8   6   52.27   10.70 
   8   8   6   45.49    9.34 
  -8   8   6   41.95    9.19 
  -8   8  -6   49.19   12.59 
   8   8  -6   45.88    9.42 
   8   8   8   -1.06    6.81 
   8   8  -8   -0.56    5.24 
   8   8   8   10.87    7.07 
   8   8  -8   -1.35    4.04 
   8   8   8    9.10    9.85 
  -8   8   8    0.20   10.95 
   8  -8  -8   -0.66   12.02 
  -8   8  -8    7.32    5.25 
  -8   8   8    0.39    5.09 
  -8   8   8    4.40    5.81 
   8   8   8    2.81    4.89 
  -8   8  -8   -1.67    8.22 
  -8   8   8    0.37    5.91 
   8   8  -8    5.92    6.20 
   8   8 -10  273.95   21.15 
   8   8  10  271.12   21.01 
   8   8 -10  242.58   18.41 
  -8   8  10  249.84   37.56 
  -8  -8  10  196.20   39.24 
   8   8 -10  200.60   29.24 
   8  -8 -10  242.52   36.82 
  -8   8  10  260.58   21.69 
  -8   8 -10  276.78   24.40 
  -8   8  10  250.55   20.03 
  -8   8 -10  255.78   20.24 
   8   8 -10  264.40   20.93 
   8   8  10  283.21   20.77 
   8   8 -12    3.51    5.23 
   8   8 -12    3.79    4.21 
  -8   8 -12    1.02    4.95 
  -8   8  12   -1.20    4.77 
  -8   8  12    2.66    5.10 
   8   8  12    2.98    4.31 
   8   8 -12    4.70    5.47 
  -8   8 -12   -5.68    7.39 
   8   8 -14    8.02    5.86 
   8   8 -14   -3.92    3.67 
  -8   8 -14    2.29    4.52 
  -8   8  14   -3.01    5.48 
  -8   8  14   -0.48    6.31 
   8   8 -14    7.60    5.51 
  -8   8 -14    7.87    7.44 
   8   8 -14    1.07    4.61 
   8   8  14    3.46    5.13 
   8   8 -16    0.39    4.23 
   8   8 -16    4.83    3.77 
   8   8 -16    7.95    4.65 
  -8   8  16    3.97    6.49 
  -8   8 -16    0.98    4.27 
   8   8  16   12.56    5.31 
  -8   8 -16    3.25    6.37 
   8  -8  18   42.11   10.42 
   8   8 -18   42.81    8.59 
   8   8 -18   41.44    7.10 
  -8   8  18   43.95    8.33 
   8   8 -18   42.29    8.14 
  -8   8 -18   26.49    9.41 
   8   8  18   51.13    7.63 
  -8   8  18   28.35    7.94 
   8  -8  20    2.37    3.31 
   8   8 -20    4.14    3.44 
   8   8 -20    0.53    2.59 
   8   8 -20    1.31    3.30 
  -8   8  20    2.35    4.16 
  -8   8 -20    1.54    4.31 
  -8   8  20    2.14    2.77 
   8   8  20   -3.47    2.89 
   8   8 -22    2.99    2.99 
  -8   8 -22   15.42    4.66 
   8   9   1    5.90    4.38 
   8   9  -1    6.12    4.71 
   8   9  -1    7.61    5.01 
   8   9   1    4.41    4.97 
   8   9  -1    9.58    9.90 
   8   9   1   -9.24   13.48 
  -9   8   1   -2.20    9.49 
  -9   8  -1   10.21    6.62 
  -9   8   1   -5.19    6.35 
   8   9  -1   -4.75    5.75 
   8   9   1   -8.00    5.75 
   8   9   1    5.84    5.64 
  -9   8   1   12.44    7.23 
   8   9  -1    1.85    4.95 
  -9   8  -1    5.51    7.56 
   8   9   3    2.06    5.10 
   8   9   3    6.05    5.16 
   8   9  -3   -3.81    4.77 
   8   9   3    9.69    6.73 
   8   9  -3   14.70   11.60 
   8   9   3    1.14    8.49 
  -9   8   3   -0.57   10.08 
   8   9  -3   -2.16    5.00 
  -9   8  -3    2.66    4.84 
  -9   8   3    2.59    6.58 
  -9   8   3    7.02    7.09 
   8   9  -3    4.54    5.66 
   8   9   3   -0.78    5.24 
   8   9  -3    2.05    5.19 
  -9   8  -3    5.60    7.66 
   8   9  -5   10.83    6.01 
   8   9   5    9.46    6.93 
   8   9   5   23.23    7.92 
   8   9   5    7.81    4.92 
   8   9  -5    7.63    4.75 
  -9   8   5   34.40   17.48 
   8   9   5   24.67   13.69 
   9  -8  -5    1.81   13.14 
  -9   8  -5    9.29    5.41 
  -9   8   5   -2.93    6.21 
  -9   8  -5   14.61    9.87 
  -9   8   5   16.80    7.46 
   8   9  -5   26.91    9.05 
   8   9   5   21.38    7.22 
   8   9  -5   12.45    6.26 
   8   9   7   -3.58    5.33 
   8   9  -7    8.76    6.20 
   8   9   7   -3.21    6.68 
   8   9  -7    0.29    5.34 
   8   9   7   -4.58   10.85 
   9  -8  -7   28.55   17.04 
  -9   8   7    9.89   11.47 
  -9   8  -7    8.16    5.78 
  -9   8   7   -3.49    5.19 
  -9   8   7    4.27    6.29 
   8   9  -7    1.74    6.26 
  -9   8   7   -1.39    6.07 
   8   9   7    3.74    5.44 
  -9   8  -7    2.23    7.39 
   8   9  -9   30.37    7.87 
   8   9   9   24.13    7.69 
   8   9  -9   23.16    6.29 
   8   9   9   23.66   14.26 
   9  -8  -9   19.87   11.65 
  -9   8   9   30.92   17.46 
  -9   8  -9   38.76    9.98 
  -9   8   9   44.65    9.54 
   8   9  -9   42.21    9.95 
  -9   8  -9   33.17   11.08 
  -9   8   9   36.60    8.56 
   8   9   9   40.21    8.62 
   8   9 -11   -1.64    4.47 
   8   9 -11   -3.82    4.95 
  -9   8  11    3.10    4.77 
  -9   8 -11    0.95    4.89 
  -9   8  11    3.81    5.40 
   8   9  11   -0.07    4.49 
   8   9 -11   -2.25    5.19 
  -9   8 -11   -0.35    6.75 
   8   9 -13    0.14    5.71 
   8   9 -13    5.34    4.32 
  -9   8  13    3.48    4.90 
  -9   8  13   12.03    5.82 
  -9   8 -13   -4.03    5.42 
  -9   8 -13    3.00    6.93 
   8   9 -13    0.26    4.68 
   8   9  13   10.74    7.00 
   9  -8  15   12.96    8.83 
   8   9 -15    1.23    4.51 
   8   9 -15   -1.93    3.73 
   8   9 -15    1.04    3.97 
  -9   8  15    3.75    4.82 
   8   9  15    0.01    3.75 
  -9   8 -15   -3.54    5.77 
   8   9 -15    3.16    4.11 
   9  -8  17   13.51    7.52 
   8   9 -17    8.66    4.49 
   8   9 -17   11.49    4.61 
   8   9 -17    8.22    5.41 
  -9   8  17   10.77    5.66 
   8   9  17    9.09    4.39 
  -9   8 -17   12.47    8.60 
   8   9 -19    0.51    2.75 
   9  -8  19    4.70    5.24 
   8   9 -19    1.03    3.30 
   8   9 -19    5.38    4.20 
  -9   8 -19    0.78    4.44 
   8   9  19    1.26    2.80 
   8   9 -21   -0.20    1.57 
  -9   8 -21   -0.28    2.82 
   7   9   0    1.01    8.04 
  -9   7   0   14.39   12.87 
   7   9  -2  175.55   25.86 
   7   9   2  145.22   24.24 
  -9   7   2  142.61   25.67 
   7   9  -2  119.68   12.63 
   7   9  -2  125.68   13.34 
   7   9   4   97.92   12.01 
   7   9  -4   77.67   10.85 
   7   9   4   92.33   11.93 
   7   9  -4   79.19   10.76 
   7   9   4   73.41   17.80 
   9  -7  -4   94.99   22.92 
  -9   7   4  119.07   24.30 
  -9   7   4   78.02   11.42 
  -9   7  -4  100.08   15.42 
   7   9   4   99.94   12.15 
  -9   7   4   92.12   12.87 
   7   9  -4   95.24   12.46 
   7   9  -4   85.43   11.29 
   7   9  -6   16.16    5.35 
   7   9   6   14.15    6.51 
   7   9   6    8.62    5.28 
   7   9  -6   21.40    6.55 
   7   9   6   41.18   34.96 
  -9   7   6   20.46   13.43 
   9  -7  -6   22.78   12.78 
  -9   7   6   14.71    7.41 
  -9   7  -6   12.18    5.59 
  -9   7   6   19.43    6.59 
  -9   7  -6   23.04    9.53 
   7   9  -6   49.25   11.70 
   7   9   6   19.19    6.57 
   7   9  -6   18.78    6.87 
   7   9  -8   55.51   10.06 
   7   9   8   64.65   11.07 
   7   9   8   74.89   11.88 
   7   9  -8   58.25    9.56 
  -9   7   8   64.87   19.86 
   7   9   8   63.95   19.45 
   9  -7  -8   72.02   20.90 
  -9   7   8   49.19    9.23 
  -9   7  -8   54.37   10.07 
  -9   7   8   52.20   10.52 
   7   9  -8   64.75   11.15 
  -9   7   8   57.23   10.84 
  -9   7  -8   73.61   14.59 
   7   9   8   61.43   10.02 
   7   9 -10   -2.84    5.75 
   7   9  10    3.83    7.11 
   7   9 -10    4.08    4.51 
  -9   7  10   12.37   13.19 
  -7  -9  10    3.68   15.19 
   7   9  10    5.70    8.87 
   9  -7 -10    3.56   13.04 
  -9   7  10    4.69    6.54 
  -9   7  10    0.16    5.32 
  -9   7 -10    1.68    7.43 
   7   9 -10   -1.28    5.23 
   7   9  10   -1.09    4.57 
   7   9 -12    8.55    6.08 
   7   9 -12   13.47    6.32 
  -9   7  12   17.14    7.19 
  -9   7  12    6.73    5.33 
  -9   7 -12   15.65    9.04 
   7   9 -12   12.60    5.72 
   7   9  12   18.47    5.97 
   7   9 -14   35.67    8.66 
   9  -7  14   54.74   12.55 
   7   9 -14   35.84    8.00 
  -9   7  14   36.68    8.78 
   7   9 -14   43.28    9.05 
  -9   7  14   36.23    7.76 
   7   9  14   30.62    7.60 
   7   9 -14   41.61    8.77 
  -9   7 -14   22.34    7.90 
   9  -7  16   27.36    9.78 
   7   9 -16   27.29    6.61 
   7   9 -16   36.06    7.60 
   7   9 -16   44.34    8.69 
   7   9  16   35.91    7.42 
  -9   7 -16   24.97    9.25 
   7   9 -18    3.40    3.79 
   9  -7  18    6.91    5.09 
   7   9 -18    1.47    3.57 
   7   9 -18    1.22    4.39 
  -9   7 -18    2.96    5.10 
   7   9  18    0.22    3.29 
   7   9 -20   -0.19    2.45 
   9  -7  20    2.32    3.59 
   7   9 -20    1.10    3.72 
   7   9 -20    4.24    3.73 
  -9   7 -20   -0.01    3.99 
   7   9  20    3.06    3.26 
   7   9 -22    1.67    2.05 
  -9   7 -22   -0.98    3.03 
  -9   6   1   14.17   11.25 
   6   9  -1    1.40    8.00 
   6   9   1   14.24    9.84 
  -9   6  -1   17.00   11.23 
   6   9  -3   66.59   15.74 
   6   9   3   62.56   16.39 
  -9   6   3   65.52   18.37 
  -9   6   5   -6.24   11.10 
   6   9   5    9.00   10.06 
   9  -6  -5   10.63   11.78 
   6   9   7   25.99    7.66 
   6   9  -7   21.29    7.28 
   6   9   7   18.53    6.69 
  -9   6   7   27.19   13.08 
   6   9   7   28.59   12.74 
   6   9  -7   26.49    7.36 
   9  -6  -7   26.95   13.96 
  -9   6   7   24.30    7.63 
  -9   6  -7   16.41    7.37 
   6   9   7   22.14    6.87 
  -9   6   7   20.37    7.11 
   6   9  -7   24.56    7.05 
   6   9  -9    3.64    4.56 
   6   9   9   -7.23   12.88 
   9  -6  -9   10.81   10.40 
  -9   6   9   -2.97    9.21 
   6   9  -9   -1.17    5.36 
   6   9   9   -8.82    6.87 
  -9   6   9    5.93    6.14 
  -9   6  -9   -1.93    6.96 
   6   9   9    0.39    4.33 
   6   9  -9    2.40    4.91 
   6   9  11    4.38    7.66 
   6   9 -11    4.25    6.05 
   6   9 -11    5.33    5.91 
  -6  -9  11    0.64   12.70 
   6   9  11    0.72    8.93 
   9  -6 -11   -4.74   11.27 
  -9   6  11   18.30   13.63 
  -9   6  11    4.23    5.96 
  -9   6 -11    7.70    8.63 
   6   9  11    4.65    4.85 
   6   9 -11   -0.13    5.37 
   6   9 -13   16.14    6.85 
   6   9 -13   24.82    7.70 
   6   9 -13   18.08    7.86 
  -9   6  13   18.89    6.79 
  -9   6 -13   21.17    8.35 
   6   9 -13   22.03    6.54 
   6   9  13   10.57    4.89 
   9  -6  15    3.09    6.62 
   6   9 -15    2.33    4.20 
   6   9 -15    8.10    5.02 
   6   9 -15   -4.34    5.06 
   6   9  15    0.45    4.05 
  -9   6 -15   -4.95    6.69 
   6   9 -17    4.87    4.70 
   9  -6  17   -2.54    5.98 
   6   9 -17    0.24    4.29 
   6   9 -17   -6.50    5.10 
   6   9  17    6.11    4.63 
  -9   6  17    3.78    5.76 
  -9   6 -17    4.27    5.29 
   9  -6  19    6.75    4.93 
   6   9 -19    3.86    3.80 
   6   9 -19    1.07    3.45 
   6   9 -19    2.86    4.39 
   6   9  19    2.74    3.48 
  -9   6  19    1.73    4.11 
  -9   6 -19    5.52    5.98 
   6   9 -21    0.80    2.83 
   6   9 -21    1.54    3.33 
  -9   6  21    0.00    2.68 
  -9   6 -21    0.17    3.91 
   6   9 -23   -0.71    1.97 
  -9   6 -23    4.12    3.32 
  -9   5   0    0.12    8.19 
   5   9   0    3.82    6.56 
   5   9  -2    4.61    7.68 
   5   9   2   -0.59    7.06 
  -9   5   2    5.81    9.09 
  -9   5  -2    0.51    8.40 
   5   9  -4  547.54   39.38 
   5   9   4  524.37   42.12 
  -9   5   4  513.03   45.49 
   9  -5  -4  528.70   45.80 
   5   9   6  104.48   20.13 
   9  -5  -6  104.81   22.18 
  -9   5   6  123.59   24.35 
   5   9   8    7.27    8.71 
   9  -5  -8   18.68   13.95 
   5   9  -8   10.18    5.98 
  -9   5   8   26.39   13.08 
   5   9   8   15.31    5.77 
   5   9  -8   12.53    5.67 
   5   9   8   19.39    7.49 
   5   9  -8   20.51    7.59 
  -9   5  -8   20.43    9.31 
   5   9   8   13.95    5.71 
   5   9 -10    0.84    5.29 
   5   9  10    5.44    5.97 
   5   9 -10   -0.19    5.76 
   5   9  10    5.39   10.74 
   9  -5 -10   -6.59   10.72 
  -9   5  10   -5.07    9.22 
   5   9 -10    3.53    4.81 
  -9   5  10    4.95    5.25 
   5   9 -10   -2.92    4.54 
   5   9  10    4.70    4.36 
   5   9  12  173.49   19.33 
   9  -5  12  157.58   20.28 
   5   9 -12  117.85   14.33 
   9  -5 -12  121.57   25.78 
   5   9  12  132.16   25.69 
  -9   5  12  121.08   26.48 
  -9   5  12   98.52   12.99 
   5   9 -12  134.01   15.85 
   5   9 -12   99.72   12.63 
   5   9  12  139.25   14.67 
   5   9 -14   20.27    7.22 
   9  -5  14   18.33   11.86 
   5   9 -14   17.46    8.03 
   5   9  14   14.34    5.98 
   5   9 -14   10.22    4.84 
   5   9 -16   13.95    5.55 
   9  -5  16   11.73    7.39 
   5   9  16   10.34    6.34 
   5   9 -16   22.76    7.43 
   5   9  16   13.43    5.47 
   9  -5  18    9.26    5.86 
   5   9 -18   23.87    7.52 
   5   9  18   22.29    7.39 
   5   9 -18   20.70    7.02 
   5   9  18   30.66    7.84 
   5   9 -20    4.72    4.03 
   5   9  20    9.92    4.99 
   5   9 -20    6.08    4.77 
  -9   5 -20    4.58    5.45 
   5   9  20    8.58    4.68 
  -9   5  20    6.44    4.92 
   5   9 -22    5.06    3.49 
   5   9  22    4.99    3.18 
   5   9 -22    3.50    3.36 
  -9   5 -22    0.12    4.18 
  -9   5  22    0.00    2.59 
   5   9  22    3.62    2.75 
  -9   4  -1   27.45   12.35 
  -9   4   1   26.31   11.25 
   4   9  -1   17.93    8.43 
   4   9   1   22.54    8.91 
  -9   4  -3  115.39   20.79 
   4   9  -3  106.97   18.63 
   4   9   3  110.94   18.58 
   9  -4  -3  113.52   21.84 
  -9   4   3   90.79   19.64 
   4   9   5  291.37   30.79 
   9  -4  -5  284.57   32.74 
  -9   4   5  279.23   34.04 
   4   9   7   26.10   12.75 
   9  -4  -7   20.53   11.45 
  -9   4   7   34.59   15.63 
   9  -4  -9   -9.87    9.11 
   4   9   9   -8.26    8.31 
  -9   4   9   12.05   11.58 
   4   9   9    3.87    5.12 
   9  -4   9   12.53    8.48 
   4   9   9   11.22    4.73 
   4   9  -9    4.52    5.42 
   9  -4  11   67.01   14.00 
   4   9 -11   45.07    8.72 
   4   9  11   49.67   10.82 
   9  -4 -11   41.89   17.36 
   4   9  11   59.78   17.69 
  -9   4  11   47.02   17.43 
   4   9 -11   45.98   10.02 
   4   9 -11   33.99    8.46 
   4   9  11   53.33    9.89 
   9  -4  13   11.34    8.78 
   4   9 -13   21.15    7.74 
   9  -4 -13   -0.45   10.58 
   4   9  13   11.13    9.57 
  -9   4  13    2.13    9.95 
   4   9  13    7.19    5.88 
   4   9 -13   22.15    8.66 
   4   9 -13   28.05    7.34 
   4   9  13   10.76    5.46 
   9  -4  15    5.26    7.35 
   4   9  15    5.37    5.11 
   4   9 -15    4.89    6.10 
   4   9  15   -3.80    4.32 
   9  -4  17   -0.43    4.67 
   4   9  17   -4.46    6.04 
   4   9 -17    7.40    5.75 
   9  -4  19    2.67    3.57 
   4   9  19    3.17    4.97 
   4   9 -19    0.68    4.72 
   4   9  19   -1.74    4.14 
   4   9 -21    7.12    4.98 
   4   9  21   -0.81    3.59 
   4   9 -21    5.05    3.77 
  -9   4  21    1.69    3.80 
   4   9  21    7.03    4.12 
   4   9 -23   -0.24    2.45 
   4   9  23    0.23    2.77 
   4   9 -23    0.63    2.75 
   4   9  23    4.07    3.10 
  -9   4 -23    8.95    4.85 
  -9   4  23   -2.28    2.82 
  -9   3   0   -5.38    7.06 
   3   9   0    5.93    7.84 
  -9   3  -2  348.62   33.45 
   3   9  -2  373.01   31.21 
   3   9   2  379.77   32.84 
   9  -3  -2  389.17   36.38 
  -9   3   2  340.17   34.60 
   3   9  -4   23.94    9.63 
   3   9   4   25.48   12.56 
   9  -3  -4   12.67    7.89 
  -9   3   4   17.80   11.09 
   3   9   6 1012.90   56.98 
   9  -3  -6  955.66   58.49 
  -9   3   6  984.75   62.33 
  -9   3   8    5.81    9.99 
   9  -3  -8    8.78    8.81 
   3   9   8    4.66    7.62 
   9  -3  10  149.44   16.97 
   3   9  10  136.80   14.94 
   3   9  10  148.67   24.19 
  -9   3  10  132.79   27.35 
   9  -3 -10  151.84   27.61 
   3   9 -10  132.01   14.74 
   3   9 -10  124.20   13.24 
   3   9  10  151.65   15.16 
   9  -3  12   24.01    9.66 
  -9   3  12    0.59   10.75 
   9  -3 -12    7.95    9.79 
   3   9  12   -0.18    8.73 
   3   9 -12   15.51    8.06 
   3   9  12    7.99    6.75 
   3   9  12   15.59    6.66 
   3   9 -12    9.62    4.97 
   9  -3  14   68.58   13.81 
   9  -3 -14   63.10   21.07 
  -9   3  14   39.01   17.08 
   3   9  14   49.85   15.18 
   3   9  14   80.57   12.05 
   3   9 -14   66.07   12.09 
   3   9  14   70.57   10.60 
   9  -3  16    5.04    5.38 
   3   9  16    9.04    5.78 
   3   9 -16   11.19    6.87 
   3   9  16    4.32    4.93 
   9  -3  18    0.13    4.02 
   3   9  18   -0.60    4.64 
   3   9 -18   -2.93    5.30 
   3   9  18   -5.73    4.77 
   3   9  20    3.42    5.17 
   3   9 -20   -2.27    4.30 
   3   9  20   -2.72    4.10 
   3   9 -22   31.94    6.64 
   3   9  22   18.59    6.65 
   3   9 -22   26.61    6.28 
   3   9  22   40.56    6.78 
   3   9 -24   -1.76    2.19 
   3   9 -24   -3.18    2.80 
   3   9  24   -2.88    2.97 
   3   9  24    0.56    2.22 
  -9   3 -24   -0.89    4.16 
  -9   3  24    0.47    2.25 
   2   9  -1   68.57   14.55 
   2   9   1   65.81   13.77 
  -9   2  -1   61.24   14.32 
   9  -2  -1   68.42   15.23 
  -9   2   1   56.92   14.02 
  -9   2  -3    1.66    8.74 
   2   9  -3   -4.97    6.92 
   2   9   3    6.23    5.94 
   9  -2  -3    9.93    8.71 
  -9   2   3    5.09    7.05 
   2   9  -5  339.61   27.99 
   2   9   5  335.06   32.84 
   9  -2  -5  336.14   33.79 
  -9   2   5  344.82   35.99 
  -9   2   7   29.59   12.97 
   9  -2  -7   29.90   13.44 
   2   9   7   31.00   11.96 
  -9   2   9   27.61   14.42 
   9  -2  -9   31.56   13.41 
   2   9   9   37.23   10.07 
   2   9  11   30.61    9.92 
   9  -2  11   17.12    7.72 
  -9   2  11   24.41   11.52 
   9  -2 -11   30.46   13.79 
   2   9  11   30.59   13.47 
   2   9 -11   24.13    8.51 
   2   9  11   19.48    6.69 
   2   9  11   14.48    7.80 
   9  -2  13   25.69    9.58 
  -9   2  13   24.73   15.51 
   9  -2 -13   36.68   14.99 
   2   9  13   54.54   17.87 
   2   9 -13   27.26    7.79 
   2   9  13   19.44    7.39 
   2   9  13   19.80    6.93 
   9  -2  15   10.90    6.19 
   2   9 -15   11.87    6.76 
   2   9  15   10.51    6.22 
   2   9  15    7.11    5.83 
   9  -2  17    1.98    4.88 
   2   9 -17    4.40    6.03 
   2   9  17    2.30    5.54 
   2   9  17    0.02    4.68 
   2   9  19    4.33    5.15 
   2   9 -19    5.65    5.33 
   2   9  19    9.35    5.79 
   2   9 -21   15.50    6.07 
   2   9  21   21.36    7.07 
   2   9  21   13.34    5.77 
   2   9 -23   10.06    4.14 
   2   9  23    4.45    4.54 
   2   9 -23    0.78    3.15 
   2   9  23   14.74    4.74 
   2   9 -25    0.36    1.62 
   1   9   0    0.87    6.15 
   9  -1   0    1.81    6.41 
  -9   1   0    3.02    7.75 
   9  -1  -2   15.11    9.57 
   1   9  -2    4.42    6.35 
   1   9   2    1.39    7.36 
  -9   1   2   -0.88    9.47 
  -9   1  -2   12.07    8.85 
  -9   1  -4  414.30   33.10 
   1   9  -4  412.70   30.96 
   1   9   4  467.76   36.99 
   9  -1  -4  451.82   36.93 
  -9   1   4  438.36   39.41 
   9  -1  -6    0.93    7.51 
   1   9   6    3.16    5.83 
  -9   1   6   -4.26    9.54 
  -9   1   8    4.10    8.63 
   9  -1  -8   -7.39   11.03 
   1   9   8   -2.16    7.03 
   9  -1 -10    5.45    9.93 
   1   9  10    4.22    7.40 
  -9   1  10   -3.88   11.05 
   9  -1  12  119.33   14.32 
   1   9  12  137.51   24.29 
   9  -1 -12  151.06   27.74 
  -9   1  12  128.36   26.75 
   1   9  12  138.43   15.05 
   1   9 -12  152.52   16.24 
   1   9  12  155.18   15.96 
   9  -1  14   -4.35    5.81 
   9  -1 -14   16.00   14.07 
   1   9  14   -2.19    7.89 
  -9   1  14    7.31   10.51 
   1   9 -14    2.17    5.20 
   1   9  14    8.34    7.28 
   1   9  14    6.32    4.90 
   9  -1  16   38.28    9.51 
   1   9 -16   48.36   10.43 
   1   9  16   40.60    9.77 
   1   9  16   60.86   11.19 
   1   9  18   20.15    7.27 
   1   9 -18   14.89    6.29 
   1   9  18   14.15    6.90 
   1   9  20   33.35    8.51 
   1   9 -20   14.45    6.84 
   1   9  20   26.41    7.22 
   1   9  22    0.17    3.81 
   1   9 -22   -5.06    4.10 
   1   9  22   -0.13    3.35 
   9  -1 -24    9.37    4.51 
   1   9 -24   12.05    3.93 
   1   9  24    9.10    4.31 
   1   9 -24   13.20    4.16 
  -9   1  24    3.86    3.26 
   1   9  24    1.50    2.68 
  -9   0  -1   67.44   15.29 
   9   0  -1   68.79   13.95 
   9   0   1   69.62   13.03 
   0   9   1   70.79   13.87 
   0   9  -1   76.86   14.97 
  -9   0   1   87.21   16.89 
  -9   0  -3  519.84   35.39 
   0   9  -3  524.41   35.66 
   0   9   3  546.85   40.19 
   9   0  -3  515.90   37.55 
  -9   0   3  507.71   41.25 
   9   0   3  511.65   32.83 
  -9   0   5   27.80   11.98 
   9   0  -5   18.84   10.87 
   0   9  -5   18.01    6.97 
   0   9   5   27.56   11.66 
   9   0  -7   -0.38    7.57 
   0   9   7    8.49    6.88 
  -9   0   7   12.34    9.58 
   9   0  -9   20.87   11.88 
   0   9   9    8.07    9.54 
  -9   0   9   18.31   13.62 
   0   9  11  129.42   15.55 
   9   0  11   85.93   12.33 
   9   0 -11   86.04   19.66 
   0   9  11  105.33   20.10 
  -9   0  11  102.52   26.67 
   0   9  11   91.90   12.11 
   0   9 -11  108.30   13.53 
   0   9  11   97.17   13.06 
   9   0  13   32.02    8.62 
   9   0 -13   39.85    8.11 
   9   0 -13   57.54   16.87 
   0   9  13   50.12   16.12 
  -9   0  13   35.42   16.55 
   0   9  13   51.53   10.78 
   0   9 -13   44.95   10.08 
   0   9  13   39.01    8.75 
   0   9 -15   17.18    7.02 
   0   9  15   20.03    6.95 
   0   9  15   20.67    7.83 
   0   9 -17   45.60   10.57 
   0   9  17   64.10   11.63 
   0   9  17   58.69   10.44 
   0   9  19   30.73    9.32 
   0   9 -19   31.46    8.27 
   0   9  19   30.19    8.25 
   0   9  21    3.53    4.44 
   0   9 -21    4.24    4.69 
   0   9  21   16.13    5.99 
   0   9  23    1.97    4.55 
   0   9 -23   -0.59    2.94 
   0   9  23    7.37    4.10 
   9   0 -25    5.18    2.77 
   0   9 -25    3.99    2.18 
   0   9  25    2.84    2.93 
  -9   0 -25    4.81    3.70 
   0   9  25    2.29    2.27 
  -9   0  25    7.71    3.63 
   9   1   0   -7.58    5.31 
  -1   9   0    5.10    8.40 
  -9  -1   0   -6.18    6.20 
  -9  -1  -2  323.18   27.67 
  -1   9   2  344.82   32.14 
  -1   9  -2  340.51   29.70 
   9   1  -2  339.45   29.07 
   9   1   2  330.46   25.21 
  -9  -1   2  341.09   32.41 
  -9  -1   4    6.82   10.84 
   9   1  -4   -3.18    6.25 
  -1   9   4   -7.03    8.80 
  -1   9  -4   10.69   15.78 
  -1   9  -6  177.84   20.70 
  -1   9   6  191.20   25.12 
   9   1  -6  175.23   23.30 
  -9  -1   6  144.92   24.82 
   9   1  -8    5.17    8.42 
  -1   9   8    8.54    6.92 
  -9  -1   8    5.11    8.60 
   9   1 -10   42.01   14.98 
  -1   9  10   31.52   13.14 
  -9  -1  10   43.35   16.16 
   9   1 -12    1.39    4.15 
   9   1  12    1.31    4.86 
   9   1 -12    5.21   10.69 
  -1   9  12   -9.12   10.95 
  -9  -1  12   17.94   16.16 
  -1   9  12   -0.65    4.81 
  -1   9 -12    0.09    5.67 
  -1   9  12    7.87    7.05 
   9   1 -14  149.04   28.42 
  -9  -1  14  169.71   33.75 
  -1   9 -14  168.16   16.65 
  -1   9  14  176.86   17.69 
  -1   9  14  182.35   18.39 
   9   1 -14  145.19   14.71 
  -1   9 -16    5.33    5.39 
  -1   9  16   15.51    7.93 
   9   1  16    6.54    5.22 
  -1   9  16   -1.31    4.98 
  -1   9  18   -1.46    5.23 
  -1   9 -18    3.28    5.02 
  -1   9  18    3.16    5.43 
  -1   9 -20    2.32    4.69 
  -1   9  20    3.86    5.83 
  -1   9  20   12.10    6.18 
  -1   9 -22   39.70    7.66 
  -1   9  22   37.70    8.09 
  -1   9  22   27.42    6.43 
   9   1 -24    0.63    2.89 
  -1   9 -24    1.72    2.40 
  -1   9 -24    3.85    3.07 
  -1   9  24   -0.26    3.05 
  -1   9  24    2.65    2.95 
  -2   9   1  307.87   31.28 
  -2   9  -1  286.35   29.15 
   9   2  -1  299.94   25.64 
  -9  -2   1  302.82   29.49 
  -9  -2   3   40.11   13.19 
  -2   9   3   60.54   15.61 
  -2   9  -3   49.77   13.39 
   9   2  -5    5.79    7.72 
  -2   9   5    3.58    6.07 
  -2   9   5   22.52   12.04 
  -2   9  -5   11.88    8.98 
  -9  -2   5    6.03    8.03 
  -2   9   7  273.27   31.57 
   9   2  -7  266.72   29.80 
  -9  -2   7  252.96   32.52 
   2  -9  -7  254.97   29.35 
  -2   9   7  253.87   26.97 
   9   2  -9  126.30   22.90 
  -2   9   9  129.43   22.43 
  -9  -2   9  125.60   25.67 
   9   2 -11   18.76    7.53 
   9   2  11   12.42    6.55 
   9   2 -11   14.92   10.36 
  -2   9  11   24.74   11.64 
  -9  -2  11    0.35   12.72 
  -2   9  11    5.43    5.25 
  -2   9 -11   16.37    7.05 
  -2   9  11   15.62    7.30 
  -2   9  11   13.84    6.23 
   9   2 -13   46.75    8.97 
   9   2 -13   54.62   19.82 
  -2   9  13   39.06   13.87 
  -9  -2  13   35.64   16.41 
  -2   9 -13   57.26   10.53 
  -2   9  13   61.27   11.06 
  -2   9  13   60.92   10.80 
  -2   9 -15   78.86   12.29 
  -2   9  15   91.03   12.62 
  -2   9  15   86.49   12.76 
  -2   9 -17   15.81    6.20 
  -2   9  17   24.25    7.83 
  -2   9  17   21.82    8.01 
  -2   9 -19   20.48    7.64 
  -2   9  19   32.92    8.77 
  -2   9  19   23.24    7.78 
   9   2 -21    1.98    4.51 
  -2   9 -21    2.88    4.48 
  -2   9  21    7.88    5.23 
  -2   9  21    3.12    4.00 
   9   2 -23    9.30    4.35 
  -2   9 -23    8.00    4.59 
  -2   9  23   12.08    5.14 
  -2   9  23    8.65    4.03 
  -2   9  25   -0.26    2.23 
  -9  -3   2   36.78   15.03 
   9   3  -2   41.94   10.60 
  -3   9   4   96.49   16.97 
  -3   9   4   62.39   15.57 
   9   3  -4   74.55   19.95 
  -9  -3   4   76.82   16.66 
  -3   9   6   -1.54    6.10 
   9   3  -6    2.69    7.52 
  -3   9   6   -4.16   10.61 
  -9  -3   6    3.96   10.06 
   9   3  -8   72.93   17.33 
  -3   9   8   80.77   17.15 
   3  -9  -8   92.80   20.25 
  -3   9   8   93.98   20.40 
  -9  -3   8   64.47   18.31 
   9   3 -10    7.32    4.80 
   9   3 -10   -6.20    8.43 
  -3   9  10   -0.72    9.59 
  -9  -3  10   -7.43   12.86 
  -3   9  10   -4.47    5.11 
  -3   9  10    0.50    5.56 
  -3   9 -10    2.23    5.08 
  -3   9  10   -1.13    5.01 
   9   3 -12   -4.31    5.01 
   9   3 -12    5.02    9.89 
  -3   9  12    3.07   10.45 
  -9  -3  12  -21.03   12.45 
  -3   9  12    0.16    5.37 
  -3   9  12    1.20    5.27 
  -3   9 -12    7.65    6.31 
  -3   9  12   -0.64    4.55 
   9   3 -14    7.66   13.78 
  -9  -3  14  -20.02   17.03 
  -3   9  14    2.61    6.42 
  -3   9 -14   -2.76    5.52 
  -3   9  14   -0.44    5.20 
   9   3 -14    2.50    4.44 
  -3   9 -16   -2.30    5.06 
  -3   9  16    1.90    5.62 
  -3   9  16   -2.49    4.91 
  -3   9 -18   -1.19    4.48 
  -3   9  18    8.11    6.20 
  -3   9  18    4.77    4.92 
   9   3 -20    6.92    5.81 
  -3   9 -20   -3.53    5.12 
  -3   9  20    5.55    5.67 
  -3   9  20    0.38    3.69 
   9   3 -22    1.31    3.57 
  -3   9  22   -5.59    4.84 
  -3   9 -22    2.18    3.44 
  -3   9  22  -10.80    4.23 
   9   3 -24    0.69    2.21 
  -3   9 -24    5.51    2.64 
  -3   9 -24    2.74    2.53 
  -3   9  24   -4.59    3.65 
   9   3 -24    3.71    3.46 
  -3   9  24    1.85    2.68 
   9   4  -3   53.08   13.18 
  -4   9   3   68.39   16.47 
  -9  -4   3   40.92   12.38 
  -4   9   5  171.73   24.92 
   9   4  -5  148.24   21.88 
  -9  -4   5  189.55   28.03 
   9   4  -7  122.05   20.61 
  -4   9   7  113.71   21.15 
   4  -9  -7  123.30   24.06 
  -9  -4   7  119.34   25.18 
  -4   9   7  141.29   26.42 
  -4   9   9  236.52   30.84 
  -4   9   9  261.49   33.74 
   9   4  -9  217.40   30.06 
  -9  -4   9  229.25   34.98 
   4  -9  -9  231.56   32.59 
  -4   9   9  217.25   18.28 
  -4   9   9  225.55   18.20 
  -4   9  -9  215.87   18.38 
  -4   9   9  223.50   18.08 
   9   4  -9  219.19   17.48 
   9   4 -11    0.44    4.38 
   9   4 -11   13.38    8.35 
  -4   9  11   13.88   11.23 
  -9  -4  11    2.90   12.81 
  -4   9  11   13.74    7.19 
  -4   9 -11   24.81    9.15 
  -4   9  11    9.55    6.44 
  -4   9 -11   16.84    7.83 
  -4   9  11    6.27    5.03 
   9   4 -13    1.40    8.66 
  -9  -4  13  -11.30   14.36 
  -4   9  13   -0.36    5.12 
  -4   9  13    0.60    5.48 
  -4   9 -13   10.71    6.91 
  -4   9  13    2.25    5.17 
   9   4 -13   -0.86    4.30 
  -4   9 -13   -4.48    5.91 
  -4   9  15   24.41    8.25 
  -4   9 -15   27.69    8.04 
  -4   9  15   23.41    7.32 
   9   4 -15   24.41    6.36 
  -4   9 -15   51.63   11.05 
   9   4 -17   74.42   12.37 
  -4   9 -17   56.86    9.89 
  -4   9  17   52.30   10.39 
   9   4 -19   10.03    5.87 
  -4   9  19   13.28    6.34 
  -4   9 -19    7.56    5.45 
  -4   9  19    2.01    5.00 
   9   4 -21    3.87    4.26 
  -4   9 -21    0.60    3.56 
  -4   9  21    6.42    5.15 
  -4   9  21    4.80    4.70 
   9   4 -23   -0.69    2.36 
  -4   9 -23   -1.41    2.30 
  -4   9 -23   -1.48    2.70 
  -4   9  23   -1.82    3.54 
   9   4 -23   -0.84    2.77 
  -4   9  23    0.62    4.48 
  -5   9   2   15.22   10.23 
  -5   9   4   83.56   18.68 
   9   5  -6   -3.22    9.32 
  -5   9   6    0.54    7.90 
  -9  -5   6   -7.22   11.58 
   9   5  -8    4.28    6.15 
   9   5  -8    5.96    5.46 
   9   5  -8    5.39    9.98 
  -9  -5   8    6.95   12.66 
   5  -9  -8    6.31   12.97 
  -5   9   8   12.29   11.65 
  -5   9   8   25.36   14.96 
  -5   9   8    4.36    6.22 
  -5   9  -8   11.15    6.89 
  -5   9   8    5.06    5.44 
  -5   9   8    2.36    5.04 
   9   5 -10    7.56    6.93 
   9   5 -10   19.98   12.91 
   5  -9 -10    9.65   13.72 
  -9  -5  10   13.54   16.89 
  -5   9  10   19.46   10.21 
  -5   9  10   -2.32    8.19 
  -5   9  10   10.89    6.95 
  -5   9 -10    1.89    5.25 
  -5   9  10    2.63    5.29 
  -5   9  10   17.77    7.72 
   9   5 -10    9.09    5.62 
  -5   9 -10    9.53    8.69 
   9   5 -12   33.05    9.47 
   9   5 -12   23.94   13.88 
  -5   9  12   11.93   13.53 
  -9  -5  12   32.84   19.74 
  -5   9  12   32.84    8.43 
  -5   9  12   23.40    7.61 
  -5   9 -12   31.50    8.95 
  -5   9 -12   28.27    9.69 
   9   5 -12   32.59    8.71 
   9   5 -14    9.21    6.70 
  -5   9  14    1.31    5.84 
  -5   9  14   -4.56    6.05 
  -5   9 -14    2.22    4.57 
  -5   9  14   -1.66    4.11 
  -5   9 -14   -4.81    6.88 
   9   5 -14   12.42    8.13 
   9   5 -16   22.10    9.02 
  -5   9  16    9.70    6.25 
  -5   9 -16   17.53    6.17 
  -5   9  16    7.82    5.73 
  -5   9 -16   18.58    8.50 
   9   5 -18   -9.85    5.92 
  -5   9 -18    7.47    5.70 
  -5   9  18    3.36    5.44 
  -5   9 -18   -0.93    4.67 
  -5   9  18    0.12    3.90 
   9   5 -20    8.46    5.08 
  -5   9  20    0.89    4.08 
   9   5 -22   -3.09    3.37 
  -5   9 -22    1.37    2.30 
  -5   9 -22   -0.97    2.76 
   9   5 -22    2.10    3.39 
  -5   9  22    1.85    4.21 
  -5   9  22   -4.67    3.03 
   9   6   3    1.75   11.49 
  -6   9   3    2.06    7.68 
   9   6   5   20.48   13.56 
  -6   9   5    2.51    9.59 
   9   6   7   21.37    7.14 
   9   6  -7   20.93    7.74 
   9   6  -7   29.68   12.60 
  -6   9   7   24.57   14.13 
   9   6   7   43.07   16.87 
  -9  -6   7   26.50   14.86 
   6  -9  -7   33.26   15.49 
  -6   9   7   16.51    7.80 
  -6   9  -7   30.34    7.86 
  -6   9  -7   26.16    8.39 
   9   6  -7   26.65    7.57 
  -6   9   7   18.82    7.18 
   9   6  -9  106.99   14.18 
   9   6   9  121.70   14.54 
   9   6  -9   99.02   20.45 
  -9  -6   9   73.20   24.35 
   6  -9  -9   96.86   24.71 
  -6   9   9   76.81   21.70 
  -6   9   9  105.18   24.33 
  -6   9   9  101.70   14.26 
  -6   9   9  117.00   14.53 
  -6   9   9   99.19   13.30 
  -6   9  -9  103.77   12.59 
   9   6   9  104.60   12.37 
  -6   9  -9  103.55   16.30 
   9   6  -9  113.38   13.74 
   9   6 -11  -13.85    7.61 
   9   6 -11   14.44   12.98 
   6  -9 -11   12.07   10.23 
  -9  -6  11   16.32   19.72 
  -6   9  11   -3.96    8.17 
  -6   9  11  -20.09   14.05 
  -6   9  11    4.91    5.62 
  -6   9 -11   -1.55    5.14 
  -6   9  11   -0.93    5.32 
  -6   9 -11    9.52    7.71 
   9   6 -11    3.61    4.65 
   9   6  11   -5.52    4.71 
   9   6 -13   -8.09    6.36 
  -6   9  13   -4.37    5.98 
  -6   9  13    3.80    6.04 
  -6   9 -13    0.72    4.83 
   9   6  13    2.80    3.71 
  -6   9 -13    1.58    6.03 
   9   6 -13   -2.04    4.24 
   9   6 -15    7.78    5.75 
  -6   9 -15   13.54    6.02 
  -6   9  15   23.10    8.12 
  -6   9  15    1.42    3.93 
  -6   9 -15   13.69    7.94 
   9   6 -15    3.05    3.94 
   9   6 -17   17.66    7.13 
  -6   9 -17   17.01    6.47 
  -6   9  17   15.46    6.91 
  -6   9 -17   26.24    9.04 
  -6   9  17   13.53    6.01 
   9   6 -19   20.66    7.05 
  -6   9 -19   22.99    6.70 
  -6   9  19   26.90    7.50 
  -6   9 -19    5.67    5.52 
  -6   9  19   10.53    6.41 
   9   6 -21    4.30    3.97 
  -6   9 -21    3.00    3.73 
  -6   9  21   -3.40    3.85 
   9   6 -21   -0.39    3.63 
  -6   9  21    6.40    4.51 
  -6   9  23    2.88    2.74 
   9   6 -23   -1.24    1.95 
   9   7  -2   -0.99    4.26 
  -7   9   2    1.53    9.37 
   9   7   2    5.21   13.42 
  -7   9   2   10.94    7.21 
  -7   9   2   -5.28    5.76 
   9   7   4   19.92    6.54 
   9   7  -4   24.59    7.98 
   9   7  -4   29.38    8.35 
   9   7   4   27.10   12.79 
  -7   9   4   16.70   12.89 
  -7   9   4   21.82    7.95 
  -7   9  -4   16.30    6.17 
  -7   9   4   23.30    8.43 
  -7   9  -4   32.98    9.74 
   9   7  -4   19.97    7.78 
   9   7  -4   36.09    9.30 
   9   7   6    2.54    5.49 
   9   7   6    7.42    5.65 
   9   7  -6   -2.90    5.25 
   9   7   6    7.89    5.30 
   9   7   6   15.50   11.80 
  -7   9   6    9.64   11.09 
   7  -9  -6   -2.10   13.10 
  -7   9  -6    5.34    4.77 
  -7   9   6   -3.74    6.96 
  -7   9  -6    8.93    7.66 
   9   7  -6    6.75    5.37 
  -7   9   6   -3.82    5.81 
   9   7   6    3.35    4.56 
   9   7   8    9.06    5.36 
   9   7   8   20.53    7.43 
   9   7   8   16.08    6.76 
   9   7  -8   15.62    8.06 
   9   7   8   32.14   16.33 
   7  -9  -8   10.43   11.69 
  -7   9   8   26.49   16.74 
  -7   9   8   24.01    8.37 
  -7   9   8   17.26    6.89 
  -7   9  -8   20.59    7.12 
   9   7  -8   19.48    6.90 
   9   7   8   15.39    6.74 
  -7   9  -8   22.05    9.60 
  -7   9   8   16.99    8.11 
   9   7 -10    9.71    6.42 
   9   7 -10   -1.97    8.19 
   7  -9 -10   22.14   16.24 
  -9  -7  10   10.75   16.30 
  -7   9  10    4.68   10.14 
  -7   9  10    4.37   10.21 
  -7   9 -10   10.96    6.50 
  -7   9  10   10.10    6.87 
  -7   9  10    8.89    6.79 
  -7   9 -10    9.46    8.07 
   9   7  10    5.87    4.70 
   9   7 -10    4.85    5.16 
   9   7 -12   23.02    7.93 
  -7   9  12   10.11    6.57 
  -7   9  12   14.44    6.67 
  -7   9 -12   15.30    7.21 
   9   7  12   23.58    6.83 
   9   7 -12   12.87    5.46 
  -7   9 -12    2.16    6.30 
   9   7 -14   -3.26    5.90 
  -7   9  14    7.44    7.35 
  -7   9  14    4.01    5.68 
  -7   9 -14    0.06    4.32 
   9   7  14    8.98    4.65 
  -7   9 -14   -3.00    6.57 
   9   7 -14    2.91    4.43 
   9   7 -16   32.74    8.55 
  -7   9 -16   19.67    7.93 
  -7   9  16   23.41    8.36 
   9   7  16   34.64    6.69 
   9   7 -16   19.90    5.81 
  -7   9 -16   12.76    7.30 
   9   7 -18    8.87    5.38 
  -7   9 -18   -5.13    4.36 
  -7   9  18    3.08    5.18 
   9   7 -18    1.70    3.94 
  -7   9 -18    0.59    4.71 
  -7   9  18   -4.44    3.74 
   9   7 -20    2.80    3.38 
   7  -9  20    3.84    3.75 
  -7   9  20    6.50    4.46 
   9   7 -20    4.09    3.67 
  -7   9  20    3.27    3.70 
  -7   9 -20    4.70    4.63 
   9   7 -22   -1.59    2.12 
  -7   9  22    1.09    2.73 
   9   7 -22    3.35    2.60 
   9   8  -1  137.55   14.47 
   9   8   1  143.75   14.56 
   9   8   1  142.24   15.07 
   9   8   1  115.15   12.26 
   9   8  -1  102.33   11.01 
   9   8  -1  136.54   14.78 
   9   8   1  129.56   24.13 
  -8   9   1  154.88   17.25 
  -8   9  -1  158.66   18.01 
  -8   9  -1  128.69   14.19 
  -8   9   1  144.61   15.24 
   9   8  -1  145.97   15.26 
   9   8   1  126.44   13.09 
   9   8   1  156.30   15.60 
   9   8  -1  146.32   14.93 
   9   8   3   -4.08    4.54 
   9   8   3    1.09    4.76 
   9   8   3   -4.83    5.89 
   9   8  -3   -5.18    5.53 
   9   8   3  -19.30   13.43 
  -8   9   3   -7.33   11.22 
   9   8  -3   -4.55    4.75 
  -8   9   3    3.04    5.26 
  -8   9  -3   -2.84    4.74 
  -8   9   3    9.84    6.94 
   9   8  -3   -0.86    5.90 
   9   8  -3   -2.15    5.35 
   9   8   3   -3.65    5.23 
  -8   9  -3    2.11    6.57 
   9   8   5   17.02    6.91 
   9   8   5   11.14    5.60 
   9   8  -5   18.62    7.28 
   9   8   5   12.90    6.27 
   9   8   5   33.92   16.12 
   8  -9  -5   12.95   14.54 
  -8   9   5   22.27   12.46 
   9   8  -5   12.04    4.15 
  -8   9   5   12.68    7.14 
  -8   9  -5   14.70    7.10 
  -8   9   5   14.28    7.36 
  -8   9  -5   26.27   10.42 
   9   8  -5   14.22    7.21 
   9   8   5   18.41    6.57 
   9   8  -7   47.34    9.27 
   9   8   7   57.39    9.84 
   9   8   7   52.70   10.31 
   9   8   7   48.04    9.37 
  -8   9   7   55.18   19.59 
   9   8   7   61.50   20.43 
   8  -9  -7   49.00   20.95 
   9   8  -7   35.74    7.49 
  -8   9   7   48.63    9.68 
  -8   9   7   32.87    9.63 
  -8   9  -7   39.48    9.21 
  -8   9  -7   61.35   13.59 
  -8   9   7   50.72    9.86 
   9   8   7   52.43   10.40 
   9   8  -7   62.32   11.19 
   9   8  -9   15.50    7.10 
   9   8   9   13.03    7.99 
   9   8  -9    3.11    3.94 
  -8   9   9   17.68   14.62 
   9   8   9    6.83   11.82 
   8  -9  -9   20.63   11.60 
  -8   9   9    4.59    9.47 
  -8   9   9    8.70    7.62 
  -8   9  -9    4.05    5.25 
  -8   9   9   11.90    6.41 
  -8   9  -9    9.40    6.79 
  -8   9   9    7.88    6.32 
   9   8   9    5.95    5.42 
   9   8  -9    6.67    5.16 
   9   8 -11   34.63    8.91 
   9   8 -11   26.56    6.48 
  -8   9 -11   33.94    8.57 
  -8   9  11   39.14    9.76 
  -8   9  11   32.43    8.03 
   9   8 -11   29.73    8.68 
  -8   9 -11   30.17   10.67 
   9   8  11   37.95    8.07 
   9   8 -13   49.08    9.61 
   9   8 -13   37.13    7.38 
  -8   9  13   49.80   10.55 
  -8   9  13   43.59    9.17 
  -8   9 -13   41.10    9.01 
  -8   9 -13   49.23   11.89 
   9   8 -13   50.99   10.07 
   9   8  13   50.50    8.59 
   9   8 -15   52.62    9.43 
   9   8 -15   35.57    6.64 
  -8   9  15   33.31    8.81 
  -8   9 -15   23.63    7.49 
  -8   9 -15   40.83   10.67 
   9   8 -15   39.28    7.70 
   9   8  15   44.42    7.47 
   9   8 -17    7.60    4.63 
   8  -9  17   16.95    8.91 
   9   8 -17    2.86    3.38 
  -8   9 -17    3.13    4.05 
  -8   9  17    5.35    4.54 
   9   8 -17    1.64    3.21 
  -8   9 -17    4.33    5.43 
   9   8  17    2.02    3.48 
   9   8 -19    2.75    3.64 
   8  -9  19    3.42    4.54 
  -8   9  19    2.53    4.27 
   9   8 -19    1.44    3.10 
  -8   9 -19    2.45    4.97 
   9   8 -21   18.67    4.03 
  -8   9 -21   16.84    3.91 
   9   9   0   -3.28    4.26 
   9   9   0    2.96    5.72 
  -9   9   0    5.03    6.68 
  -9   9   0   -8.90    7.79 
   9   9   0    2.16    6.03 
   9   9   0    0.37    5.46 
   9   9   2   36.58    8.21 
   9   9  -2   24.77    6.39 
   9   9   2   41.72    8.89 
   9   9   2   40.11    9.42 
   9   9  -2   31.83    8.27 
   9   9   2   34.12   15.11 
  -9   9   2   32.12   15.83 
  -9   9   2   34.93    9.41 
  -9   9  -2   31.07    7.82 
   9   9  -2   38.69    9.61 
  -9   9  -2   35.97   10.12 
  -9   9   2   35.16    9.72 
   9   9  -2   39.43    9.32 
   9   9   2   31.42    7.94 
   9   9   2   37.93    8.81 
   9   9  -4   24.84    7.83 
   9   9   4   34.58    9.43 
   9   9   4   23.90    8.02 
   9   9   4   30.09    8.17 
   9   9   4   21.05    9.30 
  -9   9   4   38.08   16.66 
   9  -9  -4    0.43   10.79 
   9   9  -4   16.41    5.91 
  -9   9   4   16.51    7.39 
  -9   9  -4   33.23    9.19 
  -9   9   4   31.87    9.84 
  -9   9  -4   20.02   10.23 
   9   9  -4   28.07    7.89 
   9   9  -4   34.22    9.62 
   9   9   4   31.92    8.15 
   9   9   6   91.06   12.32 
   9   9   6   77.48   11.65 
   9   9  -6   72.73   11.45 
   9   9   6   76.67   11.62 
   9   9   6   86.31   23.22 
   9  -9  -6   93.56   25.92 
  -9   9   6   51.74   17.53 
   9   9  -6   59.47    9.53 
  -9   9   6   86.07   12.82 
  -9   9   6   59.07   11.01 
  -9   9  -6   79.01   12.35 
  -9   9   6   79.94   12.61 
  -9   9  -6   77.12   15.18 
   9   9  -6   87.77   12.75 
   9   9   6   84.67   12.40 
   9   9  -8   17.17    7.37 
   9   9   8    8.62    6.95 
   9   9   8    2.34    5.54 
   9   9  -8    0.50    3.83 
  -9   9  -8   15.65    7.12 
  -9   9   8   -0.54    5.85 
  -9   9   8    2.50    5.04 
  -9   9  -8    2.56    6.94 
  -9   9   8    1.94    5.29 
   9   9  -8   11.21    7.00 
   9   9   8    2.20    4.65 
   9   9 -10   13.76    6.16 
   9   9 -10    7.04    4.59 
  -9   9 -10   11.51    6.08 
  -9   9  10    7.23    4.83 
  -9   9  10    9.55    5.59 
   9   9 -10   -1.70    4.48 
  -9   9 -10   15.32    8.52 
   9   9  10    7.18    4.87 
   9   9 -12   12.99    5.22 
   9   9 -12    8.49    4.47 
  -9   9 -12    7.47    5.91 
  -9   9  12   11.86    5.82 
  -9   9  12    7.37    5.67 
  -9   9 -12   -0.53    6.42 
   9   9  12   16.80    5.92 
   9   9 -12    5.48    4.50 
   9   9 -14   67.51    9.12 
   9   9 -14   78.60   11.06 
  -9   9  14   72.36   11.36 
  -9   9 -14   51.80    9.83 
  -9   9  14   65.18   10.22 
   9   9 -14   65.16    9.82 
  -9   9 -14   60.68   12.44 
   9   9  14   67.41    9.26 
   9   9 -16    1.55    3.89 
   9  -9  16    5.81    6.28 
   9   9 -16    0.56    2.71 
  -9   9  16    8.86    5.38 
  -9   9 -16    2.40    5.21 
   9   9  16    1.83    3.69 
   9   9 -16    3.59    3.36 
   9  -9  18    2.84    5.02 
   9   9 -18    7.83    4.38 
   9   9 -18    0.82    2.21 
  -9   9  18    9.03    4.70 
   9   9  18    1.21    3.48 
  -9   9 -18   -0.88    4.40 
   9   9 -20    2.45    2.33 
   9  -9  20    1.61    2.38 
  -9   9 -20   -1.38    3.23 
   9  10  -1    4.95    5.07 
   9  10  -1    5.10    5.02 
   9  10   1    8.73    5.47 
   9  10   1    0.80    4.94 
   9  10   1   20.40   12.75 
 -10   9  -1   10.98    7.39 
 -10   9   1    3.10    5.93 
   9  10  -1    7.10    5.33 
   9  10  -1    3.64    6.10 
   9  10   1   -4.98    6.58 
   9  10   1   10.56    5.66 
 -10   9   1    3.48    6.58 
 -10   9  -1   -1.85    7.24 
   9  10  -3   23.93    7.20 
  10  -9   3   34.98   12.21 
   9  10   3   27.07    7.41 
   9  10   3   24.35    7.36 
   9  10  -3   14.16    5.70 
   9  10   3    3.49    8.68 
 -10   9   3   50.90   16.72 
  10  -9  -3   -1.98   12.62 
 -10   9   3   24.18    8.38 
 -10   9  -3   29.23    8.49 
   9  10   3   14.87    5.92 
   9  10  -3   21.24    8.64 
 -10   9   3   17.48    7.90 
   9  10   3   26.37    7.79 
   9  10  -3   24.02    8.96 
 -10   9  -3   26.31   10.44 
   9  10   5   16.25    6.37 
   9  10  -5   23.39    6.77 
   9  10   5   14.55    6.00 
   9  10  -5   12.53    5.34 
 -10   9  -5   19.88    7.85 
 -10   9   5   23.84    8.30 
 -10   9   5   19.08    7.75 
 -10   9  -5   28.34   10.01 
   9  10  -5   26.89    8.77 
   9  10   5   24.56    7.81 
   9  10   7    4.61    5.71 
   9  10  -7    3.97    5.70 
   9  10  -7   10.90    5.01 
 -10   9   7    6.48    6.12 
 -10   9  -7    2.61    5.10 
 -10   9   7    6.16    5.16 
   9  10   7    0.78    4.78 
   9  10  -7    0.89    5.43 
 -10   9  -7    6.57    7.57 
 -10   9   7    6.36    5.83 
   9  10   9   56.46   10.52 
   9  10  -9   44.41    8.99 
   9  10  -9   29.36    7.34 
 -10   9  -9   47.76    9.69 
 -10   9   9   35.59    7.68 
 -10   9  -9   41.32   11.52 
   9  10   9   41.11    8.40 
 -10   9   9   42.00    9.60 
   9  10  -9   43.02    9.57 
  10  -9  11   99.50   15.86 
   9  10 -11   98.87   12.56 
   9  10 -11   73.18    9.85 
 -10   9 -11   72.76   11.89 
 -10   9  11   88.10   12.41 
 -10   9 -11   97.24   15.34 
 -10   9  11   73.48   10.54 
   9  10  11   94.34   11.91 
   9  10 -11   74.72   11.42 
   9  10 -13   25.59    6.72 
  10  -9  13   23.17    8.14 
   9  10 -13   25.05    6.32 
 -10   9  13   32.71    8.65 
 -10   9  13    9.00    5.51 
 -10   9 -13   15.39    7.08 
   9  10 -13   13.66    6.06 
   9  10  13   32.71    7.20 
   9  10 -15    6.47    4.18 
  10  -9  15   13.03    6.21 
   9  10 -15   10.90    5.59 
   9  10 -15   18.81    6.07 
 -10   9 -15   13.01    6.78 
   9  10  15   18.14    5.42 
   9  10 -17   11.77    4.02 
   9  10 -17   17.57    5.05 
  10  -9  17   12.04    5.21 
 -10   9 -17   14.53    6.60 
   9  10  17   12.80    3.98 
  10  -9  19    0.67    2.68 
   9  10 -19    6.67    3.06 
   9  10  19    0.30    2.22 
 -10   9 -19   -0.97    3.03 
   8  10   0   68.83   11.31 
   8  10   0   77.38   11.12 
   8  10   0   87.60   21.84 
 -10   8   0   65.30   10.97 
 -10   8   0   85.60   14.32 
   8  10   0   74.45   11.74 
   8  10   0   86.07   12.15 
   8  10   2   20.65    7.37 
   8  10  -2   31.68    8.10 
   8  10  -2   26.48    7.92 
  10  -8   2   39.37   11.33 
   8  10   2   25.24    8.00 
   8  10  -2   19.15   10.74 
   8  10   2   18.87   12.84 
 -10   8   2   34.50   15.53 
 -10   8   2   28.33    8.48 
 -10   8  -2   27.99    7.88 
 -10   8  -2   21.26    8.84 
   8  10   2   30.63    7.83 
   8  10  -2   37.70    9.86 
   8  10   2   29.34    6.90 
   8  10  -2   41.60    8.89 
 -10   8   2   49.38   12.18 
   8  10   4    4.05    5.06 
   8  10  -4   -4.69    5.01 
   8  10   4   -0.74    4.93 
  10  -8   4   23.56   10.52 
   8  10  -4    0.14    4.88 
   8  10   4   -8.15    9.46 
  10  -8  -4    5.31   11.98 
 -10   8   4    0.60   10.13 
 -10   8   4    3.03    5.35 
 -10   8  -4    7.25    6.11 
 -10   8   4   -1.48    7.21 
   8  10  -4   12.37    7.50 
   8  10  -4   -3.38    7.24 
   8  10   4   -1.55    5.45 
 -10   8  -4   -8.38    8.53 
   8  10   6    7.89    6.24 
   8  10   6    3.72    5.28 
   8  10  -6    3.52    4.44 
   8  10  -6   10.73    5.84 
 -10   8   6    9.39    9.15 
   8  10   6    8.85    8.91 
  10  -8  -6   12.32   15.34 
 -10   8  -6    8.76    7.01 
 -10   8   6    8.81    6.82 
 -10   8   6   27.25    8.05 
   8  10  -6    1.91    6.94 
 -10   8   6   11.61    6.44 
 -10   8  -6    1.30    7.70 
   8  10   6   10.57    6.87 
   8  10   8   41.78    9.45 
   8  10  -8   45.49    8.87 
   8  10   8   61.14   10.89 
   8  10  -8   37.69    7.84 
 -10   8  -8   30.79    8.22 
 -10   8   8   33.48    7.84 
 -10   8  -8   47.06   11.34 
   8  10  -8   35.57    9.24 
 -10   8   8   48.12   10.18 
   8  10   8   44.59    9.51 
   8  10 -10   35.06    8.23 
   8  10  10   47.13   10.21 
   8  10 -10   43.93    9.18 
 -10   8  10   24.13    7.30 
 -10   8  10   38.53    9.02 
 -10   8 -10   34.21   10.05 
   8  10 -10   22.68    6.87 
   8  10  10   33.40    7.84 
  10  -8  12   49.53   12.49 
   8  10 -12   51.71    9.46 
   8  10 -12   41.67    8.13 
 -10   8  12   39.49    8.49 
   8  10 -12   38.36    8.87 
   8  10  12   61.73    9.96 
 -10   8 -12   45.71   10.99 
   8  10 -14    3.65    4.13 
   8  10 -14   10.21    5.15 
  10  -8  14    6.32    6.49 
 -10   8 -14    8.54    6.23 
   8  10 -14    3.31    4.44 
   8  10  14   17.93    7.26 
   8  10 -16   13.23    4.62 
  10  -8  16   13.77    7.16 
   8  10 -16    5.91    4.29 
 -10   8 -16   11.00    6.97 
   8  10  16    9.39    4.48 
   8  10 -16   13.72    4.76 
   8  10 -18    5.16    3.68 
  10  -8  18    3.96    4.54 
   8  10 -18    2.06    2.75 
   8  10 -18   -1.56    2.17 
 -10   8 -18    5.27    4.92 
   8  10  18    3.18    3.25 
   8  10 -20   -1.26    1.41 
  10  -8  20    1.99    1.75 
 -10   8 -20    2.25    3.36 
   8  10  20    0.06    1.98 
   7  10   1  208.46   17.42 
   7  10  -1  235.04   17.98 
  10  -7   1  206.51   20.23 
   7  10  -1  233.13   18.42 
   7  10   1  235.24   18.13 
 -10   7   1  201.96   31.20 
 -10   7  -1  240.45   33.68 
   7  10  -1  244.80   32.61 
   7  10   1  260.95   33.10 
 -10   7   1  182.49   16.51 
 -10   7  -1  244.03   21.88 
 -10   7   1  240.14   21.10 
 -10   7  -1  181.57   16.99 
   7  10  -1  213.13   17.69 
   7  10   1  215.60   18.15 
   7  10  -1  233.74   19.26 
   7  10   1  219.10   18.06 
  10  -7   3   34.47   11.71 
   7  10   3   22.50    7.60 
   7  10   3   22.23    7.12 
   7  10  -3   26.83    7.89 
 -10   7   3   13.15   11.64 
   7  10   3   37.68   15.39 
  10  -7  -3   27.23   15.72 
   7  10  -3   26.23    6.67 
 -10   7   3   29.04    8.53 
 -10   7  -3   23.56    7.87 
   7  10   3   27.21    7.20 
   7  10   3   25.46    7.67 
 -10   7   3   22.27    8.20 
   7  10  -3   25.07    6.87 
 -10   7  -3   25.43    8.97 
   7  10  -3   28.44    7.80 
   7  10   5   61.64   10.82 
  10  -7   5   88.79   15.91 
   7  10  -5   68.16   10.17 
   7  10   5   55.57   10.42 
   7  10  -5   58.81   10.04 
   7  10   5   62.99   18.01 
  10  -7  -5   72.91   21.71 
 -10   7   5   75.16   21.31 
 -10   7  -5   58.59   10.23 
 -10   7   5   49.56    9.34 
   7  10  -5   97.49   13.80 
 -10   7  -5   71.86   14.47 
   7  10  -5   71.69   11.69 
 -10   7   5   71.41   12.23 
   7  10   5   84.16   11.46 
   7  10   7  104.89   13.05 
   7  10  -7  100.20   13.10 
   7  10  -7  100.16   13.15 
   7  10   7  109.40   13.63 
   7  10   7   84.64   23.72 
 -10   7   7  115.26   26.19 
  10  -7  -7  118.00   26.36 
 -10   7   7   95.19   13.31 
 -10   7   7  104.28   13.77 
   7  10  -7   97.33   13.44 
 -10   7  -7   93.65   14.99 
   7  10   7  114.79   13.87 
   7  10  -9    9.41    6.01 
 -10   7   9   18.06   14.12 
   7  10   9    5.72    8.26 
  10  -7  -9   16.15   11.14 
   7  10   9   20.25    7.11 
   7  10  -9   17.33    7.83 
 -10   7  -9    5.28    7.14 
 -10   7   9   13.98    6.81 
   7  10   9   10.21    6.16 
   7  10  -9   12.53    6.60 
   7  10 -11   15.77    6.66 
   7  10  11   40.79   10.71 
  10  -7  11   31.93   10.77 
   7  10 -11   13.41    5.70 
 -10   7  11   21.23    7.22 
 -10   7 -11   22.80    8.85 
   7  10  11   22.87    6.97 
   7  10 -11   12.75    6.11 
  10  -7  13   73.78   13.50 
   7  10 -13   77.54   10.93 
   7  10 -13   81.61   11.59 
 -10   7  13   62.70   10.53 
 -10   7 -13   67.72   12.66 
   7  10  13   78.17   11.02 
   7  10 -13   70.82   10.33 
   7  10 -15   96.90   12.01 
  10  -7  15  117.53   15.15 
   7  10 -15  101.27   11.73 
 -10   7 -15   97.64   14.14 
   7  10 -15   92.99   11.56 
   7  10  15  130.14   13.26 
   7  10 -15   94.24   10.84 
   7  10 -17    4.21    4.35 
  10  -7  17   -0.69    4.31 
   7  10 -17   -1.68    3.44 
   7  10 -17    4.88    3.73 
   7  10  17   12.71    5.21 
 -10   7 -17    0.50    4.82 
   7  10 -19    2.66    2.76 
  10  -7  19   -2.20    4.07 
   7  10 -19    1.01    2.84 
   7  10 -19    0.53    2.77 
   7  10  19   -0.22    3.01 
 -10   7 -19   -0.54    4.09 
   7  10 -21   12.01    3.29 
   7  10 -21    3.78    2.73 
 -10   7 -21    3.23    3.83 
   7  10  21    4.15    2.66 
   6  10   0  527.63   26.40 
   6  10   0  511.44   26.15 
 -10   6   0  540.23   49.06 
   6  10   0  572.44   47.11 
 -10   6   0  507.80   29.18 
   6  10   0  538.63   27.99 
   6  10   0  526.06   25.65 
   6  10  -2   17.06    9.91 
   6  10   2   12.40   10.24 
 -10   6   2   15.21   11.46 
   6  10  -2   23.93    6.92 
   6  10   2   13.49    6.73 
   6  10  -2   26.46    6.82 
   6  10   2   22.45    7.12 
 -10   6   2    4.81    5.84 
   6  10   2   13.25    5.25 
 -10   6  -2   18.76    8.31 
   6  10  -2   15.34    5.25 
   6  10  -2   23.21    8.04 
   6  10  -4    2.50    4.34 
  10  -6   4    1.17    6.95 
   6  10   4    0.46    5.46 
   6  10   4   10.44    6.61 
   6  10  -4    7.83    5.62 
   6  10   4   -0.77   10.14 
 -10   6   4   -3.43    8.33 
  10  -6  -4    4.25   11.97 
 -10   6   4    6.83    5.73 
   6  10  -4    5.82    5.71 
   6  10  -4   -1.82    5.16 
 -10   6  -4    4.22    7.08 
 -10   6   4    3.88    6.62 
   6  10   4    6.39    5.64 
   6  10  -6    1.89    4.60 
   6  10   6    9.23    5.97 
  10  -6   6    7.75    7.64 
   6  10   6    0.56    5.11 
   6  10  -6    9.80    5.29 
 -10   6   6   -5.45    8.47 
   6  10   6    0.40    8.95 
  10  -6  -6   14.16   33.81 
 -10   6   6   40.14   10.92 
   6  10  -6   13.18    9.24 
 -10   6  -6  -10.25    7.95 
   6  10   6   -1.25    4.73 
   6  10  -6    2.98    5.82 
 -10   6   6   -3.83    5.91 
   6  10  -8   62.94   10.15 
 -10   6   8   48.26   18.89 
   6  10   8   51.71   16.69 
  10  -6  -8   68.63   19.80 
   6  10  -8   62.06   10.50 
   6  10   8   76.13   12.73 
  10  -6   8   67.84   14.13 
   6  10   8   63.33   11.09 
   6  10  -8   60.46   11.12 
   6  10   8   69.46   11.45 
 -10   6  -8   46.40   11.62 
 -10   6   8   51.76   10.30 
   6  10 -10   10.52    5.86 
  10  -6  10   18.17    9.67 
   6  10  10   -3.09    5.93 
   6  10 -10    6.54    4.69 
  -6 -10  10    3.31   14.87 
   6  10  10    8.95   11.22 
  10  -6 -10    5.91    9.11 
 -10   6  10    6.45   11.88 
 -10   6  10   17.68    7.99 
 -10   6 -10    8.85    8.10 
   6  10 -10    6.70    6.27 
   6  10  10   16.69    6.70 
   6  10 -12   75.35   11.70 
   6  10 -12   96.99   12.97 
  10  -6  12   82.72   14.20 
 -10   6  12   86.45   12.15 
   6  10 -12   87.69   11.95 
   6  10 -12   85.27   12.38 
   6  10  12   83.17   11.80 
 -10   6 -12   75.03   13.57 
   6  10 -14    6.90    5.58 
  10  -6  14    7.96    6.91 
   6  10 -14   14.44    5.82 
   6  10 -14    0.14    4.36 
 -10   6 -14    7.54    6.63 
   6  10  14   10.83    5.83 
   6  10 -14    5.37    4.40 
   6  10 -16   36.45    7.22 
  10  -6  16   36.27   10.51 
   6  10 -16   36.99    7.69 
   6  10 -16   32.82    8.04 
 -10   6 -16   33.07    9.16 
   6  10  16   49.73    9.03 
  10  -6  18   17.25    6.08 
   6  10 -18   19.30    5.37 
   6  10 -18   29.47    6.54 
   6  10 -18   22.86    6.34 
 -10   6 -18   12.97    6.76 
   6  10  18   20.53    5.67 
  10  -6  20    2.01    1.85 
   6  10 -20    8.04    3.92 
   6  10 -20    2.37    3.62 
 -10   6 -20    9.76    6.26 
   6  10  20    3.28    2.96 
   6  10 -22    2.08    2.33 
   6  10 -22   -0.69    1.96 
 -10   6 -22    3.43    3.64 
   6  10  22    0.17    2.08 
 -10   5  -1  126.86   23.84 
   5  10  -1  145.69   23.01 
   5  10   1  124.86   22.71 
 -10   5   1  117.77   24.10 
 -10   5   3  273.49   35.26 
   5  10  -3  292.47   31.45 
   5  10   3  292.75   33.44 
  10  -5  -3  339.64   39.70 
   5  10  -5  132.77   13.30 
   5  10  -5  159.11   14.95 
  10  -5   5  146.04   17.90 
   5  10   5  153.14   14.49 
   5  10   5  134.17   14.23 
 -10   5   5  175.22   30.04 
   5  10   5  167.50   26.07 
  10  -5  -5  158.20   28.49 
 -10   5  -5  139.18   16.63 
   5  10   5  163.92   15.11 
   5  10  -5  143.17   14.40 
   5  10  -5  132.87   14.70 
   5  10  -7    6.37    5.86 
   5  10   7    1.22    7.77 
  10  -5  -7   14.95   12.62 
 -10   5   7    8.67   12.45 
   5  10   7   14.92    8.34 
   5  10   7    3.99    4.93 
  10  -5   7    8.24    8.80 
   5  10  -7   10.45    6.69 
 -10   5  -7   10.98    7.62 
   5  10   7    7.28    5.37 
   5  10  -7    2.47    5.32 
 -10   5   7   12.89    6.38 
   5  10   9   74.36   21.72 
  10  -5  -9   68.99   20.04 
 -10   5   9   71.66   21.07 
   5  10   9   84.82   11.93 
   5  10  -9   84.83   12.50 
   5  10  -9   75.58   10.88 
  10  -5   9  112.89   16.59 
 -10   5   9   63.12   10.57 
 -10   5  -9   91.50   14.59 
   5  10  -9   73.48   11.08 
   5  10   9   73.52   11.01 
   5  10  11   93.24   14.00 
  10  -5  11   90.26   14.93 
   5  10 -11   62.71   10.42 
   5  10 -11   69.53   11.54 
  10  -5 -11   58.73   20.54 
   5  10  11   70.94   20.28 
 -10   5  11   60.63   20.06 
   5  10 -11   64.18   10.89 
   5  10  11   80.37   11.95 
 -10   5 -11   76.10   13.36 
   5  10 -11   73.60   11.40 
  10  -5  13    4.43    6.41 
   5  10 -13   18.16    6.94 
   5  10 -13   14.42    7.07 
   5  10 -13   15.06    6.76 
   5  10 -13   11.86    6.01 
   5  10  13    8.22    5.81 
   5  10 -15   -2.61    3.74 
  10  -5  15    2.28    5.66 
   5  10 -15    0.89    4.91 
   5  10 -15    3.45    5.43 
 -10   5 -15  -10.46    7.49 
   5  10  15   -5.98    5.30 
  10  -5  17   84.22   12.89 
   5  10 -17  119.67   13.76 
 -10   5 -17   97.73   13.95 
   5  10  17   90.16   11.81 
   5  10 -17  113.06   13.04 
   5  10  17  122.73   13.06 
  10  -5  19    9.88    5.05 
   5  10 -19   28.13    6.60 
   5  10  19   14.99    5.53 
   5  10 -19   23.88    6.13 
 -10   5 -19   20.07    7.77 
 -10   5  19   10.01    5.97 
   5  10  19   23.76    6.24 
   5  10 -21   -2.59    3.14 
   5  10 -21   -1.23    2.97 
   5  10  21   -3.58    3.17 
 -10   5 -21   -3.32    4.38 
   5  10 -23    0.31    2.11 
 -10   5 -23    8.26    3.96 
   4  10   0   38.06   12.07 
 -10   4   0   49.19   15.71 
 -10   4   2  339.77   38.19 
 -10   4  -2  313.90   35.13 
   4  10  -2  381.88   34.89 
   4  10   2  338.33   34.06 
  10  -4  -2  349.87   38.75 
 -10   4   4   28.17   11.85 
   4  10  -4   41.78   12.40 
   4  10   4   35.40   13.43 
  10  -4  -4   39.21   14.78 
   4  10  -6   35.58    8.11 
   4  10   6   48.75   15.47 
  10  -4  -6   45.99   15.98 
 -10   4   6   40.99   14.88 
  10  -4   6   36.73   10.09 
   4  10   6   44.48    8.49 
   4  10   6   46.25    9.31 
   4  10  -6   30.91    7.06 
   4  10   6   44.98    9.12 
   4  10  -8   32.94    7.83 
   4  10   8   32.82   14.86 
  10  -4  -8   42.08   14.67 
 -10   4   8   28.51   11.70 
  10  -4   8   39.61   10.25 
   4  10   8   25.18    7.37 
   4  10  -8   43.66    7.79 
   4  10  -8   32.10    8.11 
   4  10   8   30.93    7.96 
 -10   4  -8   26.09    9.29 
   4  10 -10  110.16   12.53 
   4  10 -10  131.07   14.70 
   4  10  10  118.16   14.00 
  10  -4  10  123.79   16.40 
  10  -4 -10  123.71   25.62 
   4  10  10  132.27   24.82 
 -10   4  10  125.81   25.54 
   4  10 -10  111.07   13.74 
   4  10  10  122.21   13.50 
   4  10 -10  122.96   13.99 
   4  10 -12    7.89    4.93 
  10  -4  12   11.82    8.42 
   4  10 -12    5.96    6.33 
  10  -4 -12   -8.04   11.83 
   4  10  12   -6.94    9.45 
 -10   4  12    1.13   12.93 
   4  10 -12   -3.39    5.55 
   4  10  12   -2.41    4.90 
   4  10 -12   14.81    6.38 
  10  -4  14    5.15    6.03 
   4  10 -14    3.11    5.34 
   4  10  14    5.60    5.40 
   4  10 -14   10.68    6.83 
   4  10  14    6.76    4.83 
  10  -4  16    9.22    6.92 
   4  10 -16   21.62    7.63 
   4  10  16   12.13    6.22 
   4  10 -16   16.56    7.42 
   4  10  16   18.78    6.56 
  10  -4  18   44.54    9.25 
   4  10 -18   69.47   10.77 
   4  10 -18   62.91   10.12 
   4  10  18   59.70   10.43 
   4  10  18   71.25   10.30 
   4  10 -20   11.71    5.35 
   4  10 -20   11.95    5.46 
   4  10  20   16.70    6.26 
 -10   4 -20   10.55    5.94 
 -10   4  20    3.95    4.44 
   4  10  20   11.17    4.74 
   4  10 -22   -1.66    2.56 
   4  10  22   -0.02    2.53 
   4  10 -22   -0.03    2.58 
 -10   4  22    0.01    2.14 
 -10   4 -22    4.24    4.51 
   4  10  22    3.92    3.11 
 -10   3   1  262.94   32.26 
 -10   3  -1  250.77   31.06 
   3  10  -1  248.83   27.50 
   3  10   1  250.39   28.23 
  10  -3  -1  277.75   32.57 
 -10   3  -3   -7.18    9.02 
   3  10  -3    1.54    7.46 
   3  10   3   -2.79    9.10 
  10  -3  -3    6.88   12.42 
 -10   3   3   -3.87    9.24 
   3  10   5  355.80   36.28 
  10  -3  -5  379.88   39.28 
 -10   3   5  344.27   39.20 
   3  10   7  285.63   33.74 
  10  -3  -7  299.17   36.18 
 -10   3   7  274.92   36.45 
   3  10   7  267.62   19.43 
   3  10  -7  275.46   20.40 
   3  10   7  257.71   18.90 
  10  -3   7  264.50   20.90 
   3  10   7  265.83   19.00 
   3  10   9  158.36   15.93 
   3  10  -9  168.80   17.55 
  10  -3   9  147.64   16.52 
   3  10   9  169.32   26.45 
  10  -3  -9  157.22   27.93 
 -10   3   9  150.28   27.82 
   3  10  -9  139.74   14.84 
   3  10  -9  134.47   14.45 
   3  10   9  169.94   16.17 
  10  -3  11    1.14    5.98 
   3  10  11    6.96    7.97 
  10  -3 -11    7.20   11.64 
 -10   3  11    1.73   16.22 
   3  10  11   13.28   11.85 
   3  10 -11    2.10    6.99 
   3  10  11    5.74    4.91 
   3  10 -11   -0.47    5.50 
   3  10  11    0.27    4.90 
  10  -3  13   31.65    9.43 
   3  10  13    1.86    8.12 
   3  10 -13   18.44    7.10 
   3  10  13   19.08    6.32 
   3  10  13   21.72    7.15 
   3  10 -13   16.52    6.16 
  10  -3  15   37.22   10.25 
   3  10  15   39.45    9.39 
   3  10 -15   31.36    8.93 
   3  10  15   32.28    8.56 
  10  -3  17    5.19    5.01 
   3  10 -17    3.92    5.07 
   3  10  17    5.48    6.35 
   3  10  17   13.31    6.35 
   3  10 -19   18.36    6.58 
   3  10  19   16.00    6.93 
   3  10 -19   13.73    6.12 
   3  10  19   21.70    6.69 
   3  10 -21   24.43    6.02 
   3  10 -21   21.57    5.73 
   3  10  21   13.17    6.02 
 -10   3 -21   16.48    6.11 
   3  10  21   27.51    6.13 
   3  10 -23    0.36    2.33 
   3  10  23    4.84    4.81 
   3  10 -23    6.54    3.34 
   3  10  23    2.22    2.55 
 -10   3 -23   -4.81    3.71 
 -10   3  23    0.30    2.14 
   2  10   0  138.37   20.70 
 -10   2   0  114.53   20.67 
  10  -2   0  135.40   21.92 
   2  10  -2    4.47    5.70 
   2  10   2    3.49    7.49 
 -10   2  -2    0.40    7.66 
  10  -2  -2    3.89    8.38 
 -10   2   2   14.04   10.50 
 -10   2   4  235.88   32.43 
   2  10  -4  202.55   23.38 
   2  10   4  214.86   26.94 
  10  -2  -4  222.20   30.11 
 -10   2   6    2.09   10.27 
  10  -2  -6    8.92    9.27 
   2  10   6   15.35    9.18 
 -10   2   8  142.63   28.07 
  10  -2  -8  153.04   26.81 
   2  10   8  143.37   23.44 
   2  10  -8  142.21   15.33 
   2  10   8  139.48   13.94 
  10  -2   8  137.95   15.34 
   2  10   8  153.39   14.88 
   2  10  10   10.36    6.56 
  10  -2  10   20.39    8.02 
 -10   2  10    5.52   10.93 
  10  -2 -10   -0.91    9.05 
   2  10  10   11.45   10.82 
   2  10 -10    8.11    6.82 
   2  10  10    5.31    5.23 
   2  10  10   13.79    6.99 
   2  10 -10    0.30    4.63 
  10  -2  12   18.88    8.01 
 -10   2  12   15.57   11.69 
  10  -2 -12   16.41   12.34 
   2  10  12    0.91    8.04 
   2  10 -12   14.24    6.32 
   2  10  12    7.72    5.86 
   2  10  12   17.58    6.13 
   2  10 -12   13.59    6.24 
  10  -2  14    0.78    4.85 
   2  10 -14   -1.80    5.23 
   2  10  14   -1.34    5.09 
   2  10  14   -2.29    4.83 
  10  -2  16    9.92    6.72 
   2  10 -16   13.42    5.97 
   2  10  16    3.98    4.72 
   2  10  16    6.74    5.01 
   2  10  18   -2.26    5.92 
   2  10 -18   -2.44    4.49 
   2  10  18   -1.44    4.27 
   2  10 -20   49.18    8.80 
   2  10 -20   36.51    7.87 
   2  10  20   33.03    8.57 
   2  10  20   53.03    8.50 
   2  10 -22    4.13    3.33 
   2  10 -22   -5.46    3.52 
   2  10  22   -0.87    3.37 
 -10   2 -22   -5.09    5.02 
   2  10  22   -0.14    3.23 
  10  -2 -24   -1.77    2.90 
   2  10 -24    0.29    1.87 
 -10   2 -24   -1.14    3.19 
   2  10  24    0.47    2.06 
  10  -1  -1  -10.13   10.19 
   1  10  -1    1.25    7.26 
   1  10   1   13.47    8.00 
 -10   1  -1   -9.39    9.85 
  10  -1   1    2.44    7.47 
 -10   1   1   -2.23    7.68 
 -10   1  -3  196.35   25.27 
   1  10  -3  198.91   23.54 
   1  10   3  205.85   26.48 
  10  -1  -3  213.36   26.77 
  10  -1   3  183.90   22.87 
 -10   1   3  222.79   29.61 
 -10   1   5   16.34   11.06 
  10  -1  -5   36.27   13.09 
   1  10   5   29.32   12.73 
 -10   1   7    8.02   10.72 
  10  -1  -7   -0.16    8.91 
   1  10   7   11.45   10.72 
   1  10   9   14.22    7.01 
  10  -1   9    7.08    6.09 
 -10   1   9   -5.54    9.53 
  10  -1  -9   10.27   10.43 
   1  10   9   -1.15    8.03 
   1  10   9    3.02    4.35 
   1  10  -9    6.09    5.57 
   1  10   9   11.80    5.34 
   1  10  -9    1.72    5.07 
   1  10  11   94.52   14.21 
  10  -1  11   71.27   11.59 
 -10   1  11   56.84   19.56 
  10  -1 -11   54.00   17.26 
   1  10  11   60.49   17.56 
   1  10  11   67.08   11.18 
   1  10 -11   68.69   11.83 
   1  10  11   78.09   11.35 
   1  10 -11   54.74    9.41 
  10  -1  13    0.20    5.05 
  10  -1 -13   21.14    8.55 
 -10   1  13    1.49   10.10 
  10  -1 -13    0.74    8.78 
   1  10  13    2.76    8.40 
   1  10 -13    0.57    5.95 
   1  10  13    7.95    5.90 
   1  10  13    3.36    4.88 
  10  -1  15   17.49    8.00 
   1  10 -15   11.68    6.56 
   1  10  15   15.52    6.88 
   1  10  15   20.55    7.07 
   1  10 -17    2.33    5.18 
   1  10  17    2.03    4.83 
   1  10  17   -1.29    5.27 
   1  10 -19   19.55    6.73 
   1  10  19    8.81    5.55 
   1  10  19   19.02    6.38 
   1  10 -21   10.06    5.03 
   1  10  21    4.20    5.17 
   1  10 -21    1.21    3.38 
   1  10  21    0.41    4.03 
  10  -1 -23    7.79    4.18 
   1  10 -23    6.94    3.20 
   1  10 -23    4.45    3.29 
   1  10  23   -1.17    3.42 
 -10   1 -23    6.20    4.47 
   1  10  23    4.22    2.84 
   0  10   0  192.36   24.51 
  10   0   0  174.74   22.21 
 -10   0   0  166.10   24.18 
   0  10  -2  187.17   23.36 
   0  10   2  210.38   26.32 
  10   0  -2  192.13   24.63 
  10   0   2  194.61   22.86 
 -10   0   2  192.62   27.64 
 -10   0   4   26.53   13.05 
  10   0  -4   19.90   10.71 
   0  10  -4   29.11   15.35 
   0  10   4   38.68   12.98 
 -10   0   6    0.44    8.92 
  10   0  -6    6.61   11.27 
   0  10   6    4.96    7.01 
 -10   0   8  108.06   24.11 
  10   0  -8  121.61   22.73 
   0  10   8  117.04   21.50 
   0  10  10  107.41   13.24 
  10   0  10   99.65   13.27 
 -10   0  10  129.05   28.90 
  10   0 -10  130.42   24.79 
   0  10  10  119.09   23.03 
   0  10  10  105.54   12.61 
   0  10  10  111.20   13.22 
   0  10 -10  126.15   14.17 
   0  10  10  124.58   13.79 
   0  10 -10  108.80   12.92 
  10   0 -12    3.82    4.94 
  10   0  12    1.88    6.49 
 -10   0  12    2.30   11.70 
  10   0 -12   -0.97    9.30 
   0  10  12   -5.72   10.01 
   0  10  12    2.19    5.56 
   0  10 -12    4.38    5.47 
   0  10  12   -2.47    4.67 
  10   0  14   17.96    5.18 
  10   0 -14   12.96    5.71 
   0  10  14    8.25    5.19 
   0  10 -14    3.68    5.60 
   0  10  14    9.97    5.55 
   0  10 -16   16.67    5.34 
   0  10  16   12.88    6.16 
   0  10  16   20.06    6.88 
   0  10 -18   29.20    8.24 
   0  10  18   28.03    8.36 
   0  10  18   25.35    7.80 
   0  10 -20    5.13    4.70 
   0  10  20    6.29    4.82 
   0  10  20    2.21    4.13 
  10   0 -22   18.39    6.03 
   0  10 -22    2.66    3.53 
   0  10 -22    5.95    4.00 
   0  10  22    4.21    3.94 
   0  10  22    8.33    3.82 
  10   0 -24    3.18    2.70 
   0  10 -24   -1.77    1.77 
   0  10  24   -0.81    2.34 
   0  10 -24    0.17    1.87 
 -10   0  24    2.82    2.63 
 -10   0 -24   -0.50    3.67 
   0  10  24    0.15    1.96 
  10   1  -1    0.05    6.66 
  -1  10   1    5.80   10.12 
  -1  10  -1    5.00    6.98 
 -10  -1   1   -0.80    7.85 
 -10  -1   3   79.85   18.96 
  10   1  -3   82.21   16.53 
  -1  10   3  101.70   19.43 
  -1  10  -3   74.39   15.35 
 -10  -1   5   38.92   14.96 
  10   1  -5   49.11   14.46 
  -1  10  -5   30.26   10.21 
  -1  10   5   49.01   13.71 
 -10  -1   7   15.94   14.16 
  10   1  -7   22.56   12.80 
  -1  10   7   26.95   12.31 
  10   1  -9   15.54    6.45 
  10   1   9   11.04    6.07 
  10   1  -9    3.42    8.19 
  -1  10   9   22.45   11.93 
 -10  -1   9   13.50   12.61 
  -1  10   9   15.70    6.66 
  -1  10   9   12.34    6.69 
  -1  10  -9    8.33    5.13 
  -1  10   9   11.64    5.56 
  10   1 -11    3.22    5.04 
  10   1  11   -2.28    4.90 
  10   1 -11   -5.82   12.39 
  -1  10  11    2.47    7.48 
 -10  -1  11   24.20   18.03 
  -1  10  11   -1.83    5.09 
  -1  10 -11    0.17    6.19 
  -1  10  11   -6.99    6.68 
  -1  10  11   -0.89    5.95 
  10   1  13   63.46   11.20 
  10   1 -13   52.23    9.97 
  10   1 -13   61.65   18.78 
  -1  10  13   63.32   17.78 
 -10  -1  13   61.08   20.85 
  -1  10  13   78.44   12.79 
  -1  10 -13   70.16   11.46 
  -1  10  13   90.48   12.72 
  10   1 -15   -1.57    3.94 
  -1  10 -15   -0.23    5.04 
  -1  10  15   -5.24    5.97 
  -1  10  15    1.58    4.46 
  -1  10 -17  -12.23    6.11 
  -1  10  17   -2.92    6.69 
  -1  10  17    6.49    5.85 
  -1  10 -19    9.12    5.63 
  -1  10  19   11.77    6.75 
  -1  10  19   11.96    5.71 
  10   1 -21   14.68    5.93 
  -1  10  21    3.71    4.59 
  -1  10 -21    1.84    3.74 
  -1  10  21    2.07    3.30 
  10   1 -23    1.84    3.12 
  -1  10 -23   -0.13    2.63 
  -1  10 -23   -0.75    2.43 
  -1  10  23   -0.20    3.19 
  -1  10  23   -1.87    2.68 
  -2  10   0    4.87    6.25 
  -2  10   2  341.11   34.51 
  -2  10  -2  331.93   32.55 
  10   2  -2  324.83   29.30 
 -10  -2   2  334.37   35.15 
 -10  -2   4   16.41   11.10 
  10   2  -4    4.34    7.86 
  -2  10   4   -4.69    7.08 
  -2  10  -4   -4.05    8.72 
  10   2  -6  132.98   22.38 
  -2  10   6  147.74   24.39 
 -10  -2   6  147.76   26.50 
  10   2  -8   -0.05    4.76 
  10   2   8    2.59    5.09 
  10   2  -8    0.92    9.62 
  -2  10   8    6.43    8.67 
 -10  -2   8   -4.81   11.96 
  -2  10  -8    2.78    5.30 
  -2  10   8    1.91    4.25 
  -2  10   8   14.47    7.12 
  10   2  10  128.88   14.21 
  10   2 -10  136.29   25.94 
  -2  10  10  156.91   27.57 
 -10  -2  10  133.60   27.75 
  -2  10  10  157.37   15.51 
  -2  10 -10  135.89   16.00 
  -2  10  10  143.81   14.90 
  -2  10  10  139.78   14.96 
  10   2 -10  140.81   14.62 
  10   2 -12   49.65    9.56 
  10   2  12   56.75    9.98 
  10   2 -12   67.70   20.38 
  -2  10  12   64.75   19.16 
 -10  -2  12   52.15   22.54 
  -2  10  12   68.32   11.51 
  -2  10 -12   60.62   10.25 
  -2  10  12   66.02   11.30 
  -2  10  12   63.47   10.96 
  10   2 -14    1.71    4.06 
  -2  10  14    0.85    5.02 
  -2  10 -14   11.99    6.54 
  -2  10  14    5.89    4.73 
  -2  10 -16   -1.34    4.89 
  -2  10  16    3.51    5.15 
  -2  10  16    2.12    4.87 
  -2  10 -18   38.70    8.88 
  -2  10  18   41.76    9.28 
  -2  10  18   43.39    8.74 
  10   2 -20    5.48    5.55 
  -2  10 -20   -1.94    3.92 
  -2  10  20   -1.49    4.79 
  -2  10  20   -2.29    3.48 
  10   2 -22    2.59    3.92 
  -2  10 -22   -0.65    3.07 
  -2  10  22   -0.65    3.60 
  -2  10 -22   -1.32    2.91 
  -2  10  22   -4.51    3.17 
  10   2 -24    0.17    1.88 
  -2  10  24    2.20    2.83 
  -2  10  24   -0.41    1.78 
  -3  10   1  320.74   34.86 
  -3  10  -1  346.09   35.92 
 -10  -3   3  116.50   23.63 
  10   3  -3   99.97   18.04 
  -3  10   3   99.09   20.11 
  -3  10  -3   99.08   19.60 
  10   3  -5   11.82    8.27 
  -3  10   5   -4.79    9.70 
  -3  10  -5    2.18    6.77 
 -10  -3   5   -2.25   12.04 
  10   3  -7  120.90   22.02 
  -3  10   7  143.83   25.97 
 -10  -3   7  120.59   26.68 
  -3  10   7  117.32   20.27 
  -3  10  -7  130.59   14.09 
  -3  10   7  117.22   13.36 
  10   3  -7  119.94   13.49 
  10   3   9   47.97    9.59 
  10   3  -9   56.63   10.41 
  10   3  -9   52.20   18.02 
  -3  10   9   32.58   13.15 
 -10  -3   9   55.90   20.88 
  -3  10  -9   59.91   10.62 
  -3  10   9   59.32   10.42 
  -3  10   9   59.29   10.42 
  -3  10   9   44.15    9.49 
  10   3 -11   12.28    6.92 
  10   3  11   10.31    6.44 
  10   3 -11    7.67   10.08 
  -3  10  11   29.41   13.32 
 -10  -3  11   13.23   15.33 
  -3  10 -11    5.39    5.29 
  -3  10  11   24.72    7.71 
  -3  10  11   27.74    8.73 
  -3  10  11    4.63    5.74 
  10   3 -13    8.11    5.24 
  -3  10  13   -8.22    5.70 
  -3  10 -13    0.07    5.25 
  -3  10  13    3.17    5.50 
  -3  10  13    9.92    5.76 
  -3  10  15   21.87    8.16 
  -3  10 -15   19.92    6.84 
  -3  10  15   18.46    8.34 
  10   3 -15    9.77    4.77 
  10   3 -17   22.60    8.20 
  -3  10 -17    3.75    4.56 
  -3  10  17    7.75    5.44 
  -3  10  17    9.32    6.10 
  10   3 -19    7.46    5.76 
  -3  10 -19    2.52    3.95 
  -3  10  19    2.05    4.93 
  -3  10  19    2.49    4.75 
  10   3 -21    0.29    3.83 
  -3  10 -21    5.24    3.51 
  -3  10  21    3.62    4.64 
  -3  10 -21    6.47    4.49 
  -3  10  21    0.00    2.97 
  10   3 -23   -1.67    2.71 
  -3  10 -23    0.69    1.88 
  -3  10 -23    3.98    2.80 
  10   3 -23    2.00    2.85 
  -3  10  23    2.72    3.20 
  -3  10  23    0.35    2.19 
  -4  10   4   20.49   11.96 
  10   4  -6    0.37    5.29 
  -4  10   6    7.13    8.68 
  10   4  -6   -2.72    7.79 
  -4  10   6    4.90    8.79 
 -10  -4   6    0.51   11.04 
  -4  10  -6    5.83    5.14 
  -4  10   6   -2.05    5.17 
  10   4   8  417.88   25.21 
  10   4  -8  486.19   27.48 
  -4  10   8  428.55   41.49 
  -4  10   8  490.77   48.68 
  10   4  -8  422.47   42.23 
 -10  -4   8  420.90   48.47 
   4 -10  -8  436.15   45.69 
  -4  10   8  496.26   27.33 
  -4  10  -8  372.47   25.32 
  -4  10   8  461.97   25.61 
  -4  10   8  430.38   25.94 
  -4  10  -8  462.60   26.46 
  10   4  -8  478.05   26.68 
  10   4 -10    0.84    6.96 
  10   4 -10   -0.70    5.44 
  10   4  10    3.49    5.41 
  10   4 -10   -5.62   10.09 
  -4  10  10  -11.52   12.82 
 -10  -4  10   -5.75   10.89 
  -4  10  10   -7.58    6.70 
  -4  10 -10    2.13    5.88 
  -4  10  10    7.16    6.56 
  -4  10  10    9.39    8.78 
  -4  10 -10   -4.01    5.57 
  10   4 -12    8.65    6.82 
  10   4 -12   -0.61   11.64 
  -4  10  12   -1.17    9.56 
 -10  -4  12   10.75   14.53 
  -4  10  12    2.77    6.11 
  -4  10  12    8.91    6.65 
  -4  10 -12   -0.81    5.29 
  -4  10  12    1.20    4.61 
  10   4 -12    9.75    5.44 
  10   4 -14    7.09    6.09 
  -4  10  14    5.44    6.35 
  -4  10 -14   -6.54    5.11 
  -4  10  14   -1.51    4.00 
  10   4 -14   -6.02    5.20 
  10   4 -16  142.39   16.68 
  -4  10  16  151.41   16.65 
  -4  10 -16  126.51   14.25 
  -4  10  16  108.32   13.83 
  10   4 -16  101.05   11.93 
  10   4 -18    3.43    5.38 
  -4  10 -18   -3.60    5.41 
  -4  10  18   -0.20    4.97 
  -4  10  18    1.85    4.85 
  10   4 -20   13.22    5.61 
  -4  10 -20    4.15    4.21 
  -4  10  20   18.77    7.03 
  -4  10  20    7.55    5.51 
  10   4 -22    0.60    2.78 
  -4  10 -22   -2.76    2.38 
  -4  10 -22    0.54    2.69 
  10   4 -22    0.18    2.59 
  -4  10  22    0.72    4.24 
  -4  10  22   -1.43    2.81 
  10   5  -5    8.24    5.56 
  10   5  -5    7.36    5.14 
  10   5  -5    1.52    4.58 
  10   5   5    7.88    5.51 
  -5  10   5   -6.65   10.86 
  -5  10   5    5.20   10.26 
  -5  10   5   12.02    7.30 
  -5  10  -5    0.93    5.66 
  -5  10   5   -0.28    5.26 
  10   5  -7  114.46   13.83 
  10   5   7  103.99   13.41 
  10   5  -7  106.58   19.90 
  -5  10   7  129.37   25.50 
   5 -10  -7  116.73   25.28 
  -5  10   7  127.34   25.70 
 -10  -5   7  136.65   29.88 
  -5  10  -7  113.28   13.76 
  -5  10   7  123.82   14.98 
  -5  10  -7  106.28   14.77 
  -5  10   7  112.44   14.31 
  10   5  -7  116.62   14.18 
  10   5  -9   94.78   13.19 
  10   5   9   97.26   13.39 
  10   5  -9   64.83   16.86 
  -5  10   9  127.55   27.35 
 -10  -5   9   68.60   24.42 
  -5  10   9   93.26   22.11 
  -5  10   9   91.89   13.35 
  -5  10   9   97.05   13.21 
  -5  10   9  103.20   13.64 
  -5  10  -9  101.05   13.48 
  -5  10  -9   96.04   14.51 
  10   5  -9   75.46   11.49 
  10   5 -11  -10.01    7.49 
  10   5 -11   -1.56   10.60 
  -5  10  11    2.24   10.99 
 -10  -5  11    7.80   11.10 
  -5  10  11    1.86    5.03 
  -5  10 -11   -3.68    4.98 
  -5  10  11    0.14    5.16 
  10   5 -11    4.99    6.15 
  -5  10 -11   -8.02    7.95 
  10   5 -13   -4.01    5.94 
  -5  10  13    5.07    5.88 
  -5  10 -13    8.36    5.25 
  -5  10  13    7.74    6.43 
  -5  10 -13    0.75    6.27 
  10   5 -13    9.21    6.60 
  10   5 -15  120.55   14.76 
  -5  10  15  102.23   13.97 
  -5  10 -15   86.58   12.09 
  -5  10 -15   67.10   12.86 
  -5  10  15   65.90   11.77 
  10   5 -15   81.35   10.71 
  10   5 -17    7.10    6.26 
  -5  10 -17    8.71    6.23 
  -5  10  17   18.13    7.14 
  -5  10 -17    7.19    6.15 
  -5  10  17    5.96    5.58 
  10   5 -19   11.04    5.18 
  -5  10 -19   13.73    4.95 
  -5  10  19   24.65    7.36 
  -5  10 -19   28.52   10.69 
  -5  10  19    6.58    5.67 
   5 -10  21   -0.48    1.48 
  10   5 -21    1.54    3.28 
  -5  10  21   -4.16    3.67 
  -5  10 -21    0.46    3.06 
  10   5 -21    0.23    2.64 
  -5  10  21    0.37    2.75 
  -5  10  23    1.73    2.38 
  10   6   0    9.42    4.79 
  -6  10   0    7.76    4.87 
  -6  10   0   -2.58    5.79 
  10   6   2  327.09   22.29 
  10   6  -2  292.49   19.37 
  10   6  -2  323.18   21.01 
  -6  10  -2  304.62   20.88 
  -6  10   2  337.02   23.48 
  -6  10  -2  312.17   22.71 
  -6  10   2  305.15   21.26 
  10   6  -2  306.33   21.11 
  10   6  -4   -1.94    4.84 
  10   6   4    3.82    5.97 
  10   6  -4    8.78    6.47 
  -6  10   4   -5.73   11.03 
  -6  10   4    4.08    5.54 
  -6  10  -4   -8.05    5.65 
  -6  10  -4    3.99    6.34 
  10   6  -4   -1.40    4.98 
  10   6   4   -3.83    4.77 
  -6  10   4   -7.49    7.39 
  10   6  -6  122.72   14.04 
  10   6   6  125.91   14.88 
  -6  10   6  127.66   25.73 
   6 -10  -6  136.08   29.14 
  -6  10  -6  123.02   16.64 
  -6  10   6  121.87   14.93 
  -6  10   6  122.54   14.74 
  -6  10  -6  119.65   14.32 
  10   6   6   98.03   12.05 
  10   6  -6  116.48   14.30 
  10   6  -8    8.84    5.98 
  10   6   8    8.57    6.48 
   6 -10  -8   21.94   15.16 
  -6  10   8   19.23   11.92 
  -6  10   8    9.36   10.87 
  -6  10   8   22.50    7.53 
  -6  10  -8    9.27    6.48 
  -6  10   8   17.82    7.84 
  10   6  -8    5.97    5.10 
  -6  10  -8   15.31    7.86 
  -6  10   8    2.97    5.56 
  10   6 -10  113.11   14.70 
  10   6  10  117.49   13.88 
  10   6 -10  124.49   24.68 
  -6  10  10  112.80   26.58 
  -6  10  10  117.02   14.65 
  -6  10 -10  130.37   16.66 
  -6  10  10  130.39   15.15 
  -6  10 -10  119.69   14.80 
  10   6 -10  111.10   13.90 
  10   6 -12   -3.95    5.54 
  -6  10  12    3.68    4.71 
  -6  10  12   -1.09    5.84 
  -6  10 -12   -4.21    4.58 
  -6  10 -12   -2.06    6.68 
  10   6 -12   -0.62    4.64 
  10   6 -14   55.76   10.04 
  -6  10  14   59.44   10.89 
  -6  10 -14   48.64    9.59 
  -6  10  14   57.99   10.59 
  -6  10 -14   41.79   10.96 
  10   6 -14   50.24    8.82 
  10   6 -16   -1.53    4.46 
  -6  10 -16    0.36    4.40 
  -6  10  16    0.55    5.14 
  10   6 -16    2.67    4.09 
  -6  10 -16    4.56    5.67 
  -6  10  16    1.38    3.75 
  10   6 -18   82.45   10.99 
  -6  10 -18   56.39    9.93 
  -6  10 -18   57.93    9.58 
  -6  10  18   70.28   11.29 
  -6  10  18   47.25    9.42 
   6 -10  20    2.93    3.59 
  10   6 -20    2.14    2.96 
  -6  10  20    4.79    3.87 
  -6  10 -20    5.07    3.70 
  10   6 -20    0.41    3.02 
  -6  10  20   -0.74    2.50 
  10   6 -22    2.52    2.46 
  -6  10  22   -2.09    2.73 
  10   7  -1  106.23   12.69 
  10   7  -1  107.53   13.05 
  10   7   1   94.22   11.63 
  10   7   1  117.38   13.97 
  -7  10  -1   96.81   12.91 
  -7  10   1  110.54   13.87 
  -7  10  -1  107.51   14.76 
  10   7  -1   95.92   12.19 
  -7  10   1  101.24   14.22 
  10   7  -1  105.48   13.56 
  10   7   1   94.13   12.84 
  10   7   1   91.15   11.41 
  10   7  -3  105.90   12.95 
  10   7  -3  112.98   13.54 
  10   7   3  107.06   13.50 
  10   7   3   92.90   11.98 
  -7  10  -3   94.84   12.40 
  -7  10   3  105.27   13.95 
  -7  10  -3  110.58   14.97 
  10   7   3  164.33   18.34 
  10   7  -3  131.54   15.17 
  -7  10   3  102.08   13.92 
  10   7  -3  102.38   13.16 
  10   7   5   73.36   10.80 
  10   7   5   88.43   12.96 
  10   7  -5   80.91   11.52 
  -7  10   5   87.81   21.38 
  -7  10   5   78.17   12.72 
  -7  10  -5   73.83   11.74 
  -7  10  -5   85.75   15.05 
  10   7  -5   88.83   12.74 
  -7  10   5   85.42   12.66 
  10   7   5   84.53   11.82 
  10   7   7   30.29    8.36 
  10   7   7   21.62    7.24 
  10   7  -7   21.78    8.50 
  -7  10   7   46.47   18.95 
   7 -10  -7   29.71   17.22 
  -7  10   7    7.31   12.33 
  -7  10   7   28.32    8.82 
  -7  10  -7   20.98    7.61 
  -7  10   7   22.65    7.97 
  10   7  -7   28.93    8.01 
  -7  10   7   21.25    7.68 
  -7  10  -7   25.23    9.35 
  10   7   7   17.25    6.69 
  10   7  -9   55.75   10.25 
  10   7   9   44.34    9.03 
   7 -10  -9   65.43   21.88 
  -7  10   9   29.25   15.03 
  -7  10   9   39.39   15.80 
  -7  10   9   66.56   12.45 
  -7  10  -9   62.18   10.98 
  -7  10   9   51.42   10.51 
  -7  10  -9   62.67   13.42 
  -7  10   9   52.09    9.83 
  10   7   9   62.55    9.82 
  10   7  -9   65.17   10.98 
  10   7 -11  127.34   14.84 
  -7  10  11  119.52   14.36 
  -7  10 -11  122.04   16.90 
  -7  10  11  106.84   14.01 
  -7  10 -11  125.92   14.48 
  10   7  11  109.25   12.64 
  10   7 -11  121.98   14.04 
  10   7 -13   16.86    7.07 
  -7  10  13   25.18    8.31 
  -7  10 -13   16.00    5.85 
  -7  10  13   19.81    8.36 
  -7  10 -13   20.68    8.62 
  10   7 -13   13.29    5.94 
  10   7  13   24.37    6.13 
  10   7 -15    8.74    5.68 
  -7  10 -15    4.47    5.29 
  -7  10  15   15.39    6.64 
  10   7 -15    9.56    5.37 
  -7  10 -15   -0.01    5.26 
  10   7 -17   37.93    8.06 
  -7  10 -17   26.05    6.73 
  -7  10  17   32.35    8.18 
  -7  10 -17   10.72    7.23 
   7 -10  19    9.51    6.15 
  10   7 -19   15.79    5.06 
  -7  10 -19   16.08    5.02 
  -7  10  19   15.10    5.37 
  10   7 -19    3.29    3.49 
  -7  10 -19    8.95    4.80 
  10   7 -21    0.55    2.17 
  -7  10  21    3.81    3.04 
  10   8   0  257.59   19.79 
  10   8   0  265.83   20.39 
  -8  10   0  277.57   23.34 
  -8  10   0  230.15   19.41 
  10   8   0  273.44   21.18 
  10   8   0  246.49   19.69 
  10   8   2    5.53    5.67 
  10   8  -2    1.36    4.58 
  10   8   2   -4.53    5.07 
  10   8  -2   10.78    7.44 
  10   8   2    5.66    5.22 
  -8  10   2    2.71    6.07 
  -8  10  -2    7.56    6.02 
  -8  10   2   -4.51    6.83 
  10   8   2    1.74    4.53 
  10   8  -2   -4.89    5.93 
  10   8   2    5.28    5.46 
  -8  10  -2   -4.53    8.37 
  10   8  -2    6.07    6.30 
  10   8  -4    0.30    4.89 
  10   8   4   -5.65    5.55 
  10   8   4   -0.89    5.07 
  10   8   4    1.36    5.45 
  -8  10   4  -13.39   14.57 
  -8  10   4   -3.14    5.88 
  -8  10  -4  -10.70    5.83 
  -8  10  -4   -3.31    7.76 
  10   8  -4   -3.58    5.89 
  10   8   4   -5.07    5.28 
  -8  10   4   -0.52    6.47 
  10   8   6    5.17    4.74 
  10   8   6    0.93    5.82 
  10   8   6   10.98    6.50 
  10   8  -6   31.27   11.62 
  -8  10   6    9.87   13.02 
   8 -10  -6  -15.68   16.31 
  -8  10  -6   18.26    6.96 
  -8  10   6   15.65    7.33 
  -8  10   6   13.13    6.97 
  -8  10  -6   17.34   10.42 
  10   8   6   15.22    6.49 
  10   8  -6   17.00    8.33 
  10   8   8   91.99   11.75 
  10   8  -8   90.29   12.19 
  10   8   8  104.61   13.37 
  10   8   8   76.39   11.35 
  -8  10  -8   85.76   12.66 
  -8  10   8   92.80   13.32 
  -8  10   8  100.60   12.71 
  -8  10   8   89.89   13.75 
  10   8   8   96.21   12.16 
  10   8  -8  102.10   13.58 
  -8  10  -8   98.96   15.61 
  10   8 -10    8.69    5.71 
  -8  10  10    1.91    4.80 
  -8  10 -10    4.60    4.64 
  -8  10  10   -5.20    4.33 
  -8  10 -10    8.76    8.19 
  10   8 -10    8.09    5.12 
  10   8  10    0.92    4.06 
  10   8 -12   23.49    7.26 
  -8  10  12   20.77    7.18 
  -8  10  12   30.08    8.21 
  -8  10 -12   21.62    7.80 
  10   8 -12   17.96    6.67 
  -8  10 -12   26.36    9.00 
  10   8  12   49.89    9.43 
  10   8 -14   10.69    5.34 
  -8  10  14    0.08    4.62 
  -8  10 -14    7.51    5.60 
  -8  10  14    7.07    5.66 
  10   8 -14    4.00    4.43 
  -8  10 -14    7.86    7.25 
  10   8  14    6.05    4.10 
  10   8 -16   34.96    7.59 
  -8  10  16   33.63    7.93 
  -8  10 -16   32.58    7.61 
  -8  10 -16   31.97    8.94 
  10   8 -16   30.88    6.71 
  10   8  16   27.05    5.99 
  10   8 -18   -0.60    2.96 
   8 -10  18    2.09    4.92 
  -8  10 -18   -2.78    3.57 
  -8  10  18    3.16    3.73 
  -8  10 -18    1.18    3.77 
   8 -10  20    5.54    3.23 
  10   8 -20   15.55    4.41 
  -8  10  20   10.53    3.82 
  10   9   1   81.28   13.08 
  10   9   1   68.21    9.43 
  10   9  -1   67.14    9.63 
  10   9  -1   66.76   11.88 
  10   9   1   71.88   11.60 
  -9  10   1   63.13   11.28 
  -9  10  -1   82.07   12.61 
  -9  10  -1   75.17   13.69 
  10   9  -1   76.10   12.33 
  10   9   1   76.45   11.83 
  10   9   1   75.01   12.36 
  10   9  -1   72.60   11.63 
  -9  10   1   91.35   14.47 
  10   9   3    2.46    5.15 
  10   9   3    1.87    4.77 
  10   9  -3   -0.64    4.78 
  10   9  -3   -2.67    5.26 
  10   9   3   13.56    6.81 
  -9  10   3   10.25    6.63 
  -9  10  -3    5.92    5.17 
  10   9  -3    2.75    5.86 
  -9  10   3    2.87    6.15 
  10   9   3    1.68    6.06 
  10   9  -3   13.05    7.92 
  -9  10  -3   -6.53    7.74 
  10   9  -5    0.61    5.35 
  10   9   5    3.58    4.78 
  10   9   5    6.63    6.57 
  10   9  -5    1.22    4.81 
  10   9   5    3.28    6.09 
  -9  10   5    5.66    5.18 
  -9  10  -5    2.10    5.03 
  -9  10  -5    9.79    8.79 
  -9  10   5    3.49    6.48 
  10   9   5    4.24    5.31 
  10   9  -5    0.21    4.70 
  10   9   7   35.48    8.53 
  10   9   7   42.12    8.81 
  10   9   7   40.79    8.89 
  10   9  -7   45.15    8.74 
  10   9  -7   35.41    6.87 
  -9  10  -7   49.25   10.15 
  -9  10   7   42.90   10.33 
  -9  10   7   41.87    9.14 
  10   9  -7   38.88    9.43 
  -9  10   7   51.89   10.60 
  10   9   7   42.23    8.83 
  -9  10  -7   53.16   13.40 
  10   9  -9   30.05    7.75 
  10   9   9   45.72   10.24 
  10   9  -9   16.38    5.63 
  -9  10  -9   24.29    7.26 
  -9  10   9   15.84    5.67 
  -9  10   9   20.42    7.70 
  10   9  -9   23.14    8.53 
  -9  10  -9   16.98    9.37 
  10   9   9   28.72    7.27 
  10   9 -11    5.55    5.30 
  10   9 -11    7.50    3.89 
  -9  10  11    8.13    5.57 
  -9  10 -11    3.83    5.06 
  -9  10  11   12.46    6.00 
  -9  10 -11   14.47    9.05 
  10   9  11    5.91    5.36 
  10   9 -11    2.15    5.94 
  10   9 -13   58.35   10.11 
  -9  10  13   46.80    9.39 
  -9  10 -13   47.98    9.82 
  -9  10  13   36.76    8.43 
  10   9 -13   45.77    9.26 
  10   9  13   59.88    8.84 
  -9  10 -13   32.27   10.21 
   9 -10  15   27.32    8.85 
  10   9 -15   19.29    7.32 
  -9  10 -15   11.00    5.21 
  -9  10  15   16.31    5.65 
  10   9 -15   14.41    5.29 
  10   9  15   11.87    4.77 
  -9  10 -15    1.77    5.57 
  10   9 -17    2.61    3.25 
   9 -10  17   -0.60    4.30 
  -9  10  17   -4.92    4.42 
  -9  10 -17    1.47    4.51 
  10   9  17    5.34    3.37 
   9 -10  19    4.77    3.42 
  10   9 -19    0.51    2.29 
  -9  10 -19   -0.95    2.75 
  10  10   0   37.65    9.31 
  10  10   0   28.22    6.79 
 -10  10   0   30.91    8.72 
  10  10   0   33.22    8.77 
  10  10   0   26.47    7.95 
 -10  10   0   42.13   11.34 
  10  10  -2   16.34    6.10 
  10 -10   2   21.53    8.86 
  10  10   2   10.76    5.57 
  10  10  -2   12.26    5.53 
  10  10   2   11.39    6.28 
 -10  10   2   14.17    6.35 
 -10  10  -2   13.85    7.21 
 -10  10   2   14.42    7.13 
  10  10  -2   14.46    8.13 
 -10  10  -2   11.86    8.02 
  10  10   2   15.55    6.64 
  10  10   2   11.93    7.12 
  10  10  -2   20.20    7.08 
  10  10   4    2.70    4.74 
  10  10   4    4.61    6.67 
  10  10  -4   -4.05    5.57 
  10  10  -4   -2.16    3.93 
  10 -10   4    7.84    7.29 
 -10  10   4    3.50    5.08 
 -10  10  -4    4.38    4.88 
  10  10  -4    0.48    6.24 
 -10  10   4    2.61    6.14 
  10  10   4   -0.63    5.71 
 -10  10  -4   16.94    7.81 
  10  10   6   14.50    6.07 
  10  10  -6   12.00    5.94 
  10  10  -6   16.90    5.85 
  10  10   6    8.51    5.16 
 -10  10   6   16.55    7.62 
 -10  10  -6   12.03    6.39 
 -10  10   6   11.06    5.41 
  10  10  -6   22.45    8.25 
 -10  10  -6   21.84    9.78 
  10  10   6   12.93    6.13 
 -10  10   6   19.89    7.95 
  10  10  -8    6.38    5.40 
  10  10   8   13.29    6.45 
  10  10  -8    0.60    3.36 
 -10  10  -8    7.12    5.91 
 -10  10   8   -3.29    4.65 
 -10  10  -8   13.36   10.08 
 -10  10   8    1.66    5.01 
  10  10  -8  -15.41    6.82 
  10  10   8   -7.62    5.87 
  10  10 -10   50.36    9.18 
  10  10 -10   49.77    8.30 
 -10  10 -10   54.26   10.10 
 -10  10  10   37.77    8.10 
 -10  10  10   54.76    9.96 
  10  10  10   56.82    8.94 
  10  10 -10   64.70   11.32 
 -10  10 -10   58.29   11.66 
  10  10 -12    5.21    4.58 
  10 -10  12   21.39    9.17 
  10  10 -12   -0.70    2.86 
 -10  10  12    1.64    3.89 
 -10  10  12    0.83    4.19 
 -10  10 -12    1.42    4.49 
  10  10  12    4.55    4.15 
  10  10 -12    2.90    5.00 
 -10  10 -12    1.29    5.49 
  10  10 -14   11.06    5.58 
  10 -10  14   10.33    6.47 
  10  10 -14    1.59    2.79 
 -10  10  14    7.03    4.47 
  10  10  14    2.80    3.31 
 -10  10 -14    0.08    5.16 
  10  10 -14    3.45    4.34 
  10  10 -16    0.06    3.29 
  10 -10  16    1.84    4.49 
 -10  10  16   -3.46    2.90 
  10  10 -16   -0.64    2.85 
 -10  10 -16    1.47    4.23 
  10  10  16   -5.52    3.43 
  10  10 -18    0.45    2.43 
  10 -10  18    1.67    3.06 
 -10  10 -18   -0.14    2.93 
  10  11  -1   -0.16    3.64 
  10  11   1    1.52    5.15 
  10  11  -1    1.75    5.65 
  10  11   1    4.31    5.13 
 -11  10   1   -7.10    4.91 
 -11  10  -1    0.15    5.52 
 -11  10   1   -3.90    7.93 
 -11  10  -1    5.07    5.85 
  10  11   1   -4.50    5.33 
  10  11  -1   -1.59    5.42 
  10  11   1   -6.56    6.17 
  10  11  -1    3.03    4.85 
  10  11   3   23.60    6.91 
  10  11  -3   29.34    7.07 
  10  11  -3   22.58    7.50 
  10  11   3   19.77    6.53 
  11 -10   3   14.46    6.82 
 -11  10   3   12.92    7.07 
 -11  10  -3   15.92    6.30 
  10  11   3   10.60    5.37 
 -11  10  -3   12.16    8.03 
  10  11  -3   44.75   11.16 
 -11  10   3   33.04    9.15 
  10  11   3   34.37    8.95 
  10  11  -3   18.53    6.22 
  10  11   5    1.20    4.35 
  10  11  -5    8.92    6.32 
  10  11   5   -2.05    5.62 
  10  11  -5   -0.36    3.41 
  11 -10   5   -5.39    6.79 
 -11  10  -5   -2.97    5.49 
 -11  10   5    3.24    4.61 
 -11  10   5    1.02    5.37 
 -11  10   5    7.74    5.66 
  10  11   5    9.78    5.31 
 -11  10  -5  -10.26    8.16 
  10  11   7   23.48    8.11 
  10  11   7    0.37    4.88 
  10  11  -7    2.20    4.25 
  10  11  -7   -1.13    4.43 
  11 -10   7    5.63    7.41 
 -11  10  -7    3.29    4.93 
 -11  10   7    5.00    4.99 
 -11  10   7    5.78    5.97 
  10  11   7   14.97    6.74 
  10  11  -7    5.38    5.14 
 -11  10  -7    9.17    8.30 
  11 -10   9    5.89    6.63 
  10  11  -9    1.22    4.34 
  10  11  -9    6.50    4.12 
 -11  10  -9    2.26    4.39 
 -11  10   9    6.76    4.40 
 -11  10   9   -4.00    4.41 
  10  11  -9    7.90    4.99 
  10  11   9    0.01    4.77 
 -11  10  -9   10.85    6.89 
  11 -10  11   21.90    8.05 
  10  11 -11   12.43    5.87 
  10  11 -11   11.19    4.26 
 -11  10 -11   18.04    7.25 
 -11  10  11    6.60    5.36 
 -11  10  11   13.95    5.91 
  10  11 -11    4.45    4.85 
  10  11  11    2.34    3.80 
 -11  10 -11    7.94    6.30 
  10  11 -13    1.30    2.47 
  11 -10  13    8.22    5.82 
  10  11 -13   -5.76    4.15 
 -11  10 -13    6.61    5.19 
  10  11 -13    1.90    3.64 
  10  11  13   -4.74    3.92 
  10  11 -15    1.75    2.33 
  11 -10  15   12.57    5.35 
  10  11 -15   15.31    5.13 
  10  11 -15   21.64    5.02 
  10  11  15   13.02    4.29 
 -11  10 -15    7.89    4.77 
  11 -10  17    0.31    2.88 
  10  11 -17    0.85    2.32 
 -11  10 -17   -1.55    3.01 
  10  11  17   -0.96    1.95 
   9  11   0   -4.66    5.67 
   9  11   0    8.86    6.45 
 -11   9   0   -1.01    4.88 
 -11   9   0    1.37    7.60 
   9  11   0   -3.03    4.81 
   9  11   0   -7.36    6.59 
   9  11   2   -0.87    5.57 
   9  11   2   -0.82    4.78 
   9  11  -2    2.87    4.52 
   9  11  -2    0.85    4.31 
  11  -9   2    3.52    6.84 
 -11   9   2    2.84    6.41 
 -11   9  -2   -2.42    5.26 
 -11   9   2    7.76    6.92 
 -11   9  -2   -2.32    7.00 
   9  11   2    5.33    5.17 
   9  11  -2    3.55    5.42 
   9  11   2    7.13    6.82 
   9  11  -2   -0.49    5.28 
   9  11   4   23.10    8.31 
   9  11  -4   16.79    6.72 
   9  11  -4   17.57    6.03 
   9  11   4   14.22    6.34 
  11  -9   4   32.42   10.51 
 -11   9   4   17.46    7.44 
 -11   9  -4   32.17    9.08 
   9  11  -4   35.77   10.12 
 -11   9  -4   23.21    8.94 
 -11   9   4   21.12    7.27 
   9  11   4   31.30    8.23 
   9  11  -4   18.76    8.11 
  11  -9   6    6.63    6.81 
   9  11  -6    4.68    4.66 
   9  11   6   -2.27    4.76 
   9  11   6    2.48    5.08 
   9  11  -6    2.87    3.70 
 -11   9  -6    9.89    6.91 
 -11   9   6    0.20    4.10 
 -11   9   6    0.45    4.91 
 -11   9   6   -5.15    4.99 
 -11   9  -6    5.28    8.15 
   9  11  -6   -8.32    6.75 
   9  11   6    5.36    5.69 
   9  11  -8   22.90    6.88 
  11  -9   8   26.10    9.57 
   9  11   8   10.32    6.43 
   9  11  -8   18.77    5.84 
 -11   9  -8   13.43    6.66 
   9  11  -8   12.34    5.19 
 -11   9   8   17.05    6.90 
   9  11   8   24.62    6.69 
 -11   9  -8   24.58    9.22 
  11  -9  10   17.54    7.84 
   9  11 -10   20.18    7.03 
   9  11 -10   23.42    6.18 
 -11   9  10   20.44    6.50 
 -11   9 -10   17.44    7.29 
   9  11 -10   17.78    7.34 
   9  11  10   19.02    6.45 
   9  11 -12   36.36    8.32 
  11  -9  12   40.14    9.84 
   9  11 -12   35.37    6.75 
 -11   9  12   36.84    8.20 
   9  11 -12   34.83    7.85 
 -11   9 -12   34.87    9.66 
   9  11  12   36.44    7.81 
   9  11 -14    4.52    3.26 
   9  11 -14   -1.29    3.91 
  11  -9  14    0.08    4.28 
 -11   9 -14   -3.80    6.06 
   9  11 -14    1.72    3.79 
   9  11  14   11.94    4.73 
   9  11 -16   17.36    4.75 
   9  11 -16   18.79    5.06 
  11  -9  16    9.27    5.21 
   9  11 -16   16.27    4.37 
 -11   9 -16    9.41    6.14 
   9  11  16   21.68    5.16 
   9  11 -18    1.59    2.45 
  11  -9  18   -0.99    2.68 
   9  11  18    1.75    2.31 
 -11   9 -18   -1.41    3.12 
   8  11  -1    4.22    5.01 
   8  11   1   14.83    6.47 
   8  11  -1   10.62    5.72 
   8  11   1    6.74    5.52 
  11  -8   1   13.81    7.41 
   8  11  -1   14.77   12.21 
   8  11   1    3.69   10.49 
 -11   8   1   15.70   14.62 
 -11   8   1   13.61    6.10 
 -11   8  -1    4.60    6.21 
 -11   8  -1    4.82    7.79 
   8  11  -1    3.68    5.50 
   8  11  -1    4.60    6.73 
 -11   8   1   14.13    8.47 
   8  11   1    6.22    6.10 
   8  11   1   19.75    8.19 
   8  11  -3   -6.33    5.20 
   8  11   3   -0.48    4.83 
   8  11   3    0.13    4.94 
  11  -8   3    2.51    6.63 
   8  11   3    2.71    8.73 
 -11   8   3  -14.21   12.38 
  11  -8  -3   -9.96   10.98 
   8  11  -3    6.43    5.24 
 -11   8   3   -7.63    5.28 
 -11   8  -3    1.13    5.70 
 -11   8   3   -2.17    5.75 
   8  11  -3    6.95    6.16 
 -11   8  -3   -1.24    7.66 
   8  11   3    6.41    5.44 
   8  11   3   -6.02    6.23 
   8  11  -3   -3.17    6.13 
   8  11   5   30.28    8.34 
   8  11  -5   12.99    5.68 
   8  11   5   14.79    7.03 
  11  -8   5   35.77   11.30 
   8  11  -5   22.55    6.01 
 -11   8   5   10.27    6.23 
 -11   8  -5   17.86    7.26 
 -11   8   5   34.10    8.64 
   8  11  -5   29.79    8.79 
   8  11   5   29.76    8.34 
 -11   8  -5   27.44    9.70 
   8  11  -7   15.97    5.43 
   8  11  -7    7.29    5.06 
  11  -8   7    9.14    8.19 
   8  11   7    7.54    6.41 
   8  11   7    0.03    5.48 
 -11   8  -7   17.34    9.04 
   8  11  -7   -3.39    6.18 
 -11   8   7    7.08    5.30 
   8  11   7    1.80    4.41 
   8  11  -9    8.93    5.66 
  11  -8   9   18.41    9.11 
   8  11  -9   17.66    7.00 
   8  11   9    5.42    5.80 
 -11   8  -9   21.64   10.27 
   8  11  -9    7.67    5.91 
   8  11   9   27.80    6.94 
 -11   8   9   16.55    7.00 
   8  11 -11    3.65    4.33 
  11  -8  11    2.10    5.38 
   8  11 -11    6.95    4.71 
 -11   8  11   -5.51    4.26 
 -11   8 -11   11.27    7.45 
   8  11 -11   -2.39    5.51 
   8  11  11    6.00    5.15 
   8  11 -13   14.17    6.14 
  11  -8  13   38.44   10.05 
   8  11 -13   19.37    6.07 
 -11   8  13   11.27    6.14 
 -11   8 -13   20.14    8.60 
   8  11 -13   12.53    5.98 
   8  11  13   29.33    6.16 
   8  11 -15   -4.49    3.67 
   8  11 -15    3.42    3.84 
  11  -8  15   -4.06    5.17 
   8  11 -15   -2.12    4.18 
 -11   8 -15    9.31    7.00 
   8  11  15   -3.47    3.97 
   8  11 -17    1.61    2.71 
   8  11 -17    2.96    3.08 
  11  -8  17   -1.89    3.91 
 -11   8 -17    1.17    4.35 
   8  11  17    4.69    3.42 
   8  11 -19   -0.95    1.79 
  11  -8  19   -0.31    2.47 
 -11   8 -19    0.18    3.58 
   8  11  19   -0.59    2.65 
   7  11   0    4.28    6.13 
   7  11   0    0.82    5.15 
 -11   7   0   -6.19   12.00 
   7  11   0    9.71    8.76 
 -11   7   0    2.05    5.53 
 -11   7   0   -1.84    6.53 
   7  11   0   -2.91    6.15 
   7  11   0    0.17    5.01 
   7  11  -2   18.15    7.51 
   7  11   2   16.49    7.32 
   7  11   2   15.87    6.15 
  11  -7   2    3.68    7.06 
 -11   7   2   35.82   15.76 
   7  11   2    8.46   10.41 
  11  -7  -2   17.75   15.28 
   7  11  -2   15.15    6.91 
 -11   7  -2   11.95    6.63 
 -11   7   2   10.58    5.45 
 -11   7  -2    7.12    6.65 
   7  11   2   19.23    7.46 
 -11   7   2   13.46    9.17 
   7  11  -2   16.51    6.56 
   7  11  -2   11.91    6.10 
   7  11   2   15.76    7.57 
   7  11   4   13.63    6.66 
   7  11  -4   20.86    6.94 
  11  -7   4   12.18    7.78 
   7  11   4   12.47    7.28 
   7  11   4   11.01   11.55 
 -11   7   4   23.89   13.82 
  11  -7  -4   22.46   17.96 
   7  11  -4   20.04    6.73 
 -11   7   4   22.98    8.55 
 -11   7   4   36.40   10.41 
 -11   7  -4    5.08    7.13 
   7  11  -4   16.60    7.01 
   7  11  -4   21.79    8.30 
   7  11   4   15.54    6.58 
   7  11  -6   25.56    7.86 
   7  11   6   21.54   12.58 
  11  -7  -6   23.48   16.81 
 -11   7   6   34.02   17.94 
  11  -7   6   30.83   10.71 
   7  11   6   34.55    9.05 
   7  11  -6   35.77    8.62 
   7  11   6   39.36    8.79 
 -11   7   6   27.55    8.43 
 -11   7  -6   33.64   10.47 
   7  11  -6   29.54    8.39 
   7  11   6   35.85    8.89 
   7  11  -8    0.34    4.32 
   7  11   8   -0.46    5.26 
  11  -7   8    1.16    5.98 
   7  11  -8   -5.25    5.60 
 -11   7  -8    3.57    6.91 
 -11   7   8    2.31    4.98 
   7  11  -8    3.86    5.64 
   7  11   8    2.71    4.75 
  11  -7  10    2.48    5.84 
   7  11 -10   -9.30    6.08 
   7  11  10    8.64    6.74 
 -11   7  10    2.46    5.31 
 -11   7 -10    8.65    8.37 
   7  11  10    8.69    5.59 
   7  11 -10    0.23    4.91 
  11  -7  12   26.01    9.59 
   7  11 -12   31.88    7.45 
   7  11 -12   27.48    6.73 
 -11   7  12   37.04    8.02 
 -11   7 -12   36.65   10.16 
   7  11 -12   34.01    8.08 
   7  11  12   42.70    8.87 
   7  11 -14   52.70    8.95 
  11  -7  14   57.09   10.96 
   7  11 -14   58.85    9.98 
   7  11 -14   42.80    8.54 
 -11   7 -14   56.92   11.15 
   7  11  14   62.99    9.47 
   7  11 -16    5.16    4.28 
  11  -7  16   -0.42    4.12 
   7  11 -16    1.84    3.36 
   7  11 -16    1.37    2.99 
 -11   7 -16   -0.50    4.67 
   7  11  16    6.84    3.71 
  11  -7  18   -0.45    3.27 
   7  11 -18   -0.67    2.64 
 -11   7 -18    0.01    4.56 
   7  11  18   -2.78    3.17 
   7  11 -20    8.61    4.10 
 -11   7 -20   -0.98    3.53 
   7  11  20    2.18    2.75 
   6  11   1   -0.45    5.23 
   6  11  -1    2.32    4.87 
  11  -6   1   -0.83    6.95 
   6  11   1    1.40    5.44 
   6  11  -1   17.02   10.39 
   6  11   1    8.16    9.38 
 -11   6  -1    9.37    9.84 
  11  -6  -1  -13.48   17.20 
 -11   6   1    3.07    8.99 
   6  11  -1    9.95    6.66 
 -11   6   1    1.39    5.47 
 -11   6   1    3.46    5.76 
 -11   6  -1    8.16    7.76 
   6  11   1    0.25    5.51 
   6  11  -1    3.65    5.77 
   6  11  -1    3.82    4.82 
   6  11   1    2.06    5.61 
   6  11  -3   -4.56    4.55 
   6  11   3    5.95    5.84 
  11  -6   3    2.71    7.90 
   6  11   3    2.50    4.68 
 -11   6   3  -15.71   12.24 
   6  11   3  -15.78    9.46 
  11  -6  -3   18.71   17.39 
   6  11  -3   -0.44    4.65 
 -11   6   3    4.01    4.71 
   6  11   3    6.47    5.94 
 -11   6  -3    8.49    8.51 
   6  11  -3    2.41    6.12 
   6  11  -3    5.27    6.36 
 -11   6   3    3.10    5.41 
   6  11   3   -2.71    4.88 
   6  11   5   20.48    8.14 
   6  11  -5    6.36    5.33 
   6  11   5   14.93    6.90 
  11  -6   5   15.40    8.20 
   6  11  -5   22.67    6.95 
   6  11   5   18.94   13.61 
  11  -6  -5   32.87   17.99 
 -11   6   5   10.84   10.89 
 -11   6   5   15.09    6.46 
 -11   6  -5   28.36   10.02 
   6  11  -5   28.14    8.68 
   6  11  -5   15.57    7.25 
   6  11   5   18.91    7.54 
 -11   6   5   10.37    7.33 
   6  11  -7   15.49    6.59 
 -11   6   7   17.69   14.53 
   6  11   7   14.00   11.49 
  11  -6  -7   40.18   22.19 
   6  11  -7    5.47    4.58 
   6  11   7    2.61    5.85 
  11  -6   7   10.75    8.50 
   6  11   7   18.54    8.74 
 -11   6  -7   10.08    8.55 
   6  11  -7   12.01    6.76 
   6  11   7   15.92    6.65 
 -11   6   7   11.02    7.23 
   6  11  -9    0.40    5.01 
   6  11  -9   -0.35    4.45 
  11  -6   9   10.69    7.03 
   6  11   9    6.45    5.72 
 -11   6  -9   -0.58    7.46 
 -11   6   9   -0.67    4.91 
   6  11  -9    2.05    4.62 
   6  11   9    0.12    4.56 
   6  11 -11   34.91    8.15 
   6  11  11   61.68   12.35 
  11  -6  11   45.51   11.80 
   6  11 -11   39.58    8.84 
 -11   6  11   33.04    7.77 
   6  11  11   39.21    8.00 
 -11   6 -11   41.53   11.86 
   6  11 -11   19.61    7.05 
   6  11 -13    1.46    5.06 
  11  -6  13    5.41    5.78 
   6  11 -13    5.15    5.36 
   6  11 -13    9.56    5.56 
   6  11 -13   -7.57    4.76 
 -11   6 -13    4.41    6.39 
   6  11  13   -0.27    4.19 
   6  11 -15    5.04    4.37 
  11  -6  15    5.55    6.41 
   6  11 -15   10.70    6.14 
   6  11 -15    7.85    4.64 
   6  11 -15    9.65    5.17 
   6  11  15    5.36    3.96 
 -11   6 -15   11.08    6.36 
  11  -6  17   -1.34    4.90 
   6  11 -17   -0.31    3.52 
   6  11 -17    6.82    4.24 
   6  11  17   -0.55    3.69 
 -11   6 -17   -7.05    7.06 
  11  -6  19   -0.11    2.90 
   6  11 -19    2.25    3.68 
 -11   6 -19    0.85    4.05 
   6  11  19   -0.42    2.93 
   6  11 -21    3.20    2.04 
 -11   6 -21    4.54    3.78 
   6  11  21   -2.38    2.44 
   5  11   0  -16.96   11.30 
 -11   5   0    0.71    8.54 
   5  11   0   -1.13    5.59 
  11  -5   0    4.15    5.21 
   5  11   0    1.33    5.26 
 -11   5   0   10.11    6.22 
   5  11   0   -3.20    5.76 
   5  11   0    5.43    4.66 
   5  11  -2  105.11   20.83 
   5  11   2  117.69   22.35 
 -11   5  -2   94.65   22.14 
  11  -5  -2  122.20   26.39 
 -11   5   2  100.13   24.23 
   5  11   2  109.00   13.13 
   5  11  -2  102.93   12.35 
   5  11  -2  111.44   12.85 
   5  11   2  109.04   12.89 
  11  -5   2  112.38   14.24 
 -11   5   2   84.13   12.29 
 -11   5  -2   96.06   13.75 
   5  11  -2  100.38   12.46 
   5  11   2  107.33   12.47 
   5  11  -2  106.93   14.01 
   5  11   2   98.74   12.25 
   5  11  -4   12.50    6.78 
   5  11   4   15.46    7.59 
   5  11   4   14.33    7.06 
  11  -5   4   14.99    7.51 
   5  11  -4   14.87    6.15 
   5  11   4    6.70    7.89 
 -11   5   4   16.79   11.71 
  11  -5  -4    8.29   11.95 
 -11   5   4   10.67    5.32 
 -11   5   4   12.09    7.00 
   5  11  -4   14.11    7.17 
   5  11  -4   13.05    6.48 
   5  11   4   23.27    6.86 
   5  11   4   15.55    5.98 
   5  11   6  157.95   16.04 
   5  11   6  165.60   15.86 
  11  -5   6  148.64   17.69 
   5  11  -6  169.22   16.02 
   5  11  -6  152.49   15.28 
   5  11   6  161.24   29.31 
 -11   5   6  150.05   29.25 
  11  -5  -6  154.72   29.45 
 -11   5   6  136.95   15.33 
 -11   5  -6  152.45   17.67 
   5  11  -6  185.43   18.04 
   5  11  -6  154.01   15.88 
   5  11   6  172.47   16.19 
 -11   5   8    5.47    9.47 
   5  11  -8    7.55    5.79 
   5  11   8  -18.26   13.79 
  11  -5  -8   27.26   15.91 
   5  11  -8    7.87    5.80 
  11  -5   8    9.65    7.35 
   5  11   8    0.56    5.33 
 -11   5  -8    3.34    8.23 
   5  11  -8    5.74    5.72 
   5  11   8    5.63    5.43 
   5  11 -10   14.43    6.33 
   5  11  10    8.97    8.45 
   5  11 -10    5.25    4.31 
  11  -5  10   11.60    6.42 
   5  11 -10    7.02    5.43 
 -11   5 -10   13.89    8.04 
   5  11  10    5.91    5.92 
  11  -5  12   -5.02    5.91 
   5  11 -12    1.61    4.38 
   5  11 -12    0.99    5.26 
   5  11 -12    0.02    4.95 
   5  11  12    6.86    5.56 
   5  11 -12    5.83    4.45 
 -11   5 -12   10.24    9.06 
   5  11 -14   41.92    8.32 
  11  -5  14   62.79   11.39 
   5  11 -14   48.06    9.12 
   5  11 -14   46.96    9.22 
   5  11 -14   47.78    8.12 
 -11   5 -14   46.16   10.32 
   5  11  14   56.79    9.94 
  11  -5  16   30.94    9.57 
   5  11 -16   59.00    9.69 
   5  11 -16   44.05    8.86 
 -11   5 -16   57.34   11.08 
   5  11  16   51.97    9.06 
  11  -5  18   -1.58    3.86 
   5  11 -18    0.38    3.77 
   5  11 -18   -0.84    3.38 
 -11   5 -18    4.65    5.58 
   5  11  18    2.09    3.68 
   5  11 -20   -3.36    3.20 
   5  11 -20   -0.11    2.89 
 -11   5 -20   -0.46    4.33 
   5  11  20    1.40    3.29 
   5  11 -22    5.36    2.41 
  11  -5 -22    2.41    3.03 
 -11   5 -22    1.86    3.38 
   5  11  22    4.94    2.72 
 -11   4   1  293.26   37.50 
 -11   4  -1  299.05   36.88 
   4  11  -1  309.68   33.95 
   4  11   1  301.27   33.53 
  11  -4  -1  309.76   38.72 
   4  11   1  287.53   20.61 
   4  11  -1  275.05   19.22 
   4  11  -1  275.28   19.99 
   4  11   1  274.53   19.01 
   4  11  -1  237.42   17.33 
   4  11   1  273.58   18.84 
   4  11   1  272.40   20.52 
   4  11  -1  285.30   20.32 
   4  11  -3   -6.06    5.32 
 -11   4   3    1.05   11.58 
   4  11  -3    3.42    8.31 
   4  11   3   -6.46    8.94 
  11  -4  -3    2.43   11.29 
   4  11  -3    3.52    5.60 
   4  11   3    8.60    6.11 
  11  -4   3   13.56    6.93 
   4  11   3   -3.67    4.96 
   4  11  -3   -3.69    5.76 
 -11   4  -3    4.21    6.79 
   4  11  -3    1.13    4.89 
   4  11   3    0.70    5.74 
   4  11   3    1.39    4.07 
   4  11  -5   31.98    7.39 
 -11   4   5   30.59   15.39 
   4  11   5   32.02   12.38 
  11  -4  -5   51.31   21.32 
   4  11  -5   38.96    9.21 
   4  11   5   46.33    9.59 
   4  11   5   28.95    7.81 
  11  -4   5   33.63    9.82 
 -11   4  -5   31.23    9.60 
   4  11  -5   38.86    9.48 
   4  11  -5   42.50    8.92 
   4  11   5   38.18    8.04 
   4  11   7  120.74   24.75 
  11  -4  -7  130.46   26.61 
 -11   4   7   88.84   22.49 
   4  11  -7  112.24   14.04 
   4  11   7  118.16   14.61 
   4  11   7  109.26   12.95 
   4  11  -7   90.35   11.60 
  11  -4   7  101.31   14.44 
 -11   4  -7   93.31   14.29 
   4  11   7  104.80   13.37 
   4  11  -7  159.25   16.13 
   4  11  -9   24.53    6.93 
   4  11   9   26.06    7.81 
  11  -4   9   18.74    8.44 
   4  11  -9   30.59    8.65 
  11  -4  -9   20.78   11.68 
   4  11   9   34.23   15.77 
 -11   4   9   31.09   16.69 
   4  11  -9   22.29    7.32 
   4  11  -9   21.53    7.92 
 -11   4  -9   19.50    8.29 
   4  11   9   29.67    7.24 
   4  11  11    4.14    6.70 
   4  11 -11   -6.04    5.38 
  11  -4  11   10.56    8.45 
   4  11 -11   -4.18    4.79 
   4  11 -11   12.95    6.76 
   4  11 -11   10.76    6.58 
 -11   4 -11    2.03    6.30 
   4  11  11    2.33    4.44 
  11  -4  13   33.16    9.44 
   4  11 -13   32.37    8.74 
   4  11 -13   32.38    8.38 
 -11   4 -13   20.44    8.35 
   4  11  13   39.59    8.44 
   4  11 -13   34.34    7.64 
  11  -4 -15    5.49    4.22 
  11  -4  15    3.18    5.83 
   4  11 -15    4.72    5.50 
   4  11  15    0.69    4.41 
   4  11 -15   -0.80    4.54 
 -11   4 -15    4.34    5.70 
   4  11  15   -0.43    4.34 
  11  -4  17    9.65    5.62 
   4  11 -17   25.12    7.36 
   4  11  17   12.48    5.74 
   4  11 -17   24.87    6.90 
 -11   4 -17   24.50    8.31 
   4  11  17   16.98    6.19 
  11  -4  19    6.40    3.89 
   4  11 -19    2.02    3.75 
   4  11 -19   -2.73    3.55 
   4  11  19    5.52    3.76 
 -11   4 -19   -9.27    5.51 
   4  11  19    4.85    4.16 
   4  11 -21    5.54    3.34 
   4  11  21   -0.07    1.16 
   4  11 -21   -0.05    2.80 
 -11   4 -21    7.44    4.70 
   4  11  21    2.32    2.69 
   3  11   0    0.16    8.57 
  11  -3   0   13.58   10.46 
 -11   3   0   -2.81    8.22 
 -11   3   2   10.27    8.69 
 -11   3  -2   -0.40    9.97 
   3  11  -2    5.60    6.34 
   3  11   2   19.69   10.28 
  11  -3  -2    1.16    9.25 
  11  -3   2    5.04    9.11 
   3  11   4  260.45   32.18 
  11  -3  -4  249.00   33.71 
 -11   3   4  223.89   33.03 
   3  11   4  213.91   17.03 
  11  -3   4  215.09   18.42 
   3  11   4  235.46   18.44 
   3  11  -4  243.56   18.64 
   3  11   4  223.23   17.18 
   3  11  -4  227.99   17.80 
   3  11  -6    3.61    5.32 
  11  -3  -6    1.43    9.75 
   3  11   6   -2.81    7.62 
 -11   3   6    7.06    9.63 
   3  11   6   13.98    8.69 
   3  11   6   -2.65    4.87 
   3  11  -6    2.61    4.72 
  11  -3   6    4.78    5.89 
 -11   3  -6    5.65    6.21 
   3  11  -6   -0.29    6.14 
   3  11   6    7.92    5.50 
   3  11  -6   20.50    8.04 
   3  11  -8   11.95    5.46 
  11  -3   8   18.42    8.30 
   3  11   8   13.17    6.29 
   3  11  -8   12.98    7.93 
  11  -3  -8   24.70   14.11 
   3  11   8    6.24    8.92 
 -11   3   8    6.87    9.51 
   3  11  -8    2.00    4.67 
   3  11  -8   11.90    6.66 
 -11   3  -8   13.70    8.24 
   3  11   8    6.40    4.31 
   3  11  10    5.86    6.43 
  11  -3  10    9.12    6.26 
   3  11 -10    4.05    5.99 
  11  -3 -10    5.67   10.61 
   3  11  10   20.12   15.50 
 -11   3  10    1.97   10.37 
   3  11  10    2.75    4.55 
   3  11 -10    7.37    6.39 
   3  11  10    5.59    5.52 
   3  11 -10   15.05    6.95 
  11  -3  12   55.38   10.93 
   3  11 -12   64.30   12.12 
   3  11 -12   62.47   11.35 
   3  11  12   64.46    9.91 
   3  11  12   60.15   10.58 
   3  11 -12   52.90    9.96 
  11  -3 -14    3.74    5.31 
  11  -3  14   -0.97    5.04 
   3  11 -14    5.74    5.70 
   3  11 -14    4.23    5.50 
   3  11  14   -0.27    4.49 
   3  11  14    7.25    5.21 
  11  -3  16    7.67    5.18 
   3  11 -16   18.96    6.62 
   3  11  16   19.18    6.91 
   3  11 -16   10.75    5.64 
   3  11  16   19.44    6.89 
  11  -3  18    2.53    3.70 
   3  11 -18   -0.01    4.42 
   3  11  18    6.13    5.65 
   3  11 -18    0.02    3.90 
   3  11  18    9.15    5.52 
   3  11 -20    6.39    4.46 
   3  11  20   -0.50    3.62 
   3  11 -20    4.61    4.24 
 -11   3 -20   -2.74    5.32 
   3  11  20    2.57    3.27 
  11  -3 -22    1.30    3.77 
   3  11 -22    4.05    2.87 
   3  11  22    1.35    2.88 
   3  11 -22    0.78    2.45 
 -11   3 -22    0.95    3.72 
   3  11  22    2.26    2.87 
 -11   2  -1   59.84   16.89 
 -11   2   1   48.20   15.58 
   2  11  -1   67.04   15.55 
   2  11   1   45.78   14.36 
  11  -2  -1   63.79   16.96 
  11  -2   1   43.68   15.25 
 -11   2  -3  299.25   34.18 
   2  11  -3  336.95   32.39 
   2  11   3  350.97   36.46 
  11  -2  -3  333.60   37.39 
  11  -2   3  322.22   33.15 
 -11   2   3  303.26   37.63 
   2  11  -5   10.44    5.44 
  11  -2  -5    2.97   10.25 
   2  11   5    6.42    7.57 
 -11   2   5    0.54   10.42 
  11  -2   5   -0.81    5.51 
   2  11   5   15.63    6.41 
   2  11   5   15.73    7.85 
   2  11  -5    2.12    4.95 
   2  11   5    7.73    4.74 
   2  11   7   -5.03    6.06 
  11  -2   7    2.72    4.95 
   2  11  -7    1.26    4.63 
  11  -2  -7   -5.24   10.27 
   2  11   7    5.12    7.15 
 -11   2   7    4.84    9.40 
   2  11  -7    0.45    4.71 
   2  11  -7    6.28    5.16 
   2  11   7    1.27    4.64 
 -11   2  -7    2.65    5.58 
   2  11   9   30.99    9.25 
  11  -2   9   25.65    7.47 
   2  11  -9   18.83    7.62 
  11  -2  -9   20.56   13.61 
 -11   2   9    7.38    9.75 
   2  11   9   19.40   11.07 
   2  11   9   24.45    6.83 
   2  11  -9   29.75    8.41 
   2  11  -9   17.83    7.20 
   2  11   9   33.57    7.98 
   2  11  11   85.85   13.57 
  11  -2  11   79.81   13.34 
   2  11 -11   78.98   13.02 
  11  -2 -11   43.21   15.66 
 -11   2  11   66.74   21.07 
   2  11  11   58.91   17.81 
   2  11  11   67.78   10.72 
   2  11 -11   66.75   11.58 
   2  11  11   74.80   11.81 
   2  11 -11   69.46   10.88 
  11  -2 -13   13.38    6.09 
  11  -2  13   13.65    6.47 
   2  11 -13   16.06    7.79 
   2  11 -13   11.73    6.14 
   2  11  13   11.64    5.65 
   2  11  13   10.38    6.05 
  11  -2 -15   14.62    5.30 
  11  -2  15   14.18    5.97 
   2  11 -15   35.69    9.39 
   2  11 -15   21.14    7.01 
   2  11  15   24.37    7.71 
   2  11  15   20.85    7.92 
  11  -2  17   27.54    7.55 
   2  11 -17   45.00    9.44 
   2  11  17   30.70    9.10 
   2  11 -17   43.41    9.35 
   2  11  17   57.70    9.64 
   2  11 -19   47.24    8.46 
   2  11  19   35.21    8.83 
   2  11 -19   28.05    7.09 
   2  11  19   44.97    8.39 
   2  11 -21    5.12    3.34 
   2  11  21    2.06    3.46 
   2  11 -21   -1.23    3.24 
   2  11  21   -0.80    2.83 
 -11   2 -21   -4.22    4.37 
  11  -2 -23    0.19    2.35 
   2  11 -23    2.22    1.85 
   2  11 -23    0.43    1.89 
 -11   2 -23    4.13    3.62 
   2  11  23    1.98    2.51 
 -11   1   0   11.85    9.43 
  11  -1   0   -7.48    8.72 
   1  11   0   -9.26    9.22 
  11  -1  -2   80.42   18.26 
   1  11  -2  111.60   19.63 
   1  11   2   88.67   17.67 
 -11   1   2   87.93   19.71 
  11  -1  -4   30.59   13.95 
   1  11  -4   32.97   11.44 
   1  11   4   34.72   14.15 
 -11   1   4   29.87   14.84 
   1  11  -6   84.51   11.41 
   1  11   6   71.51   10.41 
  11  -1   6   85.80   12.19 
  11  -1  -6   90.16   19.86 
 -11   1   6   94.50   23.01 
   1  11   6   90.20   20.18 
   1  11  -6   86.85   11.98 
   1  11  -6   82.16   11.31 
   1  11   6   72.96    9.62 
  11  -1   8   -7.43    5.73 
   1  11   8   -3.92    5.91 
   1  11  -8    4.45    4.94 
  11  -1  -8   -5.72   10.25 
 -11   1   8    0.63   12.12 
   1  11   8    5.76    8.88 
   1  11   8    3.10    4.43 
   1  11  -8    3.95    5.06 
   1  11   8    4.58    4.55 
   1  11  10   27.63    8.61 
  11  -1  10   33.15    9.05 
   1  11 -10   29.01    8.82 
  11  -1 -10   44.87   19.79 
 -11   1  10   29.33   16.45 
   1  11  10   32.69   14.95 
   1  11  10   38.12    8.08 
   1  11 -10   26.45    8.95 
   1  11  10   32.32    7.87 
   1  11 -10   43.58    9.37 
  11  -1 -12   18.73    7.75 
  11  -1  12   12.66    6.45 
   1  11 -12    6.97    5.29 
   1  11  12   22.28   12.73 
   1  11  12    6.65    5.45 
   1  11 -12   15.72    7.27 
   1  11  12   20.64    7.27 
  11  -1 -14   59.87    9.44 
  11  -1  14   54.23   10.44 
   1  11 -14   76.57   11.48 
   1  11  14   73.29   11.64 
   1  11  14   82.00   12.03 
  11  -1  16   24.22    7.34 
   1  11 -16   25.20    7.77 
   1  11  16   21.72    8.35 
   1  11  16   24.08    7.27 
   1  11 -18    1.60    4.43 
   1  11  18   -4.83    5.24 
   1  11 -18   -2.27    4.25 
   1  11  18    2.28    4.12 
   1  11 -20   14.74    5.25 
   1  11  20    9.13    5.79 
   1  11 -20   12.33    5.05 
   1  11  20    7.19    4.62 
  11  -1 -22   14.11    5.87 
   1  11 -22   10.37    3.96 
   1  11 -22    3.57    3.33 
   1  11  22   15.91    6.42 
 -11   1 -22    6.12    4.65 
   1  11  22    9.02    3.75 
   0  11  -1  207.90   26.64 
   0  11   1  178.05   25.04 
  11   0  -1  208.87   26.19 
 -11   0   1  213.78   30.45 
   0  11  -3   -4.09    6.46 
   0  11   3  -11.43    9.74 
 -11   0   3   -3.09   11.49 
 -11   0   5  131.92   26.25 
   0  11   5  144.47   23.71 
  11   0  -5  163.66   25.61 
  11   0   5  136.06   14.06 
   0  11  -5  136.84   14.15 
  11   0   7  160.02   15.91 
   0  11   7  137.69   13.84 
   0  11  -7  152.32   15.15 
   0  11   7  161.72   26.37 
 -11   0   7  155.94   29.23 
  11   0  -7  158.04   26.43 
   0  11   7  138.22   13.17 
   0  11   7  161.62   15.41 
   0  11  -7  174.73   16.82 
   0  11   7  150.74   14.30 
   0  11  -7  150.66   15.68 
   0  11  -9  152.90   16.18 
   0  11   9  115.65   13.34 
  11   0   9  129.86   14.40 
 -11   0   9  117.30   26.82 
  11   0  -9  130.29   25.34 
   0  11   9  142.28   25.91 
   0  11   9  126.80   13.54 
   0  11   9  140.07   14.86 
   0  11  -9  146.17   16.02 
   0  11   9  142.07   14.66 
  11   0 -11    7.92    6.19 
  11   0  11    1.95    4.68 
   0  11 -11   12.79    6.98 
 -11   0  11   -4.41   12.47 
  11   0 -11   -1.88   10.24 
   0  11  11   -9.39   11.58 
   0  11  11   10.02    6.30 
   0  11 -11   -4.65    5.58 
   0  11  11    2.78    5.10 
  11   0  13   81.07   11.85 
   0  11  13  107.78   13.92 
   0  11 -13   95.85   13.27 
   0  11  13  108.68   13.70 
  11   0 -13   81.13   11.76 
  11   0  15   38.89    9.76 
  11   0 -15   60.78    9.16 
   0  11  15   73.36   11.99 
   0  11 -15   84.10   12.44 
   0  11  15   61.77   11.48 
   0  11 -17    5.63    4.92 
   0  11  17    7.70    5.13 
   0  11  17    9.43    5.32 
   0  11 -19    3.05    4.02 
   0  11  19    6.82    5.32 
   0  11 -19    6.23    4.42 
   0  11  19    8.91    5.04 
  11   0 -21   58.29    8.78 
   0  11 -21   39.23    6.53 
   0  11  21   31.04    8.09 
   0  11 -21   30.13    6.42 
   0  11  21   39.75    6.64 
  11   0 -23    6.59    3.37 
   0  11 -23    5.50    2.46 
   0  11  23    3.91    3.31 
   0  11 -23    5.33    3.04 
 -11   0 -23    6.74    4.65 
   0  11  23    2.31    2.87 
  -1  11   0  -15.29   10.21 
  11   1  -2    9.47    8.27 
  -1  11  -2   -0.96    6.07 
  -1  11   2   -0.58    9.15 
 -11  -1   2   -1.41    9.29 
  -1  11  -4  186.80   25.09 
  -1  11   4  186.92   27.38 
 -11  -1   4  170.21   28.70 
  11   1  -4  169.80   24.89 
  11   1   6   75.19   10.84 
 -11  -1   6   75.17   21.04 
  11   1  -6   86.08   19.99 
  -1  11   6   74.72   19.18 
  -1  11  -6   79.99   12.16 
  -1  11   6   92.39   11.93 
  11   1   8   13.55    6.93 
  11   1  -8   21.75    7.67 
 -11  -1   8    3.94   10.54 
  -1  11  -8    9.40    5.74 
  11   1  -8   17.35   11.49 
  -1  11   8   23.89   11.25 
  -1  11  -8   17.51    7.90 
  -1  11   8   15.37    6.00 
  -1  11   8   18.88    6.90 
  -1  11   8   24.86    6.76 
  -1  11  10   19.12    8.33 
  11   1  10    7.84    4.51 
  11   1 -10   12.82    6.40 
 -11  -1  10    6.38   11.50 
  -1  11 -10   11.41    6.87 
  11   1 -10    4.45   10.08 
  -1  11  10   -8.07    9.73 
  -1  11 -10    8.83    6.83 
  -1  11  10   -0.69    5.52 
  -1  11  10    7.68    6.09 
  -1  11  10   11.64    6.06 
  11   1  12   60.86   11.17 
  11   1 -12   69.87   11.14 
  -1  11  12   47.80   16.74 
  -1  11  12   77.25   12.04 
  -1  11 -12   74.07   11.63 
  -1  11  12   80.55   12.17 
  11   1  14   13.48    6.94 
  11   1 -14   19.29    6.28 
  -1  11 -14   17.24    7.02 
  -1  11  14   16.82    7.15 
  -1  11  14   31.19    8.27 
  -1  11 -16   21.30    7.50 
  -1  11  16   27.18    8.10 
  -1  11  16   21.87    7.61 
  11   1 -16   16.46    5.58 
  -1  11 -18   14.77    6.62 
  -1  11 -18    4.24    4.68 
  -1  11  18    8.76    5.76 
  -1  11  18   10.01    5.94 
  -1  11 -20   12.68    5.03 
  -1  11  20    8.57    4.96 
  -1  11 -20    4.11    4.14 
  -1  11  20    7.19    4.92 
  11   1 -22    7.99    3.82 
  -1  11  22   10.07    4.86 
  -1  11 -22    6.29    3.89 
  -1  11  22    4.93    3.70 
  -2  11   1   61.15   15.42 
  -2  11  -1   56.97   15.71 
  -2  11   3  161.45   26.58 
  -2  11  -3  134.17   21.38 
  11   2   5  126.19   14.49 
 -11  -2   5  129.96   26.17 
  11   2  -5  138.27   23.02 
  -2  11   5  163.96   27.47 
  -2  11  -5  121.89   20.42 
  -2  11  -5  152.09   16.46 
  11   2  -5  152.86   15.77 
  11   2  -7   -5.08    6.54 
  11   2   7    6.34    5.62 
  11   2  -7    5.73    5.79 
 -11  -2   7   -4.76   11.90 
  -2  11  -7    8.74    6.53 
  11   2  -7   -4.43    7.98 
  -2  11   7   -2.32   12.95 
  -2  11   7   -1.33    4.74 
  -2  11   7   -5.35    6.41 
  -2  11  -7    5.02    6.46 
  -2  11   7    3.25    4.93 
  -2  11  -9  136.85   14.70 
  11   2   9  159.82   16.46 
 -11  -2   9  139.44   30.18 
  11   2  -9  143.75   25.82 
  -2  11   9  166.75   28.83 
  -2  11   9  170.84   17.08 
  -2  11   9  167.36   16.13 
  -2  11  -9  163.76   16.47 
  -2  11   9  135.59   13.98 
  11   2  -9  136.63   15.66 
  -2  11 -11  111.20   14.10 
  11   2  11  100.32   13.24 
  11   2 -11   93.67   22.97 
  -2  11  11   76.57   19.75 
 -11  -2  11  119.71   29.55 
  -2  11  11  101.74   13.20 
  -2  11  11  105.75   13.61 
  -2  11 -11  103.13   13.83 
  -2  11  11  117.90   13.76 
  11   2 -11   94.87   13.43 
  11   2  13    1.86    4.81 
  11   2 -13   18.77    6.86 
  -2  11  13    1.44    5.27 
  -2  11 -13    2.80    5.74 
  -2  11  13    0.14    4.78 
  -2  11 -15   15.16    6.21 
  -2  11  15    6.99    5.34 
  -2  11  15   10.57    6.33 
  11   2 -15    5.61    4.03 
  11   2 -17   41.31    9.97 
  -2  11 -17   46.23    8.56 
  -2  11  17   34.45    8.68 
  11   2 -19    3.88    5.44 
  -2  11 -19    8.15    4.49 
  -2  11 -19    5.23    4.41 
  -2  11  19    2.22    4.38 
  -2  11  19    7.62    4.84 
  11   2 -21   -0.89    3.67 
  -2  11 -21   -2.35    2.90 
  -2  11  21    2.03    4.09 
  -2  11 -21    3.16    3.43 
  -2  11  21   -0.24    2.78 
  11   2 -23    3.93    2.75 
  -2  11  23    0.64    2.53 
  -2  11 -23    2.15    2.30 
  -2  11  23    0.71    2.10 
  -3  11   0    1.01    7.02 
  -3  11   2   23.92   13.87 
  -3  11  -2   10.60   10.40 
  11   3   2   16.82    7.00 
  11   3  -4   86.20   11.69 
  11   3   4  110.43   13.52 
  -3  11   4  102.20   21.71 
  -3  11  -4  117.29   21.32 
  -3  11   4  104.80   13.04 
  -3  11   4   99.87   12.08 
  -3  11  -4  111.22   13.81 
  11   3  -4  109.02   13.18 
  11   3  -6   24.18    6.62 
  11   3   6   32.03    7.93 
  11   3  -6   26.83    8.05 
  11   3  -6   26.29    6.99 
 -11  -3   6   33.51   16.70 
  11   3  -6   28.89   14.32 
  -3  11   6   37.06   15.68 
  -3  11   6   24.95    6.98 
  -3  11  -6   31.88    9.03 
  -3  11   6   27.83    8.11 
  11   3   8   28.76    9.06 
  11   3  -8   36.62    9.46 
  11   3  -8   32.92    8.45 
  -3  11  -8   35.28    8.65 
  -3  11   8   27.51    8.23 
  -3  11   8   32.89    8.17 
  -3  11   8   31.87    7.96 
  11   3  -8   39.95   15.66 
  -3  11   8   29.60   13.51 
 -11  -3   8   39.35   19.81 
  11   3 -10    7.17    5.94 
  11   3 -10   16.37    7.68 
  11   3  10    5.70    5.64 
  -3  11 -10   21.46    7.92 
  11   3 -10   25.59   15.67 
  -3  11  10    7.85   12.60 
 -11  -3  10   -2.05   10.08 
  -3  11  10   12.76    6.93 
  -3  11 -10    6.82    6.13 
  -3  11  10   12.49    8.25 
  11   3 -12   11.78    6.25 
  11   3  12    3.98    5.79 
  11   3 -12   13.70    6.08 
  -3  11 -12   -2.19    4.53 
  -3  11  12   -4.74    5.99 
  -3  11 -12    5.54    6.08 
  -3  11  12    7.25    6.41 
  -3  11  12    0.92    4.11 
  11   3 -14   17.37    7.16 
  -3  11  14   21.92    7.64 
  -3  11 -14    5.98    5.44 
  -3  11  14   14.54    6.68 
  11   3 -14    8.20    4.78 
  11   3 -16   11.21    6.20 
  -3  11 -16    7.29    5.63 
  -3  11  16    3.32    5.04 
  11   3 -16    5.59    3.55 
  -3  11  16    3.75    4.69 
  11   3 -18   -1.35    4.40 
  -3  11 -18    7.10    4.55 
  -3  11 -18    3.56    4.76 
  -3  11  18    3.56    4.51 
  -3  11  18    0.15    3.75 
  11   3 -20   -5.17    4.13 
  -3  11 -20    2.39    3.38 
  -3  11 -20   -1.41    3.65 
  -3  11  20   -1.94    4.66 
  -3  11  20    0.32    3.55 
  11   3 -22   -1.13    2.65 
  -3  11 -22   -2.02    1.91 
  -3  11  22    1.63    3.72 
  -3  11 -22    0.94    2.65 
  11   3 -22    1.49    2.64 
  11   4  -1  245.80   19.26 
  11   4   1  239.26   19.31 
  -4  11   1  264.72   35.20 
  -4  11  -1  219.06   31.66 
  -4  11  -1  229.17   18.71 
  -4  11   1  239.37   19.51 
  11   4  -1  202.47   17.80 
  11   4   3   -2.59    4.81 
  11   4  -3    3.52    5.47 
  11   4  -3    7.37    5.83 
  -4  11   3   25.03   14.21 
  -4  11  -3    5.38    9.04 
  -4  11  -3    0.17    5.57 
  -4  11   3    2.40    6.00 
  -4  11   3   -9.31    6.90 
  -4  11  -3   -2.95    5.80 
  11   4   5   11.77    5.87 
  11   4  -5   -0.93    5.05 
  11   4  -5    6.65    5.80 
  11   4  -5    7.57    6.43 
  -4  11   5    1.49    8.80 
  -4  11  -5   12.84    9.74 
  -4  11  -5   10.39    6.04 
  -4  11   5    2.91    5.09 
  -4  11   5    6.55    5.26 
  -4  11  -5    5.62    5.08 
  11   4   7  128.33   15.03 
  11   4  -7  119.42   14.16 
  11   4  -7  100.27   11.79 
  -4  11   7  132.79   27.54 
  -4  11   7  126.20   14.98 
  -4  11  -7  105.71   14.54 
  -4  11   7  126.51   14.51 
  -4  11   7  121.20   14.29 
  -4  11  -7  132.93   15.45 
  11   4  -7  125.35   14.12 
  11   4  -9   19.69    8.18 
  11   4  -9   17.78    6.85 
  11   4   9   20.85   13.02 
  11   4  -9    5.55   11.67 
  -4  11   9   39.22   16.94 
 -11  -4   9   10.75   12.43 
  -4  11   9   26.61   10.83 
  -4  11  -9   12.72    6.08 
  -4  11   9   34.72   10.06 
  -4  11   9   24.80    7.56 
  11   4  11   -0.07    4.35 
  11   4 -11   13.65    6.77 
  -4  11  11    1.77    5.02 
  -4  11  11    6.57    5.53 
  -4  11 -11    7.48    5.44 
  11   4 -11    1.62    4.78 
  11   4 -13   25.27    8.34 
  -4  11 -13   19.79    6.28 
  -4  11  13   18.89    7.44 
  -4  11 -13   19.56    6.82 
  -4  11  13   30.69    9.00 
  11   4 -13   15.18    6.10 
  -4  11  13   24.70    7.01 
  11   4 -15   46.44    9.65 
  -4  11 -15   39.42    7.90 
  -4  11 -15   30.45    8.24 
  -4  11  15   44.82    9.76 
  11   4 -15   35.85    7.30 
  -4  11  15   20.09    8.43 
  11   4 -17    8.02    5.69 
  -4  11 -17   10.26    4.41 
  -4  11 -17   -0.16    4.31 
  -4  11  17    2.75    6.07 
  -4  11  17    2.12    9.51 
  -4  11 -19   -4.45    3.07 
  -4  11 -19   -4.17    4.50 
  -4  11  19   -3.40    4.29 
  -4  11  19    2.75    4.50 
  11   4 -21    3.38    2.96 
  -4  11 -21    0.13    2.71 
  -4  11  21   -1.54    3.48 
  11   4 -21   -1.09    2.66 
  -4  11  21    0.00    2.65 
  11   5   0    1.64    4.66 
  -5  11   0    5.79    6.83 
  11   5   0   -1.03    4.27 
  -5  11   0    7.20    5.74 
  11   5   2   37.96    9.48 
  11   5  -2   34.10    8.15 
  11   5  -2   35.07    8.54 
  11   5  -2   46.92    9.38 
  -5  11   2   54.64   20.17 
  -5  11   2   38.24   10.02 
  -5  11  -2   60.18   10.92 
  -5  11  -2   36.52    8.41 
  -5  11   2   43.24    9.17 
  11   5  -4    4.69    5.41 
  11   5  -4   14.05    6.94 
  11   5   4    4.93    5.99 
  11   5  -4   -1.41    5.19 
  -5  11   4   19.03   13.84 
  -5  11   4   13.32    8.19 
  -5  11  -4    5.12    5.19 
  -5  11  -4    9.05    6.50 
  -5  11   4    6.75    5.56 
  11   5  -6   44.52    9.12 
  11   5   6   67.26   15.07 
  11   5  -6   35.76    8.82 
  11   5  -6   34.70    8.79 
  -5  11   6   75.03   22.95 
   5 -11  -6   70.32   21.06 
  -5  11   6   39.09    9.35 
  -5  11  -6   39.88    9.13 
  -5  11  -6   36.02   10.25 
  -5  11   6   45.90    9.61 
  11   5   8    1.16    5.27 
  11   5  -8    5.68    5.31 
  -5  11   8   -2.00    9.94 
  -5  11  -8    0.31    5.67 
  -5  11   8    6.24    6.60 
  -5  11   8   -0.20    5.08 
  -5  11  -8   -1.97    6.09 
  -5  11   8    8.56    5.81 
  11   5  -8    3.36    5.24 
  11   5 -10    5.38    4.77 
  11   5  10    6.46    5.28 
  -5  11  10    3.81    5.97 
  -5  11 -10    2.02    5.39 
  -5  11  10   13.11    6.53 
  11   5 -10    9.33    6.58 
  -5  11 -10   14.29    7.91 
  11   5  12    3.24    5.26 
  11   5 -12    8.15    4.72 
  -5  11  12    1.86    6.12 
  -5  11  12    6.27    5.06 
  -5  11 -12   -1.33    4.40 
  -5  11 -12   14.18    7.09 
  11   5 -12    7.27    5.69 
  11   5 -14   47.65    9.80 
  -5  11  14   39.50    9.34 
  -5  11 -14   35.70    7.86 
  -5  11 -14   28.67    9.39 
  11   5 -14   33.76    7.72 
  11   5 -16    4.17    5.37 
  -5  11 -16    1.54    4.33 
  -5  11  16   -0.62    4.85 
  11   5 -16    3.23    3.46 
  -5  11  16   -3.57    4.55 
  11   5 -18   -0.79    3.84 
  -5  11 -18    2.57    4.04 
  -5  11  18   -1.89    4.52 
  -5  11  18   -0.93    3.15 
   5 -11  20   14.69    6.16 
  11   5 -20    4.27    3.50 
  -5  11 -20   13.01    3.73 
  -5  11  20   -0.45    3.91 
  -5  11  20    0.00    2.48 
  11   5 -22    0.91    2.16 
  -5  11  22    5.73    3.56 
  11   6   1   91.01   12.02 
  11   6  -1  107.76   12.28 
  11   6  -1  119.97   14.15 
  11   6   1  121.77   14.31 
  -6  11   1  107.13   14.39 
  -6  11   1  106.39   14.25 
  -6  11  -1  110.97   14.18 
  11   6  -1  104.34   13.11 
  11   6   1   92.32   12.12 
  11   6   1  105.29   12.82 
  11   6  -1  117.46   13.65 
  -6  11  -1  103.10   14.51 
  11   6  -3   21.96    7.15 
  11   6  -3   15.51    6.73 
  11   6   3   28.06    9.07 
  -6  11   3   21.72    7.70 
  -6  11  -3   23.18    7.34 
  -6  11   3   18.66    8.37 
  11   6  -3   15.57    6.91 
  11   6   3   12.96    5.76 
  -6  11  -3   15.13    8.50 
  11   6   5   10.87    7.51 
  11   6  -5    6.89    5.71 
  11   6  -5   10.65    8.98 
  -6  11   5    9.41   12.01 
  -6  11   5    7.55    6.69 
  -6  11  -5    1.68    6.09 
  -6  11  -5   -4.75    6.61 
  -6  11   5   -9.90    6.44 
  11   6  -5   -0.52    5.01 
  11   6   7   16.13    7.33 
  11   6  -7   12.27    7.42 
  -6  11   7   18.56   12.94 
   6 -11  -7   26.02   20.52 
  -6  11   7    8.52   11.35 
  -6  11   7   26.17    8.71 
  -6  11   7   13.54    7.01 
  -6  11  -7   14.74    7.20 
  -6  11  -7   14.34    7.47 
  11   6  -7   29.38    8.21 
  -6  11   7   19.77    7.37 
  11   6   9   15.77    6.30 
  11   6  -9   15.09    6.82 
  -6  11   9   13.76    5.74 
  -6  11  -9    2.63    4.83 
  -6  11   9   14.83    6.87 
  -6  11   9    5.78    5.28 
  -6  11  -9   15.68    8.87 
  11   6  -9    4.39    4.91 
  11   6 -11   11.01    5.30 
  11   6  11    5.93    4.79 
  -6  11 -11   10.72    6.13 
  -6  11  11   18.96    7.13 
  -6  11  11    7.38    5.66 
  -6  11 -11    6.06    6.07 
  11   6 -11    7.82    5.38 
  11   6 -13   11.37    5.83 
  -6  11  13   -0.28    4.92 
  -6  11 -13    2.42    4.51 
  -6  11  13    9.66    5.43 
  11   6 -13    5.39    4.95 
  11   6 -15   18.48    6.27 
  -6  11 -15   15.66    6.27 
  -6  11  15   11.44    6.59 
  -6  11 -15    9.91    6.29 
  11   6 -15   13.81    5.64 
  11   6 -17   25.26    6.96 
  -6  11 -17   11.16    5.42 
  -6  11  17    7.32    5.25 
  11   6 -19    0.24    2.94 
   6 -11  19    7.21    5.66 
  -6  11 -19    0.65    3.31 
  -6  11  19    6.50    4.49 
  11   6 -21    0.62    2.13 
  -6  11  21   -2.28    3.16 
  11   7   0    5.31    4.99 
  11   7   0   -3.71    5.94 
  -7  11   0    6.56    6.71 
  11   7   0   -0.78    6.36 
  -7  11   0    9.03    6.33 
  11   7   0   12.23    6.57 
  11   7   2   67.30   10.41 
  11   7  -2   51.96    9.83 
  11   7  -2   67.26   10.95 
  11   7   2   86.38   12.46 
  -7  11  -2   68.77   11.17 
  -7  11   2   66.29   11.31 
  11   7  -2  101.20   14.30 
  -7  11   2   60.74   11.36 
  -7  11  -2   53.24   11.43 
  11   7  -2   77.57   11.83 
  11   7   2   79.26   12.12 
  11   7   2   55.79    9.68 
  11   7   4    9.07    6.29 
  11   7   4   17.55    5.98 
  11   7  -4    6.62    5.78 
  11   7  -4   18.78    7.56 
  -7  11   4   14.49    6.86 
  -7  11  -4   13.04    7.06 
  -7  11  -4   10.49    7.33 
  11   7  -4    6.87    5.53 
  -7  11   4    7.18    6.39 
  11   7   4   10.88    6.46 
  11   7  -6   48.50    9.60 
  11   7   6   64.33   12.06 
   7 -11  -6   30.40   18.61 
  -7  11   6   60.81   23.35 
  -7  11   6   52.90   10.69 
  -7  11  -6   46.05   10.40 
  -7  11  -6   56.81   11.37 
  11   7  -6   66.22   10.96 
  -7  11   6   62.84   11.59 
  11   7   6   59.82   10.04 
  11   7  -8   13.74    8.03 
  11   7   8   -0.22    5.05 
  -7  11   8   -0.21    5.50 
  -7  11  -8    5.60    5.62 
  -7  11   8   -2.83    5.72 
  -7  11   8   -3.07    4.82 
  11   7  -8    8.25    5.70 
  11   7   8   -2.33    4.66 
  -7  11  -8   15.74    7.83 
  11   7  10   -1.13    4.81 
  11   7 -10    9.43    5.35 
  -7  11 -10    2.74    4.60 
  -7  11  10    1.04    4.93 
  -7  11  10    5.88    5.73 
  -7  11 -10   12.23    8.43 
  11   7 -10    5.98    6.36 
  11   7 -12   18.34    6.59 
  -7  11  12   11.84    6.19 
  -7  11  12   15.67    6.88 
  -7  11 -12   10.61    5.22 
  -7  11 -12   16.82    8.24 
  11   7 -12    9.25    5.52 
  11   7 -14   52.44    8.95 
  -7  11 -14   45.28    9.29 
  -7  11  14   51.22    9.86 
  11   7 -14   55.43    9.21 
  -7  11 -14   47.78   10.56 
  11   7 -16   -3.61    3.63 
  -7  11 -16    8.39    4.99 
  -7  11  16    9.69    5.47 
  -7  11 -16   -1.52    4.35 
  11   7 -16    3.47    3.97 
  11   7 -18    7.68    3.98 
   7 -11  18    2.24    4.94 
  -7  11 -18    5.21    3.78 
  -7  11  18    3.57    4.63 
  -7  11 -18    4.30    3.49 
  11   7 -20    0.60    2.13 
   7 -11  20    3.39    3.60 
  -7  11  20   -0.70    3.12 
  11   8   1    4.08    5.62 
  11   8   1    0.41    5.71 
  11   8  -1    7.61    6.91 
  11   8  -1   -1.50    5.24 
  -8  11   1    3.26    5.18 
  -8  11  -1    8.90    6.52 
  11   8   1    3.33    4.54 
  11   8  -1    9.60    7.72 
  11   8   1   -2.64    6.13 
  11   8  -1   -0.67    4.86 
  -8  11  -1    2.02    5.98 
  -8  11   1    7.85    8.00 
  11   8  -3   58.32   10.41 
  11   8   3   59.74   10.76 
  11   8   3   55.21   10.51 
  -8  11  -3   58.39   10.79 
  -8  11   3   56.28   10.40 
  -8  11  -3   71.75   13.68 
  -8  11   3   59.95   12.13 
  11   8   3   58.82   10.14 
  11   8  -3   52.33    9.96 
  11   8   5   36.87    8.41 
  11   8  -5   49.28    9.66 
  11   8   5   46.30   10.51 
  -8  11   5   46.48    9.94 
  -8  11  -5   40.90    9.15 
  11   8   5   45.04    9.70 
  -8  11   5   46.03   10.58 
  11   8  -5   49.80   10.49 
  -8  11  -5   52.08   11.79 
  11   8  -7   -3.83    4.50 
  11   8   7    8.13    4.76 
  11   8   7    7.42    5.89 
  11   8   7    9.18    6.44 
  -8  11  -7   11.74   11.34 
  -8  11   7   -1.11    5.53 
  -8  11   7   -1.99    4.57 
  -8  11  -7    5.11    6.12 
  -8  11   7    7.60    5.35 
  11   8   7   -2.51    5.00 
  11   8  -7   -5.32    5.47 
  11   8  -9   24.25    7.58 
  11   8   9   18.76    7.74 
  -8  11  -9   23.76    7.63 
  -8  11   9   26.69    8.15 
  -8  11   9   15.31    6.43 
  -8  11  -9   20.22    9.39 
  11   8  -9   23.39    8.27 
  11   8   9   28.97    7.16 
  11   8 -11   10.90    6.14 
  -8  11 -11   14.09    6.58 
  -8  11  11    7.55    5.35 
  -8  11  11    9.42    5.57 
  -8  11 -11    2.51    5.96 
  11   8 -11   17.80    6.32 
  11   8  11    7.54    4.79 
  11   8 -13   26.87    6.99 
  -8  11 -13   12.89    6.02 
  -8  11  13   29.16    7.86 
  -8  11  13   13.59    6.37 
  11   8 -13   20.99    6.91 
  -8  11 -13   15.22    8.65 
  11   8 -15    1.70    4.10 
  -8  11 -15    4.97    4.48 
  -8  11  15    6.86    4.54 
  -8  11 -15   -2.64    5.29 
  11   8 -15   -0.11    3.46 
   8 -11  17    4.51    5.89 
  11   8 -17    8.82    4.22 
  -8  11 -17    7.60    4.14 
  -8  11  17    2.94    3.45 
  -8  11 -17    5.11    5.05 
  11   8 -19    3.64    2.99 
   8 -11  19    2.46    3.35 
  -8  11  19    2.36    2.76 
  11   9   0   -1.27    4.96 
  -9  11   0   -1.82    5.09 
  -9  11   0  -13.19    7.87 
  11   9   0    3.83    5.91 
  11   9   0    4.74    5.07 
  11   9   2   -2.44    4.70 
  11   9  -2   -2.04    5.38 
  11   9   2  -10.23    6.11 
  11   9   2    6.37    6.26 
  -9  11   2   -0.18    4.95 
  -9  11  -2   -1.23    5.45 
  -9  11   2   -2.84    6.87 
  11   9  -2   21.96   10.04 
  -9  11  -2   -5.77    6.94 
  11   9  -2   11.93    8.63 
  11   9   2   11.36    6.97 
  11   9   2   -3.85    4.41 
  11   9   4   55.61    9.32 
  11   9   4   67.33   10.54 
  11   9   4   75.81   12.12 
  11   9  -4   76.34   11.70 
  -9  11   4   73.70   12.18 
  -9  11  -4   72.54   11.91 
  -9  11   4   80.34   13.08 
  -9  11  -4   77.40   13.48 
  11   9  -4   87.04   12.90 
  11   9   4   71.28   11.63 
  11   9   6    3.03    4.43 
  11   9  -6    4.03    4.10 
  11   9   6   -6.51    5.85 
  11   9   6    3.07    5.38 
  -9  11   6   -4.94    4.20 
  -9  11  -6   -0.33    4.66 
  -9  11   6   -4.87    5.23 
  -9  11  -6    2.89    5.93 
  11   9  -6   -4.15    5.03 
  -9  11   6    1.01    4.90 
  11   9   6    3.28    4.51 
  11   9  -8   -3.51    5.39 
  11   9   8    8.45    6.50 
  -9  11  -8    7.29    4.85 
  -9  11   8    0.86    4.32 
  -9  11  -8    9.20    6.95 
  11   9  -8    7.31    5.35 
  11   9   8   11.67    5.43 
  11   9 -10   -1.27    4.64 
  -9  11 -10    1.26    4.64 
  -9  11  10   -1.32    4.97 
  -9  11  10   -4.40    5.32 
  11   9 -10   -4.50    5.49 
  -9  11 -10   -4.86    6.03 
  11   9  10    2.45    3.97 
  11   9 -12   91.16   11.42 
  -9  11  12   79.96   11.59 
  -9  11  12   76.98   11.00 
  -9  11 -12   69.71   11.07 
  -9  11 -12   56.52   12.43 
  11   9  12   78.16    9.76 
  11   9 -12   77.94   11.59 
  11   9 -14   -1.87    3.54 
  -9  11 -14   -0.08    3.45 
  -9  11  14    3.57    4.37 
  -9  11 -14   -3.54    5.07 
  11   9 -14   -3.76    3.60 
  11   9  14    2.47    4.01 
  11   9 -16    6.98    4.02 
   9 -11  16    4.80    6.53 
  -9  11 -16    8.20    3.99 
  -9  11  16   16.10    5.16 
  -9  11 -16    0.76    3.80 
  11   9 -16    9.49    3.72 
  11   9 -18    0.91    2.27 
   9 -11  18   -0.49    3.55 
  -9  11  18   -2.71    2.87 
  -9  11 -18    1.53    2.50 
  11  10  -1    3.38    5.55 
  11  10  -1   -2.26    4.27 
  11  10   1    0.33    5.32 
  11  10   1    4.16    4.57 
 -10  11   1    0.14    5.59 
 -10  11  -1   -0.59    5.80 
 -10  11  -1    6.98    6.73 
  11  10   1   16.14    7.07 
  11  10   1   -0.03    5.04 
  11  10  -1    4.56    4.90 
 -10  11   1    2.33    5.72 
  11  10  -3   11.94    4.38 
  11  10   3    0.78    5.33 
  11  10  -3    8.05    5.40 
  11  10   3   23.65    6.49 
  10 -11   3   16.16    7.73 
 -10  11   3    1.47    4.77 
 -10  11  -3   14.28    7.20 
 -10  11  -3   14.42    7.77 
 -10  11   3   24.59    8.08 
  11  10   3   17.03    7.96 
  11  10  -3   11.50    6.17 
  11  10   5   15.02    6.11 
  10 -11   5   17.00    8.82 
  11  10  -5   21.58    7.17 
  11  10   5    1.81    4.14 
  11  10  -5    1.18    3.24 
 -10  11   5   24.53    8.24 
 -10  11   5   14.49    7.04 
 -10  11  -5   14.74    6.54 
 -10  11  -5   14.86   10.35 
  11  10   5    2.12    4.97 
  11  10  -5    0.44    4.78 
 -10  11   5   -1.83    5.96 
  11  10   7   19.62    7.34 
  11  10   7   17.70    7.66 
  11  10  -7   13.78    5.86 
 -10  11  -7   -0.42    5.18 
 -10  11   7   -4.56    5.32 
 -10  11   7   -4.57    4.85 
 -10  11  -7   11.23    8.17 
  11  10   7   -0.01    4.20 
 -10  11   7    3.01    6.15 
  11  10  -7   12.12    7.06 
  11  10  -9    9.36    4.86 
  10 -11   9    7.71    7.45 
 -10  11   9    9.72    6.35 
 -10  11  -9    8.11    6.23 
 -10  11   9    3.68    4.38 
  11  10   9   21.36    6.83 
  11  10  -9    1.17    4.84 
 -10  11  -9    5.94    6.59 
  10 -11  11   24.77    9.08 
  11  10 -11   22.14    6.21 
 -10  11  11   23.69    7.10 
 -10  11 -11   12.06    6.39 
 -10  11  11   20.44    6.49 
 -10  11 -11   11.88    7.55 
  11  10  11   15.05    5.31 
  11  10 -11   11.93    5.53 
  11  10 -13   20.91    6.08 
  10 -11  13   27.34    7.93 
 -10  11 -13   13.75    5.24 
 -10  11  13   15.49    5.54 
 -10  11 -13    5.71    6.88 
  11  10 -13   10.93    5.34 
  11  10  13   20.02    5.32 
  11  10 -15    1.84    3.21 
  10 -11  15    4.79    4.86 
 -10  11  15    4.53    3.68 
 -10  11 -15    5.28    4.66 
  11  10 -15   14.12    4.42 
  11  10  15    4.23    2.84 
  10 -11  17    1.57    3.29 
  11  10 -17   -4.00    2.79 
 -10  11 -17    2.21    2.69 
  11  11   0  -11.31    6.61 
  11  11   0    2.75    3.68 
 -11  11   0    1.10    4.63 
 -11  11   0   -1.86    5.87 
  11  11   0    6.80    7.88 
  11  11   0   -2.26    4.32 
  11  11  -2   29.17    6.48 
  11  11  -2   30.57    7.16 
  11  11   2   34.57    7.56 
  11  11   2   28.20    7.70 
 -11  11   2   33.27    9.20 
 -11  11  -2   31.63    7.71 
 -11  11   2   48.69   10.51 
 -11  11  -2   42.57    9.86 
  11  11   2   34.03    7.51 
  11  11   2   38.31    9.12 
  11  11  -2   37.65    8.78 
  11  11  -4    2.22    3.97 
  11  11   4    2.97    4.00 
  11  11  -4    3.87    4.93 
  11  11   4   -2.88    4.81 
  11 -11   4    8.33    6.04 
 -11  11  -4    9.28    6.76 
 -11  11   4    0.44    3.93 
 -11  11   4    9.00    5.58 
 -11  11  -4    8.72    6.74 
 -11  11   4    3.68    5.65 
  11  11   4    5.57    5.34 
  11  11  -4    2.69    5.15 
  11  11   6   68.58   11.02 
  11 -11   6   66.20   11.95 
  11  11   6   52.36    8.58 
  11  11  -6   73.23   11.24 
  11  11  -6   53.91    7.95 
 -11  11  -6   54.02   10.89 
 -11  11   6   35.85    7.74 
 -11  11  -6   58.30   11.63 
 -11  11   6   60.91   10.81 
  11  11   6   66.03    9.84 
  11  11  -6   72.88   11.67 
  11 -11   8    3.88    6.58 
  11  11  -8   -3.01    5.15 
  11  11  -8   -0.34    3.24 
 -11  11  -8    1.04    4.24 
 -11  11   8   -4.77    4.86 
 -11  11   8   -0.31    3.65 
 -11  11  -8    4.41    5.65 
  11  11  -8    0.54    4.53 
  11  11   8   -6.36    5.03 
  11  11 -10   20.46    6.04 
  11  11 -10   12.39    4.81 
  11 -11  10   24.23    8.47 
 -11  11  10   17.29    5.62 
 -11  11 -10   13.31    6.57 
 -11  11  10   11.68    5.57 
  11  11 -10   20.27    6.57 
  11  11  10   15.90    5.26 
 -11  11 -10   15.44    7.48 
  11  11 -12    5.14    4.11 
  11 -11  12    5.01    4.99 
 -11  11 -12    2.84    3.90 
 -11  11  12    4.64    4.13 
 -11  11  12    1.94    2.95 
 -11  11 -12    2.74    4.78 
  11  11 -12    3.59    3.98 
  11  11  12   -2.09    4.31 
  11  11 -14   46.35    7.36 
  11 -11  14   49.42    8.07 
 -11  11 -14   24.94    6.87 
  11  11 -14   38.24    6.09 
  11  11  14   35.85    5.84 
  11 -11  16   -1.87    2.77 
  11  11 -16    2.62    2.72 
 -11  11 -16    1.37    2.93 
  11  12  -1   34.83    7.18 
  11  12   1   24.30    7.66 
  11  12   1   13.98    4.65 
  11  12  -1   22.48    7.18 
 -12  11   1   18.74    6.99 
 -12  11  -1   26.11    8.23 
 -12  11   1   26.52    8.87 
  11  12   1   24.71    7.09 
  11  12  -1   29.24    7.30 
  11  12   1   22.46    8.30 
 -12  11  -1   17.13    7.18 
  11  12   3   36.57    8.01 
  11  12  -3   37.88    8.53 
  11  12  -3   28.19    6.36 
  11  12   3   35.88    7.22 
  12 -11   3   19.39    6.06 
 -12  11  -3   22.58    7.49 
 -12  11   3   31.34    8.34 
 -12  11   3   21.28    6.46 
 -12  11   3   32.98    8.19 
  11  12  -3   43.67    8.92 
  11  12   3   34.67    8.76 
 -12  11  -3   45.02    9.80 
  12 -11   5   44.73    9.57 
  11  12  -5   47.36    9.00 
  11  12   5   41.81    7.82 
  11  12  -5   27.19    6.02 
  11  12   5   54.36    9.68 
 -12  11  -5   41.73    9.50 
 -12  11   5   29.16    6.71 
 -12  11  -5   56.46   11.19 
  11  12  -5   36.84    8.51 
  11  12   5   37.83    7.91 
 -12  11   5   34.14    8.60 
  11  12  -7   17.47    5.70 
  11  12  -7   14.45    5.13 
  12 -11   7   26.99    7.74 
 -12  11  -7   23.07    7.47 
 -12  11   7   12.69    4.93 
 -12  11   7   21.10    6.69 
 -12  11  -7   21.14    8.52 
  11  12  -7   23.94    7.37 
  11  12   7   16.43    5.54 
  11  12  -9    1.77    3.07 
  11  12  -9   -4.89    4.36 
  12 -11   9   -1.41    4.75 
 -12  11  -9   -3.24    3.51 
 -12  11   9   -0.85    4.12 
 -12  11  -9    0.63    5.20 
  11  12  -9    1.14    4.18 
  11  12   9   -0.85    3.93 
  11  12 -11    1.25    1.82 
  11  12 -11    3.45    3.53 
  12 -11  11   25.19    6.40 
 -12  11  11    2.31    3.09 
  11  12 -11   20.32    6.46 
  11  12  11    0.76    3.25 
 -12  11 -11    1.73    4.33 
  11  12 -13    3.66    3.03 
  12 -11  13    8.57    4.66 
 -12  11 -13   10.23    5.03 
  11  12 -13   10.68    4.29 
  11  12  13   12.69    4.16 
  11  12 -15   -0.33    2.19 
  12 -11  15   -1.19    2.59 
 -12  11 -15    3.79    3.05 
  10  12   0    6.19    5.47 
  10  12   0   -1.46    4.21 
 -12  10   0    7.80    5.50 
 -12  10   0    7.30    6.53 
  10  12   0    7.35    5.19 
  10  12   0   -1.22    5.66 
  10  12  -2   -1.54    4.75 
  10  12   2    1.16    4.73 
  10  12   2    4.02    4.34 
  10  12  -2   -2.61    3.63 
 -12  10   2    2.59    5.12 
 -12  10  -2   -1.52    4.60 
 -12  10   2    0.74    5.23 
  10  12   2   -5.64    5.23 
 -12  10  -2    1.78    6.26 
  10  12  -2   -0.64    4.95 
  10  12   2    4.52    5.39 
  10  12   4   -0.33    5.05 
  12 -10   4   -2.65    5.52 
  10  12  -4   -2.65    4.80 
  10  12  -4   -5.23    3.48 
  10  12   4    6.09    5.09 
 -12  10  -4    1.31    4.84 
 -12  10   4   -2.56    5.78 
 -12  10  -4   -0.71    5.91 
 -12  10   4    4.95    5.39 
  10  12   4    0.82    4.86 
  10  12  -4    4.46    4.90 
  10  12  -6    0.47    4.49 
  10  12   6   17.81    7.46 
  10  12  -6    3.92    4.16 
  10  12   6   -1.60    5.10 
  12 -10   6   -6.46    6.97 
 -12  10  -6   -1.17    4.84 
 -12  10  -6   -5.17    6.38 
  10  12  -6    4.27    5.54 
  10  12   6   -0.64    4.59 
 -12  10   6    3.93    4.42 
  10  12   8   19.30    7.53 
  10  12  -8    0.37    4.46 
  12 -10   8    3.42    5.68 
  10  12  -8   -0.99    4.33 
 -12  10  -8   -3.29    5.02 
 -12  10   8    5.79    4.64 
 -12  10  -8    4.69    5.91 
  10  12  -8    3.74    5.18 
  10  12   8    7.68    5.50 
  10  12 -10   13.53    5.40 
  10  12 -10   -4.05    3.58 
  12 -10  10    4.28    5.29 
 -12  10  10    2.41    4.48 
 -12  10 -10    2.09    5.11 
  10  12 -10    6.31    5.18 
  10  12  10    6.44    4.13 
  10  12 -12   -0.40    2.36 
  10  12 -12   -0.66    3.39 
  12 -10  12    3.98    4.97 
 -12  10  12    2.07    3.52 
 -12  10 -12   -4.95    5.24 
  10  12 -12   -4.12    4.19 
  10  12  12    2.21    3.79 
  10  12 -14    1.17    2.26 
  12 -10  14    0.35    3.36 
  10  12 -14    2.34    3.08 
 -12  10 -14    1.12    3.69 
  10  12 -14    2.22    3.32 
  10  12  14    0.43    2.85 
  12 -10  16   -0.70    2.78 
  10  12 -16    3.40    2.84 
  10  12  16    1.62    2.06 
 -12  10 -16   -0.97    3.12 
   9  12  -1    0.32    4.11 
   9  12  -1    4.14    5.75 
   9  12   1   -2.48    4.96 
   9  12   1    5.42    4.86 
 -12   9  -1    2.14    4.59 
 -12   9   1    7.81    5.75 
   9  12   1    6.24    5.58 
   9  12  -1    1.86    5.63 
   9  12   1    2.55    5.01 
 -12   9   1    7.79    6.02 
   9  12  -1   -3.01    5.52 
 -12   9  -1    5.61    6.57 
   9  12  -3   13.11    5.86 
   9  12   3    7.85    5.11 
   9  12   3   10.87    6.35 
  12  -9   3    8.79    6.02 
   9  12  -3   16.93    6.47 
 -12   9   3    1.59    4.67 
 -12   9  -3   14.69    6.63 
 -12   9   3    3.65    5.28 
   9  12   3    1.18    3.83 
   9  12  -3   14.57    6.59 
   9  12  -3   40.82   10.26 
 -12   9  -3   28.10    9.86 
   9  12   3   -0.04    5.77 
   9  12  -5   22.62    6.95 
   9  12   5   17.04    6.77 
   9  12  -5   16.62    6.49 
  12  -9   5   24.49    9.59 
   9  12   5   23.09    7.86 
 -12   9  -5   25.01    7.94 
 -12   9  -5   33.76   10.65 
   9  12  -5   18.90    7.18 
 -12   9   5   23.64    7.47 
   9  12   5   10.08    5.36 
   9  12  -7   53.66    9.00 
   9  12  -7   54.79    9.86 
   9  12   7   57.49    9.76 
  12  -9   7   49.46   10.10 
 -12   9  -7   56.91   11.48 
   9  12  -7   65.97   11.38 
 -12   9   7   52.13    9.46 
   9  12   7   52.85    9.81 
  12  -9   9    1.30    5.52 
   9  12  -9   -0.50    4.21 
   9  12  -9    3.28    3.96 
 -12   9   9    0.96    4.38 
 -12   9  -9    6.00    5.77 
   9  12  -9    3.12    4.93 
   9  12   9    1.25    4.09 
   9  12 -11    3.49    3.91 
  12  -9  11    0.77    5.28 
   9  12 -11   -0.38    3.04 
 -12   9  11    0.96    3.55 
 -12   9 -11    9.89    6.28 
   9  12 -11    0.91    4.04 
   9  12  11    1.13    3.47 
   9  12 -13   32.35    5.80 
   9  12 -13   19.41    6.08 
  12  -9  13   19.18    6.84 
 -12   9 -13   16.44    6.67 
   9  12  13   19.74    5.38 
   9  12 -13   17.45    5.20 
   9  12 -15    7.30    3.75 
   9  12 -15    7.21    3.84 
  12  -9  15    3.54    3.54 
   9  12 -15   16.04    4.33 
 -12   9 -15   11.14    5.49 
   9  12  15   13.33    4.17 
   9  12 -17   -0.56    1.00 
   9  12 -17    2.14    2.25 
  12  -9  17   -1.48    2.63 
   9  12  17    2.75    2.44 
   8  12   0   13.11    5.49 
   8  12   0    9.75    5.44 
 -12   8   0   25.79    7.99 
   8  12   0   21.16    7.39 
   8  12   0   16.70    6.54 
 -12   8   0   25.33    9.18 
   8  12   2   -0.87    4.98 
   8  12  -2   -2.70    5.11 
   8  12   2    1.77    4.56 
  12  -8   2   -3.56    5.33 
   8  12  -2   -4.65    5.96 
 -12   8   2   12.53    6.38 
 -12   8  -2  -11.95    6.02 
 -12   8  -2   -1.84    5.73 
   8  12   2    8.07    5.86 
   8  12  -2   -5.27    6.46 
   8  12  -2    0.98    5.57 
   8  12   2  -14.91    8.18 
 -12   8   2    4.18    6.13 
   8  12   4    5.57    5.09 
  12  -8   4    4.31    6.27 
   8  12  -4    5.66    4.42 
   8  12  -4    9.51    5.74 
   8  12   4    7.09    4.86 
 -12   8   4   -1.82    5.50 
 -12   8   4    9.15    5.74 
 -12   8  -4    6.35    7.82 
   8  12  -4   -2.04    5.13 
   8  12  -4   28.21   10.02 
   8  12   4    3.82    4.90 
   8  12  -6    2.68    4.32 
   8  12   6   14.55    7.19 
   8  12  -6    0.26    4.43 
  12  -8   6    1.76    5.82 
   8  12   6    7.26    6.38 
 -12   8  -6    3.42    5.94 
   8  12  -6    3.44    5.22 
   8  12   6    0.88    5.39 
 -12   8   6   11.69    6.36 
   8  12  -8   58.31    9.49 
   8  12  -8   71.96   11.13 
   8  12   8   74.39   12.03 
  12  -8   8   64.06   11.95 
 -12   8  -8   81.77   14.01 
 -12   8   8   62.34    9.81 
   8  12  -8   73.20   12.01 
   8  12   8   61.13    9.74 
   8  12 -10   -3.59    4.06 
  12  -8  10    9.69    6.26 
   8  12 -10   -4.58    4.92 
 -12   8  10   -4.07    4.42 
 -12   8 -10   -4.12    6.28 
   8  12 -10    1.88    5.38 
   8  12  10    3.65    5.28 
   8  12 -12    1.62    4.32 
  12  -8  12    2.88    5.15 
   8  12 -12    8.50    4.63 
 -12   8  12    9.39    4.58 
   8  12 -12    1.11    4.23 
 -12   8 -12   16.66    7.74 
   8  12  12    2.98    3.57 
   8  12 -14   14.17    4.50 
  12  -8  14    0.42    4.20 
   8  12 -14    7.69    4.83 
 -12   8 -14    0.11    5.35 
   8  12  14   15.42    5.15 
   8  12 -16   11.38    3.80 
   8  12 -16    8.98    4.00 
  12  -8  16   10.42    5.37 
 -12   8 -16   10.70    5.04 
   8  12  16    7.75    3.37 
   8  12 -18   -3.06    1.93 
  12  -8  18    0.75    2.32 
 -12   8 -18    1.27    3.57 
   8  12  18    0.99    2.45 
   7  12   1    0.31    5.36 
   7  12  -1   12.74    6.51 
   7  12   1    4.63    5.23 
   7  12  -1    1.26    4.86 
  12  -7   1   15.31    7.03 
   7  12   1   21.19   10.33 
 -12   7  -1    9.64    5.72 
 -12   7   1    1.65    4.66 
 -12   7   1   -1.18    5.53 
 -12   7  -1    9.49    7.25 
   7  12   1    6.58    5.88 
   7  12  -1    9.02    6.19 
   7  12  -1    8.90    5.60 
   7  12   1    7.14    4.76 
   7  12  -3    8.07    5.14 
   7  12   3   -3.94    5.90 
   7  12   3    2.28    5.22 
  12  -7   3  -10.57    7.32 
   7  12  -3    0.74    4.84 
 -12   7   3    8.25    5.82 
 -12   7  -3    3.54    6.61 
 -12   7   3   -4.91    5.96 
   7  12  -3   -5.16    5.44 
   7  12  -3  -12.09    6.31 
   7  12   3   -0.51    4.53 
   7  12   3   12.03    8.44 
   7  12  -5    7.42    5.07 
   7  12   5   12.39    5.99 
   7  12   5   16.06    6.68 
   7  12  -5   20.78    7.66 
  12  -7   5   24.64    8.51 
 -12   7  -5   14.82    9.09 
   7  12  -5   16.83    7.44 
 -12   7   5   11.92    6.19 
   7  12   5    5.33    4.89 
   7  12  -7   -1.37    4.46 
   7  12  -7    0.50    4.44 
   7  12   7    4.97    6.52 
   7  12   7   18.72    8.10 
  12  -7   7   -2.64    7.22 
   7  12  -7   -5.97    5.59 
 -12   7  -7    4.24    6.27 
 -12   7   7   11.95    6.57 
   7  12   7   -3.43    5.23 
   7  12  -9   22.36    7.00 
   7  12   9    7.25    5.80 
  12  -7   9   17.67    7.45 
   7  12  -9   14.66    5.60 
 -12   7   9   14.31    6.99 
 -12   7  -9   15.97    7.97 
   7  12  -9   13.73    6.43 
   7  12   9   16.76    6.52 
   7  12 -11   41.90    8.22 
  12  -7  11   40.55    9.56 
   7  12 -11   36.23    7.87 
 -12   7  11   28.41    7.44 
   7  12 -11   35.41    8.45 
 -12   7 -11   43.55   10.60 
   7  12  11   41.59    8.16 
   7  12 -13    5.23    4.30 
   7  12 -13   -1.90    4.03 
  12  -7  13   -0.22    4.88 
 -12   7 -13    6.88    6.30 
   7  12 -13    1.83    4.02 
   7  12  13    7.27    4.38 
   7  12 -15    3.03    3.82 
   7  12 -15    1.18    3.01 
  12  -7 -15    6.54    4.01 
  12  -7  15    0.43    3.93 
 -12   7 -15   11.51    6.79 
   7  12 -15    4.45    4.27 
   7  12  15    0.49    3.24 
   7  12 -17   17.50    4.79 
  12  -7  17   17.82    5.53 
 -12   7 -17   21.99    6.58 
   7  12  17   20.94    5.16 
   7  12 -19    0.88    1.97 
  12  -7  19   -0.04    2.05 
 -12   7 -19    3.24    3.38 
   7  12  19    5.42    2.84 
   6  12   0   47.05   17.09 
  12  -6   0   32.85   15.42 
 -12   6   0   32.55   16.81 
   6  12   0   33.35    8.64 
   6  12   0   42.92    9.39 
  12  -6   0   39.24   10.76 
 -12   6   0   35.40    8.58 
   6  12   0   36.10    9.38 
   6  12   0   36.91    8.38 
   6  12   2    3.48    5.67 
  12  -6   2   -0.87    6.50 
   6  12   2   -3.49    5.01 
   6  12  -2    8.54    6.55 
   6  12   2    9.88   10.55 
  12  -6  -2    0.26   12.33 
 -12   6   2  -20.74   12.67 
   6  12  -2   -1.76    4.42 
 -12   6   2   26.13    6.90 
   6  12   2    5.16    5.68 
 -12   6  -2    6.06    7.52 
 -12   6   2    2.79    5.57 
   6  12  -2   -8.45    7.04 
   6  12  -2    1.14    5.21 
   6  12   2   -5.18    5.25 
 -12   6   4    1.81   10.75 
   6  12   4    1.87    7.92 
  12  -6  -4    9.61   12.48 
   6  12  -4    5.25    4.35 
   6  12   4    7.58    5.82 
   6  12  -4    1.33    4.84 
   6  12   4    2.96    6.29 
  12  -6   4   -5.58    5.70 
   6  12   4    6.59    6.44 
 -12   6  -4   -0.23    6.49 
   6  12  -4    8.97    7.47 
   6  12  -4    9.75    7.17 
 -12   6   4   15.10    6.42 
   6  12   4    6.06    5.05 
   6  12  -6   49.12    9.43 
   6  12  -6   50.53   10.59 
   6  12   6   66.44   11.49 
  12  -6   6   61.33   11.87 
   6  12   6   59.47   10.84 
 -12   6  -6   56.38   12.58 
   6  12  -6   49.80    9.88 
 -12   6   6   33.15    8.67 
   6  12   6   47.30    9.53 
   6  12  -8    3.78    4.78 
   6  12  -8    7.89    5.15 
   6  12   8   -4.72    6.50 
  12  -6   8   -7.41    7.00 
 -12   6   8   -3.50    4.28 
 -12   6  -8    0.81    5.95 
   6  12  -8    2.10    4.82 
   6  12   8    4.37    4.40 
   6  12 -10  106.25   12.96 
   6  12  10  103.26   13.66 
  12  -6  10   73.09   12.83 
   6  12 -10   97.23   12.50 
 -12   6 -10   95.74   14.58 
   6  12  10  103.48   12.45 
   6  12 -10   93.87   12.55 
   6  12 -12   10.12    4.87 
   6  12 -12    9.35    5.83 
  12  -6  12   12.69    6.91 
   6  12 -12    5.58    5.32 
 -12   6 -12    7.19    7.68 
   6  12  12   14.69    5.68 
   6  12 -14    5.32    4.57 
  12  -6  14   17.95    6.87 
   6  12 -14    2.14    3.89 
   6  12 -14    3.23    3.61 
 -12   6 -14    6.48    6.44 
   6  12 -14   16.63    5.85 
   6  12  14   17.05    5.79 
  12  -6  16    1.69    4.67 
   6  12 -16    1.17    3.37 
   6  12 -16    0.82    3.65 
 -12   6 -16    4.41    5.49 
   6  12  16    7.00    3.92 
  12  -6  18   15.57    4.94 
   6  12 -18   29.24    5.42 
   6  12 -18   13.93    4.15 
 -12   6 -18   37.32    7.40 
   6  12  18   31.99    5.82 
   6  12 -20   -1.34    1.98 
 -12   6 -20    1.87    3.18 
   6  12  20    3.91    2.44 
 -12   5  -1   75.37   22.19 
   5  12  -1   35.47   12.32 
   5  12   1   41.93   14.62 
  12  -5  -1   37.25   17.66 
  12  -5   1   41.73   18.93 
 -12   5   1   52.74   19.05 
   5  12  -1   55.22   10.36 
   5  12  -1   48.87    9.61 
   5  12   1   45.38    8.78 
   5  12   1   54.03   10.14 
  12  -5   1   50.48   10.33 
   5  12   1   55.71   10.81 
 -12   5  -1   46.23   10.23 
   5  12  -1   49.44   10.11 
 -12   5   1   38.73    9.82 
   5  12  -1   53.73    9.78 
   5  12   1   49.10    9.42 
   5  12   3  -10.02   10.20 
  12  -5  -3   -3.32   17.71 
   5  12  -3    2.88    5.10 
 -12   5   3    9.07   13.95 
   5  12   3   -1.88    4.86 
   5  12  -3    2.61    4.95 
   5  12   3    7.86    6.34 
  12  -5   3   -0.16    6.50 
   5  12   3    3.86    6.66 
 -12   5  -3   -2.22    6.25 
   5  12  -3    6.74    7.04 
   5  12  -3    1.14    5.13 
 -12   5   3    3.85    5.41 
   5  12   3    9.94    6.22 
   5  12  -5   13.07    6.39 
 -12   5   5   18.33   14.59 
   5  12  -5    7.04    6.51 
   5  12   5   12.44    6.78 
   5  12   5    7.80    7.21 
  12  -5   5    8.88    7.23 
   5  12  -5    1.78    5.93 
   5  12  -5   24.48    8.64 
 -12   5  -5    2.01    7.42 
   5  12   5    3.49    4.71 
   5  12  -7   42.85    9.61 
   5  12  -7   38.16    8.46 
  12  -5   7   40.91   10.18 
   5  12   7   51.02   10.10 
   5  12  -7   31.70    8.51 
   5  12   7   39.27    9.02 
 -12   5  -7   25.15    9.34 
   5  12  -9   59.74   10.68 
   5  12  -9   58.02    9.79 
   5  12   9   62.11   10.64 
  12  -5   9   55.91   11.55 
   5  12  -9   56.09    9.83 
 -12   5  -9   48.73   11.81 
   5  12   9   59.82   10.46 
   5  12 -11   19.56    6.68 
   5  12 -11   19.55    5.88 
  12  -5  11   15.07    7.83 
   5  12  11   36.29   10.41 
   5  12 -11    9.66    5.31 
 -12   5 -11   24.52    9.18 
   5  12  11   11.24    5.63 
   5  12 -13   13.49    5.35 
  12  -5  13   20.18    7.20 
   5  12 -13   24.85    7.00 
   5  12 -13   19.29    5.68 
   5  12  13   32.25    7.08 
 -12   5 -13   18.36    8.61 
   5  12 -13   20.98    6.89 
  12  -5 -15   47.58    7.91 
   5  12 -15   66.78   10.29 
  12  -5  15   42.65    9.61 
   5  12 -15   59.97    9.21 
 -12   5 -15   63.19   11.57 
   5  12  15   60.07    9.55 
  12  -5  17   -1.74    3.76 
   5  12 -17    4.10    3.86 
   5  12 -17    2.61    4.20 
 -12   5 -17    2.21    5.25 
   5  12  17    3.01    3.76 
  12  -5  19    5.81    3.40 
   5  12 -19    4.65    3.25 
   5  12 -19    5.52    3.82 
 -12   5 -19   12.01    5.35 
   5  12  19    9.79    4.05 
   5  12 -21    3.01    2.25 
 -12   5 -21    5.14    3.46 
   5  12  21    2.90    2.30 
   4  12   0   96.59   21.50 
  12  -4   0  113.27   24.87 
 -12   4   0   90.42   24.11 
   4  12   0   94.65   12.20 
  12  -4   0   93.72   13.16 
   4  12   0  108.38   14.04 
 -12   4   0   72.96   12.11 
   4  12   0   90.81   11.75 
   4  12   0   93.22   13.20 
   4  12  -2    2.44    8.17 
   4  12   2    6.05   10.51 
  12  -4  -2    8.60   12.40 
  12  -4   2    1.11   12.09 
 -12   4   2   -3.01    9.90 
   4  12  -2    2.75    4.55 
   4  12  -2   19.13    6.95 
   4  12   2   10.78    7.20 
  12  -4   2   11.36    7.95 
   4  12   2    3.32    5.40 
   4  12   2   15.45    7.54 
   4  12  -2    8.58    5.94 
 -12   4  -2   10.05    6.85 
   4  12  -2    8.73    5.70 
   4  12   2   14.00    6.12 
   4  12  -4    4.27    4.49 
 -12   4   4   16.98   13.78 
   4  12   4    5.02    9.58 
  12  -4  -4   20.44   11.32 
   4  12   4    6.88    7.15 
   4  12  -4    4.94    5.68 
  12  -4   4    5.44    6.85 
   4  12   4    3.77    5.81 
   4  12  -4    7.27    5.69 
 -12   4  -4    3.68    6.33 
   4  12  -4    4.12    5.11 
   4  12   4    1.97    4.68 
   4  12  -6   10.31    6.16 
 -12   4   6   25.97   17.31 
   4  12   6   -2.02   10.98 
  12  -4  -6    7.40   11.98 
   4  12   6   28.76   10.38 
   4  12  -6    1.63    4.87 
   4  12   6    1.17    5.12 
  12  -4   6   21.55    8.12 
   4  12  -6   -0.26    5.14 
 -12   4  -6    8.18    8.65 
   4  12   6    3.92    5.80 
  12  -4  -8  131.46   29.14 
   4  12   8   99.63   23.60 
 -12   4   8  112.69   27.48 
   4  12   8  128.40   14.86 
   4  12  -8  135.08   14.28 
   4  12  -8  128.76   14.84 
  12  -4   8  122.33   16.03 
 -12   4  -8  104.84   15.41 
   4  12   8  159.71   15.34 
   4  12  -8  114.89   14.14 
   4  12 -10   15.30    5.54 
   4  12  10   11.65    6.30 
  12  -4  10   12.29    6.84 
   4  12 -10   23.14    7.80 
   4  12 -10   17.14    6.78 
   4  12 -10   23.71    7.14 
 -12   4 -10   20.44    8.58 
   4  12  10   12.79    6.19 
  12  -4  12   17.98    6.87 
   4  12 -12   26.25    7.36 
   4  12 -12   22.39    6.95 
   4  12 -12   28.37    7.67 
 -12   4 -12    4.73    6.55 
   4  12  12   24.43    7.45 
  12  -4  14    1.00    4.74 
  12  -4 -14    8.55    5.73 
   4  12 -14    1.40    4.41 
   4  12 -14    1.09    4.04 
   4  12  14    1.75    4.87 
 -12   4 -14   -6.99    6.08 
  12  -4  16   36.53    8.56 
   4  12 -16   53.16    9.42 
   4  12  16   37.13    7.81 
   4  12 -16   38.51    8.11 
   4  12  16   54.75    9.16 
 -12   4 -16   41.36    9.37 
  12  -4  18    0.90    2.92 
   4  12 -18   -4.76    4.07 
   4  12 -18   -0.32    3.78 
 -12   4 -18    4.51    5.40 
   4  12  18    1.48    3.50 
   4  12 -20   31.20    5.23 
   4  12 -20   14.65    4.67 
 -12   4 -20   23.85    6.37 
   4  12  20   22.04    4.76 
 -12   3  -1    3.94    9.82 
   3  12  -1   22.15   12.71 
   3  12   1   -5.35   10.01 
  12  -3  -1   32.78   15.74 
  12  -3   1   -1.58   10.24 
 -12   3   1   12.51   12.11 
   3  12  -1    5.12    4.42 
   3  12   1   10.40    5.29 
   3  12   1   10.30    8.57 
   3  12  -1   15.06    6.91 
  12  -3  -1    0.64    4.62 
  12  -3   1    7.26    6.50 
   3  12  -1    8.82    4.62 
   3  12   1    1.80    4.44 
   3  12  -1   11.33    6.73 
   3  12   1   16.26    7.98 
 -12   3   3   84.94   23.98 
   3  12   3  110.87   21.47 
  12  -3  -3  127.62   25.62 
   3  12  -3  114.13   13.31 
   3  12   3  136.50   15.14 
   3  12  -3  130.29   14.30 
  12  -3   3  112.05   13.55 
   3  12   3  115.42   13.40 
 -12   3  -3   91.20   13.24 
   3  12  -3  109.06   12.28 
   3  12   3  128.64   13.75 
   3  12  -3  117.72   14.19 
   3  12  -5    8.25    5.37 
 -12   3   5   23.18   15.05 
  12  -3  -5   18.01   14.60 
   3  12   5   -0.46    9.64 
   3  12   5   16.05    8.13 
   3  12  -5    5.58    5.61 
  12  -3   5    5.47    6.17 
   3  12   5   20.89    8.63 
   3  12  -5   16.98    6.94 
 -12   3  -5   -1.02    5.98 
   3  12   5    9.84    5.70 
   3  12  -5   11.72    7.00 
   3  12  -7    6.63    5.75 
  12  -3  -7   31.60   15.01 
   3  12   7   -4.66   10.16 
 -12   3   7   13.51   15.28 
   3  12  -7    3.87    5.13 
   3  12   7    7.68    5.82 
  12  -3   7    4.41    5.79 
   3  12   7    1.13    4.78 
   3  12  -7   -1.66    5.93 
 -12   3  -7    6.86    6.94 
   3  12   9   20.38    7.40 
  12  -3   9   24.55    7.99 
   3  12  -9   32.95    8.90 
   3  12  -9   14.14    6.32 
   3  12  -9   23.84    7.80 
 -12   3  -9   17.42    7.49 
   3  12   9   25.71    7.52 
   3  12  11   91.37   13.01 
   3  12 -11   91.53   12.93 
  12  -3  11   73.66   11.75 
   3  12 -11   74.34   11.48 
   3  12  11   88.05   11.39 
 -12   3 -11   65.38   12.25 
   3  12  11   81.80   11.64 
   3  12 -11   73.31   11.12 
  12  -3 -13   10.24    5.79 
  12  -3  13   -2.07    4.76 
   3  12 -13   -6.97    5.49 
   3  12 -13    1.46    4.31 
   3  12  13   -0.65    4.42 
   3  12  13   -0.28    4.36 
 -12   3 -13   -3.41    7.08 
  12  -3  15    3.56    4.89 
  12  -3 -15    2.00    3.68 
   3  12 -15   13.04    5.99 
   3  12 -15   14.83    5.67 
   3  12  15    3.72    4.91 
   3  12  15    6.81    4.74 
 -12   3 -15   16.94    7.67 
  12  -3  17   10.32    5.09 
   3  12 -17   11.09    5.10 
   3  12  17   12.91    6.18 
   3  12 -17    8.59    5.40 
   3  12  17   23.00    6.05 
 -12   3 -17   27.90    9.04 
   3  12 -19   13.94    4.89 
   3  12  19    6.69    4.83 
   3  12 -19   14.39    5.35 
 -12   3 -19    7.99    5.72 
   3  12  19   13.00    5.21 
  12  -3 -21    2.29    3.81 
   3  12 -21    7.54    2.68 
   3  12 -21    2.08    3.08 
 -12   3 -21    1.80    3.77 
   3  12  21    1.86    2.30 
 -12   2   0   40.83   16.83 
   2  12   0   54.24   15.11 
  12  -2   0   54.43   15.62 
   2  12   0   59.36    9.92 
   2  12   0   56.40    9.69 
  12  -2   0   58.10   10.40 
   2  12   0   75.73   12.02 
   2  12   0   55.54    8.90 
 -12   2   2  216.68   34.05 
   2  12  -2  213.08   27.77 
   2  12   2  201.09   28.96 
  12  -2  -2  235.88   32.69 
   2  12   2  200.74   16.53 
   2  12   2  211.95   17.50 
   2  12  -2  196.38   16.59 
  12  -2  -2  198.74   17.09 
  12  -2   2  215.71   18.60 
   2  12  -2  213.49   17.17 
   2  12  -2  183.65   15.18 
   2  12   2  201.02   15.81 
   2  12  -2  229.11   18.96 
   2  12  -4   -5.83    4.75 
 -12   2   4   11.07   12.94 
  12  -2  -4   -3.76   10.11 
   2  12   4   -2.95    8.01 
  12  -2   4    4.90    5.39 
   2  12   4    4.38    4.67 
   2  12  -4   -5.11    5.60 
   2  12   4   12.14    7.35 
   2  12  -4    0.57    5.46 
   2  12   4   -0.10    4.12 
  12  -2   6    5.75    5.38 
   2  12   6    3.21    4.99 
   2  12  -6    0.09    4.59 
  12  -2  -6   -8.38   10.02 
   2  12   6    2.89    8.93 
   2  12  -6    4.71    6.02 
   2  12   6    4.06    4.90 
 -12   2  -6    5.48    6.03 
   2  12  -6    7.30    6.13 
  12  -2   8    9.79    6.34 
   2  12   8    7.49    6.31 
   2  12  -8    7.38    5.43 
  12  -2  -8    3.63    9.73 
   2  12   8    0.44    9.24 
 -12   2   8   10.70   12.50 
   2  12  -8    4.02    5.47 
   2  12   8   16.32    6.48 
   2  12   8    1.39    5.07 
   2  12  -8   13.33    7.79 
 -12   2  -8    2.64    6.42 
   2  12  10  127.53   14.68 
   2  12 -10  121.18   14.70 
  12  -2  10  102.24   13.39 
   2  12  10  121.78   13.53 
   2  12 -10  103.32   13.15 
 -12   2 -10  104.26   15.02 
   2  12  10  118.70   13.87 
   2  12 -10  107.29   13.44 
  12  -2  12   -0.13    4.60 
  12  -2 -12   -0.97    4.49 
   2  12 -12    8.34    5.63 
   2  12 -12   -4.35    5.62 
   2  12  12    5.06    4.85 
   2  12  12   -2.19    4.83 
  12  -2 -14   10.46    4.93 
  12  -2  14   17.40    7.13 
   2  12 -14    9.30    5.89 
   2  12 -14    5.69    5.52 
   2  12  14   -1.01    4.23 
   2  12  14   12.19    6.17 
  12  -2  16    0.60    4.64 
  12  -2 -16    6.83    4.15 
   2  12 -16   11.08    6.22 
   2  12 -16    5.08    5.24 
   2  12  16    4.77    5.66 
 -12   2 -16   -0.44    5.62 
   2  12  16   10.91    5.29 
   2  12 -18   94.57   11.31 
  12  -2  18   49.88    8.60 
   2  12  18   85.44   11.70 
   2  12 -18   68.84   10.39 
 -12   2 -18   81.90   12.41 
   2  12  18   96.33   11.38 
  12  -2 -20   -0.41    3.72 
   2  12 -20    2.13    2.83 
   2  12  20   -0.04    3.17 
   2  12 -20   -5.75    3.92 
 -12   2 -20    4.70    5.03 
   2  12  20   -2.26    3.47 
  12  -2 -22   -0.01    2.26 
   2  12 -22   -0.42    1.80 
   2  12 -22    4.40    2.85 
 -12   2 -22    2.20    3.69 
   2  12  22    2.86    2.21 
  12  -1  -1    9.58    7.47 
 -12   1   1   11.35   13.58 
   1  12  -1   12.12    8.04 
   1  12   1   26.93   12.53 
   1  12  -1   18.06    5.97 
   1  12   1   10.30    6.42 
  12  -1  -1   15.42    7.12 
  12  -1   1    5.81    5.61 
   1  12   1   18.55    6.29 
   1  12  -3   41.55    8.11 
 -12   1   3   53.51   17.08 
  12  -1  -3   20.47   10.57 
   1  12  -3   35.77   12.90 
   1  12   3   36.44   12.05 
  12  -1   3   34.42    8.49 
   1  12   3   44.05    8.38 
  12  -1  -3   33.73    7.62 
   1  12   3   46.99    9.54 
   1  12   3   32.98    7.25 
   1  12  -3   46.66    9.68 
   1  12   5   11.13    5.87 
  12  -1   5    1.59    5.19 
   1  12  -5    1.53    4.82 
  12  -1  -5   19.16   12.29 
   1  12   5   15.00   11.18 
 -12   1   5    0.42   10.41 
   1  12  -5    7.38    5.24 
   1  12   5    1.16    4.49 
   1  12   5   15.64    5.45 
   1  12  -5   23.61    9.27 
   1  12   7   -8.21    6.22 
  12  -1   7   -3.23    5.64 
   1  12  -7    1.81    4.72 
  12  -1  -7  -10.02   11.70 
   1  12   7    6.15   10.08 
 -12   1   7   -9.77   13.63 
   1  12  -7   -4.54    5.20 
   1  12   7   -4.40    4.67 
 -12   1  -7    1.05    5.50 
   1  12   7   -4.35    4.67 
   1  12  -7   17.83    8.18 
   1  12   9   16.37    6.78 
  12  -1   9   13.51    6.58 
   1  12  -9    6.53    5.86 
  12  -1  -9   15.31   13.99 
   1  12   9   19.24   12.06 
 -12   1   9    0.74   11.38 
   1  12   9   16.64    6.58 
   1  12  -9   10.91    6.66 
   1  12   9   13.84    5.28 
 -12   1  -9   20.65    9.79 
   1  12  11   34.92   10.68 
  12  -1  11   10.82    5.97 
  12  -1 -11    1.70    6.63 
   1  12 -11   -1.15    4.72 
   1  12  11    2.19    5.16 
   1  12 -11   48.32   10.96 
   1  12  11   41.15   10.15 
  12  -1 -13   16.32    6.45 
  12  -1  13   12.22    5.54 
   1  12 -13   17.26    7.38 
   1  12 -13   11.71    5.24 
   1  12  13   19.80    7.81 
   1  12  13   10.14    5.80 
  12  -1  15    2.16    4.95 
  12  -1 -15    6.76    4.31 
   1  12 -15    3.56    5.63 
   1  12 -15    2.22    4.74 
   1  12  15    0.40    4.72 
   1  12  15    7.84    6.03 
  12  -1  17    2.67    3.63 
   1  12 -17    2.66    4.30 
   1  12 -17    4.25    4.84 
   1  12  17   10.50    6.68 
   1  12  17    8.62    5.41 
  12  -1 -19   31.21    8.19 
   1  12 -19   36.44    7.03 
   1  12  19   19.99    7.57 
   1  12 -19   33.33    7.03 
 -12   1 -19   20.01    7.70 
   1  12  19   20.89    5.64 
  12  -1 -21    3.13    3.57 
   1  12 -21    2.31    2.66 
   1  12  21    5.38    3.64 
   1  12 -21    5.84    3.27 
   1  12  21   -0.50    2.51 
 -12   1 -21    0.06    4.18 
   0  12   0  191.92   15.31 
  12   0   0  230.62   18.65 
   0  12   0  223.12   28.90 
  12   0  -2   39.21    8.73 
  12   0   2   44.65    9.10 
   0  12   2   51.21    9.74 
   0  12   2   33.36    7.37 
   0  12  -2   37.77    8.23 
   0  12  -2   38.35   12.26 
   0  12   2   30.26   10.46 
   0  12  -2   32.67    6.65 
  12   0   4   71.71   11.36 
   0  12  -4   76.06   10.76 
   0  12   4   75.06   10.61 
  12   0  -4   75.12   10.98 
  12   0  -4   76.52   17.37 
   0  12   4   86.26   20.99 
 -12   0   4   89.48   23.46 
   0  12  -4   78.93   11.21 
   0  12   6   36.33    8.73 
  12   0   6   47.93    9.91 
   0  12  -6   49.81    9.51 
  12   0  -6   43.64   13.17 
   0  12   6   60.64   18.07 
 -12   0   6   26.81   15.56 
   0  12  -6   35.80    8.08 
   0  12   6   53.75    9.69 
   0  12   6   40.23    7.83 
  12   0   8   68.22   10.81 
   0  12   8   59.88    9.84 
   0  12  -8   63.69   10.67 
  12   0  -8   58.26   19.52 
 -12   0   8   49.51   17.81 
   0  12   8   74.61   22.16 
   0  12  -8   72.08   12.35 
   0  12   8   87.20   12.31 
   0  12   8   70.11   10.38 
   0  12   8   67.88   10.69 
  12   0 -10   59.59   10.87 
   0  12  10   65.15   11.32 
  12   0  10   61.98   11.01 
   0  12 -10   74.56   11.39 
   0  12  10   68.73   11.38 
   0  12 -10   68.11   11.69 
   0  12  10   71.51   10.93 
  12   0 -12   61.27   10.13 
  12   0  12   59.71   10.47 
   0  12 -12   73.73   11.95 
   0  12  12   65.08   11.37 
   0  12 -12   64.85   11.96 
   0  12  12   67.45   11.08 
  12   0  14    7.69    5.75 
  12   0 -14    1.57    4.01 
   0  12 -14   -0.80    4.69 
   0  12 -14   -9.41    6.72 
   0  12  14    3.61    4.56 
   0  12  14    5.99    5.87 
  12   0  16    7.40    4.28 
   0  12 -16    7.70    5.10 
   0  12 -16   11.18    6.09 
   0  12  16    4.92    5.91 
   0  12  16   13.65    6.03 
  12   0 -16   10.62    4.50 
  12   0 -18    4.85    5.18 
   0  12 -18    5.54    4.27 
   0  12 -18    0.04    4.10 
   0  12  18    4.88    4.83 
   0  12  18    0.67    3.70 
  12   0 -20   38.25    7.21 
   0  12 -20   28.34    5.52 
   0  12  20   19.36    6.44 
   0  12 -20   19.30    5.21 
   0  12  20   12.82    5.28 
 -12   0 -20   30.96    8.14 
  12   0 -22    2.48    2.77 
   0  12 -22    0.49    1.71 
   0  12  22   -1.60    2.78 
   0  12 -22    0.35    2.34 
 -12   0 -22    2.28    4.10 
   0  12  22   -5.25    2.32 
  12   1  -1    4.38    5.96 
  12   1   1    0.98    4.39 
  12   1   1   -4.75    5.89 
  -1  12   1    3.38    4.24 
  -1  12  -1    4.02    4.85 
  -1  12  -1   19.23   11.21 
  -1  12   1    3.85    9.66 
  12   1  -3    0.47    4.39 
  12   1   3    1.48    6.26 
  -1  12  -3    6.99    5.14 
  -1  12  -3    5.72    5.08 
  -1  12  -3   -0.42    6.60 
  -1  12   3   10.48   10.38 
  12   1  -5   38.31    9.20 
  12   1  -5   24.30    6.80 
  12   1   5   35.79    8.86 
  -1  12  -5   25.80    6.67 
  12   1  -5   15.80    7.88 
 -12  -1   5   24.60   16.39 
  -1  12   5   34.72   13.72 
  -1  12   5   24.77    6.84 
  -1  12  -5   33.72    9.05 
  12   1   7   11.25    5.73 
  12   1  -7    7.26    5.74 
  12   1  -7   15.30    7.80 
  -1  12  -7    6.23    5.49 
  12   1  -7    1.71    8.24 
 -12  -1   7    9.10   12.36 
  -1  12   7    1.95    7.86 
  -1  12  -7   11.05    6.46 
  -1  12   7    7.72    5.05 
  -1  12   7   17.09    7.37 
  -1  12   7   11.00    4.82 
  12   1   9    9.82    6.05 
  12   1  -9   15.72    7.47 
  12   1  -9   10.91    6.53 
  -1  12  -9   13.88    6.14 
  12   1  -9    0.73    8.18 
 -12  -1   9   19.74   15.62 
  -1  12   9   -2.78   10.10 
  -1  12  -9    8.13    5.93 
  -1  12   9    3.50    5.22 
  -1  12   9    4.17    4.92 
  -1  12   9    3.49    4.59 
  12   1 -11    1.13    4.75 
  12   1  11   22.14    9.64 
  -1  12 -11    5.55    5.21 
  -1  12  11    7.71    5.76 
  -1  12 -11    3.74    4.88 
  -1  12  11    2.12    4.71 
  12   1 -13    9.22    5.87 
  12   1  13   12.20    5.63 
  -1  12 -13    2.88    5.35 
  -1  12  13    4.78    5.41 
  -1  12 -13    2.80    4.88 
  -1  12  13    1.45    4.11 
  12   1  15    2.49    4.40 
  12   1 -15    8.20    6.83 
  -1  12 -15    3.73    5.78 
  -1  12 -15    3.08    4.73 
  -1  12  15   -1.36    5.05 
  -1  12  15    7.37    5.31 
  12   1 -15    2.00    4.02 
  12   1 -17    5.12    5.32 
  -1  12 -17   -7.36    5.17 
  -1  12 -17    0.01    4.04 
  -1  12  17    3.53    7.27 
  -1  12  17    1.12    4.68 
  12   1 -19   -2.01    4.23 
  -1  12 -19    2.92    3.44 
  -1  12 -19    2.57    3.87 
  -1  12  19   -0.32    3.87 
  -1  12  19   -6.34    3.75 
  12   1 -21    0.86    3.52 
  -1  12 -21    6.75    2.79 
  -1  12  21    6.84    4.14 
  -1  12 -21    1.28    2.74 
  -1  12  21    1.81    2.80 
 -12  -1 -21    3.97    4.98 
  12   2   0  149.51   15.77 
  -2  12   0  126.45   23.68 
  -2  12   0  136.87   14.70 
  12   2   0  131.66   14.24 
  12   2  -2   13.72    6.49 
  12   2  -2    6.37    4.88 
  12   2   2   12.00    6.43 
  -2  12  -2    0.68    7.20 
  -2  12   2   22.97   12.10 
  -2  12   2   11.16    5.01 
  -2  12  -2   21.05    7.32 
  12   2  -4    1.36    6.32 
  12   2   4    6.72    7.45 
  12   2  -4   -3.33    5.39 
  -2  12  -4   -2.35    6.93 
  -2  12   4   15.95   13.56 
  -2  12   4    4.13    4.82 
  -2  12  -4   -3.41    6.42 
  -2  12   4    2.68    4.73 
  12   2  -6    9.98    6.65 
  12   2  -6   15.69    5.50 
  12   2   6   -0.99    6.65 
  12   2  -6    1.81    4.47 
  -2  12  -6   -2.59    4.14 
  12   2  -6   -7.41    8.71 
  -2  12   6   16.36   13.91 
  -2  12   6    6.02    5.75 
  -2  12   6   10.16    6.75 
  -2  12  -6   -4.90    6.34 
  -2  12   6    8.17    6.32 
  -2  12  -8  167.78   15.34 
  12   2   8  168.91   17.05 
  12   2  -8  184.71   16.97 
  12   2  -8  133.82   25.33 
 -12  -2   8  125.17   30.00 
  -2  12   8  193.14   33.21 
  -2  12   8  167.21   16.40 
  -2  12   8  204.01   18.00 
  -2  12  -8  184.67   18.36 
  12   2  -8  180.07   17.91 
  12   2  10   29.33    8.42 
  12   2 -10   34.22    8.62 
  12   2 -10   30.13    8.09 
  -2  12 -10   30.75    8.20 
  -2  12 -10   36.61    8.99 
  -2  12  10   28.23    8.42 
  -2  12  10   35.12    9.02 
  -2  12  10   28.99    7.80 
  12   2  12   13.64    6.17 
  12   2 -12   22.31    7.86 
  12   2 -12    7.62    5.29 
  -2  12 -12    6.72    5.65 
  -2  12  12   20.72    8.18 
  -2  12 -12   10.80    5.30 
  -2  12  12    0.01    4.21 
  12   2 -14    6.35    6.00 
  12   2  14    1.54    3.80 
  -2  12 -14   -7.41    5.58 
  -2  12  14   10.52    6.59 
  -2  12 -14    4.95    5.36 
  12   2 -14    5.73    4.82 
  -2  12  14    3.38    4.81 
  12   2 -16    1.47    4.75 
  -2  12 -16    5.20    5.07 
  -2  12 -16    5.69    4.70 
  -2  12  16    7.99    5.43 
  -2  12  16    8.02    5.62 
  12   2 -16    3.69    3.68 
  12   2 -18   10.03    6.16 
  -2  12 -18    4.70    3.48 
  -2  12 -18    3.73    3.96 
  -2  12  18    6.14    5.15 
  -2  12  18    4.87    4.31 
  12   2 -20    2.17    3.30 
  -2  12 -20   -1.97    2.76 
  -2  12 -20    1.40    3.16 
  -2  12  20    4.84    3.86 
  -2  12  20   -1.08    2.83 
 -12  -2 -20   -8.70    7.06 
  12   2 -22    1.76    2.65 
  -2  12  22    1.88    3.03 
  -2  12 -22    0.93    2.05 
  12   3   1   38.47    8.44 
  12   3  -1   38.84    9.06 
  12   3   1   51.94   10.43 
  12   3  -1   29.98    8.26 
  -3  12   1   31.15   12.58 
  -3  12  -1   45.90   15.23 
  -3  12   1   42.47    9.47 
  -3  12  -1   40.10    9.57 
  -3  12  -1   35.15    9.04 
  -3  12   1   33.55    8.43 
  12   3  -3    0.02    6.17 
  12   3   3   10.18    6.78 
  12   3  -3   -0.05    4.80 
  -3  12   3    3.03    9.31 
  -3  12  -3    6.13    8.69 
  -3  12   3    7.40    6.47 
  -3  12  -3   -7.87    6.12 
  -3  12   3   -1.21    4.71 
  12   3  -5    5.89    6.32 
  12   3   5   10.44    6.13 
  12   3  -5    8.22    5.06 
  12   3  -5    0.71    4.91 
  -3  12   5    3.86    9.54 
  -3  12   5   10.38    6.86 
  -3  12  -5   10.99    7.57 
  -3  12   5    8.87    6.15 
  12   3  -7  107.38   12.77 
  12   3  -7   86.61   10.86 
  12   3   7  117.88   14.11 
  -3  12   7  112.42   26.28 
  -3  12   7  131.06   14.76 
  -3  12   7  109.53   13.55 
  -3  12   7  107.73   13.57 
  -3  12  -7  117.28   15.19 
  12   3  -7  112.19   14.22 
  12   3   9   31.49    8.35 
  12   3  -9   29.15    7.73 
  12   3  -9   36.46    8.88 
  -3  12  -9   31.62    8.61 
  -3  12   9   25.87    8.08 
  -3  12   9   26.85    8.31 
  -3  12   9   20.36    7.28 
  12   3 -11   -1.85    4.82 
  12   3  11    8.80    5.59 
  12   3 -11   -0.63    4.50 
  -3  12 -11   -1.90    4.57 
  -3  12  11    2.34    5.21 
  -3  12 -11    9.52    5.89 
  -3  12  11    3.10    5.33 
  12   3  13    2.70    5.15 
  12   3 -13    1.78    5.23 
  -3  12 -13   -3.24    5.21 
  -3  12  13   -7.46    5.83 
  -3  12 -13    0.54    4.92 
  -3  12  13   -1.48    3.83 
  12   3 -13    6.34    4.98 
  12   3 -15   14.03    5.87 
  -3  12 -15    1.37    3.70 
  -3  12 -15    6.76    5.62 
  -3  12  15    8.34    5.79 
  -3  12  15    6.17    6.18 
  12   3 -15    6.93    4.62 
  12   3 -17   -4.23    4.54 
  -3  12 -17    1.97    3.44 
  -3  12 -17   -7.15    4.64 
  -3  12  17    0.01    4.67 
  -3  12  17    0.01    3.54 
  12   3 -19    3.29    4.22 
  -3  12 -19    2.59    3.29 
  -3  12 -19    3.40    3.59 
  -3  12  19    7.83    4.57 
  -3  12  19    4.01    3.75 
  12   3 -21   -0.15    2.53 
  -3  12 -21    0.05    2.42 
  -3  12  21    0.30    3.03 
  -3  12  21   -1.25    1.75 
  12   4   0   42.53    9.43 
  12   4   0   32.32    7.84 
  -4  12   0   44.26   18.34 
  -4  12   0   38.62    9.19 
  -4  12   0   30.01    7.43 
  12   4  -2  174.81   18.33 
  12   4   2  155.61   16.61 
  -4  12   2  170.18   30.47 
  -4  12  -2  161.22   27.81 
  -4  12   2  147.71   15.73 
  -4  12  -2  127.25   14.96 
  -4  12   2  151.72   16.30 
  -4  12  -2  146.41   16.25 
  12   4   2  113.47   12.83 
  12   4  -2  150.34   15.75 
  12   4  -4    3.34    4.77 
  12   4  -4    3.58    5.29 
  12   4   4   -2.55    5.78 
  12   4  -4   -3.83    5.27 
  -4  12   4    2.31    8.96 
  -4  12  -4  -11.02    6.87 
  -4  12   4    3.66    5.99 
  -4  12  -4    8.31    7.05 
  -4  12   4    4.04    5.12 
  -4  12  -4   10.42    7.83 
  12   4  -6   61.45   10.64 
  12   4   6   62.38   10.93 
  12   4  -6   69.24   10.96 
  12   4  -6   59.62   10.25 
  -4  12   6   68.50   20.77 
  -4  12   6   56.70   10.10 
  -4  12  -6   72.99   12.33 
  -4  12   6   66.74   11.26 
  12   4  -8   -4.61    5.76 
  12   4  -8    6.90    4.67 
  12   4   8    2.03    5.00 
  -4  12   8   -0.88    9.06 
  -4  12   8    3.77    5.88 
  -4  12   8   -1.32    4.92 
  -4  12  -8   -0.44    5.10 
  -4  12   8   -9.67    6.21 
  12   4 -10   23.33    7.35 
  12   4  10   23.16    7.11 
  -4  12  10   26.53    8.20 
  -4  12 -10   37.53    8.81 
  -4  12  10   25.96    7.82 
  12   4 -10   35.81    8.97 
  12   4  12    6.79    5.74 
  12   4 -12   15.66    6.93 
  -4  12  12   25.55    7.79 
  -4  12 -12   19.26    7.24 
  -4  12  12   13.33    6.82 
  12   4 -12   19.16    6.57 
  12   4 -14   33.00    7.79 
  -4  12  14   30.53    8.40 
  -4  12 -14   13.84    6.14 
  -4  12  14    8.62    5.75 
  12   4 -14   30.64    7.78 
  12   4 -16    5.24    5.04 
  -4  12 -16   -1.61    3.08 
  -4  12 -16   -3.48    4.47 
  -4  12  16   -5.84    5.38 
  -4  12  16   -0.05    3.21 
  12   4 -16   -2.09    3.37 
  12   4 -18   21.14    5.47 
  -4  12 -18   23.40    6.68 
  -4  12  18   23.00    6.43 
  -4  12  18    8.19    4.57 
  -4  12 -20    0.07    2.64 
  -4  12  20   -0.08    3.80 
  -4  12  20   -1.98    1.78 
  12   5  -1   14.51    5.99 
  12   5   1   11.44    6.14 
  12   5  -1    6.78    4.34 
  -5  12   1   30.22   13.58 
  -5  12  -1   24.76   15.50 
  -5  12   1    1.36    5.60 
  -5  12  -1   19.45    8.17 
  -5  12   1    4.57    5.65 
  -5  12  -1   11.71    7.92 
  12   5  -1   13.67    6.68 
  12   5   1   13.54    6.19 
  12   5   3   83.43   12.59 
  12   5  -3   65.74    9.88 
  12   5  -3   69.47   11.43 
  12   5  -3   64.62   11.39 
  -5  12   3   74.23   21.37 
  -5  12  -3   69.12   19.31 
  -5  12   3   71.67   12.02 
  -5  12  -3   74.50   12.17 
  -5  12  -3   80.11   12.63 
  -5  12   3   71.07   11.55 
  12   5   5   68.59   12.77 
  12   5  -5   43.54    8.53 
  12   5  -5   53.57   10.52 
  -5  12   5   34.09   16.20 
  -5  12   5   55.16   10.75 
  -5  12  -5   55.99   11.37 
  -5  12  -5   48.84   10.46 
  12   5  -5   63.00   11.33 
  -5  12   5   57.44   11.50 
  12   5   7   -0.06    4.87 
  12   5  -7   -5.46    5.79 
  -5  12   7    2.98    5.93 
  -5  12   7    6.62    5.79 
  -5  12  -7    0.71    5.32 
  -5  12  -7   -8.06    6.78 
  12   5  -7   -1.44    4.77 
  -5  12   7    7.53    6.05 
  12   5   9   18.85    6.72 
  12   5  -9   18.49    6.40 
  -5  12   9   20.56    7.32 
  -5  12   9   23.87    7.73 
  -5  12  -9   25.95    8.53 
  -5  12   9   19.32    7.40 
  -5  12  -9   27.69    8.79 
  12   5  -9   21.42    7.64 
  12   5  11    0.01    6.16 
  12   5 -11    1.88    4.26 
  -5  12  11    3.87    6.50 
  -5  12 -11    5.76    5.37 
  -5  12  11    0.54    4.92 
  -5  12 -11   -1.47    4.76 
  12   5 -11   10.21    6.02 
  12   5 -13   17.31    6.14 
  -5  12  13   23.86    7.86 
  -5  12 -13   20.40    7.11 
  12   5 -13   26.67    7.07 
  12   5 -15   -3.94    4.28 
  -5  12 -15   -0.88    4.30 
  -5  12  15   -7.97    5.90 
  12   5 -15   -3.27    4.13 
  12   5 -17   25.08    6.30 
  -5  12 -17   16.57    5.93 
  -5  12  17   20.47    6.21 
  12   5 -17   14.44    4.47 
  12   5 -19    0.06    2.78 
  -5  12 -19    3.47    3.27 
  -5  12  19    3.98    4.22 
  12   5 -21    0.91    1.91 
  -5  12  21   -0.06    2.40 
  12   6   0  291.23   19.59 
  12   6   0  322.30   23.35 
  -6  12   0  350.40   45.48 
  -6  12   0  304.07   23.30 
  -6  12   0  324.78   23.43 
  12   6   0  300.31   21.49 
  12   6   0  299.94   21.69 
  12   6  -2   -1.13    4.99 
  12   6   2   -3.24    6.71 
  12   6  -2   -1.58    5.30 
  -6  12   2    8.29   14.20 
  -6  12  -2    1.74   11.46 
  -6  12   2   -7.57    6.54 
  -6  12  -2    2.69    6.77 
  -6  12   2    1.11    6.67 
  -6  12  -2    0.61    6.69 
  12   6  -2   -3.03    4.88 
  12   6   2   -5.75    5.01 
  12   6  -4    0.20    4.73 
  12   6  -4    4.79    5.90 
  12   6   4    9.51    6.37 
  -6  12   4  -10.11   11.49 
  -6  12  -4    3.78    9.41 
  -6  12   4    7.41    6.43 
  -6  12  -4    3.64    5.96 
  -6  12   4   -2.37    6.20 
  -6  12  -4  -12.07    8.36 
  12   6  -4   -0.85    5.18 
  12   6   6    7.27    6.18 
  12   6  -6    5.38    5.09 
  -6  12   6    0.32    5.04 
  -6  12  -6    1.86    5.26 
  -6  12   6   -2.23    5.34 
  -6  12  -6   -5.63    6.03 
  12   6  -6   -3.20    5.07 
  12   6  -8   32.19    7.94 
  12   6   8   43.26    9.66 
  -6  12   8   40.07   10.29 
  -6  12   8   33.97    9.29 
  -6  12  -8   36.47    9.08 
  -6  12   8   40.75    9.43 
  -6  12  -8   52.82   11.15 
  12   6  -8   44.23    9.29 
  12   6 -10   -1.21    4.56 
  12   6  10   -1.25    4.39 
  -6  12 -10   -2.21    4.61 
  -6  12  10    8.76    5.85 
  -6  12  10    3.71    5.45 
  -6  12 -10    8.46    7.52 
  12   6 -10    5.30    4.89 
  12   6  12    2.49    3.67 
  -6  12  12    9.53    6.03 
  -6  12 -12    4.39    5.35 
  -6  12  12    3.57    5.23 
  -6  12 -12   10.10    6.36 
  12   6 -12    5.13    4.52 
  12   6 -14   -0.38    3.85 
  -6  12  14    2.89    4.40 
  -6  12 -14    0.21    4.13 
  -6  12 -14    0.58    4.30 
  12   6 -14    1.04    3.96 
  12   6 -16   28.74    6.36 
  -6  12 -16   18.33    6.58 
  -6  12  16   30.42    7.99 
  12   6 -16   22.00    5.37 
  12   6 -18    4.02    3.00 
  -6  12 -18    3.57    3.53 
  -6  12  18    1.07    4.06 
  12   6 -20    7.36    3.07 
  -6  12 -20    1.51    2.56 
  -6  12  20    5.28    3.86 
  12   7   1  135.28   14.58 
  12   7  -1  104.54   12.93 
  12   7  -1  119.72   14.49 
  12   7   1  127.79   15.03 
  -7  12   1  132.07   16.01 
  -7  12  -1  129.37   16.00 
  -7  12   1  123.45   15.15 
  -7  12  -1  134.35   15.61 
  12   7   1  135.06   15.03 
  12   7   1  121.79   13.97 
  12   7  -1  122.12   14.24 
  12   7   3   14.24    6.66 
  12   7  -3    9.52    6.15 
  12   7  -3   23.32    7.64 
  12   7   3   19.28    7.90 
  -7  12   3   12.00    6.23 
  -7  12  -3   16.20    7.32 
  -7  12  -3   21.07    7.71 
  -7  12   3   24.47    7.71 
  12   7  -3   22.36    7.22 
  12   7   3   24.57    7.38 
  12   7   5   16.38    7.35 
  -7  12   5   20.56    7.76 
  -7  12  -5   20.86    7.68 
  -7  12  -5   18.37    8.29 
  12   7  -5   20.87    7.72 
  12   7   5   14.38    6.12 
  -7  12   5    9.15    7.21 
  12   7  -7   43.00    8.41 
  12   7   7   58.46   10.85 
  -7  12   7   40.55    9.44 
  -7  12  -7   43.21    9.82 
  -7  12   7   45.12    8.94 
  12   7  -7   55.92   10.45 
  -7  12  -7   51.65   11.30 
  -7  12   7   52.53   10.40 
  12   7   9   -2.81    4.68 
  12   7  -9    0.33    4.87 
  -7  12  -9    5.99    5.52 
  -7  12   9    6.26    5.96 
  -7  12   9   -4.30    5.28 
  -7  12  -9   -3.71    5.77 
  12   7  -9    9.23    6.30 
  12   7 -11    8.06    5.19 
  12   7  11   -0.95    3.63 
  -7  12  11    7.89    5.34 
  -7  12 -11    5.10    4.55 
  -7  12  11    2.53    4.77 
  -7  12 -11   -2.65    5.10 
  12   7 -11    6.46    4.60 
  12   7 -13   36.43    7.95 
  -7  12 -13   22.86    7.50 
  -7  12  13   41.64    8.96 
  -7  12  13   35.31    8.32 
  -7  12 -13   21.66    7.89 
  12   7 -13   30.63    7.16 
  12   7 -15   38.27    7.06 
  -7  12 -15   24.56    7.51 
  -7  12  15   32.31    7.66 
  -7  12 -15   21.20    6.89 
  12   7 -17    8.48    4.07 
  -7  12 -17    4.31    4.33 
  -7  12  17    9.61    4.50 
  12   7 -19    2.45    2.70 
   7 -12  19   -0.88    2.98 
  -7  12 -19    3.20    2.82 
  -7  12  19   -1.18    3.04 
  12   8   0   31.29    7.50 
  12   8   0   41.62    9.52 
  -8  12   0   22.70    8.05 
  12   8   0   29.70    7.51 
  -8  12   0   28.13    9.32 
  12   8   2   64.09   10.35 
  12   8  -2   59.84   10.13 
  12   8   2   56.16   10.38 
  -8  12   2   50.34    9.87 
  -8  12  -2   67.05   11.60 
  -8  12  -2   61.90   12.13 
  12   8   2   57.73    9.98 
  -8  12   2   50.49   10.56 
  12   8   2   61.71   10.86 
  12   8  -2   66.03   11.05 
  12   8   4   -1.20    4.30 
  12   8  -4    3.60    4.24 
  12   8   4    5.98    6.05 
  -8  12   4    5.96    6.22 
  -8  12  -4   -1.52    5.28 
  -8  12   4   -2.39    5.25 
  12   8   4   11.78    8.08 
  12   8  -4    2.24    5.42 
  -8  12  -4    2.08    5.89 
  12   8  -6   13.44    5.98 
  12   8   6   20.11    6.93 
  -8  12   6   16.98    7.43 
  -8  12   6   18.34    6.59 
  -8  12  -6   10.59    6.42 
  -8  12  -6   18.08    9.09 
  -8  12   6   13.16    6.28 
  12   8   6   19.72    6.63 
  12   8  -6   19.43    7.05 
  12   8  -8    1.92    4.09 
  12   8   8    0.09    4.75 
  -8  12  -8   -7.16    6.57 
  -8  12   8   -3.72    5.76 
  -8  12   8    4.17    4.55 
  -8  12   8   -3.77    5.60 
  12   8  -8   -0.74    4.66 
  12   8   8   -3.73    4.70 
  12   8 -10   48.59    8.86 
  12   8  10   29.63    7.61 
  -8  12 -10   41.74    8.56 
  -8  12  10   42.49    9.40 
  -8  12  10   41.98    8.67 
  -8  12 -10   37.63   10.12 
  12   8 -10   48.22    9.75 
  12   8 -12    7.80    4.78 
  -8  12  12   18.19    6.34 
  -8  12  12   14.79    6.45 
  -8  12 -12    6.83    5.82 
  12   8 -12   12.85    5.31 
  -8  12 -12    5.07    6.23 
  12   8 -14   -0.53    3.70 
  -8  12 -14    0.70    3.82 
  -8  12  14    6.15    5.38 
  -8  12 -14   -2.95    4.20 
  12   8 -14    3.31    3.69 
   8 -12  16    3.24    5.99 
  12   8 -16    1.38    2.90 
  -8  12 -16    1.79    3.28 
  -8  12  16   -1.13    3.45 
  -8  12 -16    2.63    3.87 
  12   8 -16    6.94    3.57 
  12   8 -18    5.34    3.26 
   8 -12  18    8.32    3.99 
  -8  12  18    7.29    3.78 
  12   9  -1   12.09    5.72 
  12   9   1   27.12    8.05 
  -9  12   1    7.58    5.83 
  -9  12  -1   19.37    7.08 
  -9  12   1   15.71    8.24 
  -9  12  -1    5.38    6.99 
  12   9  -1   19.83    6.31 
  12   9   1   22.89    8.13 
  12   9   1   12.05    5.55 
  12   9   3   40.80    8.77 
  12   9  -3   36.50    8.21 
  12   9   3   76.00   12.30 
  -9  12   3   43.71    9.80 
  -9  12  -3   47.03   10.33 
  -9  12   3   45.89   10.19 
  -9  12  -3   65.41   13.36 
  12   9  -3   71.86   11.73 
  12   9   3   60.59   10.35 
  12   9   5   18.35    5.63 
  12   9  -5   17.09    6.37 
  12   9   5   23.50    7.33 
  -9  12   5   20.15    7.43 
  -9  12   5   18.09    6.92 
  -9  12  -5   12.58    6.38 
  -9  12  -5   12.10    7.30 
  12   9  -5   18.90    7.69 
  -9  12   5   20.75    7.39 
  12   9   5   13.82    6.02 
  12   9  -7    4.22    4.91 
  12   9   7   -1.65    4.36 
  -9  12  -7    6.56    5.33 
  -9  12   7   -0.17    4.34 
  -9  12   7   -6.41    5.56 
  -9  12  -7   11.23    7.50 
  12   9  -7    2.81    4.70 
  12   9   7   -1.16    4.24 
  -9  12   7    0.61    4.70 
  12   9  -9   24.96    7.06 
  -9  12  -9    9.98    6.74 
  -9  12   9   22.67    6.57 
  -9  12   9   11.07    5.75 
  -9  12  -9    6.31    7.56 
  12   9   9   19.46    5.70 
  12   9  -9   19.01    6.86 
  12   9 -11   42.11    7.79 
  -9  12  11   45.55    9.14 
  -9  12  11   50.74    9.21 
  -9  12 -11   34.28    8.17 
  -9  12 -11   23.84    8.91 
  12   9 -11   47.91    9.12 
  12   9  11   27.32    6.04 
   9 -12  13   17.25    8.08 
  12   9 -13    8.98    4.43 
  -9  12 -13    9.70    4.84 
  -9  12  13    3.33    3.87 
  -9  12 -13    7.85    5.32 
  12   9 -13    3.07    3.83 
  12   9 -15    7.83    3.74 
   9 -12  15    8.12    5.57 
  -9  12 -15    3.46    3.60 
  -9  12  15    2.65    3.46 
  12   9 -15    2.05    3.09 
  -9  12 -15    1.10    3.98 
  12   9 -17   -1.71    2.80 
   9 -12  17    2.68    3.48 
  -9  12  17    4.49    3.08 
  12  10   0   -1.48    4.56 
 -10  12   0    2.15    5.21 
 -10  12   0    7.27    7.56 
  12  10   0    2.42    4.35 
  12  10  -2   29.08    7.93 
  12  10   2   23.23    7.46 
 -10  12   2   23.31    7.64 
 -10  12  -2   23.60    7.16 
  12  10   2   32.80    9.33 
  12  10   2   27.95    7.44 
 -10  12   2   29.45    9.41 
 -10  12  -2   44.75   10.82 
  12  10  -2   20.63    7.72 
  12  10   4   -1.63    4.32 
  12  10  -4    0.91    4.54 
  10 -12   4    5.23    6.53 
  12  10   4   -5.59    5.10 
 -10  12  -4    9.78    5.56 
 -10  12   4    1.06    4.50 
 -10  12   4    0.49    4.70 
 -10  12  -4    0.10    5.77 
  12  10   4   -4.22    5.18 
  12  10  -4    5.95    4.72 
 -10  12   4    2.85    5.47 
  10 -12   6   13.34    7.72 
  12  10   6   11.38    5.89 
  12  10  -6   -1.81    4.60 
  12  10   6   25.77    7.23 
 -10  12  -6    3.84    5.01 
 -10  12   6   -5.67    4.06 
 -10  12   6   -7.24    5.47 
 -10  12  -6   -1.51    5.79 
  12  10   6    4.40    4.68 
 -10  12   6    3.93    4.75 
  12  10  -6   -1.64    5.50 
  12  10  -8   24.47    6.45 
  10 -12   8   18.52    7.77 
 -10  12  -8    4.43    5.66 
 -10  12   8    0.76    4.38 
 -10  12   8    4.65    4.33 
 -10  12  -8    3.31    5.82 
  12  10   8    5.39    5.00 
  12  10  -8    6.04    4.50 
  10 -12  10   26.16   10.38 
  12  10 -10   11.17    4.74 
 -10  12 -10    7.76    5.39 
 -10  12  10    7.56    4.02 
 -10  12  10    7.27    4.47 
 -10  12 -10    2.10    4.71 
  12  10  10   13.76    4.75 
  12  10 -10    6.81    4.83 
  12  10 -12   -0.18    3.79 
  10 -12  12    0.34    5.26 
 -10  12 -12   11.12    4.91 
 -10  12  12   -1.93    4.40 
 -10  12  12    6.82    4.06 
 -10  12 -12    1.39    4.21 
  12  10 -12   -1.38    4.09 
  12  10  12   -1.27    3.41 
  12  10 -14    1.98    2.99 
  10 -12  14    3.20    4.06 
 -10  12 -14   -1.62    2.82 
 -10  12  14   -1.82    3.10 
 -10  12 -14    2.31    3.82 
  12  10 -14   -0.84    3.18 
  12  10 -16    3.91    2.93 
  10 -12  16   -1.35    3.47 
 -10  12 -16   -2.00    2.51 
  12  11  -1    1.65    4.24 
  12  11  -1    4.69    4.26 
  12  11   1   11.09    6.00 
  12  11   1    5.40    3.89 
 -11  12   1    7.34    5.80 
 -11  12  -1    2.16    4.94 
 -11  12  -1   16.53    7.31 
  12  11   1    2.58    4.59 
  12  11  -1    2.94    4.40 
 -11  12   1    3.97    5.88 
  12  11  -3    6.01    5.40 
  12  11   3   -3.57    4.89 
  12  11   3    2.70    4.21 
 -11  12   3   -2.77    4.79 
 -11  12  -3    1.05    5.12 
 -11  12   3   -1.64    3.89 
 -11  12   3   -2.12    5.30 
 -11  12  -3   11.43    6.81 
  12  11   3    8.74    5.97 
  12  11  -3    6.83    5.76 
  12  11   5   28.18    7.41 
  12  11  -5   34.60    7.65 
  11 -12   5   22.23    7.72 
  12  11   5   38.12    7.54 
 -11  12  -5   12.18    6.79 
 -11  12   5   16.23    6.15 
 -11  12   5   17.27    6.83 
 -11  12  -5   18.42    7.83 
  12  11   5   24.37    7.00 
  12  11  -5   27.77    7.29 
 -11  12   5   21.92    7.30 
  12  11  -7   13.43    5.37 
  11 -12   7   13.68    5.49 
 -11  12   7   10.19    5.95 
 -11  12  -7    3.79    4.93 
 -11  12   7    6.55    3.87 
 -11  12  -7    3.43    4.93 
  12  11   7   -1.64    4.57 
  12  11  -7    1.31    4.75 
  12  11  -9    6.56    4.17 
  11 -12   9    0.65    4.57 
 -11  12  -9    5.38    5.01 
 -11  12   9    0.53    4.26 
 -11  12   9    3.85    4.33 
  12  11  -9   11.58    5.63 
  12  11   9    9.65    4.29 
 -11  12  -9    1.92    5.24 
  12  11 -11    8.27    3.98 
  11 -12  11    1.99    5.43 
 -11  12 -11   -1.42    3.36 
 -11  12  11    3.23    3.58 
 -11  12  11    5.38    3.31 
 -11  12 -11    6.59    5.08 
  12  11 -11   12.98    5.93 
  12  11  11    4.22    3.57 
  12  11 -13    8.34    3.99 
  11 -12  13   11.92    4.42 
 -11  12 -13    6.77    4.39 
  12  11 -13   12.04    4.17 
  12  11 -15    1.51    2.56 
  11 -12  15    1.43    3.06 
  12  11 -15    6.90    2.77 
 -11  12 -15    0.00    2.32 
  12  12   0   22.67    6.43 
  12  12   0    1.08    3.68 
 -12  12   0    6.93    5.55 
 -12  12   0   17.38    7.53 
  12  12   0    8.23    5.14 
  12  12  -2   -0.08    3.26 
  12  12   2    0.96    4.05 
  12  12  -2   -2.60    4.43 
  12  12   2   -3.30    3.67 
 -12  12   2    3.76    4.91 
 -12  12   2    9.19    4.93 
 -12  12  -2    3.44    4.56 
 -12  12  -2    0.01    5.00 
  12  12   2   -3.00    3.57 
  12  12  -2    3.13    4.43 
  12  12   2   12.20    7.61 
 -12  12   2   -6.54    4.79 
  12  12  -4    1.02    2.94 
  12  12   4    8.96    5.10 
  12  12  -4    5.29    5.00 
  12 -12   4    7.09    7.58 
  12  12   4    6.05    5.83 
 -12  12  -4    0.25    4.53 
 -12  12   4    2.93    3.84 
 -12  12  -4   -3.87    5.14 
  12  12  -4    3.50    4.26 
  12  12   4    4.64    5.18 
 -12  12   4    1.48    4.36 
  12  12  -6   -0.43    3.94 
  12 -12   6    6.95    4.67 
 -12  12  -6    3.44    4.11 
 -12  12   6   -1.84    3.37 
 -12  12  -6    3.22    5.29 
  12  12  -6   -7.25    4.69 
  12  12   6    0.53    3.84 
 -12  12   6    5.63    4.66 
  12 -12   8   12.60    4.77 
  12  12  -8   17.57    5.36 
 -12  12   8    7.61    4.55 
 -12  12  -8   12.95    5.22 
 -12  12   8   11.23    4.26 
 -12  12  -8    8.66    4.82 
  12  12  -8   15.17    5.38 
  12  12   8   24.00    5.72 
  12  12 -10    2.99    3.41 
  12 -12  10    3.29    3.68 
 -12  12  10   -1.78    3.23 
 -12  12 -10   -0.58    3.71 
  12  12 -10    3.15    4.10 
  12  12  10    0.76    3.01 
  12  12 -12   -0.64    2.80 
  12 -12  12   -4.60    3.57 
  12  12 -12   -1.62    3.33 
  12  12  12    6.01    3.27 
 -12  12 -12   -0.10    2.93 
  12  12 -14   -1.42    2.14 
  12 -12  14    4.62    2.91 
  12  12 -14    4.96    2.26 
 -12  12 -14   -1.01    2.26 
  12  13   1    8.66    4.67 
  12  13  -1    4.66    3.65 
  12  13   1    1.10    3.31 
  12  13  -1   -0.54    3.15 
 -13  12  -1    2.48    4.14 
 -13  12  -1    2.29    2.92 
 -13  12   1    1.29    3.38 
 -13  12  -1   -2.74    4.18 
 -13  12   1    3.91    4.29 
  12  13  -1   -0.95    3.60 
  12  13   1    5.23    4.07 
  12  13   3    3.54    3.90 
  12  13  -3    2.32    3.55 
  12  13   3   20.19    6.53 
  12  13  -3    6.08    3.00 
 -13  12  -3    4.02    4.42 
  12  13  -3   10.02    4.87 
 -13  12  -3    2.28    4.52 
 -13  12   3    6.22    4.27 
  12  13  -5   -0.55    2.62 
  12  13  -5    8.63    4.54 
  13 -12   5   -0.56    3.11 
 -13  12  -5    7.00    4.44 
 -13  12   5   10.16    4.60 
 -13  12  -5   13.66    5.01 
  12  13  -5   10.51    4.84 
  12  13   5   16.13    5.80 
  12  13  -7    7.46    4.35 
  13 -12   7   -3.79    3.13 
 -13  12   7   -2.66    3.15 
 -13  12  -7    1.40    3.74 
  12  13  -7   -0.79    3.70 
  12  13   7    0.27    3.32 
  12  13  -9   -4.08    3.15 
  13 -12   9    2.22    3.00 
 -13  12   9   -5.36    3.06 
 -13  12  -9    2.24    3.79 
  12  13  -9   -1.12    3.23 
  12  13   9    0.32    2.94 
  12  13 -11    0.08    2.24 
  13 -12  11   -3.83    2.79 
  12  13  11    7.37    3.19 
  12  13 -11    1.05    2.89 
 -13  12 -11    3.74    3.33 
  11  13   0   -2.75    4.23 
  11  13   0    0.75    4.29 
 -13  11   0   -2.35    4.85 
 -13  11   0    5.02    5.57 
  11  13   0    2.34    3.64 
  11  13   2   -8.73    5.55 
  11  13  -2    0.02    4.74 
  11  13  -2    0.33    3.26 
  11  13   2   -3.42    4.01 
 -13  11  -2   10.82    5.79 
 -13  11   2   -5.93    5.58 
  11  13   2    5.92    4.36 
  11  13  -2    4.74    5.17 
  11  13   2    9.49    6.63 
 -13  11  -2   -0.01    4.84 
  13 -11   4   66.71    8.73 
  11  13   4   83.33   11.08 
  11  13  -4   90.61   10.83 
  11  13  -4   68.72    8.26 
  11  13   4   88.67    9.83 
 -13  11   4   81.76   11.40 
 -13  11  -4   90.22   12.23 
 -13  11  -4   62.05    9.78 
  11  13   4   90.48   10.86 
  11  13  -4   86.52   11.01 
  13 -11   6    2.48    3.98 
  11  13  -6   -0.03    4.20 
  11  13  -6    0.12    2.98 
 -13  11  -6   -0.49    3.79 
 -13  11   6   -4.58    4.49 
 -13  11  -6   -2.50    4.52 
  11  13  -6    0.36    4.37 
  11  13   6    6.07    4.20 
  11  13  -8    7.41    4.00 
  13 -11   8    5.08    4.30 
  11  13  -8    3.63    2.83 
 -13  11   8    6.87    4.32 
 -13  11  -8   -0.93    4.61 
  11  13  -8    3.29    3.88 
  11  13   8    1.50    3.20 
  11  13 -10   -2.47    3.51 
  13 -11  10   -3.69    3.30 
  11  13 -10    3.22    2.41 
 -13  11  10    3.18    3.31 
 -13  11 -10    5.70    4.23 
  11  13 -10   -0.26    3.65 
  11  13  10   -0.15    2.93 
  11  13 -12    9.23    3.70 
  13 -11  12   17.28    4.33 
  11  13 -12   20.46    4.95 
 -13  11 -12   12.97    4.43 
  11  13  12   12.12    3.60 
  11  13 -14    3.33    2.40 
  13 -11  14    0.70    2.53 
 -13  11 -14   -1.21    2.32 
  10  13   1    0.17    4.20 
  10  13   1   -3.07    5.09 
  10  13  -1  -11.25    5.76 
  10  13  -1   -4.84    4.37 
 -13  10  -1   -4.22    5.46 
 -13  10   1   -7.32    5.47 
 -13  10   1   -1.15    4.82 
 -13  10  -1   -2.08    6.28 
  10  13   1    1.96    4.56 
  10  13  -1   -0.15    4.78 
  10  13  -1   17.50    8.37 
  10  13   1    4.69    5.35 
  10  13   3   33.79    7.76 
  13 -10   3   24.50    6.88 
  10  13  -3   25.96    6.30 
  10  13   3   26.04    7.35 
  10  13  -3   26.95    7.72 
 -13  10  -3   21.09    7.57 
 -13  10   3   24.49    7.83 
  10  13  -3   28.46    7.81 
  10  13   3   25.27    7.12 
  10  13   3   31.89    8.07 
 -13  10  -3   20.30    7.64 
  10  13  -5   31.35    7.52 
  10  13  -5   37.15    7.09 
  10  13   5   28.50    7.32 
  13 -10   5   24.47    6.69 
 -13  10  -5   24.17    8.19 
 -13  10  -5   39.51    9.70 
  10  13  -5   23.14    7.33 
  10  13   5   16.69    6.39 
 -13  10   5   24.58    7.06 
  10  13  -7   13.63    5.75 
  10  13   7   24.14    6.96 
  10  13  -7    8.32    4.07 
  13 -10   7   -1.95    4.74 
 -13  10   7   10.25    5.65 
 -13  10  -7   20.49    7.69 
  10  13  -7    1.98    4.78 
  10  13   7    7.72    5.20 
  10  13  -9    5.77    3.65 
  10  13  -9    3.04    4.79 
  13 -10   9   -3.51    4.30 
 -13  10   9    3.47    3.44 
 -13  10  -9    5.65    5.03 
  10  13  -9    1.96    3.85 
  10  13   9   -3.36    4.00 
  10  13 -11    5.83    3.29 
  10  13 -11    2.11    3.74 
  13 -10  11    7.05    4.37 
 -13  10  11   10.36    3.93 
  10  13 -11   18.55    5.41 
 -13  10 -11    7.59    5.33 
  10  13  11    8.84    3.76 
  10  13 -13    2.42    3.04 
  10  13 -13    2.71    2.40 
  13 -10  13    5.22    3.35 
  10  13 -13    4.48    3.52 
 -13  10 -13    7.69    4.61 
  10  13  13   -0.51    2.60 
  13 -10  15   -2.43    2.52 
 -13  10 -15    5.11    3.21 
  10  13  15    1.30    1.90 
   9  13   0   -2.49    5.64 
   9  13   0   -1.43    5.00 
 -13   9   0    0.08    4.79 
   9  13   0   -1.53    5.20 
   9  13   0    2.63    5.35 
 -13   9   0    0.03    5.17 
   9  13  -2   58.67    9.60 
   9  13  -2   74.19   11.59 
   9  13   2   77.81   11.10 
  13  -9   2   50.86    9.19 
   9  13   2   58.63    9.77 
 -13   9  -2   46.30   10.01 
 -13   9   2   41.57    9.66 
 -13   9   2   54.33   10.31 
   9  13   2   50.15    8.51 
 -13   9  -2   60.06   11.30 
   9  13  -2   52.13    9.61 
   9  13  -2   89.79   12.91 
   9  13   2   57.93   10.38 
   9  13  -4   -3.74    4.79 
   9  13   4    6.83    5.57 
  13  -9   4    1.42    4.61 
   9  13  -4    0.64    4.28 
   9  13   4   -8.92    5.21 
 -13   9   4   -3.08    4.39 
 -13   9  -4    5.53    6.47 
   9  13  -4   -2.12    5.02 
   9  13   4   -8.46    5.82 
   9  13  -6  139.39   14.29 
   9  13   6  136.10   14.43 
   9  13  -6  119.29   12.36 
  13  -9   6  135.26   14.88 
 -13   9   6  105.60   12.45 
 -13   9  -6  126.11   15.50 
   9  13   6  133.87   13.58 
   9  13  -6  142.89   15.32 
   9  13  -8    0.39    3.31 
   9  13   8   11.08    7.06 
  13  -9   8   -2.03    5.03 
   9  13  -8    2.87    4.21 
 -13   9   8    0.20    3.60 
 -13   9  -8   -9.43    6.60 
   9  13  -8    8.41    5.74 
   9  13   8   10.22    5.66 
   9  13 -10   -0.70    3.75 
  13  -9  10   -4.22    4.45 
   9  13 -10   -3.34    3.78 
 -13   9  10    7.40    4.59 
 -13   9 -10   -7.65    5.67 
   9  13 -10    3.40    4.58 
   9  13  10    4.73    4.57 
   9  13 -12   -2.55    3.99 
   9  13 -12    1.06    2.90 
  13  -9  12   -4.60    3.54 
 -13   9 -12    2.94    4.04 
   9  13 -12    3.05    3.59 
   9  13  12    1.15    3.16 
  13  -9 -14   22.11    4.81 
   9  13 -14   23.69    5.24 
  13  -9  14   22.64    5.72 
   9  13 -14   12.19    4.10 
   9  13 -14   28.57    5.37 
 -13   9 -14   17.20    5.78 
   9  13  14   28.78    4.99 
  13  -9  16   -2.09    2.19 
 -13   9 -16    2.51    3.22 
   9  13  16   -2.60    2.46 
   8  13   1   73.69   10.94 
   8  13  -1   71.12   10.69 
  13  -8   1   63.76   10.09 
   8  13   1   73.93   11.03 
   8  13  -1   73.89   11.06 
 -13   8  -1   53.19   10.20 
 -13   8   1   49.92    9.15 
 -13   8   1   73.33   11.65 
 -13   8  -1   67.45   11.54 
   8  13   1   75.10   11.12 
   8  13  -1   72.24   11.13 
   8  13  -1   93.46   12.79 
   8  13   1   83.55   11.62 
   8  13   3   14.25    6.42 
   8  13  -3   24.43    6.46 
   8  13  -3   26.25    8.06 
   8  13   3   10.46    5.41 
  13  -8   3   25.54    7.78 
   8  13   3   27.52    7.43 
 -13   8   3   10.19    6.15 
 -13   8  -3   13.11    7.44 
   8  13  -3   25.82    8.20 
   8  13  -3   37.49    9.49 
   8  13   3   16.33    6.49 
   8  13   5   14.19    6.74 
   8  13  -5   13.73    5.75 
   8  13  -5   20.34    6.66 
  13  -8   5    8.02    5.79 
   8  13   5   28.94    8.52 
 -13   8  -5   21.70    8.73 
   8  13  -5    3.97    5.39 
   8  13   5    9.44    5.60 
 -13   8   5   11.72    5.89 
   8  13  -7   73.09   10.30 
   8  13  -7   67.69   10.30 
   8  13   7   74.99   11.37 
  13  -8   7   53.05   10.27 
 -13   8  -7   57.67   11.58 
 -13   8   7   58.33   10.23 
   8  13  -7   62.47   11.28 
   8  13   7   68.58   10.49 
   8  13  -9   12.24    6.23 
   8  13   9   28.38    8.33 
  13  -8   9   15.94    7.07 
   8  13  -9   16.04    5.37 
 -13   8   9   12.08    4.79 
 -13   8  -9   10.74    6.18 
   8  13  -9   17.48    6.63 
   8  13   9   12.91    5.05 
  13  -8  11    3.74    4.77 
   8  13 -11    2.12    3.84 
   8  13 -11   -3.78    3.74 
 -13   8  11    3.53    4.42 
   8  13 -11    3.74    4.49 
 -13   8 -11   10.54    6.81 
   8  13  11   -2.26    4.38 
   8  13 -13    2.63    2.70 
   8  13 -13   15.88    5.32 
  13  -8  13   17.88    5.88 
 -13   8 -13    8.83    5.79 
   8  13 -13   11.08    5.13 
   8  13  13   12.25    4.94 
   8  13 -15    8.78    3.61 
   8  13 -15    2.81    3.11 
  13  -8  15    8.11    4.34 
 -13   8 -15   14.22    5.33 
   8  13  15    5.78    3.34 
  13  -8  17    0.62    2.42 
   8  13 -17    0.68    1.73 
 -13   8 -17    0.41    3.31 
   8  13  17   -2.45    2.53 
   7  13   0    7.27    5.55 
   7  13   0   -6.41    5.79 
 -13   7   0   -5.99    6.24 
   7  13   0   -2.43    5.64 
   7  13   0    0.85    5.09 
   7  13  -2    5.19    4.86 
   7  13   2   10.53    5.97 
   7  13  -2   14.09    6.40 
  13  -7   2    4.47    5.11 
   7  13   2    2.62    5.12 
 -13   7   2   10.65    5.80 
 -13   7  -2   18.71    8.21 
   7  13  -2    8.83    7.04 
   7  13   2   12.12    6.43 
   7  13  -2    7.40    5.02 
   7  13   2    9.85    6.23 
   7  13  -4   92.45   11.94 
   7  13   4   89.07   12.42 
   7  13  -4   99.82   12.62 
   7  13   4  103.28   13.32 
  13  -7   4   80.80   12.82 
 -13   7   4   87.54   11.92 
 -13   7  -4  103.39   15.42 
   7  13  -4  100.40   13.92 
   7  13   4  103.59   12.97 
   7  13  -4   98.43   13.50 
   7  13  -6    2.92    4.39 
   7  13  -6   10.83    5.26 
  13  -7   6    7.83    6.34 
   7  13   6   11.20    6.55 
 -13   7  -6    3.92    6.41 
   7  13  -6    2.34    4.95 
 -13   7   6   15.81    7.58 
   7  13   6    6.34    4.81 
   7  13  -8   20.14    6.56 
   7  13   8   20.83    6.75 
  13  -7   8   22.63    7.96 
   7  13  -8   22.90    6.40 
 -13   7   8   19.15    6.75 
   7  13  -8   26.18    7.87 
 -13   7  -8   22.10    8.19 
   7  13   8   32.08    7.58 
   7  13 -10   -7.11    5.12 
   7  13 -10    1.45    4.07 
  13  -7  10   -6.75    6.30 
   7  13 -10    0.76    4.89 
 -13   7 -10    5.88    7.24 
   7  13  10    0.77    3.84 
   7  13 -12    9.12    4.29 
   7  13 -12    6.64    4.86 
  13  -7  12   11.98    5.94 
   7  13 -12   14.83    5.95 
 -13   7 -12   13.35    7.11 
   7  13  12   11.02    5.14 
   7  13 -14   -3.33    2.87 
  13  -7 -14   13.98    4.67 
   7  13 -14   -0.72    2.88 
  13  -7  14    7.28    4.68 
 -13   7 -14    0.14    4.50 
   7  13  14   -0.60    3.25 
   7  13 -14   13.83    4.91 
   7  13 -16   21.05    4.49 
  13  -7  16   11.48    4.65 
 -13   7 -16   15.07    5.91 
   7  13  16    6.94    3.22 
   7  13 -18    0.16    1.95 
  13  -7  18    3.24    2.62 
 -13   7 -18   -0.55    3.36 
   7  13  18   -0.72    2.29 
   6  13   1    9.66    6.35 
   6  13  -1    4.01    5.24 
   6  13   1    7.07    5.11 
   6  13  -1   16.29    6.62 
  13  -6   1    9.75    6.21 
   6  13   1   17.91    7.23 
 -13   6   1    8.60    6.87 
 -13   6  -1    2.70    5.09 
   6  13  -1   13.87    6.87 
   6  13  -1    7.40    5.95 
   6  13   1    2.67    4.74 
   6  13  -3   52.44    9.85 
   6  13   3   52.36    9.65 
  13  -6   3   58.95   11.40 
   6  13   3   63.62   10.35 
   6  13  -3   50.82    9.64 
 -13   6   3   47.38    9.31 
 -13   6  -3   47.55   11.36 
   6  13  -3   66.29   11.56 
   6  13  -3   48.66    9.90 
   6  13   3   61.45   10.17 
   6  13   3   71.14   11.13 
   6  13  -5   24.02    7.29 
   6  13   5   29.60    9.21 
   6  13   5   23.74    7.57 
   6  13  -5   12.62    5.68 
  13  -6   5   27.09    8.66 
 -13   6   5   25.48    6.87 
 -13   6  -5   23.82    7.60 
   6  13  -5   18.35    7.04 
   6  13   5   23.30    7.36 
   6  13  -7   53.29    9.97 
   6  13  -7   55.16    9.89 
  13  -6   7   47.57   10.14 
   6  13   7   53.38   10.06 
   6  13  -7   56.63   10.53 
 -13   6  -7   63.66   12.81 
   6  13   7   61.14   10.24 
   6  13  -9   62.58   10.33 
   6  13   9   69.05   11.33 
   6  13  -9   47.79    9.12 
  13  -6   9   47.18   11.01 
   6  13  -9   58.10   10.30 
 -13   6  -9   52.68   11.53 
   6  13   9   69.49   10.69 
   6  13 -11   20.62    6.67 
   6  13 -11   12.62    5.73 
  13  -6  11   22.13    7.55 
   6  13 -11   22.73    6.98 
 -13   6 -11   13.53    7.50 
   6  13  11   35.88    8.26 
   6  13 -13    7.39    4.88 
   6  13 -13    2.94    3.54 
  13  -6  13    3.83    5.05 
   6  13 -13    9.19    5.56 
 -13   6 -13    2.86    5.16 
   6  13  13    4.20    4.85 
   6  13 -15    6.27    4.26 
  13  -6  15    1.75    3.48 
  13  -6 -15    4.47    3.34 
 -13   6 -15    0.10    4.53 
   6  13  15    0.16    3.04 
   6  13 -17   10.92    3.46 
  13  -6  17    9.22    4.15 
 -13   6 -17    7.82    5.11 
   6  13  17   10.71    3.61 
   6  13 -19    3.52    2.21 
 -13   6 -19    2.57    3.16 
   6  13  19    1.37    2.31 
   5  13   0   -2.45    7.70 
  13  -5   0   12.42   11.20 
 -13   5   0   -7.26   11.97 
   5  13   0    0.26    4.87 
   5  13   0   -1.68    5.17 
  13  -5   0    3.91    5.41 
   5  13   0    9.61    7.27 
 -13   5   0   -6.40    6.51 
   5  13   0   -3.60    5.57 
   5  13   2    3.89    5.19 
   5  13  -2    9.77    5.83 
   5  13  -2   10.07    5.60 
   5  13   2    8.73    5.98 
  13  -5   2    0.19    5.24 
 -13   5   2   11.32    6.45 
   5  13  -2    5.09    5.96 
 -13   5  -2    2.59    5.43 
   5  13   2    6.79    6.56 
   5  13  -2   14.20    6.25 
   5  13   2    4.38    5.61 
   5  13  -4    7.30    5.47 
   5  13  -4    4.76    5.69 
   5  13   4   14.40    6.45 
  13  -5   4   13.71    6.97 
   5  13   4   12.41    6.92 
   5  13  -4    2.55    5.65 
 -13   5  -4    7.27    6.78 
   5  13  -4   16.26    7.83 
   5  13   4   10.46    5.88 
   5  13  -6    1.68    4.48 
   5  13   6    2.09    5.12 
   5  13  -6    0.03    5.25 
  13  -5   6   -2.21    5.72 
   5  13  -6   -3.67    6.42 
 -13   5  -6    1.20    5.97 
   5  13   6   -2.00    4.64 
   5  13  -8   10.31    5.94 
   5  13  -8    9.39    5.52 
  13  -5   8   -1.27    5.72 
   5  13   8    0.46    6.12 
   5  13  -8    8.18    6.63 
 -13   5  -8    1.82    6.51 
   5  13   8    6.95    6.00 
   5  13 -10    5.73    5.23 
   5  13 -10   -2.59    4.73 
   5  13  10    8.81    6.64 
  13  -5  10   -4.77    5.31 
   5  13 -10   -0.59    5.44 
 -13   5 -10    2.29    6.06 
   5  13  10    4.63    4.38 
   5  13 -12   -1.69    4.26 
   5  13 -12    4.15    4.19 
  13  -5  12   -3.25    5.33 
 -13   5 -12   -1.23    5.94 
   5  13 -12    7.46    5.43 
   5  13  12    3.42    4.79 
  13  -5 -14   14.45    5.43 
  13  -5  14   -0.71    3.83 
   5  13 -14    6.65    4.48 
   5  13 -14    3.95    4.43 
 -13   5 -14    7.36    6.00 
   5  13  14   12.72    4.79 
  13  -5  16    1.38    3.85 
   5  13 -16    4.13    4.05 
   5  13 -16    0.52    2.98 
 -13   5 -16    5.87    6.04 
   5  13  16   -0.68    3.21 
  13  -5  18    0.75    2.35 
  13  -5 -18    0.16    1.41 
   5  13 -18    2.79    2.70 
   5  13 -18    0.00    1.94 
 -13   5 -18    2.21    3.71 
   5  13  18    5.45    3.67 
   5  13 -20    0.77    1.69 
 -13   5 -20    3.34    2.57 
   5  13  20    1.25    2.15 
   4  13  -1   -2.70    9.09 
   4  13   1   -8.58   10.27 
  13  -4  -1    2.99    9.65 
 -13   4   1  -11.18   12.55 
   4  13   1    5.36    6.13 
  13  -4  -1    0.24    4.80 
   4  13  -1   -0.39    5.44 
  13  -4   1   -0.48    5.08 
   4  13   1   -3.70    6.35 
   4  13  -1    2.30    5.17 
   4  13  -1    6.15    6.81 
 -13   4  -1    7.82    6.36 
   4  13  -1    2.44    5.67 
   4  13   1   -4.02    5.25 
   4  13   1    7.44    6.48 
 -13   4   3    6.02   12.97 
   4  13   3    0.50   11.29 
  13  -4  -3   14.92   11.05 
   4  13  -3    4.59    4.80 
   4  13  -3    4.28    5.26 
  13  -4   3   -1.74    5.08 
   4  13   3   -0.35    4.62 
   4  13   3    6.68    5.63 
 -13   4  -3   13.12    6.76 
   4  13  -3   -7.98    6.58 
   4  13  -3   -3.59    5.57 
   4  13   3   -2.01    4.85 
   4  13  -5    8.39    5.23 
   4  13  -5   -3.74    5.76 
   4  13   5    1.28    5.07 
  13  -4   5   -1.32    5.34 
   4  13   5   21.68    8.71 
   4  13  -5   -5.64    6.35 
 -13   4  -5    1.40    6.11 
   4  13  -5   24.51    9.18 
   4  13   5   -4.38    4.96 
   4  13  -7   25.57    7.53 
   4  13  -7   25.65    8.45 
  13  -4   7   27.22    8.80 
   4  13   7   23.54    7.77 
 -13   4  -7   24.12    9.35 
   4  13  -7    8.93    7.20 
   4  13   7   14.12    6.14 
   4  13  -9   40.72    9.48 
   4  13  -9   41.67    8.00 
   4  13   9   32.40    7.80 
  13  -4   9   33.01    9.12 
   4  13  -9   32.56    7.80 
 -13   4  -9   43.17   11.06 
   4  13   9   47.32    9.52 
  13  -4  11    3.49    6.52 
   4  13 -11  -11.61    5.75 
   4  13 -11    1.39    3.75 
 -13   4 -11   -6.62    7.92 
   4  13  11   -2.40    5.12 
   4  13 -11   11.91    6.20 
  13  -4 -13    6.27    5.65 
  13  -4  13   -1.54    4.36 
   4  13 -13    5.18    4.09 
   4  13 -13    4.70    4.19 
 -13   4 -13    3.48    6.15 
   4  13  13    1.15    3.84 
  13  -4 -15    7.85    4.59 
  13  -4  15    3.21    3.93 
   4  13 -15    4.26    4.63 
   4  13 -15    7.56    4.36 
 -13   4 -15   -2.28    5.30 
   4  13  15    2.44    3.94 
  13  -4  17   14.30    5.44 
   4  13 -17   16.84    5.21 
   4  13 -17    7.91    4.68 
 -13   4 -17   17.47    6.83 
   4  13  17   23.06    5.85 
  13  -4 -19    6.19    4.00 
   4  13 -19   14.55    3.81 
   4  13 -19    4.27    2.74 
 -13   4 -19    8.42    4.71 
   4  13  19   12.64    3.85 
   3  13   0    0.57    8.36 
   3  13   0   -0.56    5.36 
  13  -3   0   -5.28    6.76 
   3  13   0   -2.27    6.01 
   3  13   0    5.45    5.56 
   3  13   0   15.32    8.62 
 -13   3   2    6.60   11.92 
   3  13   2   10.40   12.17 
  13  -3  -2   17.25   12.93 
   3  13  -2   16.09    5.70 
   3  13   2    5.80    5.77 
  13  -3  -2   15.83    7.90 
   3  13   2   15.08    7.02 
  13  -3   2   10.15    5.91 
   3  13  -2   12.66    6.11 
   3  13  -2    9.92    5.78 
   3  13   2   14.35    6.84 
   3  13  -2   22.05    8.18 
  13  -3  -4   11.83   10.83 
   3  13   4   -8.73   10.90 
 -13   3   4   11.79   13.31 
   3  13  -4   10.46    6.29 
   3  13  -4   18.60    7.60 
  13  -3   4   -4.86    5.34 
   3  13   4    4.91    4.77 
   3  13   4   27.78    9.50 
   3  13  -4    7.40    7.04 
 -13   3  -4   -0.77    5.91 
   3  13  -4   10.97    6.40 
   3  13   4    0.09    4.75 
   3  13  -6    7.38    5.71 
   3  13   6   -0.33    4.75 
   3  13  -6    0.11    4.48 
  13  -3   6    0.84    5.25 
 -13   3  -6    0.28    6.40 
   3  13   6    4.09    5.04 
   3  13  -6    9.53    6.58 
  13  -3   8    1.94    5.05 
   3  13   8    3.07    5.01 
   3  13  -8   -0.84    4.39 
   3  13  -8    8.61    6.14 
 -13   3  -8   20.84    9.15 
   3  13  -8    6.97    5.76 
   3  13   8    5.21    4.94 
   3  13  10    7.58    6.56 
  13  -3  10   -1.90    4.96 
   3  13 -10   -2.11    4.44 
   3  13 -10   14.98    6.37 
   3  13  10   -5.94    4.89 
 -13   3 -10   -1.05    6.44 
   3  13 -10   11.60    6.24 
  13  -3 -12    4.25    4.91 
  13  -3  12    5.17    5.09 
   3  13 -12    3.04    4.84 
   3  13 -12    5.06    4.33 
   3  13  12    2.20    4.35 
   3  13  12    1.77    4.11 
 -13   3 -12    8.02    6.97 
  13  -3  14   16.24    6.44 
  13  -3 -14   16.53    6.12 
   3  13 -14   23.11    6.67 
   3  13 -14   16.85    5.85 
   3  13  14   16.24    6.35 
 -13   3 -14   20.19    8.09 
   3  13  14   24.12    6.69 
  13  -3  16    0.02    3.27 
  13  -3 -16   -1.18    3.00 
   3  13 -16    7.74    5.04 
   3  13  16    2.86    3.83 
   3  13 -16    4.49    3.97 
 -13   3 -16   -3.67    5.78 
   3  13  16   -0.40    4.31 
  13  -3  18   -1.99    2.75 
  13  -3 -18   -0.05    4.19 
   3  13 -18    5.08    3.90 
   3  13  18   -1.41    2.11 
   3  13 -18    0.93    3.70 
 -13   3 -18    9.20    5.90 
   3  13  18    0.54    3.16 
  13  -3 -20    0.78    2.72 
   3  13 -20   -3.83    2.53 
   3  13 -20    0.66    2.05 
 -13   3 -20    2.83    3.76 
   3  13  20    2.51    2.53 
   2  13  -1   16.61   11.66 
   2  13  -1    7.21    6.09 
   2  13   1   18.36    7.39 
   2  13  -1   17.25    7.28 
  13  -2  -1   15.23    6.81 
  13  -2   1   11.60    6.82 
   2  13   1   13.64    5.82 
   2  13  -1   11.23    4.74 
   2  13   1    8.08    4.70 
  13  -2  -3    3.02    8.83 
   2  13   3   -9.19   10.94 
 -13   2   3   -7.62   13.79 
   2  13  -3    7.49    6.18 
   2  13   3    2.77    5.13 
   2  13   3   15.54    7.92 
  13  -2   3    2.28    4.99 
   2  13  -3    2.60    4.90 
  13  -2  -3    3.01    5.34 
   2  13   3   12.16    6.22 
   2  13  -3   14.22    8.41 
   2  13  -5    2.92    4.32 
  13  -2  -5   -6.56    9.70 
   2  13   5    0.35    7.94 
   2  13   5   17.17    9.58 
  13  -2   5    2.25    4.99 
   2  13   5   -5.30    4.86 
   2  13  -5   18.53    7.65 
  13  -2   7   17.64    7.50 
   2  13   7   18.29    6.99 
   2  13  -7   15.57    6.63 
   2  13  -7   13.76    6.10 
   2  13  -7   28.91    8.18 
 -13   2  -7   22.00    9.31 
   2  13   7   13.98    5.48 
  13  -2   9   10.34    6.53 
   2  13   9    3.88    4.98 
   2  13  -9   11.63    6.30 
   2  13   9   11.45    6.04 
   2  13  -9    4.34    4.52 
   2  13   9    9.75    5.81 
 -13   2  -9    1.55    6.51 
  13  -2 -11    8.29    6.96 
  13  -2  11    3.48    4.74 
   2  13 -11    0.68    5.06 
   2  13 -11    9.69    6.10 
   2  13  11    1.66    4.62 
   2  13  11   -0.89    4.19 
 -13   2 -11    6.28    6.11 
   2  13 -13   68.35   12.03 
  13  -2 -13   42.32    8.90 
  13  -2  13   44.23    9.43 
   2  13 -13   50.12    9.77 
   2  13  13   51.54    9.91 
   2  13  13   43.61    9.02 
 -13   2 -13   49.92   11.92 
  13  -2  15   28.79    7.49 
  13  -2 -15   45.30    7.79 
   2  13 -15   51.36    9.20 
   2  13 -15   44.49    8.63 
   2  13  15   40.00    8.07 
 -13   2 -15   45.77   10.36 
  13  -2  17   10.69    5.03 
  13  -2 -17   18.22    6.32 
   2  13 -17   14.71    5.34 
   2  13 -17   11.14    5.55 
   2  13  17   16.55    6.18 
 -13   2 -17   23.17    8.47 
   2  13  17   19.47    6.14 
  13  -2 -19    1.05    3.59 
   2  13 -19    2.33    2.95 
   2  13  19   -0.47    2.84 
   2  13 -19    2.77    3.23 
 -13   2 -19   -2.34    5.15 
   2  13  19    0.91    2.98 
   2  13 -21    9.39    2.54 
   2  13  21    1.38    2.45 
   1  13   0   -0.34    6.98 
   1  13   0    1.69    4.81 
  13  -1   0   -1.73    5.99 
   1  13   0    1.75    5.44 
   1  13  -2   15.69   10.69 
   1  13   2    8.68    9.70 
   1  13  -2    4.03    4.49 
   1  13   2   23.71    9.06 
  13  -1   2   16.26    7.62 
  13  -1  -2    6.60    5.43 
   1  13   2   17.03    6.13 
   1  13   2   13.98    5.49 
  13  -1  -4    9.21    4.62 
  13  -1   4   12.96    7.11 
   1  13   4   10.92    5.60 
 -13   1   4   33.74   17.76 
  13  -1  -4   13.39    8.83 
   1  13   4    8.94   11.85 
   1  13  -4   20.46    7.33 
   1  13  -4   11.15    5.81 
   1  13   4    8.71    5.91 
   1  13   4   15.63    5.53 
   1  13   6   27.33    7.90 
  13  -1   6   14.88    6.44 
   1  13  -6    4.95    4.91 
  13  -1  -6    7.94    8.91 
   1  13   6   12.81   13.31 
 -13   1   6    9.67   12.23 
   1  13  -6   16.62    6.68 
   1  13   6   22.79    7.01 
   1  13   6   26.40    6.98 
  13  -1   8    7.53    5.13 
   1  13   8    9.55    5.32 
   1  13  -8    2.55    4.47 
   1  13   8    4.80    4.90 
   1  13  -8    8.90    5.47 
   1  13   8    2.15    4.83 
  13  -1 -10  -11.29    5.53 
   1  13  10   12.35    7.84 
  13  -1  10   -8.82    5.36 
  13  -1 -10    0.78    4.89 
   1  13 -10   -7.41    5.48 
   1  13  10    1.23    4.22 
   1  13 -10    4.86    5.36 
   1  13  10    0.33    4.06 
 -13   1 -10   11.64    6.63 
  13  -1  12   31.12    8.07 
  13  -1 -12   43.52    9.39 
   1  13 -12   55.74   10.69 
   1  13  12   29.80    7.93 
 -13   1 -12   39.06   10.56 
   1  13  12   69.47   12.68 
  13  -1 -14   29.89    7.27 
  13  -1  14   26.00    7.93 
  13  -1 -14   44.47    9.35 
   1  13 -14   42.69    8.86 
   1  13 -14   48.60    9.49 
   1  13  14   46.02   10.04 
   1  13  14   37.83    8.54 
 -13   1 -14   34.97   10.61 
  13  -1  16   -0.47    3.45 
  13  -1 -16    3.51    5.43 
   1  13 -16    3.51    4.77 
   1  13 -16    1.72    4.20 
   1  13  16    3.46    4.69 
   1  13  16    4.16    4.23 
 -13   1 -16   -4.01    5.77 
  13  -1 -16   -1.54    3.40 
  13  -1 -18    1.11    3.59 
   1  13 -18    0.69    3.12 
   1  13 -18   -4.39    3.62 
   1  13  18    4.39    4.37 
 -13   1 -18   -6.01    5.56 
   1  13  18    1.87    3.77 
  13  -1 -20   -1.28    2.71 
   1  13 -20   -0.46    2.41 
   1  13  20    5.91    3.76 
   1  13 -20    0.84    2.62 
 -13   1 -20    0.31    4.51 
   1  13  20    1.07    2.75 
  13   0  -1   30.20    8.52 
  13   0   1   37.80    9.71 
   0  13  -1   30.44    6.94 
   0  13   1   27.42    7.20 
   0  13  -1   25.52    7.56 
   0  13  -1   33.39   12.64 
   0  13   1   31.85   13.03 
  13   0  -3   71.13   11.01 
  13   0   3   79.11   12.18 
   0  13   3   74.17   10.56 
   0  13   3   83.31   20.34 
   0  13  -3   70.75   10.48 
   0  13  -3   62.55   10.30 
   0  13   5   89.03   11.93 
  13   0   5  104.91   13.45 
   0  13  -5   96.24   12.10 
   0  13   5  106.66   23.58 
   0  13   5  102.86   12.99 
   0  13  -5   99.06   13.14 
   0  13   5   77.22   10.61 
  13   0   7    5.85    5.38 
  13   0  -7    7.28    6.13 
   0  13   7    5.07    5.95 
   0  13  -7    0.83    4.97 
  13   0  -7    8.67    8.71 
 -13   0   7   -7.91   12.73 
   0  13  -7    1.09    5.05 
   0  13   7   11.08    6.32 
   0  13   7   -0.52    4.70 
   0  13   9   89.41   11.96 
   0  13  -9   91.16   12.36 
  13   0  -9   70.07   10.63 
  13   0   9   85.04   12.16 
   0  13   9   87.54   12.23 
   0  13  -9   97.91   13.31 
   0  13   9   77.87   11.45 
  13   0  -9   92.29   13.11 
  13   0 -11  120.94   14.43 
   0  13 -11  154.22   16.07 
  13   0  11  131.85   14.78 
 -13   0 -11  111.35   16.05 
   0  13  11  140.36   15.81 
   0  13 -11  144.43   15.81 
   0  13  11  126.52   14.37 
  13   0 -11  128.99   14.88 
  13   0  13    9.70    6.08 
  13   0 -13   12.82    6.00 
  13   0 -13   15.06    6.34 
   0  13 -13   13.20    6.42 
   0  13 -13   15.77    6.18 
   0  13  13    7.01    5.49 
   0  13  13    8.32    5.60 
 -13   0 -13    5.29    8.43 
  13   0  15    9.11    5.29 
  13   0 -15   20.46    7.29 
  13   0 -15    9.74    4.75 
   0  13 -15   17.16    6.26 
   0  13 -15    8.95    5.64 
   0  13  15    7.22    6.03 
   0  13  15    3.58    6.40 
 -13   0 -15   15.45    9.81 
  13   0  17   24.44    6.18 
  13   0 -17   28.40    7.25 
   0  13 -17   31.62    6.40 
   0  13 -17   25.12    6.62 
   0  13  17   19.88    7.80 
   0  13  17   20.40    6.79 
 -13   0 -17   24.75    8.55 
  13   0 -19   11.12    5.30 
   0  13 -19   13.61    3.93 
   0  13 -19   14.16    4.83 
   0  13  19    8.31    4.92 
   0  13  19   11.19    3.92 
 -13   0 -19   19.31    6.79 
  13   0 -21    0.92    2.26 
   0  13  21    1.10    2.35 
   0  13 -21   -0.18    1.93 
   0  13  21    0.13    1.89 
  13   1   0    6.10    5.71 
  13   1   0   -0.46    5.93 
  -1  13   0   -0.71    4.98 
  -1  13   0   12.63    8.21 
  -1  13   0    6.71   10.10 
  13   1   2    7.26    5.09 
  13   1  -2    8.71    5.34 
  13   1  -2   -4.04    5.69 
  -1  13   2   -0.89    4.85 
  13   1   2   10.34    6.63 
  -1  13  -2   -3.74    7.86 
  -1  13   2   -4.24    7.40 
  -1  13  -2    2.53    5.09 
  -1  13   2   -0.17    4.83 
  -1  13  -2    1.49    5.37 
  -1  13  -4  133.30   13.98 
  13   1  -4  115.16   13.39 
  13   1   4  154.48   16.19 
  -1  13   4  135.98   26.09 
  -1  13  -4  145.35   15.81 
  13   1  -4  130.71   15.77 
  13   1  -6   61.43   10.49 
  13   1   6   49.34    9.86 
  -1  13  -6   52.48   10.56 
  -1  13   6   15.90   10.98 
  -1  13  -6   49.92   10.46 
  -1  13   6   52.69    8.88 
  -1  13   6   48.02    9.85 
  13   1  -8   36.70    8.67 
  13   1   8   34.36    8.60 
  13   1  -8   38.73    8.39 
  -1  13  -8   46.72    9.24 
  -1  13  -8   50.67    9.83 
  -1  13   8   41.24    9.39 
  -1  13   8   42.27    8.72 
  -1  13   8   36.55    7.91 
  13   1  10    4.53    4.80 
  13   1 -10   -3.19    4.43 
  13   1 -10    0.72    5.21 
  -1  13 -10    5.55    5.25 
  -1  13  10    6.53    6.12 
  -1  13 -10   -0.06    5.33 
  -1  13  10    4.07    4.43 
  13   1 -12   26.92    7.51 
  13   1 -12   26.08    6.95 
  -1  13 -12   20.73    6.76 
  -1  13  12   21.01    7.56 
  -1  13 -12   26.50    8.14 
  -1  13  12   16.80    6.25 
  13   1  14    7.59    4.95 
  13   1 -14   12.79    6.13 
  13   1 -14   14.30    5.63 
  -1  13 -14   10.82    5.48 
  -1  13 -14   11.01    6.16 
  -1  13  14    6.01    5.53 
  -1  13  14    0.80    4.52 
 -13  -1 -14   14.97    7.89 
  13   1  16   24.46    6.59 
  13   1 -16   32.33    7.84 
  -1  13 -16   34.29    7.39 
  -1  13 -16   22.00    6.47 
  -1  13  16   31.22    8.43 
  -1  13  16   18.44    6.54 
 -13  -1 -16   33.23   10.56 
  13   1 -16   30.72    6.21 
  13   1 -18    5.82    4.21 
  -1  13 -18    1.47    3.28 
  -1  13 -18   -1.99    3.59 
  -1  13  18   -1.75    4.16 
  -1  13  18   -0.87    3.03 
 -13  -1 -18    3.20    6.47 
  13   1 -20    4.97    4.24 
  -1  13 -20    9.66    2.94 
  -1  13  20    4.80    3.53 
  -1  13 -20    3.52    3.19 
  -1  13  20    3.07    3.00 
  13   2  -1   61.79   10.17 
  13   2  -1   54.26   10.69 
  13   2   1   67.81   11.29 
  13   2   1   56.64    9.93 
  -2  13  -1   45.07   16.51 
  -2  13   1   44.66   14.23 
  -2  13   1   60.20   10.49 
  -2  13  -1   58.26   10.87 
  13   2  -3   12.19    6.25 
  13   2  -3   21.14    7.83 
  13   2   3   20.74    8.14 
  -2  13  -3    9.43    7.17 
  -2  13   3   22.00   12.68 
  -2  13   3   16.79    7.00 
  -2  13  -3   14.03    7.94 
  -2  13   3    6.13    5.16 
  13   2  -5  118.56   14.20 
  13   2   5  142.03   15.67 
  -2  13   5  120.60   25.60 
  -2  13   5  111.52   13.07 
  -2  13   5  126.09   14.85 
  -2  13   5  109.34   13.02 
  -2  13  -5  135.69   15.59 
  13   2  -5  133.44   15.41 
  -2  13  -7  180.65   15.91 
  13   2   7  184.27   17.45 
  13   2  -7  184.47   16.06 
  -2  13   7  185.06   16.71 
  -2  13   7  199.82   18.16 
  -2  13  -7  211.37   19.37 
  13   2  -7  202.56   18.61 
  13   2   9   23.89    7.21 
  13   2  -9   18.43    6.17 
  13   2  -9   25.67    7.64 
  -2  13  -9   26.54    7.60 
  -2  13  -9    8.05    5.20 
  -2  13   9   20.16    6.20 
  -2  13   9   24.46    7.71 
  13   2  11    0.81    4.52 
  13   2 -11   19.78    7.28 
  13   2 -11    7.47    5.75 
  -2  13 -11    2.12    4.48 
  -2  13  11   10.48    6.11 
  -2  13 -11    4.41    5.27 
  -2  13  11    6.04    4.42 
  13   2  13   24.01    8.07 
  13   2 -13   20.35    7.40 
  -2  13 -13   30.71    6.63 
  -2  13  13   40.71    9.05 
  -2  13 -13   21.32    7.63 
  -2  13  13   24.27    7.78 
  13   2 -13   32.37    7.72 
  13   2  15   13.98    6.16 
  13   2 -15   21.04    7.01 
  -2  13 -15   30.55    6.95 
  -2  13 -15   18.86    6.97 
  -2  13  15   23.48    7.40 
  13   2 -15   20.75    5.91 
  13   2 -17    6.83    4.07 
  -2  13 -17    2.81    3.06 
  -2  13 -17   -0.56    3.39 
  -2  13  17   -1.23    4.14 
  -2  13  17    0.23    3.00 
 -13  -2 -17   -6.14    6.93 
  13   2 -19    0.54    3.49 
  -2  13 -19   -2.35    2.71 
  -2  13 -19   -2.22    3.42 
  -2  13  19    4.67    3.97 
  -2  13  19    2.68    3.01 
 -13  -2 -19    9.97    6.70 
  13   2 -21    7.36    3.17 
  -2  13  21    6.48    3.66 
  -2  13 -21    6.08    3.08 
  13   3   0    7.49    6.94 
  13   3   0   10.10    5.58 
  -3  13   0    4.10    6.12 
  -3  13   0   -5.17    5.07 
  13   3  -2   65.84   11.54 
  13   3   2   94.90   13.86 
  13   3   2   68.63   10.78 
  -3  13  -2   54.07   17.22 
  -3  13   2   64.89   20.11 
  -3  13   2   95.85   12.96 
  -3  13  -2   91.15   14.09 
  13   3  -2   88.37   12.51 
  -3  13   2   77.39   11.11 
  13   3   4    5.90    5.60 
  13   3  -4   22.09    7.32 
  13   3  -4   10.50    5.73 
  -3  13   4    3.66    9.12 
  -3  13   4    7.79    5.85 
  -3  13  -4   10.75    6.91 
  -3  13   4    5.19    5.44 
  13   3  -6  249.30   17.96 
  13   3  -6  236.61   18.11 
  13   3   6  292.98   22.15 
  -3  13   6  241.24   19.65 
  -3  13   6  288.05   21.23 
  -3  13   6  274.32   20.79 
  -3  13  -6  291.61   22.59 
  13   3  -6  270.14   21.42 
  13   3   8    3.46    5.33 
  13   3  -8    0.79    4.39 
  13   3  -8    1.88    4.90 
  -3  13   8   13.53    5.41 
  -3  13  -8    7.33    6.48 
  -3  13   8    2.62    5.35 
  -3  13   8    6.11    5.04 
  13   3  10   14.18    6.10 
  13   3 -10   14.32    6.13 
  13   3 -10   19.73    7.46 
  -3  13 -10   15.46    7.33 
  -3  13  10    9.40    5.08 
  -3  13  10   14.48    6.58 
  13   3  12    1.50    4.13 
  13   3 -12   -0.45    4.63 
  -3  13 -12    6.90    5.64 
  -3  13  12    7.84    5.77 
  -3  13 -12    0.79    5.01 
  13   3 -12   -3.12    4.79 
  13   3  14   40.28    8.75 
  13   3 -14   46.42    8.59 
  -3  13 -14   57.10    8.43 
  -3  13 -14   57.05    9.83 
  -3  13  14   67.45   10.73 
  13   3 -14   63.84    9.85 
  13   3 -16    3.61    4.18 
  -3  13 -16    4.53    3.17 
  -3  13 -16    2.47    4.17 
  -3  13  16   12.97    5.72 
  -3  13  16    1.31    2.92 
  13   3 -16    4.02    3.78 
  13   3 -18    0.35    3.42 
  -3  13 -18   -0.30    2.29 
  -3  13 -18    1.72    3.10 
  -3  13  18   -1.92    3.99 
  -3  13  18   -0.71    2.32 
  13   3 -20   -0.91    2.61 
  -3  13 -20    1.42    2.43 
  -3  13  20    0.96    3.03 
  13   4  -1   25.93    8.08 
  13   4   1   28.52    8.83 
  13   4  -1   24.35    7.45 
  13   4   1   26.94    7.73 
  -4  13   1   32.51   16.85 
  -4  13  -1   21.56   11.30 
  -4  13   1   31.70    9.26 
  -4  13  -1   17.04    7.45 
  -4  13   1   16.63    7.43 
  -4  13  -1   18.25    6.02 
  13   4  -3   78.64   11.92 
  13   4   3  105.14   13.69 
  -4  13   3   62.78   19.26 
  -4  13  -3   63.47   19.56 
  -4  13   3   96.75   13.09 
  -4  13  -3   92.98   13.75 
  -4  13   3  100.85   12.64 
  -4  13  -3  112.22   14.07 
  13   4  -3  104.59   13.64 
  13   4  -5   68.36    9.92 
  13   4  -5   77.23   11.62 
  13   4   5  103.44   13.98 
  13   4  -5   89.85   12.25 
  -4  13   5   77.63   11.82 
  -4  13  -5   82.02   12.64 
  -4  13   5   74.43   11.80 
  13   4   7    2.27    4.99 
  13   4  -7    0.60    4.88 
  13   4  -7    9.67    5.69 
  -4  13   7    7.43    5.12 
  -4  13  -7    4.38    5.26 
  -4  13   7    8.34    6.30 
  -4  13   7    7.95    5.58 
  13   4   9    4.53    5.29 
  13   4  -9   -2.14    4.72 
  -4  13  -9    9.66    7.13 
  -4  13   9    1.37    5.55 
  -4  13   9   -0.33    4.84 
  13   4  -9    6.13    4.63 
  13   4  11   26.97    8.80 
  13   4 -11   39.24    8.66 
  -4  13  11   35.53    8.48 
  -4  13 -11   35.25    8.52 
  -4  13  11   47.20    9.73 
  13   4 -11   34.27    8.13 
  13   4  13   33.19    8.23 
  13   4 -13   39.16    8.08 
  -4  13  13   51.52    9.89 
  -4  13 -13   44.77    8.78 
  13   4 -13   46.16    9.11 
  13   4 -15    4.23    3.65 
  -4  13 -15    8.57    5.74 
  -4  13  15    0.01    4.66 
  13   4 -15    1.63    3.40 
  13   4 -17   12.72    4.72 
  -4  13 -17   12.97    5.21 
  -4  13  17    8.64    4.89 
  13   4 -17    3.27    2.76 
  13   4 -19    1.05    2.78 
  -4  13 -19    0.63    2.55 
  -4  13  19    5.14    3.90 
  13   5   0    4.08    5.61 
  -5  13   0    6.25    5.86 
  13   5   0    0.38    4.70 
  -5  13   0    2.22    5.68 
  13   5  -2   -1.25    3.89 
  13   5   2   -2.93    5.26 
  13   5  -2    3.55    4.92 
  -5  13   2    1.80    6.04 
  -5  13  -2   -1.95    6.09 
  -5  13  -2   -7.65    5.46 
  13   5  -2   -7.24    5.92 
  13   5   2    8.10    6.00 
  -5  13   2   -0.90    5.19 
  13   5  -4  110.09   12.82 
  13   5  -4  117.26   13.88 
  13   5   4  142.92   16.08 
  -5  13   4  130.75   14.96 
  -5  13  -4  126.31   15.35 
  -5  13   4  133.31   15.49 
  -5  13  -4  124.21   15.84 
  13   5  -4  129.91   14.68 
  13   5   6   -0.29    5.01 
  13   5  -6    6.75    4.44 
  -5  13   6   12.07    6.81 
  -5  13   6    5.11    5.07 
  -5  13  -6    1.13    6.18 
  -5  13  -6   15.28    7.27 
  13   5  -6   -0.74    4.70 
  -5  13   6    3.21    5.99 
  13   5   8   29.93    8.47 
  13   5  -8   31.20    7.59 
  -5  13   8   22.26    7.27 
  -5  13  -8   31.10    8.69 
  -5  13   8   15.23    6.61 
  -5  13   8   30.91    8.25 
  -5  13  -8   22.23    8.45 
  13   5  -8   30.16    7.58 
  13   5  10    3.38    5.28 
  13   5 -10    9.04    5.32 
  -5  13  10   -5.62    5.68 
  -5  13 -10    9.87    6.00 
  -5  13  10    4.94    4.68 
  13   5 -10    3.92    4.79 
  13   5 -12   45.79    8.61 
  13   5  12   38.95    8.80 
  -5  13  12   62.83   10.39 
  -5  13 -12   46.86    9.89 
  -5  13  12   58.02   10.22 
  13   5 -12   55.55   10.11 
  13   5 -14    2.07    3.86 
  -5  13 -14    3.59    4.44 
  -5  13  14   -5.83    5.23 
  13   5 -14    3.36    4.18 
  13   5 -16   13.55    4.72 
  -5  13 -16   13.91    5.54 
  -5  13  16   15.08    5.79 
  13   5 -16   16.15    4.70 
  13   5 -18   -0.55    2.76 
  -5  13 -18   -1.01    3.29 
  -5  13  18    0.82    3.36 
  13   5 -20    0.47    1.83 
  -5  13  20    1.28    2.82 
  13   6   1   53.12   10.31 
  13   6  -1   49.29    8.91 
  13   6  -1   44.99    9.62 
  -6  13   1   36.71    9.12 
  -6  13  -1   47.25   10.40 
  -6  13  -1   39.78    9.33 
  13   6   1   29.19    7.03 
  13   6  -1   46.68    9.47 
  -6  13   1   63.63   12.03 
  13   6  -3   -7.96    4.97 
  13   6  -3   -3.75    4.79 
  13   6   3   -3.23    4.95 
  -6  13   3    0.27    5.58 
  -6  13  -3   -3.64    5.50 
  -6  13   3   -0.20    5.28 
  -6  13  -3    6.96    5.75 
  13   6  -3    4.37    4.84 
  13   6   5   -0.43    5.05 
  13   6  -5    3.93    4.17 
  -6  13   5   -3.94    6.80 
  -6  13  -5   -7.21    5.74 
  -6  13  -5    4.36    4.74 
  -6  13   5    6.94    6.76 
  13   6  -5    1.57    4.37 
  13   6   7    9.77    5.41 
  13   6  -7   -2.00    4.15 
  -6  13   7   11.58    5.93 
  -6  13  -7    7.28    5.81 
  -6  13   7    2.14    4.99 
  -6  13   7    1.91    5.70 
  -6  13  -7    7.21    5.91 
  13   6  -7    7.89    5.84 
  13   6   9    2.19    5.48 
  13   6  -9    0.60    4.59 
  -6  13  -9   -3.64    4.55 
  -6  13   9    2.01    4.86 
  -6  13   9   -1.86    4.67 
  -6  13  -9   -0.22    4.88 
  13   6  -9    2.77    4.93 
  13   6  11    3.11    3.92 
  13   6 -11    4.18    4.30 
  -6  13  11   -1.80    4.55 
  -6  13 -11   -2.46    4.95 
  -6  13  11    3.32    4.60 
  13   6 -11   -2.81    4.34 
  -6  13 -11    3.41    4.64 
  13   6 -13    1.95    4.34 
  -6  13  13    0.65    4.80 
  -6  13 -13    1.92    4.35 
  13   6 -13    5.89    4.61 
  13   6 -15    9.31    3.95 
  -6  13 -15   13.56    5.82 
  -6  13  15   11.38    5.36 
  13   6 -15    6.64    4.13 
  13   6 -17   -0.58    3.02 
  -6  13 -17   -0.17    2.89 
  -6  13  17   -2.32    3.32 
  13   6 -19   -0.39    2.10 
   6 -13  19    0.48    2.27 
  -6  13 -19   -0.77    2.12 
  -6  13  19   -1.07    3.05 
  13   7   0   -4.65    4.53 
  13   7   0    0.84    5.16 
  -7  13   0    3.33    6.36 
  -7  13   0    2.64    5.71 
  13   7   0   -3.88    4.37 
  13   7  -2   36.75    7.83 
  13   7  -2   42.50    9.85 
  13   7   2   42.15    9.75 
  -7  13   2   37.58    9.28 
  -7  13  -2   38.68    9.77 
  -7  13   2   35.24    9.02 
  13   7  -2   43.27    8.72 
  13   7   2   40.78    8.00 
  13   7   2   60.44   11.13 
  -7  13  -2   29.03    9.32 
  13   7  -4   49.24   10.07 
  13   7   4   49.63    9.93 
  -7  13   4   35.86    9.85 
  -7  13  -4   41.44    9.65 
  13   7  -4   46.71   10.06 
  -7  13  -4   35.55    9.46 
  -7  13   4   45.75    9.29 
  13   7  -6   18.88    6.79 
  13   7   6    9.84    5.40 
  -7  13   6   17.00    6.35 
  -7  13   6   13.53    6.36 
  -7  13  -6    5.76    5.25 
  13   7  -6   18.89    7.80 
  -7  13  -6   17.94    8.33 
  -7  13   6   10.85    6.45 
  13   7  -8    2.74    4.02 
  13   7   8   10.20    5.54 
  -7  13  -8   11.42    6.21 
  -7  13   8    4.38    5.80 
  -7  13   8    6.46    5.33 
  -7  13   8    9.58    6.28 
  -7  13  -8    6.63    6.43 
  13   7  -8   11.95    5.59 
  13   7 -10    0.44    3.49 
  13   7  10    1.49    3.78 
  -7  13 -10    6.36    5.82 
  -7  13  10  -14.22    5.97 
  -7  13  10    4.58    4.58 
  -7  13 -10    0.06    4.57 
  13   7 -10    1.19    4.65 
  -7  13  12    2.28    4.45 
  -7  13 -12    2.86    4.20 
  -7  13  12    6.37    4.88 
  -7  13 -12    5.39    4.95 
  13   7 -12    5.91    4.28 
  13   7 -14   26.40    5.77 
  -7  13 -14   22.91    6.20 
  -7  13  14   23.63    6.55 
  13   7 -14   26.38    6.40 
  13   7 -16    3.87    3.26 
  -7  13 -16    2.91    3.19 
  -7  13  16   -1.92    3.76 
  13   7 -16    5.01    2.86 
  13   7 -18   -1.62    2.51 
   7 -13  18   -0.74    3.36 
  -7  13 -18   -0.93    2.31 
  -7  13  18   -0.01    2.79 
  13   8   1   -7.22    5.32 
  13   8  -1    3.45    4.31 
  13   8   1    9.04    6.56 
  -8  13   1    6.53    5.04 
  -8  13  -1    0.34    5.42 
  -8  13   1    1.32    4.76 
  -8  13  -1    1.86    5.55 
  13   8   1    0.16    3.82 
  13   8  -1    4.73    4.70 
  13   8   3   -4.02    4.24 
  13   8  -3    4.32    4.79 
  13   8   3    1.14    4.63 
  -8  13   3    0.68    4.80 
  -8  13  -3    5.41    5.67 
  -8  13  -3   -5.56    7.21 
  -8  13   3    0.75    4.92 
  13   8  -3   -2.47    4.22 
  13   8   3   17.45    8.52 
  13   8  -5   -1.72    4.16 
  13   8   5    0.24    4.16 
  -8  13   5    2.54    6.01 
  -8  13   5    4.71    4.53 
  -8  13  -5   -1.90    5.30 
  -8  13   5    5.07    5.64 
  -8  13  -5    2.26    5.87 
  13   8  -5   -1.60    4.72 
  13   8   5    3.28    4.22 
  13   8  -7    8.13    5.03 
  13   8   7    0.90    4.80 
  -8  13  -7   11.79    7.04 
  -8  13   7   15.58    6.36 
  -8  13   7    0.50    4.32 
  -8  13   7    4.50    5.86 
  -8  13  -7    5.02    6.70 
  13   8  -7   18.47    8.15 
  13   8  -9   15.96    5.85 
  13   8   9   10.57    5.59 
  -8  13   9   18.12    7.37 
  -8  13  -9   15.52    6.63 
  -8  13   9    6.70    5.15 
  -8  13  -9    8.10    6.60 
  13   8  -9   22.11    6.29 
  13   8 -11    2.44    3.74 
  -8  13  11    5.89    4.18 
  -8  13  11   -4.18    4.79 
  -8  13 -11    1.20    4.53 
  -8  13 -11   10.16    6.10 
  13   8 -11   -1.13    4.39 
  13   8 -13    3.91    3.14 
  -8  13  13   -0.19    3.62 
  -8  13 -13   -3.02    4.39 
  -8  13 -13    1.98    3.84 
  13   8 -13   -1.20    3.78 
   8 -13  15    5.78    4.78 
  13   8 -15   -0.14    2.64 
  -8  13 -15    3.26    3.29 
  -8  13  15   -0.52    3.24 
  13   8 -15   -1.69    3.53 
  13   8 -17   -1.68    2.38 
   8 -13  17    3.44    4.01 
  -8  13 -17    6.73    2.89 
  -8  13  17    1.51    2.83 
  13   9   0    4.82    4.51 
  -9  13   0   -4.43    5.03 
  -9  13   0   -0.85    5.60 
  13   9   0   -1.00    4.76 
  13   9   2    9.37    5.39 
  13   9  -2    9.48    5.68 
  -9  13   2   12.13    5.55 
  -9  13  -2   -1.74    5.03 
  -9  13  -2   26.78    9.58 
  13   9  -2   11.80    6.18 
  13   9   2   12.58    6.00 
  -9  13   2   19.13    7.97 
  13   9   4    6.15    4.73 
  13   9  -4    6.56    4.25 
  -9  13   4    7.29    5.54 
  -9  13  -4   14.85    7.45 
  -9  13   4   15.15    6.91 
  -9  13  -4    0.25    5.68 
  13   9  -4   12.23    6.14 
  13   9   4   18.88    7.24 
  -9  13   4   12.24    5.76 
  13   9  -6   15.32    6.28 
  -9  13  -6    8.91    6.35 
  -9  13   6   15.88    7.11 
  -9  13   6   10.70    6.13 
  -9  13  -6    9.97    6.93 
  13   9  -6   12.35    6.13 
  13   9   6   17.68    5.81 
  -9  13   6    8.37    5.15 
  13   9  -8    3.98    4.07 
  -9  13  -8    7.20    5.99 
  -9  13   8    3.58    4.89 
  -9  13   8   15.66    6.49 
  13   9  -8    1.63    4.34 
  -9  13  -8    5.22    5.49 
  13   9   8    2.60    4.09 
  13   9 -10   10.35    4.99 
  -9  13 -10    9.22    5.60 
  -9  13  10   13.34    6.02 
  -9  13  10   10.32    5.41 
  -9  13 -10    8.03    6.77 
  13   9 -10   19.33    6.21 
  13   9 -12   -2.01    3.38 
   9 -13  12    6.45    5.95 
  -9  13  12    4.71    4.01 
  -9  13 -12    4.05    4.30 
  -9  13 -12    0.07    3.97 
  13   9 -12   -0.56    3.70 
   9 -13  14   15.71    5.65 
  13   9 -14   11.73    4.26 
  -9  13 -14    8.89    4.29 
  -9  13  14   13.37    4.84 
  -9  13 -14    9.21    4.11 
  13   9 -14   18.45    5.10 
  13   9 -16   -1.22    2.29 
   9 -13  16   -0.01    2.85 
  -9  13  16    1.41    2.32 
  13  10   1   19.02    6.27 
  13  10  -1   18.71    6.36 
 -10  13   1   22.50    8.22 
 -10  13  -1   21.43    7.56 
 -10  13   1   22.65    7.57 
 -10  13  -1   24.12    7.96 
  13  10   1   12.33    4.50 
  13  10  -1   29.02    7.15 
  13  10  -3    4.60    4.81 
  13  10   3    0.44    4.07 
 -10  13   3    5.63    5.73 
 -10  13  -3    7.92    5.58 
 -10  13   3    9.38    6.27 
 -10  13  -3    3.00    5.57 
  13  10   3   15.76    6.80 
  13  10  -3    4.61    4.28 
 -10  13   3   -2.52    5.30 
  13  10   5   11.48    5.53 
  13  10  -5    7.78    3.95 
  10 -13   5   17.71    6.91 
 -10  13  -5   -0.91    4.56 
 -10  13   5    8.94    5.42 
 -10  13   5    8.02    4.93 
 -10  13  -5   11.27    5.99 
  13  10  -5    2.69    4.19 
 -10  13   5    3.18    5.94 
  10 -13   7    2.75    4.89 
  13  10  -7    3.29    4.11 
 -10  13  -7    0.91    4.12 
 -10  13   7   -1.80    4.11 
 -10  13   7   -0.71    3.72 
 -10  13  -7   -3.03    5.01 
  13  10   7   -0.77    4.04 
  13  10  -7   -0.85    5.02 
  10 -13   9    5.70    5.31 
  13  10  -9    7.47    4.24 
 -10  13  -9    0.38    3.99 
 -10  13   9    2.90    3.88 
 -10  13   9    4.85    4.17 
 -10  13  -9    1.84    5.69 
  13  10   9    5.38    4.29 
  13  10  -9    6.94    4.33 
  13  10 -11    1.45    2.89 
  10 -13  11    7.64    4.77 
 -10  13  11    1.29    3.02 
 -10  13 -11    1.54    3.61 
 -10  13  11    0.27    3.57 
 -10  13 -11    0.50    3.60 
  13  10 -11    1.91    3.89 
  13  10 -13   15.99    4.20 
  10 -13  13    4.33    4.21 
 -10  13 -13    7.80    3.59 
 -10  13  13    6.56    3.73 
 -10  13 -13    3.29    3.40 
  13  10 -13    6.32    3.59 
  13  10 -15    1.54    2.06 
  10 -13  15    1.61    2.85 
  13  10 -15    0.84    1.99 
  13  11   0    4.08    4.42 
 -11  13   0    1.79    4.68 
 -11  13   0   -0.83    4.92 
  13  11   0   -7.25    4.45 
  13  11   2   -2.09    3.84 
  13  11  -2    8.70    4.76 
 -11  13   2    4.99    5.31 
 -11  13  -2    4.26    4.76 
 -11  13   2    0.72    4.25 
 -11  13  -2    1.41    5.34 
  13  11  -2    3.01    3.99 
 -11  13   2   11.29    6.08 
  13  11   4   84.63   10.25 
  13  11  -4   96.92   11.02 
 -11  13   4   92.34   12.02 
 -11  13  -4   87.94   12.75 
 -11  13   4   76.68   10.03 
 -11  13   4   79.09   11.34 
 -11  13  -4   63.64   10.73 
  13  11   4  121.36   12.33 
  13  11  -4   91.51   10.97 
  13  11  -6   -0.46    3.92 
  11 -13   6    4.27    4.61 
 -11  13  -6   -0.47    3.80 
 -11  13   6   -1.28    4.71 
 -11  13  -6    0.01    4.79 
  13  11   6    6.29    4.70 
  13  11  -6    5.46    4.93 
  13  11  -8   -1.33    3.47 
  11 -13   8   -1.22    3.88 
 -11  13  -8    2.31    4.03 
 -11  13   8   -0.49    3.57 
 -11  13   8    3.95    3.89 
 -11  13  -8   -1.42    3.90 
  13  11   8    4.44    3.97 
  13  11  -8   -1.02    3.87 
  13  11 -10   -5.56    3.40 
  11 -13  10   -0.80    3.62 
 -11  13  10    0.15    3.24 
 -11  13 -10   -0.64    3.11 
 -11  13  10    5.91    3.75 
 -11  13 -10    6.03    3.98 
  13  11 -10   -0.11    3.43 
  13  11  10    9.09    4.15 
  13  11 -12   24.67    5.27 
  11 -13  12   27.52    5.64 
 -11  13 -12   12.85    3.92 
 -11  13  12   15.37    3.62 
 -11  13 -12    9.85    4.60 
  13  11 -12   19.08    4.82 
  13  11 -14    0.06    1.85 
  11 -13  14    3.96    2.78 
  13  12   1    1.35    3.67 
  13  12  -1   -2.25    4.10 
 -12  13   1   -7.48    4.68 
 -12  13   1   -4.12    4.14 
 -12  13  -1   -1.88    4.16 
 -12  13  -1    8.79    5.24 
  13  12   1   -3.71    3.32 
  13  12  -1    0.61    3.46 
 -12  13   1    3.38    4.75 
  13  12  -3   36.52    7.17 
  13  12   3   46.11    7.66 
 -12  13  -3   25.65    6.95 
 -12  13   3   29.81    6.07 
 -12  13  -3   42.43    8.65 
  13  12  -3   33.81    7.34 
 -12  13   3   40.65    7.57 
  13  12  -5   32.27    6.24 
 -12  13  -5   21.74    6.18 
 -12  13   5   17.27    4.93 
 -12  13   5   34.49    7.33 
 -12  13  -5   32.02    7.51 
  13  12  -5   18.22    5.40 
  13  12  -7    0.50    2.98 
  12 -13   7    0.34    3.16 
 -12  13   7   -0.95    2.51 
 -12  13  -7   -0.89    3.43 
 -12  13   7    0.39    3.27 
  13  12  -7   -5.38    3.68 
 -12  13  -7    2.08    3.64 
  13  12  -9    8.87    3.42 
  12 -13   9    3.09    3.46 
 -12  13  -9    2.06    2.64 
 -12  13   9    4.14    3.45 
 -12  13  -9    3.07    3.58 
  13  12  -9    7.98    3.83 
  13  12 -11    5.82    3.26 
  12 -13  11    9.82    3.26 
 -12  13 -11    6.49    3.23 
  13  12 -11    3.77    2.85 
  13  13   0   -0.06    3.81 
 -13  13   0    0.97    2.39 
  13  13   0    1.90    3.11 
 -13  13   0    2.44    4.23 
  13  13  -2    8.18    4.80 
  13  13   2   14.10    5.75 
 -13  13  -2   16.44    4.19 
 -13  13   2   10.55    3.56 
 -13  13  -2   11.51    4.75 
 -13  13  -2   19.14    5.81 
  13  13  -2   12.69    4.92 
 -13  13   2   18.65    5.02 
  13  13  -4    0.63    2.94 
 -13  13  -4   -0.60    2.84 
 -13  13   4    2.08    3.19 
  13  13  -4    5.13    3.93 
 -13  13  -4    3.82    3.57 
  13  13  -6   23.63    4.68 
 -13  13  -6    7.48    3.86 
 -13  13   6   26.55    5.33 
  13  13  -6   14.49    4.84 
 -13  13  -6   18.80    5.20 
  13  13  -8    0.28    2.34 
  13 -13   8    1.65    1.92 
 -13  13   8    3.53    2.95 
 -13  13  -8    1.92    2.93 
  13  13  -8   -3.27    3.07 
  13  13 -10    4.72    2.60 
  13  13 -10    2.27    2.58 
 -13  13 -10    2.61    2.35 
  13  14  -1    6.20    3.85 
 -14  13  -1    4.60    3.31 
 -14  13   1    3.28    2.81 
  13  14  -3    1.46    2.64 
 -14  13   3   -0.83    2.67 
 -14  13  -3    3.73    3.05 
  13  14  -5    0.50    2.75 
 -14  13   5    6.32    2.94 
 -14  13  -5    3.32    3.02 
  13  14  -5   10.97    3.83 
  13  14  -7    4.90    3.01 
 -14  13  -7   11.91    3.45 
  13  14  -7   14.27    4.05 
  12  14   0   -2.46    2.70 
  12  14   0    4.58    3.51 
 -14  12   0    2.83    3.34 
  12  14  -2    3.33    3.26 
  12  14   2    5.75    3.68 
  12  14  -2    3.89    3.00 
 -14  12  -2    0.83    3.38 
 -14  12   2   -0.69    3.26 
  12  14  -2    1.48    3.27 
  12  14  -4   -4.08    3.32 
 -14  12   4   -2.00    3.34 
  12  14  -4    8.24    4.16 
 -14  12  -4    0.40    3.32 
  12  14  -6   -0.33    3.17 
 -14  12   6    4.98    2.96 
  12  14  -6    3.02    3.43 
 -14  12  -6    5.92    3.81 
  14 -12   8    3.91    2.48 
  12  14  -8    3.11    3.02 
 -14  12   8    6.84    2.99 
 -14  12  -8    8.58    3.77 
  12  14  -8    7.35    3.51 
  12  14 -10   -1.33    2.16 
 -14  12 -10    0.59    2.10 
  11  14   1    2.85    4.04 
  11  14  -1    3.78    4.05 
  11  14   1   -1.04    3.34 
  11  14  -1    1.54    3.17 
 -14  11   1   -2.30    4.47 
  11  14  -1    5.00    5.14 
 -14  11  -1   -8.26    4.79 
  11  14  -3    7.97    3.92 
  11  14  -3    7.86    4.43 
  11  14   3    4.17    4.12 
 -14  11  -3    9.38    4.99 
  11  14  -3    6.80    4.43 
 -14  11   3    7.76    4.18 
  11  14   3   24.84    6.83 
  11  14  -5   15.33    5.28 
  11  14  -5    9.71    3.77 
  11  14   5   20.86    6.21 
  14 -11   5   11.85    4.04 
 -14  11   5   12.96    4.50 
 -14  11  -5   10.85    5.29 
  11  14  -5    7.56    4.60 
  11  14   5   12.30    4.67 
  11  14  -7    1.23    3.22 
  11  14  -7    2.01    2.27 
  14 -11   7    7.64    3.69 
 -14  11   7   -2.05    3.01 
  11  14  -7    1.98    3.33 
 -14  11  -7    5.92    4.54 
  11  14   7    3.44    3.57 
  11  14  -9    0.47    2.87 
  11  14  -9   -1.77    1.44 
  14 -11   9    0.84    2.67 
 -14  11   9    4.88    2.96 
  11  14  -9    6.38    4.00 
 -14  11  -9    5.99    3.79 
  11  14   9    2.78    2.94 
  11  14 -11    2.18    2.82 
  14 -11  11    4.81    2.66 
 -14  11 -11   -2.71    2.92 
  11  14  11    5.38    2.73 
  10  14   0   16.75    4.91 
  10  14   0   26.09    6.88 
  10  14   0   22.08    7.89 
 -14  10   0   20.23    6.78 
  10  14   2    0.36    4.15 
  10  14  -2   -4.94    4.90 
  10  14  -2    2.76    3.69 
  10  14   2   -0.98    4.05 
 -14  10  -2    0.51    4.45 
  10  14  -2    3.63    5.23 
 -14  10   2   10.61    5.69 
  10  14   2   10.95    5.38 
  10  14  -4   -4.71    5.46 
  14 -10   4   -6.57    4.02 
  10  14   4   -3.51    4.46 
  10  14  -4    3.84    3.74 
 -14  10  -4    2.75    4.76 
  10  14  -4    7.41    4.56 
  10  14   4   -3.40    4.01 
 -14  10   4    0.27    3.68 
  10  14  -6   -6.05    3.51 
  10  14  -6   -0.61    4.15 
  10  14   6   11.73    5.80 
  14 -10   6    1.69    3.23 
 -14  10   6    1.44    3.87 
 -14  10  -6    3.44    4.74 
  10  14  -6   -1.12    4.30 
  10  14   6   -3.58    4.29 
  10  14  -8    2.50    2.98 
  10  14  -8    4.18    4.37 
  14 -10   8    6.30    3.71 
 -14  10   8    0.59    2.89 
  10  14  -8    0.24    3.88 
 -14  10  -8    3.60    5.06 
  10  14   8    5.46    3.51 
  10  14 -10    5.07    2.54 
  10  14 -10   -0.33    2.96 
  14 -10  10    4.93    3.23 
 -14  10 -10   -0.30    3.34 
  10  14  10    3.73    2.91 
  14 -10 -12    6.82    3.38 
  14 -10  12    3.33    2.71 
  10  14 -12    0.61    1.95 
 -14  10 -12    1.41    2.99 
  10  14  12   -2.13    2.34 
  14 -10  14    0.89    1.85 
 -14  10 -14    2.89    2.33 
   9  14   1   -7.30    5.08 
   9  14  -1   -1.76    5.00 
   9  14   1    1.35    4.55 
   9  14  -1    2.53    4.33 
 -14   9   1    8.99    5.93 
 -14   9  -1   -3.66    4.78 
   9  14  -1   18.46    7.95 
   9  14   1    3.01    4.92 
   9  14  -1   -1.90    4.40 
   9  14   1    7.43    5.56 
   9  14  -3   16.57    6.15 
   9  14   3   20.11    6.77 
   9  14  -3   16.11    6.03 
  14  -9   3   18.37    5.82 
   9  14   3   10.27    5.25 
 -14   9   3   12.48    6.74 
 -14   9  -3    7.92    5.73 
   9  14  -3   15.31    6.09 
   9  14   3    6.17    5.19 
   9  14  -5   23.79    6.81 
   9  14  -5   15.30    5.23 
  14  -9   5   13.45    5.30 
   9  14   5   22.73    7.00 
 -14   9  -5   15.97    6.81 
   9  14  -5   13.02    6.30 
   9  14   5   21.73    7.02 
 -14   9   5   14.86    5.12 
   9  14  -7    2.23    4.47 
  14  -9   7   -1.28    4.19 
   9  14  -7   -4.22    3.45 
 -14   9   7   -4.13    3.43 
   9  14  -7    9.47    5.29 
 -14   9  -7    0.47    5.12 
   9  14   7   -0.31    3.81 
   9  14  -9   -0.82    3.09 
  14  -9   9   -2.10    3.86 
   9  14  -9    0.53    3.77 
 -14   9   9    0.96    3.07 
   9  14  -9   -1.37    3.71 
 -14   9  -9   -0.78    4.40 
   9  14   9   -2.25    3.59 
   9  14 -11    3.01    3.56 
   9  14 -11   -0.35    2.80 
  14  -9  11    5.97    3.79 
 -14   9 -11    4.41    4.13 
   9  14  11    3.01    2.92 
   9  14 -11    6.79    4.55 
   9  14 -13    7.51    3.17 
  14  -9  13    0.90    2.88 
   9  14 -13    3.64    2.55 
  14  -9 -13   10.48    3.88 
 -14   9 -13    1.88    3.63 
   9  14  13    4.91    3.00 
  14  -9  15   -0.84    2.08 
 -14   9 -15    3.47    2.93 
   9  14  15    0.49    1.85 
   8  14   0    9.57    5.20 
   8  14   0    9.99    5.00 
   8  14   0   22.38    6.95 
 -14   8   0    2.80    4.74 
   8  14   0    6.42    4.64 
   8  14  -2   48.16    8.85 
   8  14   2   46.33    8.88 
   8  14  -2   51.35    9.86 
   8  14   2   42.37    8.75 
  14  -8   2   40.58    8.62 
 -14   8   2   34.00    8.47 
   8  14  -2   39.94    9.17 
 -14   8  -2   50.21   10.18 
   8  14  -2   73.88   11.88 
   8  14   2   38.73    8.95 
   8  14  -4   -9.68    5.48 
  14  -8   4   -7.84    4.92 
   8  14  -4    6.59    4.65 
   8  14   4   -2.92    6.11 
   8  14  -4    2.73    5.33 
 -14   8  -4   -2.05    5.04 
   8  14   4    3.00    5.10 
 -14   8   4    1.84    3.95 
   8  14  -6   28.46    7.77 
   8  14  -6   28.38    6.91 
  14  -8   6   20.97    6.71 
   8  14   6   22.20    6.78 
   8  14  -6   29.17    7.59 
 -14   8  -6   17.96    7.39 
   8  14   6   26.50    6.86 
 -14   8   6   13.66    5.88 
   8  14  -8    5.04    3.72 
   8  14  -8    2.50    4.99 
   8  14   8    5.62    6.13 
  14  -8   8  -14.32    6.32 
 -14   8   8    5.95    4.15 
   8  14  -8    0.31    4.51 
 -14   8  -8    2.02    4.70 
   8  14   8   -4.84    4.39 
   8  14 -10   23.46    6.83 
   8  14 -10   18.86    5.30 
  14  -8  10   28.26    6.75 
   8  14 -10   20.82    6.41 
 -14   8 -10   30.70    8.78 
   8  14  10   16.38    5.01 
   8  14 -12    4.75    3.16 
  14  -8  12    8.79    4.36 
   8  14 -12    6.57    3.56 
   8  14 -12   17.73    5.47 
 -14   8 -12   11.74    5.46 
   8  14  12    5.64    3.34 
  14  -8 -14    4.98    2.98 
  14  -8  14   -1.11    3.03 
   8  14 -14   -1.82    2.58 
 -14   8 -14    5.12    3.87 
   8  14  14    1.15    2.79 
  14  -8  16    2.92    2.66 
 -14   8 -16    3.62    3.02 
   8  14  16   -0.36    1.82 
   7  14   1    7.11    4.64 
   7  14  -1   23.99    6.84 
  14  -7   1   15.82    6.07 
   7  14   1   25.85    7.67 
   7  14  -1   17.64    6.90 
   7  14  -1   16.50    6.41 
 -14   7   1    9.81    5.88 
 -14   7  -1   16.00    7.21 
   7  14   1   34.91    8.84 
   7  14  -1   20.05    7.13 
   7  14   1   13.00    6.10 
   7  14  -3    2.04    5.07 
   7  14   3    4.52    5.43 
   7  14   3    1.42    4.80 
  14  -7   3   -0.11    4.50 
   7  14  -3   -4.67    5.75 
 -14   7   3   15.43    6.18 
   7  14  -3   -4.72    5.61 
 -14   7  -3   -1.91    5.40 
   7  14  -3   16.99    8.32 
   7  14   3   -5.16    5.18 
   7  14  -5    8.96    5.56 
   7  14  -5   10.33    5.85 
  14  -7   5   15.88    6.29 
   7  14   5    7.03    5.89 
   7  14  -5    1.20    5.83 
 -14   7  -5   13.28    7.78 
   7  14   5    3.61    4.61 
 -14   7   5    1.12    3.96 
   7  14  -7   73.27   10.48 
   7  14  -7   55.75   10.34 
  14  -7   7   55.52   10.28 
   7  14   7   73.50   11.08 
   7  14  -7   48.33    9.35 
 -14   7  -7   58.72   11.52 
   7  14   7   65.79    9.98 
   7  14  -9    6.10    4.12 
   7  14  -9   10.35    5.37 
   7  14   9   19.58    7.56 
  14  -7   9    8.03    5.95 
   7  14  -9   13.14    6.15 
 -14   7  -9    5.79    6.81 
   7  14   9    4.64    4.41 
   7  14 -11    6.87    4.27 
   7  14 -11   -0.79    3.26 
  14  -7  11    2.08    4.19 
 -14   7 -11   -6.41    5.51 
   7  14  11   -5.60    4.01 
   7  14 -11    7.28    5.87 
   7  14 -13    3.99    3.38 
  14  -7 -13   -1.16    3.26 
   7  14 -13   -2.71    3.35 
  14  -7  13   -0.83    3.48 
 -14   7 -13    0.71    4.69 
   7  14  13    0.55    3.13 
   7  14 -15    8.13    3.25 
  14  -7  15    4.45    3.54 
 -14   7 -15    6.27    4.39 
   7  14  15   13.00    3.64 
   7  14 -17    1.25    1.68 
 -14   7 -17    0.71    2.83 
   7  14  17   -0.01    2.27 
   6  14   0  202.43   17.27 
   6  14   0  198.83   17.54 
  14  -6   0  172.93   16.01 
 -14   6   0  161.57   15.89 
   6  14   0  171.21   16.52 
   6  14   0  185.89   17.52 
   6  14   2   26.73    7.93 
   6  14  -2    9.16    6.32 
   6  14  -2   16.21    5.53 
  14  -6   2   15.41    6.45 
   6  14   2   12.59    6.55 
   6  14  -2   20.49    7.68 
 -14   6   2   13.30    5.95 
 -14   6  -2   12.64    6.30 
   6  14  -2    7.29    5.36 
   6  14   2   11.15    6.01 
   6  14   4   10.14    6.14 
   6  14   4    8.23    6.38 
   6  14  -4    0.92    5.26 
   6  14  -4    5.57    4.70 
  14  -6   4    8.10    5.49 
   6  14  -4    9.13    6.42 
 -14   6  -4    4.97    5.11 
   6  14   4   11.61    5.58 
   6  14  -6   -6.98    5.59 
   6  14  -6    5.03    5.52 
  14  -6   6   -5.86    6.05 
   6  14   6   -6.28    6.36 
   6  14  -6    2.91    4.82 
 -14   6  -6  -11.54    7.65 
   6  14   6   -6.57    5.32 
   6  14  -8  151.55   15.38 
   6  14   8  197.76   17.07 
  14  -6   8  175.89   16.79 
   6  14  -8  176.34   15.98 
 -14   6  -8  171.99   18.54 
   6  14   8  188.03   15.85 
   6  14  -8  188.45   16.84 
   6  14 -10   -1.96    4.81 
   6  14 -10    4.00    4.13 
  14  -6  10    5.70    5.30 
 -14   6 -10   -0.70    6.18 
   6  14  10    6.95    4.66 
   6  14 -10   12.64    6.27 
   6  14 -12    0.32    3.34 
   6  14 -12    2.31    3.06 
  14  -6  12    1.01    4.47 
 -14   6 -12    2.55    5.48 
   6  14  12    2.18    4.12 
   6  14 -14    2.17    3.02 
  14  -6  14    5.67    4.76 
 -14   6 -14    2.86    4.42 
   6  14  14   -0.83    3.19 
   6  14 -16   17.90    4.00 
  14  -6  16    7.56    3.68 
 -14   6 -16    8.92    4.34 
   6  14  16   10.74    3.50 
   6  14 -18    0.91    1.64 
 -14   6 -18    1.77    2.51 
   6  14  18    0.31    2.06 
   5  14   1   41.81    8.67 
   5  14   1   21.02    6.98 
   5  14  -1   26.93    7.91 
  14  -5  -1   16.00    6.34 
  14  -5   1   28.01    8.01 
   5  14  -1   16.18    6.95 
 -14   5  -1   15.95    6.11 
   5  14  -1   19.82    7.12 
   5  14   1   26.31    8.10 
   5  14  -1   48.58   10.38 
   5  14  -3   14.92    5.97 
  14  -5   3    6.65    5.70 
   5  14   3   15.89    6.18 
   5  14  -3   17.19    5.75 
   5  14   3   21.12    7.97 
   5  14  -3    8.59    6.47 
 -14   5  -3   10.86    6.65 
   5  14  -3   19.16    7.85 
   5  14   3    0.38    4.73 
   5  14  -5   19.24    6.49 
   5  14  -5   17.51    5.97 
  14  -5   5   14.56    5.69 
   5  14   5   24.13    7.99 
   5  14  -5   19.17    7.56 
 -14   5  -5   35.08   11.01 
   5  14   5   17.15    6.17 
   5  14  -7    7.72    4.70 
   5  14  -7   11.34    5.66 
  14  -5   7    8.74    5.41 
   5  14   7   15.21    6.45 
 -14   5  -7   12.57    7.92 
   5  14  -7   17.67    6.86 
   5  14   7    9.26    5.46 
   5  14   9   89.24   12.30 
   5  14  -9   72.71   10.80 
   5  14  -9   57.52    9.73 
  14  -5   9   74.28   11.62 
 -14   5  -9   58.60   11.75 
   5  14  -9   64.17   10.58 
   5  14   9   79.06   10.76 
   5  14 -11    2.22    3.87 
  14  -5  11    9.56    5.01 
 -14   5 -11    4.24    6.15 
   5  14  11    3.28    4.13 
   5  14 -13    4.00    3.95 
  14  -5 -13   -4.87    4.44 
  14  -5  13   -5.16    5.03 
 -14   5 -13    7.25    6.04 
   5  14  13    0.87    3.95 
   5  14 -15    2.15    3.37 
  14  -5 -15    0.84    3.64 
  14  -5  15   -0.29    3.11 
 -14   5 -15   12.01    5.80 
   5  14  15    2.67    3.78 
   5  14 -17    5.98    2.72 
  14  -5  17    6.78    3.31 
 -14   5 -17    8.44    4.56 
   5  14  17    2.40    2.98 
   4  14   0   -7.09    5.16 
   4  14   0    8.09    5.29 
   4  14   0   -0.47    4.43 
   4  14   2  124.93   14.40 
   4  14  -2  111.30   13.42 
   4  14   2  109.68   13.22 
   4  14  -2  116.24   13.49 
  14  -4   2  107.74   14.07 
   4  14  -2   87.30   12.18 
   4  14   2  107.00   12.54 
   4  14  -2  124.50   14.86 
   4  14  -4   19.68    6.63 
   4  14  -4    6.90    4.51 
   4  14   4   16.08    6.86 
  14  -4   4    4.91    5.96 
 -14   4  -4   -1.14    5.65 
   4  14  -4   31.63    9.20 
   4  14   4    9.43    5.28 
   4  14  -4   21.76    7.67 
   4  14  -6   52.68    9.57 
   4  14   6   51.79    9.48 
   4  14  -6   47.58    8.69 
  14  -4   6   54.41   10.94 
 -14   4  -6   36.28    9.09 
   4  14  -6   52.67   10.27 
   4  14   6   37.21    8.82 
   4  14  -8   -3.63    4.14 
   4  14  -8   -1.17    4.78 
  14  -4   8   -1.04    5.36 
   4  14   8   -1.14    5.22 
 -14   4  -8   -3.91    5.44 
   4  14   8    9.27    6.57 
   4  14  -8   15.29    6.90 
   4  14  10  116.53   14.38 
   4  14 -10   92.62   11.99 
  14  -4  10  102.63   13.15 
 -14   4 -10  113.45   16.11 
   4  14  10   95.79   11.99 
  14  -4 -12    6.78    5.41 
  14  -4  12   -1.79    4.58 
   4  14 -12    2.18    4.31 
   4  14 -12    3.85    4.11 
 -14   4 -12    3.92    5.47 
   4  14  12    6.76    4.77 
  14  -4 -14    4.70    4.15 
  14  -4  14    2.25    3.98 
   4  14 -14    1.95    3.56 
   4  14 -14    3.73    3.68 
 -14   4 -14    4.76    5.70 
   4  14  14    3.72    4.50 
  14  -4  16   -1.83    2.84 
   4  14 -16    3.91    3.58 
   4  14 -16   -2.39    3.21 
 -14   4 -16   -1.99    4.69 
   4  14  16   -2.03    3.10 
   4  14 -18   25.63    4.43 
 -14   4 -18   21.72    5.95 
   4  14  18    9.61    3.68 
   3  14   1   21.14    7.13 
   3  14  -1   13.93    5.74 
  14  -3  -1   22.12    7.90 
  14  -3   1   20.69    7.84 
   3  14   1   21.44    6.49 
   3  14  -1   26.43    6.81 
   3  14  -1   18.73    6.73 
   3  14   1   16.03    6.48 
   3  14  -3   12.17    5.90 
   3  14  -3   12.67    6.65 
  14  -3   3    9.23    6.62 
   3  14   3    3.19    5.17 
   3  14  -3   14.44    7.19 
   3  14   3   -0.35    4.74 
   3  14  -5   44.25    8.69 
   3  14   5   44.96    9.12 
   3  14  -5   46.35    8.48 
  14  -3   5   47.19    9.56 
   3  14   5   49.39   10.00 
   3  14  -7    4.82    4.68 
  14  -3   7    4.75    4.87 
   3  14   7   -5.94    5.66 
 -14   3  -7    5.08    6.41 
   3  14   7    7.02    5.35 
   3  14   9   18.61    7.14 
  14  -3   9   16.69    6.39 
   3  14  -9    5.70    5.77 
   3  14  -9   12.11    5.55 
 -14   3  -9   17.66    8.26 
   3  14   9   22.09    7.21 
  14  -3 -11   61.63   11.13 
  14  -3  11   59.81   10.49 
   3  14 -11   66.62   10.61 
   3  14 -11   48.54    8.48 
 -14   3 -11   40.28   10.76 
   3  14  11   49.45    9.20 
  14  -3  13   -6.99    4.79 
  14  -3 -13    2.58    4.48 
   3  14 -13    3.14    3.74 
 -14   3 -13   -3.98    6.78 
   3  14  13    0.20    3.64 
  14  -3  15    3.30    4.07 
  14  -3 -15   -1.07    3.21 
  14  -3 -15   -1.40    3.58 
   3  14 -15    1.08    3.38 
   3  14 -15    1.09    3.65 
   3  14  15    3.07    4.08 
 -14   3 -15    8.85    6.56 
  14  -3  17    3.85    3.08 
  14  -3 -17   -1.37    1.79 
   3  14 -17    5.14    3.61 
 -14   3 -17    7.66    5.42 
   3  14  17    4.25    3.97 
   3  14 -19    0.48    1.85 
 -14   3 -19    4.35    3.66 
   3  14  19    0.86    2.13 
   2  14   0   38.53    8.77 
  14  -2   0   32.91    8.83 
   2  14   0   36.07    8.36 
   2  14   0   35.47    7.46 
   2  14   2    7.32    5.70 
   2  14   2   22.27    8.95 
   2  14  -2   30.65    6.57 
   2  14  -2    3.07    4.40 
  14  -2  -2    5.83    5.67 
  14  -2   2   -0.28    5.17 
   2  14   2    3.90    4.51 
   2  14  -4    4.73    4.56 
  14  -2   4    3.41    5.06 
   2  14   4    0.52    4.33 
   2  14   4    2.41    4.62 
   2  14  -6    2.55    5.00 
   2  14   6   -0.70    5.04 
  14  -2   6    2.18    4.51 
   2  14   6    5.55    5.11 
  14  -2   8   37.96    8.92 
   2  14   8   24.49    6.87 
   2  14  -8   39.34    8.35 
   2  14  -8   27.83    7.14 
 -14   2  -8   23.01    9.59 
   2  14   8   31.37    8.20 
  14  -2  10   -0.42    4.60 
  14  -2 -10   -3.77    5.05 
   2  14 -10    2.10    4.23 
   2  14 -10    5.64    5.07 
   2  14  10    3.05    4.22 
 -14   2 -10   -3.22    6.14 
  14  -2  12   36.11    7.94 
  14  -2 -12   41.91    8.85 
   2  14 -12   47.19    9.05 
   2  14 -12   43.87    8.58 
   2  14  12   37.89    8.45 
 -14   2 -12   45.51   11.19 
   2  14  12   31.27    7.77 
  14  -2 -14    4.61    3.54 
  14  -2  14   -4.26    4.32 
  14  -2 -14    3.88    4.09 
   2  14 -14    1.66    4.07 
   2  14 -14    3.69    4.14 
   2  14  14    6.08    4.87 
 -14   2 -14    4.47    6.56 
   2  14  14   -3.58    4.30 
  14  -2  16   20.24    6.09 
  14  -2 -16   10.45    5.28 
   2  14 -16   26.09    5.79 
   2  14 -16   16.78    6.03 
   2  14  16   20.02    5.92 
  14  -2 -16   22.44    4.57 
 -14   2 -16   25.73    8.39 
   2  14  16   14.08    5.72 
  14  -2 -18    2.20    2.96 
   2  14 -18   -0.25    2.37 
   2  14  18    1.22    1.60 
   2  14 -18    1.00    2.74 
 -14   2 -18   -3.43    4.27 
   2  14  18    1.91    2.41 
  14  -1  -1   22.29    8.86 
  14  -1   1   18.68    7.47 
   1  14   1   20.31    6.64 
   1  14  -1   11.27    5.03 
   1  14  -1   29.47    8.29 
   1  14  -3    1.00    4.16 
  14  -1  -3   -1.36    4.94 
  14  -1   3    5.27    5.95 
   1  14   3    6.92    5.39 
   1  14   3    6.04    4.45 
   1  14   5    1.19    5.20 
  14  -1   5   -0.54    5.32 
   1  14  -5    5.63    4.51 
   1  14  -5   14.14    6.27 
   1  14   5    6.67    4.54 
   1  14   5    1.30    3.78 
  14  -1  -7   17.65    7.06 
  14  -1   7   15.05    5.71 
   1  14   7   18.96    6.92 
   1  14  -7   18.93    6.25 
   1  14  -7   21.53    6.88 
   1  14   7   14.06    6.23 
   1  14   7   18.45    6.39 
  14  -1  -9   14.57    6.24 
  14  -1   9   15.12    6.18 
   1  14   9   23.94    7.36 
   1  14  -9   18.94    6.23 
   1  14   9    9.49    5.62 
   1  14  -9   15.04    5.87 
   1  14   9    7.65    5.01 
  14  -1 -11    2.05    5.13 
  14  -1  11    2.10    4.61 
   1  14 -11    4.02    4.28 
   1  14 -11    5.09    5.13 
   1  14  11    6.06    5.02 
 -14   1 -11   -5.24    6.91 
   1  14  11   -9.98    5.11 
  14  -1 -13   18.69    6.35 
  14  -1  13   14.89    6.52 
  14  -1 -13   18.57    6.16 
   1  14 -13   22.74    6.53 
   1  14 -13   25.12    7.27 
   1  14  13   23.02    7.23 
   1  14  13   13.43    6.91 
 -14   1 -13   25.71    9.31 
  14  -1  15    4.53    4.81 
  14  -1 -15    4.12    3.97 
   1  14 -15    1.83    3.83 
   1  14 -15    1.99    4.43 
   1  14  15    3.90    4.10 
 -14   1 -15    8.74    6.99 
  14  -1 -15   -0.89    3.10 
   1  14  15    2.69    3.79 
  14  -1 -17    2.76    4.03 
  14  -1  17    3.41    3.42 
   1  14 -17    7.82    3.83 
   1  14 -17   -0.01    3.23 
   1  14  17    2.96    3.70 
 -14   1 -17    7.90    5.83 
   1  14  17    0.61    2.67 
  14  -1 -19    0.57    2.52 
   1  14 -19    5.25    2.51 
   1  14 -19    1.38    2.64 
   1  14  19    1.76    2.63 
  14   0   0   11.00    6.42 
  14   0   0   -2.58    5.06 
   0  14   0    1.17    4.52 
  14   0   2    4.82    5.44 
  14   0  -2   -0.90    4.77 
  14   0   2    3.03    5.48 
  14   0  -2    7.09    5.94 
   0  14  -2   10.52    6.44 
   0  14   2   -3.65    4.97 
   0  14  -2    0.11    4.22 
  14   0  -4   23.79    7.70 
  14   0  -4   24.83    7.35 
   0  14   4   23.05    7.03 
  14   0   4   30.25    8.66 
   0  14  -4   22.50    6.69 
   0  14  -4   16.87    6.47 
   0  14   4   34.12    8.30 
  14   0  -6   19.62    7.16 
  14   0   6   14.02    6.51 
   0  14   6   15.49    6.36 
   0  14  -6   17.56    6.10 
   0  14  -6    6.72    6.03 
   0  14   6   13.40    6.17 
   0  14   6   15.84    5.04 
  14   0  -8    1.27    5.59 
  14   0   8   10.83    5.59 
   0  14   8   10.97    6.44 
   0  14  -8    9.39    5.36 
   0  14  -8   11.03    6.09 
   0  14   8    3.57    5.70 
   0  14   8    9.82    5.90 
  14   0 -10   41.48    8.95 
  14   0  10   41.68    9.10 
  14   0 -10   33.65    7.64 
   0  14 -10   35.81    8.02 
   0  14  10   40.21    9.09 
   0  14 -10   48.91    9.89 
   0  14  10   20.34    7.48 
  14   0  12    0.12    3.80 
  14   0 -12    0.54    3.76 
  14   0 -12    1.90    4.15 
   0  14 -12   12.96    6.17 
   0  14 -12   -0.54    4.55 
   0  14  12    7.35    5.64 
   0  14  12   -2.12    4.53 
  14   0  14   -3.39    4.37 
  14   0 -14   15.21    5.34 
  14   0 -14    0.60    3.50 
   0  14 -14    0.38    3.98 
   0  14 -14    3.88    4.67 
   0  14  14    3.12    4.50 
   0  14  14    1.21    3.43 
 -14   0 -14   -8.06    8.64 
  14   0 -16    2.63    3.56 
  14   0  16    6.90    3.85 
   0  14 -16    2.50    3.04 
   0  14 -16   11.31    5.45 
   0  14  16    4.24    4.65 
  14   0 -16    7.50    3.47 
   0  14  16    3.22    3.75 
  14   0 -18   10.52    4.52 
   0  14 -18   16.47    3.89 
   0  14 -18   14.38    4.83 
   0  14  18   13.91    5.17 
 -14   0 -18   30.82    8.61 
   0  14  18   12.96    4.43 
  14   1  -1    4.23    4.80 
  -1  14  -1   10.17    5.47 
  14   1   1   -3.67    5.08 
  14   1  -1    3.95    5.03 
  14   1   1   10.18    6.61 
  -1  14   1   -0.35    4.87 
  -1  14   1    6.36    5.43 
  -1  14  -1    9.96    7.30 
  14   1  -3   19.38    6.59 
  14   1  -3   17.40    6.12 
  14   1   3    9.50    6.04 
  -1  14  -3   13.94    5.34 
  -1  14  -3    7.47    5.84 
  14   1  -5    7.12    5.04 
  14   1   5    6.86    5.61 
  14   1  -5    0.34    5.45 
  -1  14  -5    3.72    4.80 
  -1  14   5    0.86    4.20 
  -1  14  -5    1.46    3.85 
  14   1   7   -2.17    4.64 
  14   1  -7   13.18    8.07 
  -1  14  -7   -3.29    4.18 
  -1  14  -7   -6.37    5.90 
  -1  14   7    6.12    5.62 
  -1  14   7   -1.35    3.93 
  14   1   9   -4.74    5.21 
  14   1  -9    3.17    4.45 
  -1  14  -9    7.41    5.34 
  -1  14   9   -3.93    5.65 
  -1  14  -9    6.87    6.13 
  -1  14   9    0.16    3.66 
  14   1  11   -5.62    5.34 
  14   1 -11    5.71    5.50 
  14   1 -11   -0.48    3.70 
  -1  14 -11    2.19    3.85 
  -1  14  11    1.85    4.65 
  -1  14 -11    1.43    4.88 
  -1  14  11    2.35    3.33 
  14   1  13   -1.52    4.76 
  14   1 -13   -0.61    4.36 
  14   1 -13    0.50    3.93 
  -1  14 -13    5.89    4.71 
  -1  14 -13    0.15    4.15 
  -1  14  13   10.11    5.95 
  -1  14  13   -2.43    4.07 
  14   1  15   11.19    5.30 
  14   1 -15   12.51    5.05 
  -1  14 -15   15.57    5.14 
  -1  14 -15    9.00    4.97 
  -1  14  15    9.18    5.66 
  -1  14  15    5.66    4.58 
  14   1 -15   19.02    5.53 
  14   1 -17    2.16    3.91 
  -1  14 -17    6.96    3.59 
  -1  14 -17    3.57    3.47 
  -1  14  17   -0.84    3.69 
  -1  14  17    0.37    2.62 
  14   1 -19    2.56    2.76 
  -1  14 -19    3.58    2.92 
  -1  14  19    1.79    3.02 
  -1  14  19    0.97    1.84 
  14   2   0    6.84    5.56 
  14   2   0   -5.23    5.78 
  -2  14   0    2.42    4.53 
  14   2  -2    6.60    6.05 
  14   2   2    1.87    5.65 
  14   2  -2    0.21    5.15 
  14   2   2    6.91    4.49 
  -2  14   2   10.54    5.88 
  -2  14  -2    4.81    5.70 
  14   2  -4   -0.20    5.31 
  14   2   4    9.53    6.54 
  14   2  -4    4.04    4.42 
  -2  14   4   -2.24    5.51 
  -2  14   4   21.50    9.91 
  -2  14   4    0.16    4.19 
  -2  14  -4   13.44    6.79 
  14   2   6   33.80    8.86 
  14   2  -6   33.70    7.17 
  14   2  -6   24.73    7.23 
  -2  14  -6   30.05    8.17 
  -2  14   6   23.30    6.89 
  -2  14   6   36.16    8.70 
  -2  14  -6   19.69    5.54 
  14   2   8    0.68    4.35 
  14   2  -8   -1.10    4.56 
  14   2  -8   11.92    5.17 
  -2  14  -8    2.30    4.94 
  -2  14   8   -2.36    5.01 
  -2  14   8    4.42    5.18 
  -2  14  -8    5.74    4.46 
  14   2 -10   38.54    8.71 
  14   2  10   26.40    7.64 
  14   2 -10   23.38    6.91 
  -2  14 -10   34.15    7.67 
  -2  14  10   41.63    8.86 
  -2  14 -10   29.94    8.11 
  14   2  12    1.15    4.07 
  14   2 -12    2.31    4.26 
  -2  14 -12    2.29    3.36 
  -2  14  12   -1.35    5.02 
  -2  14 -12   12.37    5.90 
  -2  14  12    0.82    3.22 
  14   2 -12    7.39    5.42 
  14   2  14    3.91    3.58 
  14   2 -14    5.43    4.75 
  -2  14 -14    3.49    3.46 
  -2  14 -14    3.32    4.30 
  -2  14  14    0.28    4.26 
  -2  14  14    0.18    2.93 
  14   2 -14    7.74    4.67 
  14   2 -16    2.70    3.56 
  -2  14 -16    2.50    2.78 
  -2  14 -16   -0.34    3.75 
  -2  14  16   -1.87    4.14 
  14   2 -16    1.97    2.72 
  -2  14  16   -0.08    2.49 
  14   2 -18    0.79    2.99 
  -2  14 -18    0.96    1.81 
  -2  14 -18    0.98    2.64 
  -2  14  18    2.23    3.49 
  -2  14  18   -0.31    1.48 
  14   3  -1    2.28    4.79 
  14   3   1   -1.84    5.95 
  14   3  -1    4.17    4.72 
  14   3   1   -2.09    3.88 
  -3  14   1    1.66    5.78 
  -3  14  -1    2.52    5.24 
  -3  14   1   -3.46    5.01 
  14   3  -3   25.57    7.24 
  14   3   3   18.78    7.28 
  14   3  -3   15.46    5.80 
  -3  14   3   31.93    7.99 
  -3  14  -3   20.17    7.45 
  -3  14   3   22.39    7.64 
  14   3   5   65.65   10.89 
  14   3  -5   51.37    9.36 
  14   3  -5   72.15   11.16 
  -3  14   5   60.10   10.42 
  -3  14   5   56.27    9.96 
  -3  14  -5   59.78   11.46 
  -3  14   5   65.58   10.47 
  14   3   7   -0.15    5.17 
  14   3  -7   -0.80    3.71 
  14   3  -7   -5.03    5.15 
  -3  14   7    1.15    6.50 
  -3  14  -7    3.07    4.88 
  -3  14   7    1.62    4.48 
  -3  14   7   -3.35    5.13 
  14   3   9    1.81    4.37 
  14   3  -9   -2.76    4.10 
  14   3  -9    4.06    4.41 
  -3  14  -9    3.86    4.96 
  -3  14   9    2.07    4.40 
  -3  14   9    6.51    5.65 
  14   3  11    1.26    3.94 
  14   3 -11    5.04    3.92 
  -3  14  11    4.96    4.59 
  -3  14 -11    5.92    5.47 
  14   3 -11   12.24    5.47 
  14   3  13   19.25    5.98 
  14   3 -13   17.24    5.86 
  -3  14  13   14.25    6.42 
  -3  14 -13   19.77    6.73 
  14   3 -13   23.29    6.70 
  14   3  15    0.09    3.16 
  14   3 -15    3.18    3.08 
  -3  14 -15   -0.90    4.04 
  -3  14  15    4.72    3.96 
  14   3 -15    2.27    3.42 
  14   3 -17    1.87    2.75 
  -3  14 -17    3.60    3.76 
  -3  14  17   -0.39    3.36 
  14   3 -19    0.66    2.13 
  -3  14 -19    1.36    2.18 
  -3  14  19   -1.20    2.69 
  14   4   0   53.37   11.10 
  -4  14   0   42.84   10.35 
  -4  14   0   38.65    8.48 
  14   4   0   40.36    8.43 
  14   4  -2    1.75    5.07 
  14   4   2   -0.19    6.03 
  14   4  -2    5.73    5.52 
  -4  14   2    3.87    6.14 
  -4  14  -2   -0.50    5.43 
  -4  14  -2    7.64    6.15 
  14   4   2    2.46    4.04 
  -4  14   2    2.27    4.55 
  14   4   4    0.15    4.73 
  14   4  -4    2.67    4.72 
  14   4  -4    7.25    5.19 
  -4  14   4   -3.94    5.07 
  -4  14  -4    0.40    5.80 
  -4  14   4    2.23    4.71 
  14   4   6   -2.70    4.86 
  14   4  -6   -0.74    3.42 
  14   4  -6    2.75    4.58 
  -4  14   6    0.57    4.72 
  -4  14  -6   12.69    7.32 
  -4  14   6    5.67    4.87 
  -4  14   6   -1.38    4.56 
  14   4  -6   11.83    6.28 
  14   4   8   48.33    9.43 
  14   4  -8   24.05    6.76 
  -4  14   8   52.36   12.45 
  -4  14  -8   35.63    8.43 
  -4  14   8   38.24    8.26 
  -4  14   8   31.19    7.37 
  14   4  -8   30.12    7.26 
  14   4  10   -1.71    4.70 
  14   4 -10    1.98    3.69 
  -4  14 -10   -3.68    5.65 
  -4  14  10   -0.34    4.17 
  -4  14  10   -0.51    4.18 
  14   4 -10   -2.67    5.38 
  14   4 -12    1.97    3.97 
  -4  14  12   -2.84    4.52 
  -4  14 -12    2.46    4.98 
  14   4 -12    2.98    4.40 
  14   4 -14   -0.62    3.02 
  14   4  14   -0.58    3.11 
  -4  14 -14   -0.01    3.63 
  -4  14  14    2.82    4.39 
  14   4 -14    7.48    4.19 
  14   4 -16    0.50    2.72 
  -4  14 -16    5.89    3.87 
  -4  14  16    0.22    3.93 
  14   4 -16    5.08    3.23 
  14   4 -18    0.66    2.53 
  -4  14 -18    2.01    2.54 
  -4  14  18   -0.77    2.69 
  14   5  -1   36.66    9.24 
  14   5   1   24.45    7.74 
  -5  14   1   26.82    7.64 
  -5  14  -1   23.74    8.60 
  -5  14   1   30.02    7.66 
  -5  14  -1   21.07    7.78 
  14   5  -1   41.46    9.26 
  14   5   1   30.57    7.60 
  14   5   3   14.00    6.37 
  14   5  -3    8.68    3.91 
  14   5  -3   16.76    6.63 
  -5  14   3   17.39    6.79 
  -5  14  -3   24.82    8.61 
  -5  14  -3   17.63    7.55 
  14   5  -3   16.28    6.89 
  -5  14   3   26.04    7.59 
  14   5  -5   26.56    6.33 
  14   5   5   25.21    7.43 
  14   5  -5   28.78    7.92 
  -5  14   5   22.61    7.65 
  -5  14   5   20.99    6.99 
  -5  14  -5   42.96   10.39 
  -5  14   5   21.17    7.31 
  -5  14  -5   16.27    6.67 
  14   5  -5   21.21    6.78 
  14   5  -7   67.39    9.57 
  14   5   7   87.32   12.41 
  -5  14   7   81.14   11.82 
  -5  14   7   74.74   11.35 
  -5  14  -7   75.39   11.82 
  -5  14   7   80.55   12.17 
  14   5  -7   90.24   12.62 
  14   5   9   -0.62    4.17 
  14   5  -9    4.69    4.10 
  -5  14   9   -1.02    4.29 
  -5  14  -9    5.43    5.18 
  -5  14   9    9.18    5.82 
  14   5  -9   -1.88    4.31 
  14   5  11   -1.68    4.50 
  14   5 -11    0.30    4.22 
  -5  14  11    2.66    4.49 
  -5  14 -11   -1.67    4.54 
  14   5 -11    1.59    3.74 
  14   5 -13   14.73    4.76 
  14   5  13   14.08    5.33 
  -5  14  13   21.29    6.59 
  -5  14 -13   21.42    6.78 
  14   5 -13   30.52    7.08 
  14   5 -15   18.99    6.41 
  -5  14 -15    7.10    4.74 
  -5  14  15   17.04    5.81 
  14   5 -15   12.08    3.92 
  14   5 -17   -0.24    2.52 
  -5  14 -17    0.28    2.58 
  -5  14  17    0.53    2.96 
  14   6   0    4.23    4.52 
  -6  14   0   14.06    7.47 
  -6  14   0   11.62    6.83 
  14   6   0    0.45    4.11 
  14   6  -2   15.88    5.38 
  14   6  -2   28.41    7.94 
  14   6   2   27.93    7.93 
  -6  14   2   24.37    8.18 
  -6  14  -2   44.66   10.65 
  -6  14  -2   35.34    8.71 
  14   6  -2   27.33    7.40 
  14   6   2   23.80    6.59 
  -6  14   2   25.27    7.65 
  14   6  -4    0.90    3.60 
  14   6   4   -1.22    4.43 
  -6  14   4    8.34    6.13 
  -6  14  -4   -1.95    5.17 
  -6  14  -4   -2.67    4.55 
  14   6  -4    1.12    4.11 
  -6  14   4   -4.79    5.33 
  14   6  -6   12.82    5.06 
  14   6   6   16.99    6.71 
  -6  14   6   15.21    6.82 
  -6  14  -6   23.21    7.81 
  -6  14   6    9.68    5.61 
  -6  14   6   20.67    7.21 
  -6  14  -6   22.09    7.87 
  14   6  -6    7.58    5.03 
  14   6  -8    3.27    3.87 
  14   6   8   17.48    6.82 
  -6  14  -8   19.06    7.21 
  -6  14   8   18.71    7.86 
  -6  14   8   14.02    6.72 
  -6  14  -8   13.42    6.96 
  14   6  -8   19.26    7.00 
  14   6 -10    7.46    4.28 
  14   6  10   12.15    5.61 
  -6  14 -10   13.35    5.59 
  -6  14  10   13.51    6.09 
  -6  14  10   11.59    5.60 
  14   6 -10   19.72    6.55 
  14   6 -12    2.86    3.14 
  14   6  12    2.08    3.05 
  -6  14  12    4.43    4.60 
  -6  14 -12   -1.30    3.64 
  14   6 -12    2.50    3.62 
  14   6 -14    1.16    2.71 
  -6  14 -14    2.90    3.86 
  -6  14  14    1.22    3.67 
  14   6 -14    4.21    3.73 
  14   6 -16   -0.05    2.54 
  -6  14 -16    0.75    2.83 
  -6  14  16   -2.21    3.51 
  14   6 -16    8.26    3.36 
  14   6 -18    1.65    2.11 
  -6  14  18    1.16    2.37 
  14   7  -1    6.96    3.73 
  14   7  -1   13.39    6.42 
  14   7   1    7.84    5.62 
  -7  14   1    5.02    5.75 
  -7  14  -1   14.59    7.04 
  -7  14   1   13.44    6.26 
  -7  14  -1    6.43    6.29 
  14   7   1   10.45    4.46 
  14   7  -1   12.92    6.07 
  14   7  -3   58.65    9.80 
  14   7   3   73.07   11.28 
  -7  14   3   71.65   11.65 
  -7  14  -3   64.35   11.14 
  -7  14  -3   47.90   10.18 
  14   7  -3   63.82   10.54 
  -7  14   3   59.90   10.87 
  14   7  -5   36.45    7.50 
  14   7   5   41.99    8.96 
  -7  14   5   47.39    9.59 
  -7  14   5   26.83    8.09 
  -7  14  -5   37.95    9.66 
  -7  14  -5   26.95    8.37 
  14   7  -5   44.10    8.95 
  -7  14   5   38.25    8.72 
  14   7  -7    1.25    3.59 
  14   7   7    0.57    4.14 
  -7  14  -7    0.52    4.94 
  -7  14   7    4.43    4.57 
  -7  14   7   -4.02    5.23 
  -7  14   7    4.89    6.25 
  -7  14  -7    0.39    4.65 
  14   7  -7   -3.42    5.39 
  14   7  -9   23.07    6.46 
  14   7   9   25.14    7.15 
  -7  14  -9   21.48    7.34 
  -7  14   9   33.13    7.91 
  -7  14   9   33.40    7.85 
  -7  14  -9   21.48    6.78 
  14   7  -9   27.09    7.70 
  14   7 -11   25.71    6.05 
  14   7  11   20.93    5.92 
  -7  14  11   34.80    7.74 
  -7  14 -11   24.65    6.78 
  -7  14  11   30.63    7.36 
  -7  14 -11   25.81    6.39 
  14   7 -11   34.85    7.47 
  14   7 -13    4.07    3.53 
  -7  14 -13    3.90    3.97 
  -7  14  13    2.51    3.76 
  14   7 -13    8.77    4.12 
  14   7 -15    0.19    2.66 
  -7  14 -15   -0.99    2.84 
  -7  14  15    7.02    4.76 
  14   7 -15    0.32    2.44 
  14   7 -17    1.62    2.57 
   7 -14  17    0.47    2.72 
  -7  14  17    4.74    3.27 
  14   8   0   16.14    5.98 
  -8  14   0   17.39    7.20 
  -8  14   0   10.63    6.50 
  14   8   0   13.75    5.91 
  14   8  -2    4.57    3.64 
  -8  14   2   16.69    7.29 
  -8  14  -2   13.42    6.94 
  -8  14  -2    5.59    6.35 
  14   8  -2   22.71    6.88 
  -8  14   2   10.70    6.12 
  14   8  -4    0.78    3.38 
  14   8   4    4.03    6.24 
  -8  14   4    7.28    5.64 
  -8  14   4   -1.01    4.52 
  -8  14  -4   -4.18    5.66 
  -8  14  -4  -12.06    6.06 
  14   8  -4   -1.34    4.13 
  -8  14   4    2.93    5.35 
  14   8  -6    3.36    5.11 
  14   8   6    4.55    4.57 
  -8  14   6    0.19    4.39 
  -8  14  -6    3.09    5.04 
  -8  14   6   -4.68    4.91 
  -8  14   6    3.27    4.60 
  -8  14  -6    1.09    4.62 
  14   8  -6   -0.95    4.06 
  14   8  -8   23.44    5.76 
  14   8   8   25.37    7.17 
  -8  14  -8   16.08    7.13 
  -8  14   8   24.09    7.30 
  -8  14   8   15.27    6.43 
  -8  14  -8   12.25    6.70 
  14   8  -8   21.58    6.83 
  14   8 -10   13.83    4.79 
  -8  14 -10   10.57    5.94 
  -8  14  10   21.03    6.44 
  -8  14  10   19.24    6.19 
  -8  14 -10   13.83    6.41 
  14   8 -10   30.07    7.17 
  14   8 -12    1.85    3.35 
  -8  14  12    1.91    3.48 
  -8  14 -12    5.11    4.17 
  -8  14 -12    0.13    3.25 
  14   8 -12    1.99    3.46 
   8 -14  14    6.98    4.71 
  14   8 -14    0.05    2.37 
  -8  14 -14    6.99    3.67 
  -8  14  14    5.75    3.71 
  14   8 -14    2.31    2.55 
  14   8 -16   -1.84    2.06 
   8 -14  16   -0.43    2.71 
  -8  14  16    1.97    2.55 
  14   9   1   16.15    5.12 
  14   9  -1   12.26    5.10 
  -9  14   1   13.13    6.71 
  -9  14  -1   17.65    6.71 
  -9  14   1   15.55    6.22 
  -9  14  -1   10.46    6.29 
  14   9   1    9.02    5.30 
  14   9  -1   24.33    7.02 
  14   9   3   -1.89    3.84 
  14   9  -3    2.62    4.02 
  -9  14   3    4.03    4.92 
  -9  14  -3    3.33    5.45 
  -9  14   3    0.07    4.25 
  14   9  -3    6.25    4.96 
  -9  14  -3    2.91    5.75 
  -9  14   3   -4.89    4.74 
   9 -14   5    4.46    6.10 
  14   9  -5    7.22    4.41 
  -9  14   5    9.77    5.79 
  -9  14  -5   18.78    6.98 
  -9  14   5    2.62    4.80 
  -9  14  -5    9.51    6.29 
  14   9  -5    7.78    4.22 
  -9  14   5   14.76    6.70 
   9 -14   7   25.02    7.39 
  14   9  -7    8.36    4.54 
  -9  14  -7   15.10    6.38 
  -9  14   7   15.06    5.97 
  -9  14   7   19.55    6.37 
  14   9  -7   28.18    7.03 
  -9  14  -7    9.12    6.31 
   9 -14   9   21.07    7.78 
  14   9  -9    2.85    3.25 
  -9  14  -9    9.95    5.20 
  -9  14   9    3.75    4.20 
  -9  14   9    7.58    4.65 
  -9  14  -9    3.39    5.07 
  14   9  -9    6.53    4.55 
   9 -14  11    9.41    5.54 
  14   9 -11    4.38    3.51 
  -9  14  11    1.30    3.35 
  -9  14 -11    8.52    4.31 
  -9  14 -11   -1.79    3.82 
  14   9 -11    3.35    3.50 
   9 -14  13    6.10    3.79 
  14   9 -13    1.10    2.70 
  -9  14 -13   -1.04    2.52 
  -9  14  13    4.42    3.22 
  -9  14 -13    1.10    1.49 
  14   9 -13    6.18    3.64 
  14   9 -15    1.56    2.12 
   9 -14  15    1.27    2.67 
  14  10   0   39.60    7.63 
 -10  14   0   39.67    8.63 
 -10  14   0   37.82    9.27 
  14  10   0   30.56    7.04 
  14  10   2   -5.92    4.35 
  14  10  -2    0.84    3.51 
 -10  14   2   -0.60    4.04 
 -10  14  -2   -0.72    4.27 
 -10  14   2    0.07    4.65 
 -10  14  -2    0.09    4.62 
  14  10  -2    1.32    3.57 
 -10  14   2   -8.55    5.32 
  14  10  -4    6.38    4.40 
 -10  14  -4    0.19    4.23 
 -10  14   4    5.51    4.50 
 -10  14   4   -0.62    4.28 
 -10  14  -4    3.21    5.69 
  14  10  -4    5.28    4.15 
 -10  14   4   -3.51    4.52 
  14  10  -6   -1.49    3.05 
  10 -14   6   -0.19    4.27 
 -10  14  -6    4.94    4.77 
 -10  14   6    0.06    4.24 
 -10  14   6   -0.23    4.06 
 -10  14  -6   -0.67    4.07 
  14  10  -6   -1.98    3.89 
  14  10  -8   10.95    4.34 
  10 -14   8    6.15    4.61 
 -10  14  -8    5.77    4.40 
 -10  14   8    6.09    4.49 
 -10  14   8   15.89    5.43 
 -10  14  -8    2.11    3.68 
  14  10  -8    8.23    3.91 
  14  10 -10   -0.24    2.79 
  10 -14  10   -6.44    4.21 
 -10  14  10    0.74    3.19 
 -10  14 -10    1.40    3.26 
 -10  14  10    4.39    3.65 
 -10  14 -10   -1.90    3.10 
  14  10 -10   -0.16    3.07 
  14  10 -12    0.77    2.72 
  10 -14  12    2.66    2.99 
 -10  14 -12    1.89    2.61 
 -10  14  12    2.18    2.58 
  14  10 -14    5.97    2.70 
  10 -14  14    0.55    2.25 
  14  11   1    2.61    2.96 
  14  11  -1    3.31    3.65 
 -11  14   1    3.55    4.35 
 -11  14  -1  -12.57    5.13 
 -11  14   1    2.49    3.72 
 -11  14  -1    6.53    5.08 
  14  11  -1    2.83    3.72 
 -11  14   1    0.27    4.21 
  14  11   3   11.25    5.37 
  14  11  -3   15.98    5.39 
 -11  14  -3   19.63    6.17 
 -11  14   3   18.16    5.43 
 -11  14   3   14.52    6.06 
 -11  14  -3   18.91    6.04 
  14  11  -3    7.08    4.97 
 -11  14   3   22.52    6.52 
  14  11  -5    8.10    4.02 
 -11  14  -5   -0.17    3.47 
 -11  14   5    8.58    4.00 
 -11  14   5   12.20    4.40 
 -11  14  -5    6.08    4.77 
  14  11  -5    9.86    5.08 
  14  11  -7   -0.19    2.96 
  11 -14   7   -1.49    3.60 
 -11  14  -7    2.40    3.31 
 -11  14   7   -0.23    2.90 
 -11  14   7    1.90    3.80 
 -11  14  -7   -0.82    3.64 
  14  11  -7   -4.39    3.63 
  14  11  -9   -1.10    2.85 
  11 -14   9    4.73    3.46 
 -11  14   9    4.15    3.01 
 -11  14  -9    2.42    2.98 
 -11  14   9    4.27    4.08 
 -11  14  -9    1.71    2.84 
  14  11  -9   -0.76    3.09 
  14  11 -11    4.47    3.44 
  11 -14  11    6.52    2.91 
 -11  14 -11    1.69    2.67 
  14  11 -11    1.90    2.37 
  14  12   0    0.74    2.59 
 -12  14   0    1.47    2.82 
 -12  14   0    4.72    3.82 
  14  12   0    6.01    2.78 
 -12  14   0    5.17    3.99 
  14  12  -2    8.33    4.49 
 -12  14  -2    3.76    4.16 
 -12  14  -2   10.52    3.96 
 -12  14   2    7.83    3.75 
 -12  14  -2    2.33    4.14 
  14  12  -2    2.10    3.23 
 -12  14   2    6.72    4.06 
  14  12  -4   -2.65    3.36 
 -12  14  -4    4.68    4.30 
 -12  14   4   -0.93    3.23 
 -12  14   4   -2.33    2.77 
 -12  14  -4   -4.26    4.32 
  14  12  -4    0.21    2.77 
  14  12  -6    2.71    2.92 
 -12  14  -6    2.22    3.22 
 -12  14   6    2.74    2.32 
 -12  14   6    6.44    3.97 
 -12  14  -6   -0.76    2.85 
  14  12  -6    0.57    2.74 
  14  12  -8    0.07    2.05 
 -12  14  -8   -1.74    2.18 
 -12  14   8    3.50    3.14 
 -12  14  -8   -0.85    2.45 
  14  12  -8   -0.90    2.56 
  14  12 -10    1.10    1.81 
  14  12 -10    2.06    2.30 
  14  13  -1    2.74    3.13 
 -13  14  -1    2.27    1.98 
 -13  14   1    0.97    2.76 
  14  13  -3   -0.69    2.69 
 -13  14   3    1.46    2.83 
 -13  14  -3    0.63    1.91 
  14  13  -3    1.63    2.99 
 -13  14  -3   -1.76    2.91 
  14  13  -5    0.46    2.39 
 -13  14   5    3.22    2.82 
 -13  14  -5    1.89    2.64 
  14  13  -5    0.90    2.43 
  14  13  -7    0.42    1.96 
 -13  14   7    0.92    2.04 
 -13  14  -7    3.09    2.43 
  14  13  -7    4.77    2.50 
 -14  14   0    0.93    2.11 
 -14  14   2    2.92    2.25 
 -14  14  -2   -0.08    1.76 
  12  15  -1    0.55    1.10 
 -15  12   1    0.13    2.41 
 -15  12  -1    3.02    2.80 
  12  15  -3    6.47    3.41 
 -15  12   3    1.61    2.25 
 -15  12  -3    1.75    2.83 
  12  15  -5   -0.97    2.11 
 -15  12  -5    1.17    2.18 
  12  15  -7   -0.01    1.87 
 -15  12  -7   -0.28    2.13 
  11  15   0   -2.55    3.20 
 -15  11   0   -5.06    3.37 
  11  15  -2    9.93    4.11 
  11  15   2    6.91    3.61 
  11  15  -2    0.99    2.46 
 -15  11  -2    3.55    3.11 
 -15  11   2   15.47    4.42 
  11  15  -4   -4.12    3.84 
  11  15  -4    2.24    2.51 
 -15  11   4    1.68    2.49 
 -15  11  -4    0.76    3.18 
  11  15  -6    6.57    2.71 
  11  15  -6    9.91    3.98 
 -15  11   6   12.67    3.80 
 -15  11  -6   12.23    4.32 
  11  15   6   22.22    4.99 
  11  15  -8    0.19    2.36 
 -15  11  -8    2.90    2.86 
  10  15  -1   14.34    4.33 
  10  15   1   22.75    5.89 
  10  15  -1   13.01    4.96 
  10  15   1   14.11    4.71 
 -15  10  -1   12.23    5.40 
 -15  10   1   15.43    5.08 
  10  15  -3   -1.75    3.95 
  10  15  -3    2.34    3.00 
  10  15   3    5.91    3.96 
 -15  10  -3   -2.56    3.63 
  10  15   3   15.51    6.04 
  10  15  -3   11.34    5.46 
 -15  10   3    5.39    4.10 
  10  15  -5    7.17    4.33 
  15 -10   5    5.51    3.43 
  10  15  -5    9.95    4.07 
 -15  10   5    6.47    3.25 
 -15  10  -5    4.65    4.07 
  10  15   5   16.82    4.78 
  10  15  -5   20.91    5.93 
  10  15  -7    4.81    3.71 
  15 -10   7   13.18    3.60 
  10  15  -7    6.10    2.90 
 -15  10   7    5.32    2.61 
 -15  10  -7   18.84    5.24 
  10  15   7   12.94    4.35 
  10  15  -7   16.35    5.06 
  10  15  -9    0.64    2.89 
  15 -10   9    1.51    2.40 
  10  15  -9    1.18    2.32 
 -15  10  -9   -2.89    3.23 
  10  15   9    6.93    3.66 
  15 -10  11   -1.55    2.29 
  15 -10 -11   -0.26    2.25 
 -15  10 -11   -0.30    2.40 
  10  15  11   -1.23    2.18 
   9  15   0   -1.12    3.91 
   9  15   0    8.21    5.83 
   9  15   2   18.00    6.48 
   9  15  -2    5.94    4.59 
   9  15  -2    6.95    3.89 
   9  15   2   -5.55    4.67 
 -15   9  -2    0.04    3.98 
   9  15   2    3.17    5.02 
   9  15  -2   11.99    6.12 
 -15   9   2    1.80    3.70 
   9  15  -4   40.56    7.70 
  15  -9   4   28.35    6.15 
   9  15   4   38.98    7.42 
   9  15  -4   35.67    6.41 
 -15   9  -4   37.18    7.78 
   9  15   4   32.66    7.03 
 -15   9   4   33.87    6.18 
   9  15  -4   46.44    8.27 
   9  15  -6   -1.19    4.30 
  15  -9   6   -1.32    3.60 
   9  15   6   10.38    4.92 
   9  15  -6    3.94    3.21 
 -15   9   6    4.21    3.13 
 -15   9  -6   -0.12    3.96 
   9  15   6   -3.09    3.90 
   9  15  -6    4.38    4.46 
   9  15  -8    3.71    3.17 
   9  15  -8    4.48    4.03 
  15  -9   8    7.38    3.61 
 -15   9  -8    4.03    3.72 
   9  15   8    3.93    3.34 
   9  15 -10    1.29    2.24 
   9  15 -10    3.52    3.13 
  15  -9  10    0.98    2.77 
 -15   9 -10   -6.11    3.93 
   9  15  10   -0.33    2.75 
  15  -9 -12    7.77    3.25 
  15  -9  12    1.52    2.60 
   9  15 -12    6.72    2.66 
 -15   9 -12    7.89    3.59 
   9  15  12    3.45    2.37 
   8  15   1   16.18    6.12 
   8  15  -1   12.45    5.38 
   8  15   1    9.49    5.30 
   8  15  -1    1.71    3.91 
 -15   8   1    9.43    4.10 
 -15   8  -1    7.48    4.99 
   8  15  -1   26.69    8.10 
   8  15   1   10.33    5.62 
  15  -8   3   26.87    6.20 
   8  15  -3   35.71    7.78 
   8  15   3   31.58    7.09 
 -15   8  -3   40.67    8.23 
   8  15   3   42.46    8.29 
   8  15  -3   45.32    8.90 
 -15   8   3   27.80    6.76 
   8  15  -5    7.66    5.11 
   8  15  -5   18.29    5.67 
  15  -8   5   20.11    6.90 
   8  15   5   28.36    6.86 
 -15   8  -5   37.49    9.21 
   8  15   5   21.32    6.28 
 -15   8   5   11.17    4.93 
   8  15  -5   36.55    8.09 
   8  15  -7    1.64    3.97 
   8  15   7   14.49    6.23 
  15  -8   7    1.14    4.29 
   8  15  -7   -4.22    3.45 
 -15   8  -7    1.13    4.29 
   8  15   7   -0.20    3.69 
   8  15  -7   12.14    6.33 
   8  15  -9   15.05    5.22 
  15  -8   9   16.31    5.29 
   8  15  -9   18.58    4.97 
 -15   8  -9   19.26    6.37 
   8  15   9   13.20    4.86 
   8  15 -11   15.76    4.07 
  15  -8 -11   17.74    5.47 
   8  15 -11   13.64    4.27 
  15  -8  11   23.36    5.13 
 -15   8 -11   19.81    5.68 
   8  15  11   15.13    4.13 
  15  -8  13   -0.23    2.50 
   8  15 -13   -1.19    1.89 
  15  -8 -13   -2.13    2.57 
 -15   8 -13    1.17    3.22 
   8  15  13    3.48    2.60 
   7  15   0   -5.24    4.80 
   7  15   0    1.28    4.46 
 -15   7   0   -1.03    4.88 
   7  15   0    1.71    4.79 
   7  15  -2   12.95    5.90 
   7  15   2   19.37    7.14 
   7  15  -2    0.93    5.08 
   7  15   2    6.77    5.70 
  15  -7   2    9.07    5.17 
 -15   7   2   10.56    5.25 
 -15   7  -2   12.47    7.26 
   7  15   2    7.63    5.49 
   7  15  -2   20.53    7.64 
   7  15  -4    7.47    5.58 
  15  -7   4   -1.13    3.99 
   7  15  -4   10.94    5.10 
   7  15   4    4.65    4.53 
 -15   7  -4   17.01    6.98 
   7  15   4    6.26    4.90 
   7  15  -4   16.03    7.60 
   7  15  -6   16.79    6.04 
   7  15  -6   19.50    5.86 
  15  -7   6   17.88    6.06 
   7  15   6   24.38    6.73 
 -15   7  -6    8.50    5.59 
   7  15   6   10.68    5.32 
   7  15  -6   12.63    7.40 
   7  15   8   12.37    6.22 
  15  -7   8    5.64    4.68 
   7  15  -8   -3.79    3.76 
 -15   7  -8    1.46    4.42 
   7  15   8   -2.17    3.58 
   7  15  -8   12.39    6.73 
   7  15 -10    4.24    3.57 
   7  15 -10    1.64    2.88 
  15  -7  10    1.66    3.41 
 -15   7 -10   -4.93    5.46 
   7  15  10    6.11    3.80 
   7  15 -12    2.65    2.89 
  15  -7  12   -1.33    3.33 
  15  -7 -12    7.49    4.18 
 -15   7 -12   -2.35    4.56 
   7  15  12    6.33    3.39 
  15  -7  14    5.35    3.02 
  15  -7 -14    2.86    2.73 
   7  15 -14    6.59    2.89 
 -15   7 -14   -3.19    3.21 
   7  15  14    2.55    3.26 
   6  15  -1   63.39   10.29 
   6  15   1   73.47   10.87 
   6  15  -1   73.23   10.72 
  15  -6   1   62.23   10.26 
   6  15   1   65.19   10.37 
 -15   6  -1   54.59    9.95 
   6  15  -1   54.12   10.89 
   6  15   1   56.38    9.72 
   6  15   3   14.02    6.86 
   6  15  -3   -2.01    5.15 
   6  15   3   -4.69    5.45 
  15  -6   3   -0.85    4.69 
   6  15  -3    0.64    4.27 
 -15   6  -3   -0.54    4.55 
   6  15   3   -0.02    4.85 
   6  15  -5    7.48    5.08 
  15  -6   5    1.41    4.22 
   6  15  -5    4.01    4.44 
   6  15   5    5.51    5.22 
 -15   6  -5   -0.40    5.13 
   6  15   5    5.14    5.09 
   6  15  -5   12.73    7.10 
   6  15  -7   44.33    8.60 
  15  -6   7   56.78    9.26 
   6  15   7   63.83   10.08 
   6  15  -7   47.41    8.73 
 -15   6  -7   39.82    9.02 
   6  15   7   48.51    8.95 
   6  15  -7   70.43   10.45 
   6  15  -9   24.42    5.94 
   6  15  -9   15.85    5.39 
  15  -6   9   31.45    7.22 
 -15   6  -9   27.03    8.29 
   6  15   9   29.54    6.89 
   6  15 -11    2.25    3.42 
  15  -6 -11    0.43    4.24 
  15  -6  11    0.11    3.75 
 -15   6 -11    2.05    4.98 
   6  15  11    4.67    4.30 
   6  15 -13   10.03    3.86 
  15  -6 -13    7.58    3.88 
  15  -6  13   15.30    5.03 
 -15   6 -13    6.70    5.36 
   6  15  13    2.15    3.43 
  15  -6  15    5.79    2.99 
   6  15 -15    9.81    3.08 
 -15   6 -15    2.14    3.49 
   6  15  15    3.01    2.97 
   5  15   0   -1.64    4.57 
   5  15   0    1.42    4.64 
  15  -5   0    8.30    5.03 
   5  15   0   -0.59    4.42 
   5  15   2   22.69    8.03 
   5  15  -2    4.69    4.84 
  15  -5   2    1.94    4.99 
   5  15   2    2.48    5.08 
   5  15  -2    7.66    5.46 
   5  15  -2    8.26    6.88 
   5  15   2    2.75    4.53 
   5  15   4   20.61    7.63 
   5  15  -4   16.69    6.73 
  15  -5   4   17.94    6.76 
   5  15  -4   10.87    5.17 
 -15   5  -4   13.65    6.08 
   5  15   4   13.21    5.89 
   5  15  -6    2.80    4.23 
  15  -5   6    9.11    5.21 
   5  15  -6    3.67    4.07 
   5  15   6   13.35    5.75 
 -15   5  -6    6.78    5.25 
   5  15   6    4.70    4.78 
   5  15  -8   -4.17    4.59 
   5  15  -8   -0.21    3.51 
  15  -5   8   -2.40    4.14 
   5  15   8   11.91    7.29 
 -15   5  -8    2.69    5.09 
   5  15   8    4.02    5.16 
   5  15 -10    8.23    4.60 
  15  -5 -10   19.79    6.97 
  15  -5  10    4.68    5.71 
 -15   5 -10    8.10    6.32 
   5  15  10    4.53    4.25 
   5  15 -12   -0.13    3.55 
  15  -5 -12    6.07    4.58 
  15  -5  12    6.47    4.47 
 -15   5 -12    2.37    4.79 
   5  15  12    6.71    4.40 
   5  15 -14    1.85    2.93 
  15  -5  14    2.06    3.09 
  15  -5 -14   -3.08    3.34 
   5  15  14    3.18    2.99 
   5  15 -16    2.20    2.35 
  15  -5  16   -1.52    2.24 
 -15   5 -16   -4.21    3.71 
   5  15  16    3.95    3.11 
   4  15   1   75.52   11.59 
   4  15  -1   49.29    9.52 
  15  -4  -1   58.74   10.41 
  15  -4   1   42.85    9.63 
   4  15  -1   58.40    9.76 
   4  15   1   55.55    9.44 
   4  15  -1   25.39    8.17 
   4  15   1   46.36    8.85 
   4  15  -3   59.78    9.96 
   4  15   3   70.73   10.38 
  15  -4   3   63.54   10.87 
   4  15  -3   69.11   10.50 
   4  15   3   60.36    9.83 
   4  15   5    9.60    5.18 
   4  15  -5    3.75    4.40 
  15  -4   5    5.56    6.41 
   4  15  -5    8.91    5.50 
 -15   4  -5    4.47    6.03 
   4  15   5    2.77    4.77 
   4  15  -7   10.85    4.37 
   4  15  -7    1.86    3.64 
  15  -4   7    0.89    5.10 
   4  15   7   -0.50    5.64 
 -15   4  -7    0.76    6.92 
   4  15   7   -2.24    4.59 
   4  15  -9   28.80    6.95 
   4  15   9   49.12    9.38 
  15  -4   9   20.37    7.05 
 -15   4  -9   24.46    8.13 
   4  15   9   31.01    7.43 
   4  15 -11    2.95    3.42 
  15  -4 -11    5.72    5.04 
  15  -4  11    5.64    4.43 
 -15   4 -11   20.80    8.07 
   4  15  11   12.69    5.46 
   4  15 -13   -0.47    3.52 
  15  -4 -13    6.36    4.43 
  15  -4  13   -1.92    3.54 
 -15   4 -13   -7.26    5.51 
   4  15  13    0.09    3.16 
   4  15 -15   -1.75    2.65 
  15  -4  15   -1.76    2.82 
  15  -4 -15    1.95    2.80 
 -15   4 -15   -3.23    3.98 
   4  15  15    2.91    3.29 
   4  15 -17    5.68    2.35 
   4  15  17    0.37    1.92 
   3  15   0    3.00    5.02 
   3  15   0   -1.44    4.14 
  15  -3   0    2.81    5.17 
   3  15   0    0.97    4.55 
   3  15  -2    2.64    4.41 
   3  15  -2    1.09    4.32 
  15  -3  -2    2.95    4.64 
  15  -3   2   -4.59    5.23 
   3  15   2    1.47    4.22 
   3  15  -2    3.90    5.32 
   3  15   2    0.83    4.32 
   3  15  -4    7.85    4.36 
   3  15   4   24.65    7.19 
  15  -3   4   18.26    7.34 
   3  15  -4   19.26    5.99 
   3  15   4   10.73    5.88 
   3  15  -6    5.95    4.56 
  15  -3   6    2.35    4.91 
   3  15   6   -5.71    5.24 
   3  15   6    0.74    4.70 
   3  15  -8    4.31    4.48 
  15  -3  -8   14.88    6.54 
  15  -3   8   -4.22    4.68 
   3  15   8    2.21    4.94 
 -15   3  -8   13.90    7.37 
   3  15   8    0.23    4.25 
   3  15 -10    2.04    3.70 
  15  -3 -10   16.60    7.43 
  15  -3  10   10.52    4.71 
 -15   3 -10    4.60    5.79 
   3  15  10    2.80    4.99 
  15  -3 -12   -1.75    4.04 
  15  -3  12    3.70    3.81 
   3  15 -12   -1.51    3.86 
   3  15 -12   -0.40    3.31 
 -15   3 -12    0.47    5.56 
   3  15  12    2.74    4.56 
  15  -3  14    2.41    3.48 
  15  -3 -14    4.42    3.80 
   3  15 -14   -0.57    3.28 
   3  15 -14    2.57    3.35 
 -15   3 -14    0.13    4.85 
   3  15  14    3.20    4.00 
  15  -3  16    0.46    2.36 
   3  15 -16    4.05    2.60 
   3  15 -16    1.16    1.80 
 -15   3 -16    2.54    5.00 
   3  15  16   -2.65    2.93 
   2  15  -1   58.72   10.10 
  15  -2  -1   51.63   10.09 
  15  -2   1   49.73   10.11 
   2  15  -1   67.89   10.47 
   2  15   1   40.84    8.30 
  15  -2  -3   12.92    5.48 
  15  -2   3   14.92    6.06 
   2  15   3   10.77    5.12 
   2  15  -3    4.47    4.14 
   2  15   3    5.04    6.01 
   2  15  -5   -0.86    3.97 
  15  -2   5   14.83    8.70 
   2  15   5   -6.19    6.07 
   2  15   5   14.01    8.24 
   2  15  -7    3.92    4.21 
  15  -2  -7    8.80    6.07 
  15  -2   7    5.86    5.34 
   2  15   7   -0.55    5.09 
   2  15   7    2.84    4.46 
  15  -2  -9   17.47    7.28 
  15  -2   9   12.35    6.18 
   2  15   9   26.13    8.08 
   2  15  -9    9.88    5.26 
   2  15  -9    9.13    4.83 
   2  15   9    6.27    5.67 
  15  -2 -11   46.51    9.01 
  15  -2  11   47.33    8.90 
   2  15 -11   46.82    8.40 
   2  15 -11   31.89    7.15 
 -15   2 -11   35.40    9.39 
   2  15  11   29.95    8.05 
  15  -2  13   -1.64    4.33 
  15  -2 -13    2.34    3.58 
   2  15 -13   -2.28    3.92 
   2  15 -13    4.53    4.16 
 -15   2 -13    6.38    5.37 
   2  15  13   -6.52    3.99 
  15  -2  15   -2.12    2.72 
   2  15 -15    0.89    3.14 
   2  15 -15    2.27    3.39 
  15  -2 -15    1.29    3.05 
 -15   2 -15    4.22    5.52 
   2  15  15   -1.21    3.10 
   2  15 -17    2.97    2.41 
   2  15 -17    0.94    2.24 
   2  15  17    0.44    2.13 
  15  -1   0    8.91    5.09 
  15  -1   0   -6.95    5.73 
   1  15   0   -0.36    4.37 
  15  -1  -2   14.88    6.90 
  15  -1  -2    7.81    5.57 
  15  -1   2   13.73    6.19 
   1  15  -2    7.76    4.41 
  15  -1   2   -0.28    5.47 
   1  15   2    2.34    4.42 
  15  -1  -4   44.04    9.32 
  15  -1  -4   34.74    7.56 
   1  15   4   46.35    9.38 
   1  15  -4   35.37    7.54 
  15  -1   4   47.99   10.02 
   1  15   4   26.25    7.85 
  15  -1  -6   12.82    6.57 
  15  -1   6   17.22    7.50 
   1  15   6   19.08    6.28 
   1  15  -6   13.65    5.88 
   1  15  -6   11.30    5.45 
   1  15   6    3.16    3.96 
   1  15   6    2.04    3.54 
  15  -1  -8   10.27    6.45 
  15  -1   8    9.10    5.35 
   1  15   8   11.06    6.60 
   1  15  -8    3.62    4.32 
   1  15   8    5.08    5.09 
   1  15  -8    5.32    4.55 
   1  15   8    0.13    3.64 
  15  -1  10   -4.63    5.70 
  15  -1 -10   -2.73    4.25 
   1  15 -10    8.71    5.10 
   1  15 -10   -0.92    4.10 
   1  15  10    3.22    4.46 
   1  15  10    1.50    4.32 
  15  -1  12   39.26    8.77 
  15  -1 -12   44.32    8.97 
   1  15 -12   42.32    7.58 
   1  15  12   38.48    7.96 
   1  15  12   17.73    7.26 
  15  -1  14    2.70    3.87 
   1  15 -14    0.33    3.27 
   1  15 -14   -1.72    3.71 
   1  15  14   -3.76    4.05 
  15  -1 -14   -0.42    3.08 
   1  15  14    0.54    2.89 
  15  -1  16    6.76    3.23 
  15  -1 -16    0.86    1.37 
   1  15 -16    4.26    2.96 
   1  15 -16    0.98    2.82 
   1  15  16    4.64    3.22 
  15  -1 -16    0.75    2.24 
   1  15  16    2.11    2.59 
  15   0   1    7.41    5.24 
  15   0  -1    3.67    4.55 
  15   0  -1    7.12    6.74 
  15   0   1    4.04    4.83 
   0  15  -1   -3.59    4.41 
   0  15   1   -1.08    4.11 
   0  15   1   -0.32    4.11 
  15   0  -3   14.03    6.36 
  15   0  -3   22.31    7.04 
   0  15   3   12.59    5.64 
  15   0   3   16.64    7.38 
   0  15  -3   11.54    5.40 
   0  15  -3    6.41    4.28 
   0  15   3   11.23    4.89 
  15   0  -5    2.69    4.70 
  15   0   5   -0.25    4.28 
   0  15   5   15.04    6.14 
   0  15  -5   -0.99    4.14 
   0  15  -5    4.78    4.40 
   0  15   5    3.85    4.98 
  15   0  -7   18.47    6.21 
  15   0   7   19.48    6.50 
   0  15   7   19.21    6.88 
   0  15  -7   17.38    5.78 
   0  15  -7   14.26    6.27 
   0  15   7   12.75    5.57 
   0  15   7   15.83    6.30 
  15   0   9    5.79    4.91 
  15   0  -9    0.64    4.41 
   0  15  -9    9.88    5.26 
   0  15   9   -0.42    3.79 
   0  15  -9   -4.07    4.84 
   0  15   9    1.32    4.64 
  15   0  11    3.38    4.87 
  15   0 -11   -3.57    4.45 
   0  15 -11    2.30    4.19 
   0  15 -11    2.11    4.20 
   0  15  11   -1.49    4.61 
   0  15  11   -8.23    4.30 
  15   0  13   16.59    5.70 
  15   0 -13    9.18    4.81 
  15   0 -13   19.14    6.07 
   0  15 -13   25.17    5.90 
   0  15 -13   21.18    6.87 
   0  15  13   18.60    6.79 
   0  15  13    5.17    4.55 
  15   0  15    9.12    4.62 
  15   0 -15    3.53    3.38 
   0  15 -15    9.42    4.00 
   0  15 -15    1.50    3.53 
   0  15  15    6.64    4.40 
  15   0 -15    8.85    4.04 
   0  15  15    8.32    3.86 
  15   0 -17   -1.43    1.72 
   0  15 -17   -0.09    2.21 
   0  15 -17    0.97    2.66 
   0  15  17   -0.11    2.62 
   0  15  17    3.67    2.88 
  15   1   0   -3.16    5.31 
  -1  15   0   -4.79    4.17 
  15   1   0    1.09    3.95 
  -1  15   0    1.28    4.40 
  15   1  -2   34.68    8.18 
  15   1  -2   39.55    9.17 
  15   1   2   39.39    9.83 
  -1  15  -2   36.72    7.95 
  15   1   2   22.12    6.02 
  -1  15   2   29.11    7.06 
  -1  15  -2   42.39    8.71 
  15   1  -4    3.13    4.35 
  15   1  -4    5.77    5.21 
  15   1   4   -4.99    5.09 
  -1  15  -4    5.57    4.53 
  -1  15  -4    8.40    4.80 
  -1  15   4    5.32    4.47 
  15   1   6   41.39    9.15 
  15   1  -6   52.60    9.59 
  -1  15  -6   41.98    9.06 
  -1  15   6   47.31    9.21 
  -1  15  -6   50.60    8.53 
  15   1   8    4.71    4.60 
  15   1  -8   13.58    6.19 
  -1  15  -8    5.74    5.26 
  -1  15   8    4.22    5.24 
  -1  15  -8    7.68    4.73 
  15   1  10   -4.16    5.14 
  15   1 -10   -6.69    5.87 
  -1  15 -10    0.96    3.40 
  -1  15  10   -0.16    3.95 
  15   1  12   -1.29    3.61 
  15   1 -12   -3.88    3.23 
  -1  15 -12   -0.85    3.12 
  -1  15 -12   -6.67    4.65 
  -1  15  12    0.01    3.76 
  15   1 -12    0.19    4.13 
  -1  15  12   -0.02    2.93 
  15   1  14   44.12    7.53 
  15   1 -14   17.75    6.38 
  -1  15 -14   42.92    5.94 
  -1  15  14   44.91    8.37 
  -1  15 -14   81.65   10.66 
  -1  15  14   23.69    6.65 
  15   1 -14   56.22    8.10 
  15   1  16   -0.52    1.39 
  15   1 -16    0.45    2.38 
  -1  15 -16    0.63    2.21 
  -1  15 -16   -0.67    2.94 
  -1  15  16   -1.25    3.15 
  15   1 -16   -2.50    2.64 
  -1  15  16    0.17    1.19 
  -1  15 -18    2.86    2.72 
  -1  15  18    0.86    2.24 
  15   2  -1   11.04    7.29 
  15   2   1    9.61    6.81 
  15   2   1   15.74    6.18 
  15   2  -1    8.22    4.85 
  -2  15   1    8.66    5.11 
  -2  15  -1   20.28    6.93 
  15   2   3   21.56    7.60 
  15   2  -3   17.80    5.86 
  15   2  -3   12.91    5.22 
  -2  15   3   13.40    5.62 
  -2  15   3    7.54    4.60 
  -2  15  -3   18.71    7.27 
  15   2   5   56.25   10.41 
  15   2  -5   50.92    9.06 
  15   2  -5   55.00   10.54 
  -2  15  -5   52.61    9.99 
  15   2   7   29.36    7.67 
  15   2  -7   18.67    6.50 
  -2  15  -7   24.93    7.84 
  -2  15   7   10.93    5.68 
  -2  15   7   17.76    6.07 
  15   2   9    4.72    4.63 
  15   2  -9    1.36    3.64 
  15   2  -9    0.68    4.67 
  -2  15  -9    4.10    3.50 
  -2  15   9    0.90    4.62 
  -2  15  -9    2.05    4.30 
  15   2  11    5.95    5.17 
  15   2 -11    3.56    3.69 
  -2  15 -11   -0.58    3.27 
  -2  15  11    7.14    5.67 
  -2  15 -11   12.67    6.25 
  15   2 -11    0.57    4.13 
  15   2  13   10.62    5.26 
  15   2 -13    8.38    5.25 
  -2  15 -13   23.27    5.07 
  -2  15 -13   15.56    6.01 
  -2  15  13   14.78    6.01 
  15   2 -13   20.09    6.30 
  15   2  15    2.97    2.91 
  15   2 -15    0.41    3.22 
  -2  15 -15    5.59    3.77 
  -2  15  15    2.16    3.99 
  15   2 -15    0.99    2.76 
  -2  15 -17    2.97    2.96 
  -2  15  17    1.86    2.82 
  15   3   0    4.37    5.78 
  -3  15   0    2.54    4.79 
  15   3   0   -0.48    3.94 
  15   3   2   -9.69    6.19 
  15   3  -2    0.72    4.09 
  15   3  -2   -0.44    4.56 
  -3  15   2    0.52    4.21 
  -3  15  -2    0.84    4.61 
  15   3   2   -2.49    4.14 
  15   3  -4   77.76   11.46 
  15   3   4   92.11   13.01 
  -3  15  -4   85.90   12.45 
  -3  15   4   70.73   10.67 
  -3  15   4   76.39   11.72 
  -3  15   4   73.11   10.96 
  15   3  -4   87.93   11.87 
  15   3   6   20.38    6.83 
  15   3  -6   24.04    6.83 
  15   3  -6    6.55    5.40 
  -3  15   6   18.01    6.42 
  -3  15   6   11.19    5.88 
  -3  15  -6   20.30    7.59 
  -3  15   6   18.66    6.48 
  15   3   8    9.68    5.17 
  15   3  -8    2.33    2.99 
  -3  15  -8   -0.34    4.85 
  -3  15   8    7.77    5.76 
  -3  15   8   13.72    6.31 
  15   3  -8   11.82    5.95 
  15   3  10    4.75    4.65 
  15   3 -10    5.63    3.92 
  -3  15  10    3.07    4.92 
  -3  15 -10   -1.77    4.62 
  15   3 -10    1.68    3.97 
  15   3  12   28.34    7.52 
  15   3 -12   31.19    6.54 
  -3  15  12   43.18    8.39 
  -3  15 -12   46.94    8.54 
  15   3 -12   43.75    8.04 
  15   3 -14   -0.01    2.80 
  15   3  14   -1.63    2.68 
  -3  15 -14    2.27    3.79 
  -3  15  14   -0.83    3.42 
  15   3 -14   -8.68    4.01 
  15   3 -16    8.96    3.82 
  -3  15 -16   13.75    4.57 
  -3  15  16   13.43    5.13 
  15   3 -16   14.59    3.57 
  -3  15 -18   -1.93    2.23 
  -3  15  18   -0.63    2.45 
  15   4   1   -0.99    4.30 
  15   4  -1    3.66    6.46 
  -4  15   1    7.50    5.59 
  -4  15  -1   -3.48    5.37 
  15   4   1   -3.38    4.33 
  15   4  -1   -1.34    4.12 
  -4  15   1   -1.63    4.34 
  15   4   3    4.96    4.46 
  15   4  -3   13.49    6.11 
  -4  15   3    2.50    4.69 
  -4  15  -3   15.62    6.48 
  -4  15   3    2.83    3.98 
  15   4  -3    9.16    5.69 
  15   4   5   17.56    6.66 
  15   4  -5   21.49    6.84 
  -4  15   5   13.54    5.94 
  -4  15  -5   10.71    6.38 
  -4  15   5    9.05    5.72 
  -4  15   5    9.66    5.50 
  15   4  -5   20.50    6.93 
  15   4   7   20.32    7.06 
  15   4  -7   17.15    5.08 
  -4  15   7   13.54    6.42 
  -4  15  -7   15.34    7.02 
  -4  15   7   22.77    7.13 
  -4  15   7   20.33    6.08 
  15   4  -7   13.79    5.98 
  15   4  -9    4.68    3.66 
  15   4   9    0.31    3.76 
  -4  15  -9   -0.43    4.38 
  -4  15   9   -0.23    3.98 
  -4  15   9    0.71    3.80 
  15   4  -9    0.83    3.90 
  15   4  11    8.46    5.19 
  15   4 -11    9.16    4.21 
  -4  15  11   14.04    5.23 
  -4  15 -11    6.46    4.79 
  15   4 -11   14.20    5.93 
  15   4 -13    0.90    3.26 
  15   4  13    5.58    3.96 
  -4  15 -13   -1.59    3.96 
  -4  15  13    0.77    4.26 
  15   4 -13   -0.47    3.61 
  15   4 -15    6.31    4.22 
  -4  15 -15   15.06    4.72 
  -4  15  15   13.14    5.37 
  15   4 -15   21.62    4.57 
  15   4 -17    2.00    2.03 
  -4  15 -17    0.71    2.31 
  -4  15  17    0.75    2.67 
  15   5   0   -4.17    4.71 
  -5  15   0   -2.06    4.86 
  15   5   0   -2.34    3.67 
  -5  15   0    4.14    4.78 
  15   5  -2   16.95    6.26 
  15   5   2   11.77    5.71 
  -5  15   2   13.31    5.91 
  -5  15  -2    8.31    6.47 
  15   5  -2   20.42    6.53 
  -5  15   2    1.81    3.98 
  -5  15  -2   10.30    6.01 
  15   5  -4    2.71    4.70 
  15   5   4    0.96    4.35 
  -5  15   4    1.61    5.19 
  -5  15   4   -2.48    4.92 
  -5  15  -4   -3.85    4.96 
  -5  15   4    0.22    4.21 
  15   5  -4    2.89    4.37 
  15   5  -6   43.69    7.33 
  15   5   6   53.74    9.66 
  -5  15   6   43.14    8.74 
  -5  15  -6   54.10   10.63 
  -5  15   6   45.98    8.98 
  -5  15   6   30.54    8.53 
  15   5  -6   54.27    9.89 
  15   5   8    1.07    4.98 
  15   5  -8   -2.46    3.72 
  -5  15   8   -2.44    3.60 
  -5  15  -8    2.11    5.03 
  -5  15   8    4.99    4.60 
  15   5  -8   10.00    5.61 
  15   5 -10    5.27    3.75 
  15   5  10   -3.37    3.30 
  -5  15 -10   -1.72    4.11 
  -5  15  10    0.82    4.73 
  15   5 -10   -0.77    3.59 
  15   5 -12    0.88    2.77 
  15   5  12   -0.05    3.13 
  -5  15  12    1.50    3.80 
  -5  15 -12    0.70    3.41 
  15   5 -12   -0.58    3.54 
  15   5 -14   16.00    5.55 
  -5  15 -14   24.33    6.01 
  -5  15  14   27.21    6.49 
  15   5 -14   35.84    5.85 
  15   5 -16   -0.27    1.89 
  -5  15 -16    1.75    2.68 
  -5  15  16    3.81    3.45 
  15   6  -1    7.23    5.44 
  15   6   1   -4.70    5.04 
  -6  15   1  -10.24    6.56 
  -6  15  -1   -0.20    4.96 
  15   6   1    2.02    4.19 
  15   6  -1    7.38    4.63 
  -6  15   1    0.76    3.96 
  -6  15  -1    2.39    4.67 
  15   6   3   -6.57    5.23 
  -6  15   3    9.22    6.37 
  -6  15  -3    5.04    5.76 
  -6  15   3    5.30    4.90 
  -6  15  -3   -6.97    5.59 
  15   6  -3    2.50    4.61 
  -6  15   3    1.50    4.01 
  15   6  -5    8.50    4.66 
  15   6   5    1.45    4.46 
  -6  15   5    6.54    5.41 
  -6  15  -5   11.67    6.91 
  -6  15   5    1.08    4.00 
  -6  15   5    0.57    5.00 
  -6  15  -5    9.09    4.92 
  15   6  -5    1.29    3.93 
  15   6   7   -0.79    3.83 
  -6  15  -7    4.22    5.38 
  -6  15   7    4.31    4.69 
  -6  15   7    1.00    4.74 
  15   6  -7   -7.66    4.80 
  15   6  -9    3.66    3.69 
  15   6   9   -0.14    3.71 
  -6  15  -9    6.87    4.88 
  -6  15   9   -0.87    3.89 
  -6  15   9    0.19    3.44 
  15   6  -9    9.40    5.01 
  15   6 -11   -4.55    4.05 
  15   6  11   -1.87    3.43 
  -6  15  11    5.37    3.90 
  -6  15 -11    1.58    4.06 
  15   6 -11    0.11    3.67 
  15   6 -13    3.17    3.17 
  -6  15 -13    4.06    3.83 
  -6  15  13    6.58    4.23 
  15   6 -13   14.95    4.77 
  15   6 -15    1.35    2.58 
  -6  15 -15    6.96    3.65 
  -6  15  15    1.33    3.24 
  15   6 -15    4.60    2.56 
  -7  15   0    2.49    5.01 
  15   7   0   -6.49    4.58 
  -7  15   0    0.72    4.15 
  15   7  -2   -3.30    3.12 
  15   7   2    4.70    4.45 
  -7  15   2    1.87    5.00 
  -7  15  -2    3.16    5.26 
  -7  15  -2   -7.14    4.86 
  15   7  -2   -4.56    3.97 
  -7  15   2   -1.88    4.29 
  15   7  -4   28.43    6.30 
  15   7   4   37.93    8.09 
  -7  15   4   24.56    7.80 
  -7  15  -4   26.35    7.94 
  -7  15   4   23.74    7.66 
  -7  15   4   27.47    7.87 
  15   7  -4   32.41    7.69 
  15   7  -6    5.51    3.41 
  15   7   6    3.25    4.56 
  -7  15   6    3.00    4.50 
  -7  15  -6    8.15    5.46 
  -7  15   6   11.87    6.65 
  -7  15   6    9.05    6.10 
  -7  15  -6    1.61    4.14 
  15   7  -6    5.78    4.50 
  15   7  -8   15.56    5.40 
  15   7   8   14.78    5.59 
  -7  15   8   11.93    5.69 
  -7  15  -8   23.49    7.37 
  -7  15   8    2.82    4.40 
  -7  15  -8    8.40    4.76 
  15   7  -8   19.40    6.16 
  15   7 -10    9.54    3.87 
  15   7  10   12.33    4.90 
  -7  15  10   15.42    5.89 
  -7  15 -10   16.64    5.73 
  15   7 -10   14.32    5.03 
  15   7 -12    3.23    3.11 
  -7  15 -12    6.34    3.78 
  -7  15  12    9.81    4.18 
  15   7 -12    7.16    3.62 
   7 -15  14    3.52    4.09 
  15   7 -14    0.79    2.12 
  -7  15 -14    0.15    2.59 
  -7  15  14    2.70    3.28 
  15   7 -14   -1.22    2.40 
  15   8  -1   -1.95    3.60 
  -8  15   1    1.91    4.46 
  -8  15  -1    7.85    5.96 
  -8  15  -1    0.67    5.15 
  15   8  -1   -4.20    3.91 
  15   8   1    6.89    4.54 
  -8  15   1   -0.95    4.59 
  15   8  -3    0.61    3.61 
  -8  15   3   10.34    6.37 
  -8  15   3    1.12    4.00 
  -8  15  -3   12.88    6.96 
  -8  15  -3   -1.08    4.03 
  15   8  -3    1.35    3.65 
  -8  15   3   -0.24    4.32 
  15   8  -5   -1.45    3.34 
  -8  15  -5   -1.42    4.45 
  -8  15   5   -3.25    3.88 
  -8  15   5   -1.97    4.04 
  -8  15   5    2.48    4.40 
  -8  15  -5   -1.13    3.72 
  15   8  -5   -1.23    4.26 
  15   8  -7    2.42    3.23 
  -8  15  -7    7.49    5.01 
  -8  15   7   12.50    5.25 
  -8  15   7    8.19    5.09 
  -8  15  -7    2.85    4.07 
  15   8  -7    5.26    4.97 
  15   8  -9    5.18    3.79 
  -8  15  -9    8.00    4.67 
  -8  15   9   11.96    5.18 
  -8  15   9    9.37    5.00 
  -8  15  -9    6.67    4.37 
  15   8  -9   11.56    4.57 
   8 -15  11    9.06    5.59 
  15   8 -11    0.20    2.54 
  -8  15  11   -5.51    3.95 
  -8  15 -11    1.46    3.36 
  15   8 -11   -9.77    3.97 
   8 -15  13   -1.96    3.46 
  15   8 -13    1.29    2.23 
  -8  15 -13   -1.04    2.22 
  -8  15  13   -2.47    2.96 
  15   8 -13    1.97    2.73 
  15   9   0   -0.41    2.99 
  -9  15   0    4.47    4.94 
  15   9   0   -1.51    3.60 
  -9  15   0   -7.70    4.74 
  15   9  -2    1.52    3.26 
  -9  15   2    0.45    4.79 
  -9  15   2   -7.00    5.00 
  -9  15  -2   -6.90    5.38 
  -9  15  -2  -11.54    5.15 
  15   9  -2    3.87    4.39 
  -9  15   2   -1.07    4.24 
  15   9  -4    1.72    4.13 
  -9  15  -4    4.58    5.00 
  -9  15   4    3.54    4.27 
  -9  15   4    1.10    3.60 
  -9  15   4    7.25    4.78 
  -9  15  -4    3.09    4.37 
  15   9  -4    1.25    3.56 
  15   9  -6    2.42    3.40 
   9 -15   6    1.01    3.99 
  -9  15  -6   11.49    5.25 
  -9  15   6   16.27    5.26 
  -9  15   6    3.82    4.18 
  -9  15  -6    3.61    4.36 
  15   9  -6    3.33    3.54 
  15   9  -8    0.56    2.84 
   9 -15   8    2.70    4.10 
  -9  15   8    0.72    3.27 
  -9  15  -8    6.19    4.29 
  -9  15   8   -0.78    3.64 
  -9  15  -8    0.54    3.07 
  15   9  -8    9.39    4.43 
  15   9 -10    2.76    2.87 
   9 -15  10    0.66    3.57 
  -9  15  10   -0.20    3.01 
  -9  15 -10    5.55    4.12 
  -9  15 -10    0.18    1.45 
  15   9 -10   -3.43    3.33 
  15   9 -12    2.06    2.60 
   9 -15  12   -1.15    2.87 
  -9  15 -12    4.27    2.78 
  -9  15  12    0.74    2.52 
  15   9 -12    2.91    2.44 
  15  10   1    0.72    2.30 
  15  10  -1    0.68    2.64 
 -10  15   1   -0.52    3.71 
 -10  15  -1    4.43    4.53 
 -10  15   1    3.66    4.15 
  15  10  -1    5.33    3.71 
 -10  15   1    2.94    4.18 
 -10  15  -1    0.75    4.18 
  15  10  -3    4.56    3.91 
 -10  15  -3    9.78    5.16 
 -10  15   3   11.96    5.95 
 -10  15   3   10.87    4.52 
 -10  15   3    5.99    4.62 
 -10  15  -3   12.90    5.65 
  15  10  -3   14.73    5.59 
  15  10  -5    0.33    2.90 
 -10  15  -5    1.19    3.71 
 -10  15   5    3.48    3.58 
 -10  15   5    4.48    3.71 
 -10  15  -5    1.24    3.40 
  15  10  -7    0.34    2.77 
  10 -15   7    3.78    3.37 
 -10  15  -7    1.40    3.47 
 -10  15   7    2.09    3.50 
 -10  15   7    2.21    3.12 
 -10  15  -7   -0.44    3.08 
  15  10  -7    5.14    3.77 
  15  10  -9    0.40    2.34 
 -10  15   9    1.30    2.91 
 -10  15  -9   -0.43    2.80 
 -10  15  -9    0.06    2.57 
  15  10  -9    3.40    3.19 
  15  10 -11    4.39    2.95 
  10 -15  11    3.30    2.59 
 -10  15 -11   -0.95    1.96 
 -10  15  11    2.47    2.40 
  15  11   0    1.48    2.49 
 -11  15   0    1.23    3.53 
 -11  15   0    5.03    3.70 
 -11  15   0   -1.28    3.91 
  15  11  -2    6.81    3.73 
 -11  15  -2   14.13    5.53 
 -11  15   2   12.36    4.62 
 -11  15  -2    5.02    3.16 
 -11  15   2    8.42    3.53 
  15  11  -2    8.00    4.01 
 -11  15  -2   17.64    5.34 
  15  11  -4   -1.92    2.83 
 -11  15  -4   -3.25    3.13 
 -11  15   4    2.13    3.38 
 -11  15   4   -2.68    3.04 
  15  11  -4    5.16    3.30 
 -11  15  -4    2.77    3.03 
  15  11  -6    2.80    3.06 
 -11  15  -6    7.64    3.51 
 -11  15   6    8.16    3.40 
 -11  15   6   10.89    3.61 
 -11  15  -6    3.33    2.97 
  15  11  -6    3.11    3.31 
  15  11  -8    4.04    2.07 
 -11  15   8   -2.77    2.56 
 -11  15  -8   -0.37    2.22 
 -11  15   8   -3.08    2.85 
 -11  15  -8    1.31    2.17 
  15  11  -8    5.51    2.94 
  15  11 -10    0.53    1.88 
 -12  15   1   11.89    4.12 
 -12  15   1    3.62    2.51 
 -12  15  -1   16.01    4.72 
 -12  15  -1    6.01    3.52 
  15  12  -3    7.29    4.16 
 -12  15   3    0.05    2.60 
 -12  15   3    1.55    2.26 
 -12  15  -3    0.78    2.10 
 -12  15  -3    3.76    3.27 
  15  12  -3    2.47    2.86 
 -12  15  -3    0.64    2.61 
  15  12  -5    1.00    1.86 
 -12  15  -5    2.35    2.41 
 -12  15   5    0.07    2.24 
 -12  15  -5    2.86    2.55 
  15  12  -5   -0.97    1.97 
 -12  15  -5    2.22    2.65 
  15  12  -7    4.22    2.49 
 -13  15   0    1.13    2.10 
 -13  15  -2    0.88    1.91 
 -13  15   2    4.07    2.33 
  11  16   1    6.16    2.81 
  11  16  -1    2.28    2.20 
 -16  11   1    2.47    2.42 
 -16  11  -1    3.98    2.62 
 -16  11  -3   -0.84    2.01 
  10  16   0    4.54    3.08 
 -16  10   0    6.23    3.47 
  10  16   2    2.30    2.65 
  10  16  -2    3.45    2.36 
 -16  10   2    5.78    2.80 
 -16  10  -2    1.72    2.65 
  10  16  -4   -2.30    2.50 
  10  16  -4    5.40    3.50 
 -16  10  -4    6.47    3.40 
  10  16  -6   -0.97    1.95 
 -16  10  -6   -3.41    2.54 
  16 -10  -8    9.25    3.23 
 -16  10  -8    4.05    2.48 
   9  16  -1    4.39    3.35 
   9  16  -1    3.43    4.11 
   9  16   1   -6.90    4.38 
 -16   9  -1    4.44    3.63 
 -16   9   1   -2.05    3.06 
   9  16  -3    3.56    3.95 
   9  16  -3   -0.94    2.84 
   9  16   3   -3.15    3.55 
 -16   9  -3   -6.43    4.12 
   9  16  -5   -2.66    3.51 
  16  -9   5   -0.07    2.64 
   9  16  -5    4.94    2.93 
 -16   9  -5    0.81    2.98 
   9  16   5    5.32    3.61 
  16  -9   7    6.67    3.25 
   9  16  -7    1.25    2.75 
   9  16  -7    2.53    3.13 
 -16   9  -7    7.51    3.61 
   9  16   7    2.70    3.47 
  16  -9  -9    3.48    3.15 
   9  16  -9    4.44    2.50 
  16  -9   9   -0.71    2.31 
   9  16  -9   -1.79    2.09 
 -16   9  -9   -1.36    2.79 
   9  16   9   -1.39    2.28 
   8  16   0   22.33    5.83 
   8  16   0   36.96    7.69 
 -16   8   0   30.54    6.28 
   8  16  -2   10.91    4.98 
   8  16  -2   -0.21    3.43 
   8  16   2    1.51    3.91 
 -16   8  -2    3.93    4.11 
   8  16   2   15.91    5.78 
   8  16  -4    1.26    3.76 
  16  -8   4    1.74    3.14 
   8  16   4    4.17    3.99 
   8  16  -4   10.85    4.21 
 -16   8  -4    0.23    4.17 
   8  16   4    5.19    4.17 
   8  16  -6   -2.17    3.66 
  16  -8   6    4.86    3.70 
   8  16   6   11.39    5.61 
   8  16  -6   -1.59    3.06 
 -16   8  -6    4.86    3.97 
   8  16   6    0.20    3.14 
   8  16  -8   16.36    4.34 
   8  16  -8    9.87    3.70 
  16  -8   8   10.11    3.72 
 -16   8  -8    3.78    3.26 
   8  16   8    7.83    3.70 
  16  -8 -10   10.20    4.19 
   8  16 -10    5.73    2.73 
  16  -8  10    7.53    3.24 
 -16   8 -10    3.38    3.19 
   8  16  10    2.69    2.96 
  16  -8  12    0.23    1.85 
   8  16 -12    1.89    1.62 
   8  16  12   -0.34    1.89 
   7  16  -1   13.32    5.45 
   7  16   1    1.50    4.22 
   7  16  -1   12.05    4.86 
 -16   7  -1    6.67    5.25 
   7  16   1    7.04    5.93 
   7  16  -3    3.32    4.75 
  16  -7   3   -1.38    3.52 
   7  16  -3    2.27    4.02 
   7  16   3   -0.18    4.40 
 -16   7  -3    0.44    4.66 
   7  16   3   10.10    5.47 
   7  16  -5   -3.02    3.78 
   7  16  -5    0.15    3.44 
  16  -7   5    1.25    3.91 
   7  16   5   -9.76    5.26 
 -16   7  -5   -0.64    3.80 
   7  16   5    7.41    4.20 
   7  16  -7    0.89    3.21 
  16  -7   7    4.16    3.76 
   7  16   7   12.99    5.68 
   7  16  -7   -4.24    3.45 
 -16   7  -7   10.74    4.98 
   7  16   7   -6.23    4.32 
  16  -7  -9    4.60    4.20 
   7  16  -9    4.55    2.96 
  16  -7   9    5.22    3.47 
   7  16  -9    4.69    3.45 
 -16   7  -9    0.62    3.68 
   7  16   9   -0.03    3.18 
  16  -7 -11    2.63    3.21 
  16  -7  11    1.67    2.58 
   7  16 -11    7.16    3.09 
 -16   7 -11   12.75    4.16 
   7  16  11   -5.97    3.11 
  16  -7  13    0.30    1.90 
   7  16 -13   -1.25    1.85 
   7  16  13   -0.55    2.25 
   6  16   0   19.32    7.09 
   6  16   0    5.95    4.55 
   6  16   0    2.26    5.87 
   6  16   2   70.60    9.50 
   6  16  -2   58.08    9.36 
  16  -6   2   67.22    9.36 
   6  16  -2   68.56    9.47 
   6  16  -4    3.64    4.46 
   6  16  -4    3.64    4.01 
  16  -6   4    4.42    5.00 
   6  16   4    1.81    3.98 
 -16   6  -4    1.69    4.34 
   6  16   4   -0.03    3.99 
   6  16  -6    2.64    3.73 
  16  -6   6   17.33    6.05 
   6  16   6    5.76    4.31 
   6  16  -6   17.06    5.57 
 -16   6  -6    8.86    5.54 
   6  16   6    2.35    4.20 
   6  16  -8   -0.73    3.04 
   6  16  -8    1.39    3.02 
  16  -6   8   10.23    4.86 
 -16   6  -8    2.49    4.11 
   6  16   8   -5.32    3.87 
  16  -6 -10   22.74    6.16 
  16  -6  10   15.80    4.86 
   6  16 -10   27.07    5.13 
 -16   6 -10   16.72    5.91 
   6  16  10   10.42    4.94 
  16  -6  12    2.06    3.68 
   6  16 -12   -0.81    2.60 
  16  -6 -12    1.54    2.94 
 -16   6 -12    0.35    3.42 
   6  16  12    4.89    3.34 
  16  -6  14   -0.79    2.18 
   6  16 -14    0.44    1.80 
   6  16  14    1.53    2.76 
  16  -5   1   17.71    5.80 
   5  16   1   11.74    5.17 
   5  16  -1   18.67    5.92 
   5  16  -1   16.32    8.00 
   5  16   1    4.15    5.09 
   5  16   3   13.73    5.58 
   5  16  -3   16.31    6.06 
   5  16  -3    8.17    4.91 
  16  -5   3   10.07    5.50 
   5  16   3    1.68    5.32 
   5  16  -5    1.95    3.90 
  16  -5   5    9.50    4.59 
   5  16   5   15.00    6.17 
   5  16  -5    8.46    4.98 
   5  16   5    1.81    4.55 
   5  16  -7    1.52    3.53 
  16  -5   7    2.11    4.30 
   5  16  -7    5.83    3.92 
   5  16   7    0.10    4.11 
 -16   5  -7   -0.53    4.47 
   5  16   7    1.53    4.18 
  16  -5  -9   11.82    5.30 
  16  -5   9    7.73    4.17 
   5  16  -9    7.15    4.16 
 -16   5  -9   16.94    5.92 
   5  16   9    3.46    4.77 
  16  -5 -11    2.87    3.85 
  16  -5  11    4.43    3.60 
   5  16 -11    0.00    2.79 
 -16   5 -11    2.33    4.55 
   5  16  11    1.92    3.18 
   5  16 -13    4.87    2.93 
  16  -5  13    1.01    2.70 
  16  -5 -13   -2.58    2.87 
 -16   5 -13    3.89    3.76 
   5  16  13   -0.74    2.89 
   5  16 -15   -1.21    1.66 
   5  16  15   -1.80    1.95 
   4  16   0  126.97   12.82 
  16  -4   0  133.02   13.51 
  16  -4   2    9.47    5.23 
   4  16  -2    8.46    6.32 
   4  16  -2   -0.76    4.17 
  16  -4   2    0.20    4.68 
   4  16   2   -4.27    5.02 
   4  16   2   -1.10    3.82 
   4  16  -4    4.30    4.66 
  16  -4   4    4.72    5.22 
   4  16  -4   -1.63    4.57 
   4  16   4    3.18    4.75 
   4  16   4   -2.66    5.34 
  16  -4  -6    7.12    5.20 
  16  -4   6   -3.75    4.70 
   4  16   6   -5.61    5.31 
   4  16  -6   -4.39    4.90 
   4  16   6   -0.27    4.25 
  16  -4  -8   39.08    8.38 
  16  -4   8   47.71    8.68 
   4  16   8   61.57    9.23 
   4  16  -8   42.81    7.38 
   4  16 -10    2.32    3.90 
  16  -4 -10   -3.29    3.92 
  16  -4  10   -0.07    3.53 
 -16   4 -10    4.22    5.21 
   4  16  10   -1.25    3.25 
  16  -4  12   10.72    4.58 
   4  16 -12    9.34    3.81 
 -16   4 -12    5.23    3.81 
   4  16  12    2.44    3.22 
  16  -4  14   -1.45    2.68 
   4  16 -14    3.01    2.63 
  16  -4 -14    1.84    2.52 
   4  16  14    0.39    2.52 
  16  -3   1   52.93    8.91 
  16  -3  -1   52.29    9.91 
  16  -3  -1   23.45    6.85 
  16  -3   1   39.63    9.02 
   3  16   1   45.69    8.22 
   3  16  -1   27.90    7.06 
   3  16  -1   28.94    8.19 
   3  16   1   11.36    6.35 
  16  -3  -3    6.23    5.68 
   3  16   3    5.81    4.24 
   3  16  -3    4.63    3.77 
   3  16   3   -4.45    4.94 
  16  -3  -5   -0.18    4.71 
  16  -3   5   -5.89    5.46 
   3  16  -5   10.84    4.98 
   3  16   5   -5.70    5.19 
   3  16   5    1.39    4.28 
  16  -3  -7   48.49    9.15 
  16  -3   7   24.38    6.38 
   3  16   7   33.93    7.36 
   3  16  -7   34.73    7.01 
   3  16   7   19.70    6.87 
   3  16  -9   20.66    5.83 
  16  -3  -9    5.69    4.90 
  16  -3   9   21.87    6.19 
   3  16   9   10.65    5.60 
   3  16 -11    3.13    3.29 
  16  -3  11    6.92    4.55 
   3  16  11   -1.26    3.21 
   3  16 -13   13.61    4.21 
  16  -3  13    7.01    4.11 
  16  -3 -13   11.06    4.49 
   3  16  13    6.10    3.76 
  16  -3  15    6.52    3.22 
   3  16 -15    0.95    2.00 
   3  16  15    2.37    2.57 
  16  -2   0    3.37    5.02 
  16  -2   0    0.83    4.93 
   2  16   0   -1.48    4.56 
  16  -2   2   58.47    9.00 
  16  -2  -2   60.95    9.97 
  16  -2  -2   42.93    8.31 
  16  -2   2   70.46   11.89 
   2  16  -2   59.31    9.05 
   2  16   2   55.59    9.26 
  16  -2  -4    1.40    4.72 
   2  16  -4    0.59    3.80 
  16  -2   4   -0.51    4.69 
   2  16   4   10.22    5.53 
   2  16   4    4.70    4.62 
  16  -2  -6   30.97    7.63 
   2  16  -6   17.22    5.37 
  16  -2   6   21.15    7.17 
   2  16   6   21.78    6.86 
   2  16   6    5.45    4.90 
  16  -2  -8   -1.04    4.13 
   2  16  -8    2.29    3.85 
  16  -2   8    0.01    4.45 
   2  16   8   -0.53    3.67 
   2  16 -10   78.25    9.25 
  16  -2  10   81.98   10.50 
   2  16 -10   33.53    7.19 
   2  16  10   36.52    8.51 
  16  -2 -10   70.95   10.58 
  16  -2  12   -1.51    3.53 
  16  -2 -12   -3.72    4.54 
   2  16 -12   -3.57    3.44 
   2  16 -12    4.19    3.43 
   2  16  12    1.27    2.89 
  16  -2  14    0.68    2.68 
   2  16 -14    1.54    2.45 
   2  16 -14   -1.11    1.70 
   2  16  14    1.34    2.42 
  16  -2 -14   -0.78    2.59 
   2  16 -16    1.81    1.81 
  16  -1   1    7.52    5.20 
  16  -1  -1    3.80    4.63 
  16  -1  -1   -2.32    5.24 
  16  -1   1   11.32    7.68 
   1  16   1   -2.07    4.08 
   1  16  -1    2.87    3.90 
  16  -1  -3   40.15    8.15 
  16  -1  -3   34.79    7.82 
   1  16   3   32.39    7.24 
  16  -1   3   32.08    8.15 
   1  16  -3   36.09    7.64 
  16  -1  -5   39.80    8.43 
  16  -1   5   31.18    8.61 
   1  16  -5   41.80    7.49 
   1  16   5   43.74    7.94 
  16  -1  -7   -1.70    4.53 
  16  -1   7   -3.87    4.07 
   1  16   7    5.41    5.80 
   1  16  -7    9.11    4.09 
   1  16  -7   -5.99    4.15 
   1  16   7    0.22    3.22 
  16  -1   9   18.18    6.08 
  16  -1  -9   16.35    6.42 
   1  16  -9   12.78    4.74 
   1  16  -9    8.74    5.18 
   1  16   9   15.21    5.00 
   1  16   9    9.85    5.13 
  16  -1  11   25.98    6.59 
  16  -1 -11   38.94    8.18 
   1  16 -11   31.20    6.26 
   1  16 -11   18.18    5.76 
   1  16  11   25.09    5.88 
   1  16  11    8.41    4.63 
  16  -1  13    8.51    4.21 
   1  16 -13    2.47    2.68 
   1  16 -13    3.07    3.69 
   1  16  13   -0.72    1.50 
  16  -1 -13    4.36    3.68 
   1  16  13    0.41    2.70 
  16  -1  15   -0.61    2.13 
   1  16 -15    1.95    2.26 
   1  16 -15    5.34    3.07 
  16  -1 -15    1.53    2.23 
   1  16  15    2.90    2.56 
  16   0   0   44.96    9.50 
   0  16   0   44.47    7.74 
  16   0   0   36.67    7.56 
   0  16   0   33.01    7.40 
  16   0  -2    0.30    4.53 
  16   0  -2    8.90    5.41 
   0  16  -2   -1.56    4.23 
   0  16   2   -2.78    4.68 
  16   0   2    2.50    4.69 
  16   0   2   -5.24    3.93 
   0  16   2   -0.22    3.50 
  16   0  -4    1.33    4.15 
  16   0   4   -0.89    4.50 
   0  16  -4    4.29    4.14 
   0  16   4    0.88    4.50 
  16   0  -4   -3.85    4.06 
   0  16  -4    3.45    4.73 
   0  16   4   -0.28    3.82 
  16   0   6    6.71    5.16 
   0  16   6    6.63    4.21 
   0  16  -6   -0.04    3.54 
  16   0  -6    8.84    5.42 
   0  16  -6    5.20    4.55 
   0  16   6    8.44    4.52 
  16   0   8   33.05    7.56 
   0  16  -8   23.62    5.66 
  16   0  -8   19.76    6.84 
   0  16   8   20.35    6.44 
   0  16  -8   25.83    6.74 
  16   0  10    1.15    3.71 
  16   0 -10   -5.67    5.01 
   0  16 -10   -5.13    3.46 
   0  16 -10   -4.32    3.51 
   0  16  10   -1.24    3.77 
  16   0  12   14.57    5.35 
   0  16 -12   15.08    4.62 
   0  16 -12    8.67    4.91 
   0  16  12   11.68    4.82 
  16   0 -12   13.78    4.95 
   0  16  12    8.70    3.80 
  16   0  14    0.80    2.44 
   0  16 -14   -1.70    2.69 
   0  16 -14   -0.22    2.62 
   0  16  14    2.36    3.41 
  16   0 -14    1.62    3.08 
   0  16  14    0.04    1.16 
   0  16 -16    0.20    1.87 
  16   1  -1   23.61    8.16 
  16   1   1   23.42    7.84 
  16   1   1   19.52    6.07 
  16   1  -1   21.03    6.63 
  -1  16   1   22.36    6.07 
  -1  16  -1   26.35    6.61 
  16   1   3   13.51    6.70 
  -1  16  -3    8.12    4.64 
  16   1  -3    1.76    4.35 
  16   1  -3    3.55    4.58 
  -1  16  -3    0.59    4.09 
  -1  16   3    5.79    4.52 
  16   1   5    8.45    4.89 
  -1  16  -5   12.38    4.73 
  16   1  -5   16.98    5.34 
  16   1  -5   14.98    6.55 
  -1  16  -5   12.88    5.51 
  -1  16   5    2.91    3.79 
  16   1   7   39.31    8.45 
  -1  16  -7   20.68    5.37 
  16   1  -7   23.59    6.78 
  -1  16  -7   26.52    7.37 
  -1  16   7   25.60    7.33 
  16   1   9    9.50    5.30 
  -1  16  -9    3.34    3.25 
  16   1  -9    9.38    5.07 
  -1  16   9    8.97    5.50 
  -1  16  -9    3.07    4.06 
  16   1  11   -0.51    3.60 
  -1  16 -11    3.90    3.29 
  -1  16 -11   -1.74    3.92 
  -1  16  11    2.12    3.40 
  16   1 -11   -2.60    4.02 
  16   1  13   12.37    4.62 
  -1  16 -13   15.19    3.46 
  -1  16 -13   11.69    5.25 
  -1  16  13   11.94    5.07 
  16   1 -13   15.98    5.05 
  16   1  15   -4.04    1.81 
  -1  16 -15    4.50    3.25 
  -1  16  15    2.49    2.68 
  16   1 -15    7.26    2.96 
  16   2   0    9.60    6.43 
  16   2   0   16.92    5.51 
  -2  16   0   11.54    5.40 
  16   2   2    6.24    5.23 
  16   2  -2    3.51    4.23 
  16   2  -2   -9.73    5.44 
  -2  16   2  -10.50    5.09 
  -2  16   2   -1.59    3.66 
  -2  16  -2    1.16    4.15 
  16   2   4    1.21    4.14 
  16   2  -4    3.75    4.28 
  16   2  -4    3.39    4.79 
  -2  16  -4    2.77    4.20 
  -2  16   4   -2.00    3.83 
  16   2   6    3.24    4.30 
  16   2  -6   -6.52    5.34 
  -2  16  -6   -1.78    4.05 
  -2  16   6    2.00    3.70 
  16   2   8   11.02    4.88 
  -2  16  -8   18.22    6.01 
  -2  16   8   11.75    5.43 
  16   2  -8   25.74    6.92 
  16   2  10   -1.10    3.62 
  -2  16  10    0.50    3.81 
  -2  16 -10    5.12    4.33 
  16   2 -10    3.14    4.05 
  16   2  12   -0.22    2.95 
  -2  16 -12   -1.87    3.86 
  -2  16  12    0.02    3.84 
  16   2 -12   -0.29    3.56 
  16   2 -14    0.11    1.25 
  16   2  14    0.94    2.21 
  -2  16 -14    1.78    3.14 
  -2  16  14    2.40    3.11 
  16   2 -14   -1.87    2.92 
  -2  16 -16    0.32    2.22 
  -2  16  16    1.65    2.39 
  16   3  -1    4.52    4.23 
  16   3   1    5.35    5.25 
  -3  16   1    7.76    4.77 
  -3  16  -1   -4.27    4.31 
  16   3  -1   -4.56    4.38 
  16   3   1   -4.95    3.59 
  16   3   3   27.30    7.75 
  16   3  -3   21.40    6.78 
  -3  16   3   22.06    6.18 
  -3  16  -3   28.74    7.61 
  -3  16   3   16.91    6.39 
  16   3  -3   30.07    6.99 
  16   3   5   17.54    6.20 
  -3  16   5    8.78    4.02 
  -3  16  -5   21.07    6.54 
  -3  16   5   11.10    5.75 
  -3  16   5    8.91    4.60 
  16   3  -5   17.36    5.85 
  16   3   7   -7.74    4.79 
  -3  16  -7    0.63    4.18 
  -3  16   7   -1.94    4.46 
  16   3  -7    1.83    3.55 
  16   3   9   -0.24    3.41 
  -3  16   9    5.72    4.83 
  -3  16  -9   -0.48    3.93 
  16   3  -9    0.62    3.72 
  16   3  11    0.44    3.13 
  16   3 -11    2.89    2.44 
  -3  16  11    2.87    3.65 
  -3  16 -11    3.83    4.06 
  16   3 -11    6.32    4.05 
  16   3 -13   -1.45    1.63 
  16   3  13    8.19    4.69 
  -3  16 -13   12.84    4.58 
  -3  16  13    5.56    4.33 
  16   3 -13    5.01    3.63 
  -3  16 -15    1.44    2.75 
  -3  16  15    4.15    3.18 
  16   3 -15    5.34    2.81 
  16   4   0    5.22    4.84 
  -4  16   0    4.02    4.37 
  16   4   0    1.14    3.38 
  16   4  -2    3.21    4.26 
  16   4   2    1.18    4.17 
  -4  16   2    1.98    3.55 
  -4  16   2    4.08    3.99 
  -4  16   2   -7.77    5.71 
  -4  16  -2    2.71    4.51 
  16   4  -2    5.71    4.29 
  16   4  -4   -0.44    3.99 
  -4  16   4   -3.70    4.32 
  -4  16  -4    1.31    4.56 
  -4  16   4   -1.07    3.79 
  -4  16   4    1.65    3.91 
  16   4  -4    5.86    4.54 
  16   4   6    1.97    3.90 
  -4  16  -6    1.01    4.20 
  -4  16   6   -0.30    3.62 
  -4  16   6    0.01    3.60 
  -4  16   6   -1.02    4.14 
  16   4  -6    2.33    4.14 
  16   4   8   -0.40    3.99 
  -4  16  -8   -2.19    4.93 
  -4  16   8    2.80    3.79 
  16   4  -8   -1.44    3.96 
  16   4 -10    2.06    2.59 
  16   4  10    0.31    3.43 
  -4  16  10    4.90    4.22 
  -4  16 -10    7.82    4.52 
  16   4 -10   -0.76    3.52 
  16   4 -12    2.35    2.58 
  16   4  12    7.35    3.56 
  -4  16 -12   13.97    4.70 
  -4  16  12   13.59    5.45 
  16   4 -12   13.18    4.79 
  16   4 -14    1.32    1.72 
  -4  16 -14   -0.58    2.51 
  -4  16  14   -0.94    2.73 
  16   4 -14    3.92    2.97 
  16   5  -1   -2.67    4.22 
  16   5   1    2.08    4.05 
  -5  16   1   -2.46    4.70 
  -5  16  -1   -3.31    5.61 
  -5  16   1    1.29    3.96 
  16   5  -1    1.19    3.56 
  16   5   1   -0.50    3.10 
  16   5   3   14.17    5.81 
  -5  16   3    5.31    4.88 
  -5  16   3    0.66    3.64 
  -5  16   3    0.68    4.36 
  16   5  -3    6.45    4.15 
  16   5   5    1.49    3.66 
  -5  16   5   -3.88    4.26 
  -5  16  -5    1.65    4.18 
  -5  16   5    7.56    4.98 
  -5  16   5   -0.57    4.15 
  16   5  -5    4.21    3.94 
  16   5   7   -2.77    3.94 
  -5  16  -7    5.58    4.98 
  -5  16   7   -0.11    3.71 
  -5  16   7   -3.13    3.56 
  16   5  -7    0.69    3.35 
  16   5  -9    2.32    2.80 
  16   5   9    4.60    4.12 
  -5  16  -9    2.60    3.75 
  -5  16   9   -2.95    3.51 
  16   5  -9   -8.14    4.56 
  16   5 -11    6.71    3.88 
  16   5  11    7.69    3.71 
  -5  16  11    8.26    4.93 
  -5  16 -11   14.26    5.25 
  16   5 -11   18.62    5.14 
  16   5 -13    0.23    1.91 
  -5  16 -13    2.20    3.26 
  -5  16  13    2.04    2.95 
  16   5 -13    5.60    3.15 
   5 -16  15    7.65    4.42 
  -5  16 -15    0.43    2.05 
  -5  16  15    0.80    2.81 
  16   6   0   -1.92    4.57 
  -6  16   0   -1.02    4.86 
  16   6   0    0.53    2.96 
  -6  16   0    0.31    3.62 
  16   6   2    6.28    5.35 
  -6  16   2    9.15    4.96 
  -6  16   2   11.48    5.37 
  -6  16   2    7.62    5.40 
  -6  16  -2    4.86    5.37 
  16   6  -2    0.86    3.67 
  -6  16  -2    4.12    3.44 
  16   6   4    5.90    4.81 
  -6  16   4    8.10    5.03 
  -6  16  -4    2.77    4.68 
  -6  16   4    3.07    4.96 
  -6  16   4    3.90    4.45 
  16   6  -4    1.96    3.70 
  16   6  -6   -2.79    3.02 
  16   6   6   -2.11    3.56 
  -6  16   6    1.12    3.18 
  -6  16  -6    7.83    5.53 
  -6  16   6   -0.63    3.71 
  16   6  -6   -6.86    4.66 
  16   6  -8    7.66    4.01 
  16   6   8    8.44    4.33 
  -6  16  -8   13.23    5.44 
  -6  16   8   11.69    4.66 
  -6  16   8    3.64    3.72 
  16   6  -8   17.74    5.68 
  16   6 -10    7.61    4.16 
  16   6  10   10.02    4.69 
  -6  16  10   19.27    5.94 
  -6  16 -10   20.06    5.54 
  16   6 -10   22.33    5.83 
  16   6 -12    1.84    2.41 
  -6  16 -12   -0.52    2.62 
  -6  16  12    0.24    2.92 
  16   6 -12    7.71    3.66 
  -6  16 -14   -1.67    2.23 
  -6  16  14    3.31    2.77 
  16   6 -14    1.00    1.95 
  -7  16   1    9.74    5.50 
  -7  16  -1    3.52    4.89 
  -7  16   1   -4.56    5.27 
  -7  16   1    1.76    3.49 
  16   7  -1    3.10    4.24 
  -7  16  -1    4.09    4.42 
  16   7   3    7.89    4.74 
  -7  16   3    0.31    4.12 
  -7  16  -3    2.26    4.57 
  -7  16   3    2.66    4.04 
  -7  16   3   -1.65    4.00 
  16   7  -3    2.15    4.04 
  -7  16  -3    2.12    4.09 
  16   7  -5    0.27    2.58 
  16   7   5    8.30    4.95 
  -7  16  -5   12.59    5.89 
  -7  16   5    3.66    3.56 
  -7  16   5   17.40    6.28 
  -7  16   5    7.95    5.86 
  16   7  -5    6.98    4.21 
  -7  16  -5    0.94    3.11 
  16   7  -7    5.97    3.97 
  16   7   7   19.19    5.29 
  -7  16  -7   21.28    6.03 
  -7  16   7   14.23    5.65 
  -7  16   7    6.58    4.15 
  16   7  -7   24.44    5.68 
  16   7  -9    8.72    4.07 
  -7  16  -9   21.91    5.88 
  -7  16   9   21.70    5.97 
  16   7  -9   27.87    5.88 
  16   7 -11   -1.57    2.32 
  -7  16 -11    0.03    2.70 
  -7  16  11    1.49    3.18 
  16   7 -11    0.95    2.86 
   7 -16  13    6.64    3.75 
  -7  16 -13    5.31    2.86 
  -7  16  13    0.25    2.66 
  16   7 -13    4.34    2.62 
  -8  16   0    8.03    5.00 
  16   8   0    4.01    2.75 
  -8  16   0    6.61    3.96 
  -8  16   2    1.97    4.85 
  -8  16  -2    3.49    4.67 
  -8  16   2   -1.44    3.72 
  -8  16   2   -9.50    4.98 
  16   8  -2    0.79    2.76 
  -8  16  -2   -0.42    3.38 
  16   8  -4    4.05    2.93 
  -8  16   4    7.08    4.18 
  -8  16  -4    6.35    4.58 
  -8  16   4    9.01    4.67 
  -8  16   4    1.77    4.49 
  -8  16  -4    3.08    3.95 
  16   8  -4    6.28    3.62 
  16   8  -6    0.04    2.34 
  -8  16  -6    2.08    3.73 
  -8  16   6    2.52    3.31 
  -8  16   6    0.92    3.49 
  -8  16  -6    3.72    2.72 
  16   8  -6    2.87    3.37 
   8 -16   8   17.36    5.05 
  16   8  -8    7.21    3.68 
  -8  16  -8   11.54    4.93 
  -8  16   8   14.41    4.87 
  -8  16   8   14.28    4.44 
  16   8  -8   18.65    4.90 
  16   8 -10    1.81    2.10 
   8 -16  10    3.17    3.31 
  -8  16  10    4.42    3.60 
  -8  16 -10    0.55    2.66 
  16   8 -10   -1.54    3.17 
  -8  16 -12    2.30    2.26 
  -8  16  12    6.02    3.58 
  16   8 -12    2.65    2.28 
  -9  16   1    2.09    3.89 
  -9  16  -1    9.19    4.46 
  -9  16  -1    5.05    3.93 
  -9  16   1    4.51    3.51 
  -9  16   1   11.38    4.68 
  16   9  -1    1.59    2.68 
  -9  16  -1    0.52    3.06 
  16   9  -3    0.07    1.35 
  -9  16  -3    4.18    3.87 
  -9  16   3    3.22    2.89 
  -9  16   3   -4.56    3.76 
  -9  16   3    0.20    3.56 
  16   9  -3    3.40    3.06 
  -9  16  -3    4.03    3.07 
  16   9  -5    3.53    3.04 
  -9  16  -5   -2.48    3.14 
  -9  16   5    0.64    3.05 
  -9  16   5   -2.90    3.42 
  16   9  -5    5.47    3.76 
  -9  16  -5    4.95    3.69 
  16   9  -7    0.77    2.35 
  -9  16  -7   -1.79    2.98 
  -9  16   7    1.32    2.98 
  -9  16   7    1.13    2.91 
  16   9  -7    0.82    2.80 
  -9  16  -7    1.69    1.52 
  16   9  -9    1.89    2.03 
  -9  16   9    3.58    2.68 
  -9  16  -9    3.82    3.03 
  16   9  -9   11.14    3.63 
  16   9 -11    4.91    2.71 
 -10  16   0   -0.69    2.97 
 -10  16   0    1.78    2.77 
 -10  16   0   -2.75    3.03 
 -10  16  -2   11.92    4.69 
 -10  16  -2   20.22    4.96 
 -10  16   2   23.32    5.44 
 -10  16   2   15.75    4.55 
  16  10  -2    9.68    3.35 
 -10  16  -2    9.87    4.00 
  16  10  -4   -1.00    1.10 
 -10  16  -4    0.77    2.66 
 -10  16   4    1.37    3.28 
 -10  16   4   -0.42    2.75 
  16  10  -4   -1.16    2.25 
 -10  16  -4    1.10    2.51 
  16  10  -6    4.21    2.58 
 -10  16  -6    4.98    3.14 
 -10  16   6    7.75    3.24 
 -10  16   6    7.59    3.67 
  16  10  -6    4.86    3.12 
 -10  16  -6    1.57    2.11 
 -10  16   8    1.20    2.43 
 -10  16  -8   -0.07    2.13 
  16  10  -8    2.46    1.99 
 -11  16   1   10.73    3.40 
 -11  16  -1    9.74    3.12 
 -11  16   1    8.78    3.33 
 -11  16  -1   10.93    3.69 
 -11  16  -1    9.82    3.94 
 -11  16   3   -0.98    2.19 
 -11  16   3    2.19    2.57 
 -11  16  -3   -0.83    2.36 
 -11  16  -3   -2.68    2.23 
 -11  16  -3   -2.05    2.63 
 -11  16  -5    1.28    2.00 
 -11  16  -5    0.93    1.99 
 -11  16   5    2.69    2.24 
  10  17   1   11.51    3.39 
  10  17  -1    2.78    2.00 
  17 -10  -3    6.99    2.71 
  17  -9   0    7.62    2.99 
   9  17   0   -0.74    2.55 
  17  -9  -2    5.61    3.29 
   9  17   2    3.42    2.77 
   9  17  -2    3.85    2.66 
  17  -9  -4    4.90    3.36 
   9  17  -4    4.87    2.77 
   9  17  -6    1.57    1.75 
  17  -9  -6    0.23    2.41 
  17  -8   1    7.18    3.55 
   8  17   1   14.29    4.38 
   8  17  -1   16.55    4.51 
   8  17  -3    0.53    2.68 
   8  17   3   -1.43    3.04 
  17  -8  -5    7.42    3.64 
  17  -8   5    5.85    2.90 
   8  17  -5   -1.62    2.52 
   8  17   5    9.67    4.66 
  17  -8  -7    6.07    3.58 
  17  -8   7    9.46    2.97 
   8  17  -7    4.56    2.72 
   8  17   7    7.47    4.30 
  17  -8  -9    4.01    2.47 
   8  17  -9    6.63    2.40 
   8  17   9    5.49    3.04 
   7  17   0    0.76    3.14 
  17  -7   0    5.26    3.50 
  17  -7   2   -2.37    1.55 
   7  17  -2    2.11    3.70 
   7  17   2    3.55    3.82 
  17  -7  -4    5.95    4.33 
  17  -7   4    8.51    3.41 
   7  17  -4   -6.01    3.53 
   7  17   4    8.70    3.91 
   7  17   4    8.24    5.20 
  17  -7  -6   16.03    4.92 
  17  -7   6   10.96    3.58 
   7  17  -6   10.61    3.71 
   7  17   6    2.92    3.88 
  17  -7  -8   -4.94    3.32 
  17  -7   8    1.34    2.51 
   7  17  -8   -1.00    2.26 
   7  17   8   -1.97    2.59 
  17  -7  10    4.47    2.72 
   7  17 -10    6.11    2.45 
  17  -7 -10    8.98    3.15 
   7  17  10    3.14    3.00 
   6  17   1    1.93    3.46 
  17  -6   1    3.25    3.36 
  17  -6  -1    0.83    3.43 
   6  17  -1    6.37    4.13 
  17  -6  -3   18.83    6.55 
  17  -6   3   24.15    5.03 
   6  17  -3   28.87    5.90 
   6  17   3   20.03    5.23 
   6  17   3   10.51    6.02 
  17  -6  -5   11.05    4.80 
  17  -6   5    4.59    3.27 
   6  17   5    3.05    3.83 
   6  17  -5    7.47    3.87 
   6  17   5    3.37    4.13 
  17  -6  -7    2.63    3.38 
  17  -6   7    0.08    3.35 
   6  17  -7    1.16    2.83 
   6  17   7    0.00    2.93 
  17  -6  -9   -0.23    2.84 
   6  17  -9   -5.05    3.24 
  17  -6   9    2.84    2.71 
   6  17   9   -0.03    2.51 
   6  17 -11    8.21    2.81 
  17  -6  11    5.60    2.59 
  17  -6 -11    7.26    3.13 
   6  17  11    4.46    3.00 
  17  -5   0    2.84    4.18 
   5  17   0   -0.18    3.67 
  17  -5   2   -2.27    3.07 
  17  -5  -2    0.66    4.25 
  17  -5   2    7.34    4.26 
   5  17  -2    4.43    3.97 
   5  17   2   -0.98    4.27 
   5  17   2    5.17    5.02 
  17  -5   4   15.94    5.27 
   5  17   4    4.16    3.66 
   5  17  -4   10.54    4.59 
   5  17   4    5.95    4.66 
  17  -5  -6    3.91    4.24 
   5  17  -6    1.99    3.74 
  17  -5   6    4.22    3.78 
   5  17   6    6.91    4.36 
   5  17   6    0.57    3.10 
  17  -5  -8    0.00    3.81 
   5  17  -8   -4.93    3.67 
   5  17   8   -9.22    3.70 
  17  -5  10    1.01    2.51 
   5  17 -10   -3.28    2.78 
  17  -5 -10   -0.41    2.89 
   5  17  10    1.21    2.65 
  17  -5  12    3.94    2.80 
   5  17 -12    1.38    1.91 
  17  -5 -12    5.95    2.64 
   5  17  12    0.53    2.18 
  17  -4   1   12.04    5.43 
  17  -4  -1    8.76    5.34 
  17  -4   1   18.67    5.34 
   4  17   1   11.97    4.61 
   4  17  -1   23.27    6.48 
   4  17   1   26.65    7.48 
  17  -4  -3    1.76    4.55 
  17  -4   3    0.95    3.93 
   4  17  -3   -2.10    3.57 
   4  17   3   10.18    4.67 
   4  17   3   -0.30    3.24 
  17  -4  -5   -3.35    3.61 
   4  17  -5    2.67    3.75 
  17  -4   5    2.28    3.92 
   4  17   5    2.77    4.09 
   4  17   5    0.47    3.08 
  17  -4  -7   10.07    4.99 
  17  -4   7    8.66    4.10 
   4  17  -7    5.29    3.76 
   4  17   7    5.51    4.52 
  17  -4  -9    0.12    3.20 
  17  -4   9    4.77    3.65 
   4  17  -9    1.36    2.68 
   4  17   9   -2.74    3.44 
  17  -4  11    8.15    3.69 
   4  17 -11    0.73    2.49 
  17  -4 -11    0.45    3.03 
   4  17  11   -1.21    2.60 
  17  -4  13    1.46    2.08 
   4  17 -13   -0.88    1.88 
  17  -3   0   -1.15    3.64 
  17  -3   0    6.29    4.69 
   3  17   0    3.11    4.53 
  17  -3   2    3.79    4.04 
   3  17   2   19.95    5.85 
  17  -3  -2    8.78    5.91 
  17  -3   2   28.42    6.96 
   3  17  -2   16.94    5.17 
   3  17   2    6.44    5.02 
  17  -3  -4   15.22    5.96 
   3  17  -4   -0.89    4.21 
  17  -3   4   11.81    5.27 
   3  17   4    3.27    3.61 
   3  17   4    3.20    3.88 
  17  -3  -6   20.59    6.02 
  17  -3   6   19.23    6.05 
   3  17  -6   31.12    6.14 
   3  17   6   36.67    6.62 
   3  17   6    5.90    4.23 
  17  -3  -8    2.44    3.48 
  17  -3   8   -3.35    4.23 
   3  17   8   -5.45    3.43 
   3  17 -10   -0.96    2.78 
  17  -3  10    1.28    3.01 
  17  -3 -10    2.10    3.44 
   3  17  10    0.55    2.76 
  17  -3  12    6.68    3.47 
   3  17 -12    7.49    3.21 
   3  17  12    5.39    3.38 
  17  -3 -12    2.14    3.12 
  17  -2  -1   10.48    5.45 
  17  -2  -1    3.90    4.28 
  17  -2   1   -2.52    5.05 
   2  17   1   -0.01    3.59 
   2  17  -1    3.95    3.67 
  17  -2   1    4.34    4.08 
  17  -2  -3    1.66    4.30 
  17  -2   3    7.18    5.02 
   2  17   3   -8.87    5.18 
   2  17  -3   -3.40    3.65 
  17  -2  -5    7.88    4.44 
  17  -2   5   -5.63    4.52 
   2  17  -5    9.07    4.98 
   2  17   5    2.74    4.08 
  17  -2   7    3.19    4.08 
   2  17  -7    7.87    4.03 
  17  -2  -7    4.59    4.29 
   2  17   7    2.19    3.01 
   2  17  -9   11.63    4.16 
  17  -2   9   10.51    4.89 
  17  -2  -9   11.47    4.54 
   2  17   9    4.14    3.79 
  17  -2  11   -2.95    3.55 
   2  17 -11   -3.39    2.86 
  17  -2 -11   -0.45    3.27 
   2  17  11   -0.19    2.05 
  17  -2  13    4.38    2.71 
   2  17 -13    5.00    2.63 
  17  -2 -13   -0.99    2.49 
  17  -1   0   -3.24    4.77 
   1  17   0   -4.92    4.32 
  17  -1   0   -2.44    3.29 
  17  -1   2   19.12    5.93 
   1  17  -2   24.41    5.96 
   1  17   2   14.49    5.31 
  17  -1  -2   24.28    6.40 
  17  -1  -2   17.61    5.29 
   1  17  -4   10.80    4.76 
  17  -1   4    8.84    4.63 
   1  17   4    7.62    4.59 
  17  -1  -4    5.57    4.13 
  17  -1   6   25.95    6.87 
   1  17   6   36.62    7.34 
   1  17  -6   15.74    4.76 
  17  -1  -6   21.57    6.13 
  17  -1   8    4.94    3.97 
   1  17  -8    4.08    2.98 
  17  -1  -8    6.40    4.34 
   1  17 -10   10.72    3.49 
  17  -1  10    7.72    4.61 
  17  -1 -10    6.78    4.40 
  17  -1  12   -0.02    2.59 
   1  17 -12    3.52    2.25 
  17  -1 -12    3.80    3.26 
  17   0  -1    3.03    4.72 
  17   0   1    2.20    4.65 
   0  17  -1   -6.58    3.84 
  17   0   1    2.30    2.91 
  17   0  -1   -0.76    3.41 
   0  17   1    0.36    3.63 
  17   0   3   21.80    7.76 
   0  17  -3   10.76    4.42 
  17   0  -3   13.36    5.05 
  17   0  -3   12.07    5.09 
   0  17  -5    2.23    3.14 
  17   0   5    3.37    3.98 
  17   0  -5    0.97    3.57 
   0  17   5    2.90    3.69 
  17   0   7   -0.33    4.46 
   0  17  -7    0.78    3.01 
  17   0  -7    2.23    3.55 
   0  17   7   -0.21    2.76 
   0  17  -7    0.77    3.38 
  17   0   9   -0.26    3.63 
   0  17  -9   -0.68    2.81 
  17   0  -9    1.91    4.09 
   0  17  -9    2.40    3.28 
   0  17   9    0.30    2.66 
  17   0  11    7.65    3.86 
   0  17 -11   10.61    3.29 
   0  17 -11    0.14    2.89 
   0  17  11   -0.96    1.50 
  17   0 -11    6.43    4.07 
  17   0  13    0.89    2.36 
   0  17 -13    2.52    2.17 
  17   0 -13   -0.96    2.67 
  17   1   0    0.45    4.40 
  -1  17   0    0.19    3.39 
  17   1   0   -7.94    4.05 
  17   1   2    1.32    3.92 
  17   1  -2   -0.81    4.53 
  17   1  -2    6.36    4.26 
  -1  17  -2   -0.94    3.07 
  -1  17   2   -0.61    3.56 
  17   1  -4   69.02    9.16 
  17   1   4   86.85   11.02 
  -1  17   4   54.96    8.61 
  -1  17  -4   40.60    8.31 
  17   1  -4   66.53    8.92 
  17   1   6    8.50    4.98 
  17   1  -6   -2.91    3.62 
  -1  17  -6   -0.36    3.56 
  -1  17   6   -0.91    3.19 
  17   1   8    1.70    3.35 
  -1  17   8   -1.05    2.91 
  -1  17  -8    3.14    4.18 
  17   1  -8   -0.19    3.17 
  17   1  10    2.13    3.45 
  -1  17 -10    0.88    3.03 
  -1  17  10   -1.55    3.33 
  17   1 -10   -0.70    3.36 
  17   1  12   15.96    4.38 
  -1  17 -12    7.44    3.97 
  -1  17  12   17.06    4.33 
  17   1 -12   20.75    5.14 
  17   1 -14   -2.09    2.23 
  17   2  -1    8.77    4.83 
  17   2   1    2.69    4.31 
  -2  17  -1   -0.59    3.25 
  -2  17  -1    0.92    3.31 
  -2  17   1    1.17    4.05 
  17   2  -1    2.05    3.79 
  17   2   1    2.69    3.93 
  17   2   3   14.61    5.16 
  17   2  -3    8.87    5.02 
  -2  17  -3    5.71    4.83 
  -2  17   3   12.13    5.58 
  17   2  -3    6.32    4.81 
  17   2   5   10.69    4.90 
  -2  17  -5   20.68    6.16 
  -2  17   5   10.97    5.00 
  17   2  -5   16.77    5.45 
  17   2   7   -2.27    3.54 
  -2  17  -7    2.33    3.94 
  -2  17   7    3.18    3.59 
  17   2  -7    2.71    4.02 
  17   2   9   -1.29    3.44 
  -2  17   9    0.89    3.05 
  -2  17  -9    1.82    3.40 
  17   2  -9   -2.33    3.61 
  17   2  11    6.71    3.59 
  -2  17 -11    2.88    3.57 
  -2  17  11    3.62    3.19 
  17   2 -11    4.41    3.60 
  17   2  13    3.11    1.99 
  -2  17 -13    6.40    3.36 
  -2  17  13    3.43    2.76 
  17   2 -13    9.33    3.45 
  17   3   0    3.39    4.78 
  -3  17   0   -2.29    3.86 
  -3  17   0   -1.62    3.48 
  17   3   0   -0.05    2.81 
  17   3  -2   34.48    7.54 
  17   3   2   37.40    7.42 
  -3  17   2   22.29    7.11 
  -3  17  -2   32.07    7.21 
  -3  17   2   24.82    7.30 
  17   3  -2   28.13    7.11 
  17   3   4    1.05    4.37 
  -3  17  -4   -4.06    3.66 
  -3  17   4    3.15    3.54 
  17   3  -4    1.09    3.82 
  17   3   6   27.34    6.12 
  -3  17  -6   10.83    5.72 
  -3  17   6   16.58    6.00 
  17   3  -6   29.69    6.97 
  17   3   8   -2.44    3.42 
  -3  17   8    5.19    3.62 
  -3  17  -8    0.95    5.13 
  17   3  -8   -0.73    3.12 
  17   3  10   -2.56    3.16 
  -3  17 -10    2.61    3.97 
  -3  17  10    3.11    3.06 
  17   3 -10    1.91    3.06 
  -3  17 -12    0.87    2.39 
  -3  17  12    2.05    2.48 
  17   3 -12   -0.79    2.47 
  17   4  -1   13.07    5.29 
  17   4   1   24.08    6.29 
  -4  17   1    8.37    4.45 
  -4  17  -1    6.10    4.09 
  -4  17   1    9.29    5.20 
  17   4  -1    7.93    4.33 
  17   4   3    4.02    3.72 
  -4  17   3   -3.72    4.43 
  -4  17  -3    5.70    4.19 
  -4  17   3    5.73    4.54 
  17   4  -3    1.10    3.65 
  17   4   5    6.05    4.17 
  -4  17  -5    2.94    4.46 
  -4  17   5    5.99    4.50 
  17   4  -5   -8.54    4.09 
  17   4   7    3.96    4.34 
  -4  17  -7   -0.53    3.84 
  -4  17   7    3.51    3.98 
  17   4  -7    5.06    3.72 
  17   4   9    4.85    3.75 
  -4  17   9    3.79    3.92 
  -4  17  -9    4.17    3.65 
  17   4  -9    3.38    3.36 
  17   4  11    1.34    2.41 
  -4  17 -11   -0.84    2.64 
  -4  17  11    2.29    3.00 
  17   4 -11   -1.01    2.74 
  -4  17 -13    9.05    3.55 
  -4  17  13    3.08    2.76 
  17   4 -13    4.70    2.73 
  17   5   0    4.55    4.17 
  -5  17   0   -4.68    4.63 
  -5  17   0   -0.44    3.65 
  17   5   0    2.52    2.91 
  17   5   2    0.90    3.20 
  -5  17   2   -2.76    4.17 
  -5  17  -2    4.02    4.67 
  -5  17   2    1.32    3.94 
  17   5  -2   -0.06    2.91 
  17   5   4   15.73    5.11 
  -5  17  -4   22.20    6.86 
  -5  17   4   14.51    5.70 
  -5  17   4    9.64    4.44 
  -5  17   4   11.45    5.25 
  17   5  -4   12.77    4.76 
  17   5   6   -0.63    2.83 
  -5  17  -6    5.64    4.38 
  -5  17   6   -0.96    3.58 
  17   5  -6   -7.94    3.95 
  17   5   8    0.39    2.77 
  -5  17  -8   -2.90    3.65 
  -5  17   8    1.69    3.36 
  17   5  -8    4.31    3.19 
  17   5  10    3.01    2.70 
  -5  17  10   -0.43    2.81 
  -5  17 -10   -0.88    2.59 
  17   5 -10   -2.08    3.10 
  -5  17 -12    6.57    3.03 
  -5  17  12    8.13    3.36 
  17   5 -12   11.66    3.60 
  -6  17   1    0.01    3.72 
  -6  17  -1    1.51    4.01 
  -6  17  -1    0.03    3.43 
  -6  17   1    1.25    2.68 
  -6  17   1   -2.75    3.76 
  17   6  -1    1.14    2.43 
  17   6   3   10.89    4.96 
  -6  17   3    7.79    4.80 
  -6  17   3    7.68    4.17 
  -6  17  -3   10.68    4.61 
  -6  17   3    3.02    4.36 
  17   6  -3   11.67    4.64 
  17   6   5    9.49    4.57 
  -6  17  -5   13.09    5.08 
  -6  17   5    5.17    4.75 
  -6  17   5    3.63    3.25 
  17   6  -5    6.05    4.53 
  17   6   7    0.88    2.74 
  -6  17  -7    4.90    3.91 
  -6  17   7    1.82    3.42 
  17   6  -7   -0.38    2.80 
  -6  17   9    1.92    3.01 
  -6  17  -9    6.56    3.87 
  17   6  -9    4.05    3.05 
   6 -17  11   11.84    4.00 
  -6  17 -11    5.48    3.28 
  -6  17  11    2.52    3.05 
  17   6 -11    1.82    2.55 
  -7  17   0    4.69    3.94 
  -7  17   0   -0.43    3.64 
  -7  17   0    2.37    2.76 
  -7  17   2    5.17    4.09 
  -7  17  -2    5.97    4.46 
  -7  17   2    2.81    2.87 
  -7  17   2    0.59    3.59 
  17   7  -2    2.86    2.87 
  -7  17  -4    0.73    3.18 
  -7  17   4    2.58    4.05 
  -7  17   4    1.84    2.64 
  17   7  -4    3.62    3.23 
  -7  17  -6    8.68    4.38 
  -7  17   6    7.90    4.28 
  17   7  -6    8.87    3.79 
  -7  17  -8    4.10    3.62 
  -7  17   8   -0.07    2.77 
  17   7  -8    2.41    3.05 
  -7  17 -10    1.68    2.24 
  -7  17  10    1.74    2.86 
  17   7 -10    1.40    2.18 
  -8  17   1    3.69    3.87 
  -8  17  -1   -1.07    2.92 
  -8  17  -1    4.49    4.12 
  -8  17  -1    0.09    2.33 
  -8  17   1    1.98    2.83 
  -8  17   1    1.42    2.92 
  17   8  -1   -0.21    1.16 
  -8  17  -3    1.46    3.09 
  -8  17   3   -0.45    2.62 
  -8  17  -3   -1.99    3.50 
  -8  17  -3    0.60    1.23 
  -8  17   3   -3.53    3.86 
  17   8  -3    0.96    2.27 
  -8  17  -5    9.28    4.16 
  -8  17   5    1.48    2.88 
  -8  17   5   -0.47    2.45 
  17   8  -5    2.62    2.43 
  -8  17  -7    0.67    2.33 
  -8  17   7    3.45    3.08 
  17   8  -7    0.48    2.07 
  -8  17  -9    0.45    2.01 
  -8  17   9    0.71    2.16 
  17   8  -9    5.79    2.99 
  -9  17   0    0.78    2.77 
  -9  17   0    0.78    2.75 
  -9  17   0    0.36    2.67 
  -9  17  -2    7.38    3.78 
  -9  17  -2   -0.75    1.66 
  -9  17   2   11.46    4.16 
  -9  17   2    0.78    2.72 
  -9  17  -2   -0.08    2.56 
  -9  17  -4    1.66    2.72 
  -9  17  -4    1.89    2.43 
  -9  17   4    0.12    2.50 
  -9  17   4    3.93    2.81 
  17   9  -4   -2.47    2.25 
  -9  17  -6   -1.13    2.06 
  -9  17   6   -2.55    2.51 
  -9  17  -6    0.40    2.50 
  17   9  -6    1.00    1.87 
 -10  17   1    0.45    2.30 
 -10  17  -1   -0.29    1.95 
 -10  17   3    1.93    2.41 
 -10  17  -3    1.15    1.93 
 -10  17  -3    0.19    1.89 
   8  18   0   -0.66    2.08 
   8  18   2    5.62    3.06 
   8  18  -2    4.95    2.56 
   8  18  -4    0.98    1.69 
  18  -7  -1    1.38    2.84 
   7  18   1    1.06    2.51 
   7  18  -1    5.65    2.96 
  18  -7  -3   -1.31    2.42 
   7  18  -3   -2.88    2.54 
  18  -7  -5    7.06    2.83 
   7  18  -5    8.80    2.90 
  18  -7  -7    1.59    2.23 
   6  18   0   21.14    4.45 
  18  -6   0   12.03    3.46 
   6  18  -2    0.16    3.04 
  18  -6  -2   -3.70    2.65 
   6  18   2   -3.24    3.52 
  18  -6  -4    1.85    2.57 
  18  -6   4   -2.06    2.01 
   6  18  -4   -3.12    2.93 
  18  -6  -6    2.74    2.91 
  18  -6   6   -0.29    1.94 
   6  18  -6    0.26    2.46 
   6  18  -8   -0.67    1.80 
  18  -6  -8    3.31    2.87 
  18  -5  -1    6.09    3.39 
   5  18  -1    6.34    3.43 
   5  18   1    9.42    3.53 
  18  -5   1    0.62    1.28 
  18  -5  -3    0.27    2.83 
  18  -5   3    0.24    2.65 
   5  18  -3    4.42    3.18 
   5  18   3   -5.52    3.60 
  18  -5  -5    0.25    2.87 
  18  -5   5    1.96    2.68 
   5  18  -5    1.30    2.62 
  18  -5   7    7.71    3.15 
   5  18  -7    5.04    2.79 
  18  -5  -7    4.35    2.99 
   5  18   7    4.61    2.92 
  18  -5   9    1.94    2.03 
   5  18  -9   -0.37    2.12 
  18  -5  -9   -3.43    2.76 
   4  18   0    2.49    3.49 
  18  -4   0    5.02    3.54 
  18  -4   2   14.67    4.37 
   4  18  -2    8.94    4.27 
   4  18   2   13.24    4.53 
  18  -4  -2    7.87    4.09 
  18  -4   4   -1.82    2.90 
   4  18  -4    0.46    3.31 
   4  18   4    0.82    3.34 
  18  -4  -4   -1.09    2.91 
  18  -4   6    0.50    2.73 
  18  -4  -6    4.38    3.36 
   4  18   6   -2.25    1.56 
  18  -4   8    1.32    2.48 
   4  18  -8    5.46    2.79 
  18  -4  -8    2.57    2.74 
  18  -4  10    0.11    2.13 
   4  18 -10    3.26    2.41 
  18  -4 -10    3.08    2.34 
  18  -3   1    1.26    2.92 
   3  18  -1    3.41    2.93 
   3  18   1    3.22    3.27 
  18  -3   1    1.36    2.24 
  18  -3  -1   -0.60    2.66 
  18  -3   3   23.70    5.71 
   3  18  -3   18.70    4.39 
   3  18   3   13.10    4.52 
  18  -3  -3   15.18    5.15 
  18  -3   5    5.70    4.00 
   3  18  -5   12.31    4.18 
  18  -3  -5    3.73    3.13 
  18  -3   7    4.26    3.32 
   3  18  -7   -0.86    2.59 
  18  -3  -7   -1.81    2.82 
  18  -3   9    4.96    3.33 
   3  18  -9    8.12    2.98 
  18  -3  -9    8.36    3.82 
  18  -3  11    6.89    2.81 
  18  -3 -11    5.40    2.67 
   2  18   0   34.06    5.60 
  18  -2   0   17.93    5.24 
  18  -2   0   28.32    5.70 
  18  -2   2    1.30    3.79 
   2  18  -2    6.47    3.62 
   2  18   2    0.08    2.99 
  18  -2  -2    4.73    3.82 
  18  -2   4    3.34    4.28 
   2  18  -4    2.18    2.98 
   2  18   4    8.08    4.61 
  18  -2  -4   -1.43    2.98 
  18  -2   6   -2.69    3.10 
   2  18  -6    2.69    2.62 
  18  -2  -6   -0.25    3.02 
  18  -2   8   14.75    4.53 
   2  18  -8   11.25    3.61 
  18  -2  -8    9.83    4.09 
  18  -2  10    1.36    2.38 
   2  18 -10    0.68    1.84 
  18  -2 -10    1.13    2.36 
  18  -1   1   27.24    6.12 
   1  18   1   20.24    4.61 
  18  -1  -1   25.61    5.42 
  18  -1  -1   16.07    4.94 
   1  18  -1   23.38    4.89 
  18  -1   3   -3.44    3.77 
   1  18  -3    3.62    3.11 
   1  18   3    3.60    3.59 
  18  -1  -3    1.22    3.23 
  18  -1   5   10.41    4.21 
   1  18  -5    4.92    2.82 
  18  -1  -5    1.46    3.53 
  18  -1   7   21.71    5.39 
   1  18  -7   15.13    3.81 
  18  -1  -7   19.48    4.92 
  18  -1   9    5.66    3.72 
   1  18  -9    3.45    2.24 
  18  -1  -9    5.61    3.21 
  18  -1  11    1.91    2.51 
  18  -1 -11    0.17    2.31 
  18   0   0   12.69    4.06 
  18   0   0   13.89    4.50 
  18   0   2   14.23    5.07 
  18   0  -2    4.88    3.44 
  18   0  -2    9.25    4.11 
  18   0   4   -1.24    3.27 
  18   0  -4    0.25    2.85 
  18   0   6   -2.87    3.86 
  18   0  -6    1.43    3.25 
  18   0   8    3.62    3.71 
  18   0  -8    6.39    3.53 
  18   0  10    3.37    2.91 
  18   0 -10    5.61    3.28 
  18   0 -12    1.48    2.10 
  18   1  -1    9.38    5.21 
  18   1   1   13.51    4.52 
  18   1  -1    6.97    3.59 
  -1  18   3    2.05    3.36 
  18   1  -3   14.41    5.32 
  18   1   5   14.34    4.87 
  18   1  -5   27.79    6.36 
  18   1   7   -0.05    3.06 
  -1  18  -7    1.22    1.46 
  -1  18   7   -0.69    1.12 
  18   1  -7   -0.24    2.93 
  18   1   9    5.03    3.41 
  -1  18  -9    1.55    1.65 
  18   1  -9    7.77    3.14 
  18   1  11   14.67    3.68 
  18   1 -11   16.11    3.93 
  18   2   0    8.25    4.23 
  -2  18   0    1.70    2.88 
  18   2   0    0.81    2.23 
  18   2  -2   13.20    4.79 
  18   2   2    7.44    4.37 
  -2  18   2    9.78    4.01 
  -2  18  -2    5.12    3.06 
  18   2  -2    7.87    4.15 
  18   2   4   -0.78    3.17 
  -2  18  -4    4.79    3.30 
  -2  18   4    1.18    2.77 
  -2  18  -4    1.14    2.51 
  18   2  -4    5.48    3.97 
  18   2   6    4.87    3.70 
  -2  18   6    6.00    3.63 
  -2  18  -6    3.38    3.56 
  18   2  -6    6.18    3.59 
  18   2   8   -1.65    2.73 
  -2  18  -8   -0.92    2.31 
  -2  18   8   -1.23    2.27 
  18   2  -8    5.06    3.02 
  18   2  10   14.65    3.92 
  -2  18 -10    5.01    3.09 
  18   2 -10   14.65    3.73 
  18   3   1    7.21    3.80 
  -3  18  -1    6.25    3.80 
  -3  18   1    4.95    3.60 
  -3  18  -1    2.15    2.99 
  18   3  -1   -0.38    2.75 
  18   3   3    7.76    3.95 
  -3  18  -3    7.54    4.14 
  -3  18   3    4.79    3.43 
  -3  18  -3    0.85    2.74 
  18   3  -3    3.50    3.27 
  18   3   5    4.54    3.15 
  -3  18  -5    3.82    3.05 
  -3  18  -5    4.53    3.39 
  -3  18   5    3.52    3.10 
  18   3  -5    1.96    3.03 
  18   3   7   11.40    4.38 
  -3  18   7    1.61    2.74 
  -3  18  -7    0.17    1.79 
  -3  18  -7    9.93    4.65 
  18   3  -7   11.99    4.43 
  -3  18  -9   26.25    4.91 
  -3  18   9   36.33    4.77 
  18   3 -11    0.97    2.25 
  -4  18   0    2.44    3.46 
  -4  18   0    5.09    3.84 
  18   4   2   10.18    4.44 
  -4  18  -2    6.33    4.12 
  -4  18   2    2.24    2.98 
  -4  18  -2    0.96    2.84 
  -4  18   2   -0.74    2.11 
  18   4  -2    1.15    2.38 
  18   4   4    4.03    3.08 
  -4  18  -4   -1.33    2.79 
  -4  18  -4    1.51    3.17 
  -4  18   4   -0.90    2.68 
  18   4  -4    2.52    2.72 
  18   4   6   -2.55    3.30 
  -4  18  -6   -1.36    2.96 
  -4  18  -6    0.31    2.46 
  -4  18   6    2.81    3.77 
  18   4  -6   -0.06    2.58 
  18   4   8    2.33    2.77 
  -4  18   8    2.64    3.05 
  -4  18  -8    3.74    3.03 
  -4  18  -8   -2.93    1.52 
  18   4  -8    3.20    3.04 
  -4  18  10    0.28    2.01 
  18   4 -10   -1.06    1.98 
  -5  18   1   -0.27    2.89 
  -5  18  -1    0.25    2.88 
  -5  18   1    3.40    3.49 
  -5  18  -1    1.01    3.35 
  -5  18  -3    0.55    2.52 
  -5  18  -3    2.73    3.28 
  -5  18   3   -0.27    2.68 
  18   5  -3    0.62    2.36 
  18   5   5    9.57    3.78 
  -5  18  -5    1.44    3.06 
  -5  18  -5    2.34    3.14 
  -5  18   5    3.24    3.13 
  18   5  -5    5.72    3.34 
  -5  18  -7    6.12    3.53 
  -5  18   7    1.71    2.76 
  18   5  -7    0.57    2.53 
  -5  18  -9    1.60    2.52 
  -5  18   9   -1.02    2.00 
  18   5  -9    0.42    1.95 
  -6  18   0    7.16    4.12 
  -6  18   0    8.42    4.06 
  -6  18  -2    1.22    2.73 
  -6  18   2   -1.72    2.99 
  -6  18  -2    0.41    2.81 
  18   6  -2   -1.38    1.60 
  -6  18  -4    2.01    2.69 
  -6  18  -4    0.34    2.47 
  -6  18   4    0.03    2.39 
  18   6  -4    1.28    2.11 
  -6  18  -6    0.39    2.59 
  -6  18  -6   -1.20    2.35 
  -6  18   6   -3.09    2.81 
  18   6  -6   -2.21    2.32 
  -6  18  -8    1.53    2.50 
  -6  18   8    2.11    2.75 
  18   6  -8    5.76    2.75 
  -7  18  -1    2.38    2.86 
  -7  18   1    2.53    2.86 
  -7  18  -1    0.04    2.31 
  -7  18  -3   -1.17    2.68 
  -7  18   3   -0.51    2.47 
  -7  18  -3   -1.01    2.28 
  -7  18  -5   -0.48    2.15 
  -7  18   5   -0.89    2.30 
  -7  18  -5    2.60    2.65 
  18   7  -5    0.21    1.92 
  -7  18   7    1.02    2.78 
  -8  18   0    0.51    2.57 
  -8  18   2    2.80    2.55 
  -8  18  -2    3.28    2.92 
  -8  18  -2    7.61    3.54 
  -8  18  -4    0.00    1.78 
  -8  18   4   -1.70    2.37 
  -8  18  -4    1.49    1.73 
   5  19   0   -2.21    2.11 
   5  19   2   22.64    4.21 
   5  19  -2    0.66    2.25 
   4  19   1   -1.53    2.23 
   4  19  -1    3.87    2.69 
   4  19  -3    2.33    2.54 
  19  -4  -3   -1.38    1.80 
  19  -4  -5   -0.72    2.07 
   3  19   0   -1.43    2.26 
   3  19   2   13.81    3.65 
   3  19  -2    5.57    2.68 
  19  -3  -2    8.62    3.25 
   3  19  -4    1.97    2.00 
  19  -3   4    3.57    2.19 
  19  -3  -4    7.42    2.85 
  19  -3   6    0.22    2.03 
  19  -3  -6    1.89    2.22 
   2  19  -1    0.47    2.11 
  19  -2   1   -0.86    2.24 
  19  -2  -1    1.35    1.63 
  19  -2   3    3.25    2.93 
  19  -2  -3    2.40    2.39 
  19  -2   5    2.20    2.38 
  19  -2  -5   -0.43    2.22 
  19  -2   7   -3.33    2.40 
  19  -2  -7    4.07    2.20 
  19  -1   0    1.98    2.35 
  19  -1   2    0.84    2.46 
  19  -1  -2   -1.25    2.26 
  19  -1   4    3.09    2.59 
  19  -1  -4    2.75    2.68 
  19  -1   6    1.31    2.69 
  19  -1  -6    0.98    2.38 
  19  -1   8    1.79    1.81 
  19  -1  -8   -0.32    1.94 
  19   0   1   -0.33    2.73 
  19   0  -1    1.73    1.52 
  19   0   3   -0.79    2.62 
  19   0  -3    0.29    2.23 
  19   0   5    8.40    3.18 
  19   0  -5    3.98    2.84 
  19   0   7   -0.06    2.12 
  19   0  -7    2.86    2.61 
  19   1   0    4.60    3.24 
  19   1   2   12.74    4.10 
  19   1  -2    7.65    2.81 
  19   1   4   -5.12    2.77 
  19   1  -4   -0.69    2.50 
  19   1   6    5.07    2.91 
  19   1  -6    4.57    2.81 
  19   1   8   28.33    3.68 
  19   1  -8   -1.72    1.95 
  19   2   1    2.66    2.90 
  19   2   3   -0.12    2.52 
  19   2  -3    1.40    2.27 
  19   2   5   -3.11    2.72 
  19   2  -5   -0.28    1.98 
  19   2   7    4.15    2.64 
  19   2  -7    4.76    2.68 
  -3  19   2    4.49    2.07 
  19   3   4   11.28    3.68 
  19   3  -4    5.31    2.68 
  19   3   6    0.99    2.30 
  19   3  -6    0.53    1.94 
  -4  19   1   31.42    3.95 
  -4  19  -1    1.34    1.79 
  -4  19   3    0.51    1.76 
  -5  19   0   -1.34    2.07 
  -5  19   2    3.35    2.45 
   0   0   0    0.00    0.00 
;
_shelx_hkl_checksum              35410
loop_
_space_group_symop_operation_xyz
'x, y, z'
'-x+1/2, -y, z+1/2'
'-y+3/4, x+1/4, z+1/4'
'y+3/4, -x+3/4, z+3/4'
'x+1/2, y+1/2, z+1/2'
'-x+1, -y+1/2, z+1'
'-y+5/4, x+3/4, z+3/4'
'y+5/4, -x+5/4, z+5/4'
'-x, -y, -z'
'x-1/2, y, -z-1/2'
'y-3/4, -x-1/4, -z-1/4'
'-y-3/4, x-3/4, -z-3/4'
'-x+1/2, -y+1/2, -z+1/2'
'x, y+1/2, -z'
'y-1/4, -x+1/4, -z+1/4'
'-y-1/4, x-1/4, -z-1/4'
loop_
_atom_site_label
_atom_site_type_symbol
_atom_site_fract_x
_atom_site_fract_y
_atom_site_fract_z
_atom_site_U_iso_or_equiv
_atom_site_adp_type
_atom_site_occupancy
_atom_site_site_symmetry_order
_atom_site_calc_flag
_atom_site_refinement_flags_posn
_atom_site_refinement_flags_adp
_atom_site_refinement_flags_occupancy
_atom_site_disorder_assembly
_atom_site_disorder_group
Cu1 Cu 1.04220(4) 0.52425(4) 0.44510(3) 0.0527(3) Uani 1 1 d . . . . .
O2 O 0.9320(3) 0.3764(3) 0.50177(19) 0.0713(10) Uani 1 1 d . . . . .
O1 O 1.0001(3) 0.4110(2) 0.4181(2) 0.0745(11) Uani 1 1 d . . . . .
N1 N 0.9295(3) 0.5738(3) 0.42939(19) 0.0561(10) Uani 1 1 d . . . . .
N2 N 0.8253(3) 0.6458(3) 0.38282(19) 0.0605(11) Uani 1 1 d . . . . .
N3 N 0.8572(3) 0.5361(3) 0.5199(2) 0.0734(14) Uani 1 1 d . . . . .
C3 C 0.8631(3) 0.5729(3) 0.4653(3) 0.0572(12) Uani 1 1 d . . . . .
C1 C 0.9039(3) 0.6176(3) 0.3805(2) 0.0595(12) Uani 1 1 d . . . . .
H1 H 0.939001 0.627110 0.347898 0.071 Uiso 1 1 calc R U . . .
C6 C 0.9612(4) 0.3607(3) 0.4518(3) 0.0676(15) Uani 1 1 d . . . . .
C2 C 0.7985(4) 0.6170(4) 0.4371(3) 0.0676(14) Uani 1 1 d . . . . .
N4 N 0.7177(4) 0.5884(7) 0.5236(3) 0.147(4) Uani 1 1 d . . . . .
N5 N 0.6564(4) 0.6671(7) 0.4465(4) 0.168(5) Uani 1 1 d . . . . .
H5A H 0.658607 0.690658 0.411899 0.202 Uiso 1 1 calc R U . . .
H5B H 0.610986 0.670342 0.467500 0.202 Uiso 1 1 calc R U . . .
C7 C 0.9545(4) 0.2715(4) 0.4302(4) 0.094(2) Uani 1 1 d . . . . .
H7A H 0.931270 0.270746 0.390106 0.112 Uiso 1 1 calc R U . . .
H7B H 0.916691 0.239874 0.456032 0.112 Uiso 1 1 calc R U . . .
C4 C 0.7239(5) 0.6251(7) 0.4677(4) 0.118(3) Uani 1 1 d . . . . .
C5 C 0.7832(5) 0.5466(7) 0.5460(4) 0.123(4) Uani 1 1 d . . . . .
H5 H 0.776256 0.522457 0.583534 0.147 Uiso 1 1 calc R U . . .
loop_
_atom_site_aniso_label
_atom_site_aniso_U_11
_atom_site_aniso_U_22
_atom_site_aniso_U_33
_atom_site_aniso_U_23
_atom_site_aniso_U_13
_atom_site_aniso_U_12
Cu1 0.0535(4) 0.0528(4) 0.0519(4) 0.0140(3) 0.0024(3) 0.0033(3)
O2 0.082(3) 0.069(2) 0.063(2) 0.0052(19) -0.004(2) -0.012(2)
O1 0.098(3) 0.050(2) 0.076(3) 0.0036(19) 0.014(2) -0.0086(19)
N1 0.054(2) 0.060(2) 0.054(2) 0.0132(19) -0.0091(18) 0.0023(17)
N2 0.065(3) 0.068(3) 0.048(2) 0.014(2) -0.011(2) 0.001(2)
N3 0.057(3) 0.089(3) 0.075(3) 0.027(3) 0.008(2) 0.016(2)
C3 0.054(3) 0.056(3) 0.062(3) 0.010(2) -0.009(2) 0.008(2)
C1 0.058(3) 0.068(3) 0.053(3) 0.014(2) -0.008(2) 0.006(2)
C6 0.075(3) 0.053(3) 0.074(4) 0.005(3) -0.013(3) -0.003(2)
C2 0.060(3) 0.083(4) 0.059(3) 0.017(3) -0.002(2) 0.009(3)
N4 0.088(4) 0.245(10) 0.108(6) 0.099(6) 0.043(4) 0.081(6)
N5 0.079(4) 0.301(13) 0.126(6) 0.093(7) 0.019(4) 0.094(6)
C7 0.098(5) 0.053(3) 0.130(7) 0.004(4) -0.021(4) -0.010(3)
C4 0.070(4) 0.183(9) 0.101(6) 0.051(6) 0.013(4) 0.044(5)
C5 0.075(4) 0.187(9) 0.106(6) 0.069(6) 0.035(4) 0.050(5)
loop_
_atom_type_symbol
_atom_type_description
_atom_type_scat_dispersion_real
_atom_type_scat_dispersion_imag
_atom_type_scat_source
C C 0.0181 0.0091 'International Tables Vol C Tables 4.2.6.8 and 6.1.1.4'
H H 0.0000 0.0000 'International Tables Vol C Tables 4.2.6.8 and 6.1.1.4'
N N 0.0311 0.0180 'International Tables Vol C Tables 4.2.6.8 and 6.1.1.4'
O O 0.0492 0.0322 'International Tables Vol C Tables 4.2.6.8 and 6.1.1.4'
Cu Cu -1.9646 0.5888 'International Tables Vol C Tables 4.2.6.8 and 6.1.1.4'
loop_
_geom_angle_atom_site_label_1
_geom_angle_atom_site_label_2
_geom_angle_atom_site_label_3
_geom_angle
_geom_angle_site_symmetry_1
_geom_angle_site_symmetry_3
_geom_angle_publ_flag
N1 Cu1 O1 90.06(19) . . ?
N1 Cu1 O2 88.74(18) . 9_766 ?
O1 Cu1 O2 160.63(17) . 9_766 ?
N1 Cu1 N3 165.59(19) . 9_766 ?
O1 Cu1 N3 87.5(2) . 9_766 ?
O2 Cu1 N3 88.8(2) 9_766 9_766 ?
N1 Cu1 N2 96.74(18) . 16_756 ?
O1 Cu1 N2 103.95(17) . 16_756 ?
O2 Cu1 N2 95.39(17) 9_766 16_756 ?
N3 Cu1 N2 97.63(19) 9_766 16_756 ?
N1 Cu1 Cu1 80.86(13) . 9_766 ?
O1 Cu1 Cu1 82.35(13) . 9_766 ?
O2 Cu1 Cu1 78.37(12) 9_766 9_766 ?
N3 Cu1 Cu1 84.74(14) 9_766 9_766 ?
N2 Cu1 Cu1 173.32(13) 16_756 9_766 ?
C6 O2 Cu1 128.1(4) . 9_766 ?
C6 O1 Cu1 123.2(4) . . ?
C3 N1 C1 105.0(4) . . ?
C3 N1 Cu1 127.0(3) . . ?
C1 N1 Cu1 127.9(4) . . ?
C1 N2 C2 102.4(4) . . ?
C1 N2 Cu1 118.3(4) . 11_676 ?
C2 N2 Cu1 139.0(4) . 11_676 ?
C5 N3 C3 113.9(5) . . ?
C5 N3 Cu1 126.1(5) . 9_766 ?
C3 N3 Cu1 120.0(4) . 9_766 ?
N1 C3 N3 127.4(5) . . ?
N1 C3 C2 107.6(5) . . ?
N3 C3 C2 125.0(5) . . ?
N2 C1 N1 115.0(5) . . ?
N2 C1 H1 122.5 . . ?
N1 C1 H1 122.5 . . ?
O2 C6 O1 126.8(6) . . ?
O2 C6 C7 117.1(6) . . ?
O1 C6 C7 116.0(6) . . ?
N2 C2 C4 132.9(6) . . ?
N2 C2 C3 110.1(5) . . ?
C4 C2 C3 117.0(6) . . ?
C5 N4 C4 119.7(6) . . ?
C4 N5 H5A 120.0 . . ?
C4 N5 H5B 120.0 . . ?
H5A N5 H5B 120.0 . . ?
C6 C7 C7 109.8(6) . 6_654 ?
C6 C7 H7A 109.7 . . ?
C7 C7 H7A 109.7 6_654 . ?
C6 C7 H7B 109.7 . . ?
C7 C7 H7B 109.7 6_654 . ?
H7A C7 H7B 108.2 . . ?
N5 C4 C2 123.7(7) . . ?
N5 C4 N4 118.1(7) . . ?
C2 C4 N4 118.3(6) . . ?
N3 C5 N4 126.1(7) . . ?
N3 C5 H5 117.0 . . ?
N4 C5 H5 117.0 . . ?
loop_
_geom_bond_atom_site_label_1
_geom_bond_atom_site_label_2
_geom_bond_distance
_geom_bond_site_symmetry_2
_geom_bond_publ_flag
Cu1 N1 1.977(4) . ?
Cu1 O1 2.003(4) . ?
Cu1 O2 2.012(4) 9_766 ?
Cu1 N3 2.012(5) 9_766 ?
Cu1 N2 2.158(4) 16_756 ?
Cu1 Cu1 2.8998(14) 9_766 ?
O2 C6 1.236(7) . ?
O1 C6 1.257(7) . ?
N1 C3 1.322(7) . ?
N1 C1 1.356(6) . ?
N2 C1 1.320(7) . ?
N2 C2 1.365(7) . ?
N3 C5 1.317(8) . ?
N3 C3 1.358(7) . ?
C3 C2 1.388(7) . ?
C1 H1 0.9300 . ?
C6 C7 1.494(8) . ?
C2 C4 1.369(10) . ?
N4 C5 1.327(9) . ?
N4 C4 1.383(9) . ?
N5 C4 1.342(9) . ?
N5 H5A 0.8600 . ?
N5 H5B 0.8600 . ?
C7 C7 1.591(14) 6_654 ?
C7 H7A 0.9700 . ?
C7 H7B 0.9700 . ?
C5 H5 0.9300 . ?
