#------------------------------------------------------------------------------
#$Date: 2022-01-03 22:21:14 +0200 (Mon, 03 Jan 2022) $
#$Revision: 271714 $
#$URL: file:///home/coder/svn-repositories/cod/cif/4/51/92/4519218.cif $
#------------------------------------------------------------------------------
#
# This file is available in the Crystallography Open Database (COD),
# http://www.crystallography.net/
#
# All data on this site have been placed in the public domain by the
# contributors.
#
data_4519218
loop_
_publ_author_name
'Liu, Wansheng'
'Yang, Yi'
'Yang, Xiaojie'
'Peng, Yun-Lei'
'Cheng, Peng'
'Zhang, Zhenjie'
'Chen, Yao'
_publ_section_title
;
 Template-Directed Fabrication of Highly Efficient Metal-Organic Framework
 Photocatalysts.
;
_journal_issue                   49
_journal_name_full               'ACS applied materials &amp; interfaces'
_journal_page_first              58619
_journal_page_last               58629
_journal_paper_doi               10.1021/acsami.1c17925
_journal_volume                  13
_journal_year                    2021
_chemical_absolute_configuration ad
_chemical_formula_moiety         'C15 H13 N O2 S'
_chemical_formula_sum            'C15 H13 N O2 S'
_chemical_formula_weight         271.32
_chemical_name_systematic        sfjyd
_space_group_crystal_system      orthorhombic
_space_group_IT_number           19
_space_group_name_Hall           'P 2ac 2ab'
_space_group_name_H-M_alt        'P 21 21 21'
_atom_sites_solution_hydrogens   geom
_atom_sites_solution_primary     dual
_audit_creation_date             2021-08-27
_audit_creation_method
;
Olex2 1.3
(compiled 2020.11.12 svn.r5f609507 for OlexSys, GUI svn.r6272)
;
_cell_angle_alpha                90
_cell_angle_beta                 90
_cell_angle_gamma                90
_cell_formula_units_Z            4
_cell_length_a                   8.8079(2)
_cell_length_b                   10.0724(3)
_cell_length_c                   15.1907(4)
_cell_measurement_reflns_used    5266
_cell_measurement_temperature    298
_cell_measurement_theta_max      25.9550
_cell_measurement_theta_min      4.0410
_cell_volume                     1347.67(6)
_computing_cell_refinement       'CrysAlisPro 1.171.39.46 (Rigaku OD, 2018)'
_computing_data_collection       'CrysAlisPro 1.171.39.46 (Rigaku OD, 2018)'
_computing_data_reduction        'CrysAlisPro 1.171.39.46 (Rigaku OD, 2018)'
_computing_molecular_graphics    'Olex2 1.3 (Dolomanov et al., 2009)'
_computing_publication_material  'Olex2 1.3 (Dolomanov et al., 2009)'
_computing_structure_refinement  'SHELXL 2018/3 (Sheldrick, 2015)'
_computing_structure_solution    'SHELXT 2018/2 (Sheldrick, 2018)'
_diffrn_ambient_temperature      298
_diffrn_detector                 'CCD area detector'
_diffrn_detector_area_resol_mean 5.6
_diffrn_detector_type            'Bruker SMART CCD 6000 area detector'
_diffrn_measured_fraction_theta_full 0.960
_diffrn_measured_fraction_theta_max 0.960
_diffrn_measurement_details
;
List of Runs (angles in degrees, time in seconds):

  # Type    Start    End  Width  t~exp~   \w     \q     \k     \f   Frames
--------------------------------------------------------------------------
  1  \w     -9.00  88.00   1.00   15.00    --   18.55  72.00  11.00   97
  2  \w    -45.00  42.00   1.00   15.00    --   18.55 -72.00-118.00   87
  3  \w    -65.00 -40.00   1.00   15.00    --  -19.56 -72.00-118.00   25
  4  \w    -23.00   2.00   1.00   15.00    --  -19.56  72.00  11.00   25
  5  \w     35.00  60.00   1.00   15.00    --   18.55 178.00  30.00   25
  6  \w    -11.00  60.00   1.00   15.00    --   18.55 -99.00  90.00   71
  7  \w    -48.00  50.00   1.00   15.00    --  -19.56  77.00 120.00   98
  8  \w    -90.00  10.00   1.00   15.00    --  -19.56 -77.00 120.00  100
;
_diffrn_measurement_device       'three-circle diffractometer'
_diffrn_measurement_device_type  'Bruker SMART CCD 6000'
_diffrn_measurement_method       '\w scans'
_diffrn_orient_matrix_type
'CrysAlisPro convention (1999,Acta A55,543-557)'
_diffrn_orient_matrix_UB_11      0.0186778000
_diffrn_orient_matrix_UB_12      -0.0597854000
_diffrn_orient_matrix_UB_13      0.0221841000
_diffrn_orient_matrix_UB_21      -0.0444078000
_diffrn_orient_matrix_UB_22      -0.0364025000
_diffrn_orient_matrix_UB_23      -0.0305723000
_diffrn_orient_matrix_UB_31      0.0645681000
_diffrn_orient_matrix_UB_32      -0.0077694000
_diffrn_orient_matrix_UB_33      -0.0274129000
_diffrn_radiation_monochromator  graphite
_diffrn_radiation_probe          x-ray
_diffrn_radiation_type           'Mo K\a'
_diffrn_radiation_wavelength     0.71073
_diffrn_reflns_av_R_equivalents  0.0288
_diffrn_reflns_av_unetI/netI     0.0238
_diffrn_reflns_Laue_measured_fraction_full 0.960
_diffrn_reflns_Laue_measured_fraction_max 0.960
_diffrn_reflns_limit_h_max       10
_diffrn_reflns_limit_h_min       -10
_diffrn_reflns_limit_k_max       11
_diffrn_reflns_limit_k_min       -11
_diffrn_reflns_limit_l_max       18
_diffrn_reflns_limit_l_min       -18
_diffrn_reflns_number            11729
_diffrn_reflns_point_group_measured_fraction_full 0.971
_diffrn_reflns_point_group_measured_fraction_max 0.971
_diffrn_reflns_theta_full        25.026
_diffrn_reflns_theta_max         25.025
_diffrn_reflns_theta_min         3.353
_diffrn_source                   'sealed X-ray tube'
_diffrn_source_target            Mo
_diffrn_source_type              'SuperNova (Mo) X-ray Source'
_exptl_absorpt_coefficient_mu    0.237
_exptl_absorpt_correction_T_max  1.00000
_exptl_absorpt_correction_T_min  0.41445
_exptl_absorpt_correction_type   multi-scan
_exptl_absorpt_process_details
;
CrysAlisPro 1.171.39.46 (Rigaku Oxford Diffraction, 2018)
Empirical absorption correction using spherical harmonics,
 implemented in SCALE3 ABSPACK scaling algorithm.
;
_exptl_crystal_colour            'metallic light yellow'
_exptl_crystal_colour_lustre     metallic
_exptl_crystal_colour_modifier   light
_exptl_crystal_colour_primary    yellow
_exptl_crystal_density_diffrn    1.337
_exptl_crystal_description       block
_exptl_crystal_F_000             568
_exptl_crystal_size_max          0.2
_exptl_crystal_size_mid          0.2
_exptl_crystal_size_min          0.2
_refine_diff_density_max         0.664
_refine_diff_density_min         -0.466
_refine_diff_density_rms         0.078
_refine_ls_abs_structure_details
;
 Flack x determined using 788 quotients [(I+)-(I-)]/[(I+)+(I-)]
 (Parsons, Flack and Wagner, Acta Cryst. B69 (2013) 249-259).
;
_refine_ls_abs_structure_Flack   0.06(3)
_refine_ls_extinction_method     none
_refine_ls_goodness_of_fit_ref   1.053
_refine_ls_hydrogen_treatment    constr
_refine_ls_matrix_type           full
_refine_ls_number_parameters     173
_refine_ls_number_reflns         2313
_refine_ls_number_restraints     5
_refine_ls_restrained_S_all      1.059
_refine_ls_R_factor_all          0.0845
_refine_ls_R_factor_gt           0.0771
_refine_ls_shift/su_max          0.000
_refine_ls_shift/su_mean         0.000
_refine_ls_structure_factor_coef Fsqd
_refine_ls_weighting_details
'w=1/[\s^2^(Fo^2^)+(0.1572P)^2^+0.6257P] where P=(Fo^2^+2Fc^2^)/3'
_refine_ls_weighting_scheme      calc
_refine_ls_wR_factor_gt          0.2101
_refine_ls_wR_factor_ref         0.2223
_reflns_Friedel_coverage         0.735
_reflns_Friedel_fraction_full    0.987
_reflns_Friedel_fraction_max     0.987
_reflns_number_gt                2052
_reflns_number_total             2313
_reflns_threshold_expression     'I > 2\s(I)'
_cod_data_source_file            am1c17925_si_006.cif
_cod_data_source_block           8b
_cod_database_code               4519218
_shelx_shelxl_version_number     2018/3
_shelx_space_group_comment
;
The symmetry employed for this shelxl refinement is uniquely defined
by the following loop, which should always be used as a source of
symmetry information in preference to the above space-group names.
They are only intended as comments.
;
_shelx_estimated_absorpt_t_max   0.954
_shelx_estimated_absorpt_t_min   0.954
_reflns_odcompleteness_completeness 99.57
_reflns_odcompleteness_iscentric 1
_reflns_odcompleteness_theta     26.32
_olex2_refinement_description
;
1. Fixed Uiso
 At 1.2 times of:
  All C(H) groups, All C(H,H) groups, All N(H) groups
 At 1.5 times of:
  All C(H,H,H) groups
2. Restrained distances
 C2-C1 \\sim C3-C2 \\sim C4-C3
 with sigma of 0.0001
 S1-C4 \\sim S1-C1
 with sigma of 0.001
3. Rigid bond restraints
 C3, C4
 with sigma for 1-2 distances of 0.001 and sigma for 1-3 distances of 0.001
4.a Secondary CH2 refined with riding coordinates:
 C6(H6A,H6B)
4.b Aromatic/amide H refined with riding coordinates:
 C3(H3), N1(H1), C12(H12), C15(H15), C2(H2), C14(H14), C1(H1A), C13(H13)
4.c Idealised Me refined as rotating group:
 C8(H8A,H8B,H8C)
;
_shelx_res_file
;
TITL p20210826d1_a.res in P2(1)2(1)2(1)
    p20210826d1.res
    created by SHELXL-2018/3 at 20:58:51 on 27-Aug-2021
REM Old TITL p20210826D1 in P2(1)2(1)2(1)
REM SHELXT solution in P2(1)2(1)2(1): R1 0.176, Rweak 0.130, Alpha 0.005
REM <I/s> 0.987 for 18 systematic absences, Orientation as input
REM Flack x = -1.911 ( 0.354 ) from 915 Parsons' quotients
REM Formula found by SHELXT: C14 N O4
CELL 0.71073 8.8079 10.0724 15.1907 90 90 90
ZERR 4 0.0002 0.0003 0.0004 0 0 0
LATT -1
SYMM 0.5-X,-Y,0.5+Z
SYMM -X,0.5+Y,0.5-Z
SYMM 0.5+X,0.5-Y,-Z
SFAC C H N O S
UNIT 60 52 4 8 4
SADI 0.0001 C2 C1 C3 C2 C4 C3
SADI 0.001 S1 C4 S1 C1
DELU 0.001 0.001 C3 C4

L.S. 40
PLAN  10
SIZE 0.2 0.2 0.2
TEMP 24.85
CONF
list 4
MORE -1
BOND $H
fmap 2 53
acta
SHEL 999 0.84
OMIT 0 1 3
OMIT 0 1 4
OMIT 2 0 1
OMIT 0 0 4
OMIT -1 -2 -1
OMIT 1 0 4
OMIT 1 2 1
OMIT 3 0 1
OMIT 0 3 4
OMIT 0 2 5
OMIT 1 3 0
OMIT 3 1 0
OMIT 2 4 0
OMIT 0 6 1
OMIT 4 0 0
OMIT 2 0 0
OMIT -4 1 2
OMIT 3 5 0
OMIT 4 1 2
OMIT 3 0 4
OMIT 1 6 1
OMIT -1 6 1
OMIT 0 2 2
OMIT 4 0 6
OMIT 0 2 0
OMIT 0 7 1
OMIT 4 0 3
OMIT 1 2 0
OMIT -1 2 3
OMIT 1 2 3
OMIT -1 2 2
OMIT 2 0 2
OMIT 1 2 2
OMIT 0 2 6
OMIT 0 6 5
OMIT 2 3 3
OMIT 0 5 6
OMIT 3 0 5
OMIT 3 0 2
OMIT -2 3 2
OMIT 0 2 3
OMIT 0 5 3
OMIT 2 3 2
OMIT -2 3 3
OMIT -3 3 5
OMIT 0 5 1
OMIT -1 5 5
OMIT 5 1 0
OMIT 1 5 5
OMIT 0 1 9
OMIT -4 4 6
OMIT 3 3 5
OMIT 0 4 3
OMIT 6 0 2
OMIT 0 1 5
OMIT 3 1 1
OMIT -1 3 6
OMIT -3 1 1
OMIT 0 5 2
OMIT 2 2 0
OMIT 2 0 5
OMIT 8 0 10
OMIT 5 0 4
OMIT -5 3 3
OMIT 0 5 9
REM <olex2.extras>
REM <HklSrc "%.\\p20210826D1.hkl">
REM </olex2.extras>

WGHT    0.157200    0.625700
FVAR       0.94814
S1    5    0.146106    0.700339    0.658026    11.00000    0.06225    0.07450 =
         0.11119    0.00715    0.01474    0.00147
C3    1    0.273173    0.464062    0.673982    11.00000    0.01729    0.03979 =
         0.06186    0.01016   -0.00260   -0.01388
AFIX  43
H3    2    0.343723    0.395392    0.672744    11.00000   -1.20000
AFIX   0
O2    4    0.736694    0.792642    0.601098    11.00000    0.04897    0.05455 =
         0.07851    0.00609    0.01680   -0.00573
O1    4    0.621121    0.571909    0.736489    11.00000    0.05919    0.10329 =
         0.04094    0.01049   -0.01117   -0.01114
N1    3    0.473892    0.633649    0.524930    11.00000    0.05484    0.04765 =
         0.03648    0.00329   -0.00383    0.00799
AFIX  43
H1    2    0.430922    0.678713    0.483802    11.00000   -1.20000
AFIX   0
C11   1    0.569379    0.528094    0.511778    11.00000    0.04059    0.03924 =
         0.04886   -0.00015    0.00359   -0.00761
C10   1    0.636930    0.486111    0.589894    11.00000    0.03859    0.04078 =
         0.05797    0.00518    0.00144   -0.00285
C9    1    0.581995    0.570163    0.660064    11.00000    0.03835    0.05670 =
         0.03949    0.00973   -0.00540   -0.00928
C5    1    0.455712    0.658529    0.619795    11.00000    0.03133    0.04679 =
         0.03978   -0.00249    0.00389   -0.00596
C4    1    0.299036    0.604574    0.652765    11.00000    0.04350    0.04054 =
         0.04471    0.00225   -0.00097   -0.00860
C12   1    0.600558    0.466435    0.431389    11.00000    0.06957    0.05441 =
         0.05288   -0.00758    0.01063   -0.00884
AFIX  43
H12   2    0.551095    0.490868    0.379784    11.00000   -1.20000
AFIX   0
C7    1    0.623422    0.862406    0.608663    11.00000    0.05373    0.04693 =
         0.05314   -0.00302    0.00905   -0.00648
C15   1    0.742791    0.381740    0.588143    11.00000    0.04191    0.05292 =
         0.10614    0.01940   -0.00129    0.00107
AFIX  43
H15   2    0.790475    0.353265    0.639399    11.00000   -1.20000
AFIX   0
C2    1    0.111692    0.455552    0.697579    11.00000    0.05033    0.08643 =
         0.09856    0.01078    0.00842   -0.02844
AFIX  43
H2    2    0.065884    0.376911    0.715568    11.00000   -1.20000
AFIX   0
C14   1    0.774032    0.322546    0.507916    11.00000    0.05919    0.04553 =
         0.14135   -0.01160    0.03912    0.00268
AFIX  43
H14   2    0.840746    0.251050    0.505818    11.00000   -1.20000
AFIX   0
C6    1    0.475811    0.806052    0.639827    11.00000    0.05036    0.04821 =
         0.08559   -0.01934    0.01837   -0.00515
AFIX  23
H6A   2    0.393501    0.854899    0.612427    11.00000   -1.20000
H6B   2    0.468175    0.819167    0.702931    11.00000   -1.20000
AFIX   0
C1    1    0.028566    0.581558    0.690403    11.00000    0.04970    0.11692 =
         0.08043   -0.01249    0.00249   -0.00557
AFIX  43
H1A   2   -0.074222    0.592898    0.702218    11.00000   -1.20000
AFIX   0
C13   1    0.709780    0.366345    0.432717    11.00000    0.09639    0.04781 =
         0.08155   -0.01468    0.03105   -0.00177
AFIX  43
H13   2    0.739537    0.328256    0.379683    11.00000   -1.20000
AFIX   0
C8    1    0.626619    1.005616    0.587108    11.00000    0.08456    0.05982 =
         0.10485    0.01904    0.03383    0.00268
AFIX 137
H8A   2    0.728782    1.038062    0.591798    11.00000   -1.50000
H8B   2    0.562632    1.053098    0.627433    11.00000   -1.50000
H8C   2    0.590516    1.018617    0.528105    11.00000   -1.50000
AFIX   0
HKLF 4




REM  p20210826d1_a.res in P2(1)2(1)2(1)
REM wR2 = 0.2223, GooF = S = 1.053, Restrained GooF = 1.059 for all data
REM R1 = 0.0771 for 2052 Fo > 4sig(Fo) and 0.0845 for all 2313 data
REM 173 parameters refined using 5 restraints

END

WGHT      0.1572      0.6256

REM Highest difference peak  0.664,  deepest hole -0.466,  1-sigma level  0.078
Q1    1   0.0788  0.4975  0.6948  11.00000  0.05    0.53
Q2    1   0.0645  0.5647  0.6830  11.00000  0.05    0.53
Q3    1   0.3422  0.6426  0.6436  11.00000  0.05    0.51
Q4    1   0.3688  0.6478  0.5010  11.00000  0.05    0.33
Q5    1   0.5892  0.4828  0.5535  11.00000  0.05    0.22
Q6    1   0.5646  0.5731  0.4263  11.00000  0.05    0.22
Q7    1   0.6701  0.2391  0.3262  11.00000  0.05    0.20
Q8    1   0.6103  1.1952  0.5119  11.00000  0.05    0.19
Q9    1   0.2920  0.8619  0.7513  11.00000  0.05    0.19
Q10   1   0.8396  0.3427  0.5829  11.00000  0.05    0.19
;
_shelx_res_checksum              55246
_shelx_hkl_file
;
   0   0   3    1.15    1.13
   0   0   3    0.86    0.84
   0   0   3   -0.16    0.60
   0   0  -3    0.47    0.67
   0   0  -3   -0.08    0.67
   0   0  -3    0.02    1.08
   0   0   4 7311.77   46.98
   0   0  -4 7281.59   42.41
   0   0   4 7530.30   40.99
   0   0  -4 7257.11   40.55
   0   0  -4 7458.65   48.61
   0   0   4 7145.85   41.46
   0   0   5    2.78    1.57
   0   0   5    2.27    1.18
   0   0  -5    0.64    1.57
   0   0  -5    4.05    1.84
   0   0   5    1.61    1.18
   0   0  -5    0.46    1.21
   0   0  -6  524.05   16.27
   0   0   6  501.58   13.05
   0   0  -6  521.34   13.48
   0   0   6  532.18   15.58
   0   0   7    0.48    1.73
   0   0  -7    0.70    1.56
   0   0  -7    0.43    1.92
   0   0  -8  162.78   10.74
   0   0   8  168.90    8.90
   0   0  -8  161.45    8.73
   0   0   9   -1.47    2.29
   0   0  -9   -1.77    2.40
   0   0  -9    0.00    1.64
   0   0 -10   15.28    3.77
   0   0  10    6.62    2.71
   0   0 -10    9.00    3.45
   0   0 -11    4.39    3.79
   0   0 -11    5.57    2.70
   0   0  11    1.98    2.72
   0   0 -12  517.07   23.84
   0   0 -12  501.42   19.47
   0   0  12  508.26   18.87
   0   0 -13    3.90    3.07
   0   0  13    4.00    3.20
   0   0 -13   -0.58    3.08
   0   0  14    1.30    2.47
   0   0 -14    6.24    3.82
   0   0 -14    5.84    4.17
   0   0 -15    2.91    3.30
   0   0  15    5.56    3.53
   0   0 -15    0.09    2.57
   0   0  16   21.55    5.02
   0   0 -16   24.80    5.54
   0   0 -16   37.05    8.49
   0   0  17   -2.20    3.22
   0   0 -17   -0.46    2.60
   0   0 -17   -5.39    4.41
   0   0 -18    2.90    3.09
   0   0  18    0.97    2.64
   0   0 -18   -0.94    3.62
   0   0  19    1.70    3.55
   0   0 -19   -7.29    4.76
   0   0 -19   -7.05    4.66
   0  -1   2 5110.83   15.50
   0  -1  -2 5269.79   26.85
   0  -1  -2 5166.22   24.88
   0   1   2 5248.56   26.90
   0  -1   2 5241.85   27.44
   0   1  -2 5229.76   26.81
   0   1   2 5338.80   25.02
   0   1  -3 9589.90   48.83
   0  -1   3 9595.13   43.68
   0   1  -3 9753.65   42.96
   0   1   3 9566.75   39.98
   0   1  -3 9826.10   45.43
   0  -1   3 9713.24   43.44
   0  -1   3 9531.14   21.30
   0   1   3 9580.05   21.29
   0  -1  -3 9635.10   41.01
   0   1   3 9943.16   42.94
   0  -1  -3 9373.11   42.13
   0  -1   3 9710.35   49.41
   0  -1  -3 9729.10   49.75
   0   1  -3 9496.26   20.32
   0  -1  -4 9674.00   48.54
   0  -1   4 9906.81   49.84
   0  -1  -4 9626.13   57.74
   0   1   4 9511.08   45.60
   0  -1   4 9891.58   50.18
   0   1   4 9999.00   49.37
   0   1  -4 9869.72   51.60
   0  -1   4 9597.12   56.51
   0   1   4 9959.18   22.34
   0   1  -4 9594.53   48.56
   0   1   4 9869.28   22.70
   0  -1  -4 9900.08   48.25
   0   1  -4 9585.32   55.74
   0   1   4 9874.37   54.53
   0   1  -5   80.13    5.88
   0  -1  -5   86.85    5.33
   0  -1  -5   84.54    5.19
   0  -1  -5   87.42    6.41
   0  -1   5   79.68    5.07
   0  -1   5   89.69    5.34
   0   1   5   83.20    5.08
   0   1   5   91.35    2.29
   0   1   5   90.62    5.88
   0  -1   5   78.95    5.78
   0   1   5   88.21    2.29
   0   1  -5   86.67    5.42
   0  -1  -5   88.40    2.18
   0   1  -5   90.03    2.17
   0   1   5   90.53    5.11
   0   1  -5   85.52    5.20
   0   1  -5   90.04    2.22
   0  -1   5   83.97    2.18
   0  -1   6  800.32   19.32
   0   1  -6  777.88    6.50
   0  -1  -6  749.23   16.40
   0  -1  -6  797.52   20.26
   0   1   6  764.44   15.89
   0  -1   6  797.54   17.06
   0  -1   6  752.37    6.86
   0   1   6  754.67   18.28
   0   1  -6  757.53   19.40
   0   1   6  766.25    6.90
   0   1  -6  784.69   16.95
   0  -1  -6  773.66    6.77
   0   1   7 1547.18   24.47
   0  -1  -7 1594.09   25.85
   0   1   7 1585.85   10.18
   0   1  -7 1552.98   25.46
   0   1  -7 1590.49   29.98
   0  -1  -7 1651.64   31.75
   0   1  -8  759.09   22.65
   0  -1  -8  790.74   23.52
   0   1   8  802.90   18.89
   0  -1   8  794.63   19.31
   0  -1  -8  758.11   19.17
   0   1  -8  754.31   18.89
   0   1  -9   54.91    6.65
   0  -1   9   47.85    5.40
   0   1  -9   54.13    5.73
   0   1   9   37.17    4.66
   0  -1  -9   47.15    6.31
   0  -1  -9   45.49    5.43
   0   1 -10   39.96    6.38
   0  -1 -10   40.04    5.28
   0   1 -10   39.75    5.20
   0  -1 -10   33.54    6.35
   0  -1  10   36.18    4.96
   0   1  10   36.92    4.94
   0  -1 -11   58.57    6.56
   0  -1  11   59.16    6.53
   0  -1 -11   51.20    7.40
   0   1 -11   59.07    6.66
   0   1 -11   62.17    8.05
   0   1  11   58.28    6.56
   0   1 -12   28.93    5.33
   0  -1 -12   33.69    5.65
   0   1 -12   30.24    6.05
   0   1  12   21.29    4.49
   0  -1  12   30.12    5.36
   0  -1 -12   31.12    6.32
   0  -1 -13    0.40    3.01
   0  -1 -13    0.29    2.43
   0  -1  13   -2.87    2.98
   0   1  13   -0.55    2.13
   0   1 -13   -0.15    2.75
   0   1 -13   -1.50    2.54
   0  -1  14  226.09   13.98
   0  -1 -14  223.89   14.56
   0  -1 -14  213.74   17.38
   0   1  14  224.26   13.97
   0   1 -14  205.90   16.42
   0   1 -14  196.08   13.54
   0   1 -15   84.79    9.46
   0   1  15   84.01    9.17
   0  -1  15  103.05    9.99
   0  -1 -15   78.41    9.30
   0  -1 -15  102.60   12.66
   0   1 -15   78.76   10.55
   0   1  16    5.75    3.58
   0  -1 -16    7.31    5.10
   0  -1 -16   -0.60    2.70
   0   1 -16    9.52    5.08
   0   1 -16   -1.23    2.48
   0  -1  16    0.42    2.35
   0  -1 -17    5.93    4.78
   0   1 -17    0.03    2.13
   0   1 -17    3.60    3.11
   0   1  17    3.44    2.97
   0  -1  17    5.31    3.37
   0  -1 -17   -2.05    3.01
   0  -1  18    2.32    3.59
   0  -1 -18   -0.32    3.93
   0   1  18    1.36    2.43
   0   1 -18   -0.26    2.73
   0   1 -18   -2.55    3.37
   0  -1 -18    5.32    4.22
   0  -1  19   -1.20    2.55
   0   1 -19   -3.10    3.61
   0   1 -19   -1.30    3.43
   0  -1 -19    0.35    2.91
   0  -1 -19    2.43    4.39
   0  -1 -20    3.55    3.68
   0  -2   0 4031.74   19.57
   0   2   0 3908.32   19.48
   0   2   1 2269.69   16.95
   0   2   1 2236.53   14.84
   0  -2   1 2238.09   14.50
   0  -2  -1 2213.89   18.29
   0   2  -1 2265.06   14.73
   0  -2  -1 2214.61   14.44
   0   2   1 2179.41   18.35
   0  -2  -1 2273.68   16.63
   0   2  -2  240.22    4.92
   0   2   2  244.68    4.95
   0  -2  -2  246.89    4.84
   0   2   2  250.30    6.30
   0  -2  -2  244.01    6.77
   0  -2   2  243.94    4.85
   0   2   2  257.82    6.71
   0  -2  -2  249.19    6.37
   0  -2   3  252.48    4.87
   0  -2  -3  235.16    7.39
   0   2   3  241.09    7.32
   0   2  -3  253.13    5.03
   0  -2  -3  247.80    4.82
   0   2   3  242.06    4.97
   0   2   3  248.11    7.18
   0  -2  -3  244.12    6.87
   0  -2   4  941.18    9.48
   0  -2   4  881.58   18.08
   0   2   4  918.35   15.18
   0   2  -4  901.46   15.91
   0   2   4  927.24   16.01
   0   2  -4  928.97    9.79
   0  -2  -4  900.55   15.94
   0  -2   4  948.40   16.40
   0   2   4  907.64    9.82
   0   2   4  935.70    9.53
   0  -2  -4  917.02   14.98
   0  -2  -4  890.11   18.29
   0  -2  -4  912.03    9.21
   0   2  -4  930.72    9.28
   0  -2  -5   22.47    1.51
   0  -2   5   28.78    3.66
   0  -2   5   24.59    3.10
   0  -2  -5   22.81    3.04
   0  -2  -5   23.00    2.75
   0  -2  -5   25.02    3.76
   0   2  -5   35.39    3.59
   0  -2   5   25.36    1.61
   0   2  -5   23.08    1.63
   0   2  -5   24.12    1.58
   0   2   5   23.67    1.68
   0   2   5   25.88    2.98
   0   2   5   25.78    1.66
   0  -2   6  265.32   11.70
   0   2   6  253.10    9.45
   0   2   6  263.10    5.43
   0   2  -6  263.11    5.21
   0  -2  -6  258.11   12.06
   0  -2  -6  258.32    5.22
   0   2  -6  255.35    5.33
   0  -2  -6  258.79   10.13
   0   2   6  275.96    5.50
   0   2  -6  257.92   10.05
   0  -2   6  250.67    5.28
   0  -2   6  271.56   10.33
   0  -2   7  813.25   10.00
   0  -2  -7  911.33   10.18
   0  -2  -7  881.86   19.92
   0   2   7  858.03   10.26
   0  -2   7  888.76   19.87
   0   2  -7  882.40   19.87
   0   2  -7  882.14   10.09
   0   2   7  852.85   18.57
   0  -2  -7  881.03   23.93
   0   2  -7  888.85    9.85
   0   2   7  918.19   10.39
   0  -2   8  573.27    8.54
   0   2   8  601.31   16.53
   0  -2  -8  569.63   17.09
   0   2  -8  561.73   17.00
   0   2  -8  588.22    8.31
   0  -2  -8  587.97    8.46
   0  -2   8  611.87   17.52
   0   2   8  577.03    8.62
   0  -2  -8  608.50   21.38
   0  -2  -9  944.56   28.12
   0   2  -9  884.86   22.42
   0  -2  -9  859.36   22.37
   0   2  -9  828.47   24.61
   0   2   9  853.08   10.79
   0   2   9  882.09   21.33
   0  -2   9  818.40   10.47
   0  -2  -9  844.68   10.39
   0   2  -9  877.39   10.24
   0  -2   9  895.47   22.74
   0  -2  10   53.33    6.18
   0  -2 -10   53.79    7.62
   0   2  10   53.49    5.87
   0  -2  10   46.49    2.45
   0   2 -10   41.30    5.26
   0   2 -10   43.17    2.07
   0  -2  10   43.82    2.43
   0  -2 -10   53.78    6.15
   0   2 -10   44.81    6.60
   0   2  10   47.91    2.58
   0  -2 -10   44.90    2.31
   0  -2  11  174.25   11.10
   0   2  11  175.72   10.94
   0   2 -11  192.37   11.74
   0  -2 -11  172.41   13.86
   0  -2 -11  186.01   11.80
   0   2 -11  171.32   12.78
   0   2 -12   83.10    9.35
   0   2  12   99.15    8.66
   0  -2 -12   88.06   10.48
   0   2 -12  105.83    9.29
   0  -2  12   98.57    8.71
   0  -2 -12   79.97    8.28
   0  -2  13    2.81    2.86
   0   2 -13    3.40    2.11
   0  -2 -13    0.73    2.45
   0   2  13   -2.63    3.23
   0   2 -13   -0.22    2.82
   0  -2 -13    3.72    4.57
   0  -2  14   11.86    4.27
   0   2 -14    3.00    2.51
   0  -2 -14    4.59    2.44
   0  -2 -14    3.59    3.25
   0   2  14   11.17    3.75
   0  -2  15   18.75    4.82
   0   2 -15   24.37    5.29
   0  -2 -15   16.59    6.15
   0   2  15   20.28    4.99
   0  -2 -15   29.51    6.07
   0   2 -16    4.02    2.84
   0  -2 -16   -0.25    3.29
   0  -2 -16    4.02    2.95
   0  -2  16    1.26    2.62
   0   2  16   -2.44    3.05
   0   2 -17    5.22    3.39
   0  -2 -17    1.18    3.65
   0  -2  17    6.91    3.71
   0  -2 -17    4.30    2.55
   0   2  17    6.61    3.87
   0  -2  18   10.49    4.09
   0   2 -18    3.48    3.43
   0   2  18    0.22    2.61
   0  -2 -18   -0.96    2.37
   0  -2 -18    2.10    4.40
   0  -2 -19    2.18    3.13
   0   2 -19    0.19    2.89
   0  -2  19   -0.82    3.20
   0  -2 -20   10.51    5.83
   0   3   0    0.66    0.66
   0  -3   0    1.38    0.62
   0  -3  -1  309.75    6.63
   0  -3  -1  303.81    7.28
   0   3   1  308.84    6.83
   0  -3   1  306.11    6.63
   0   3   1  298.75    8.11
   0   3  -1  309.04    6.78
   0   3   2   19.71    2.26
   0   3  -2   15.95    1.67
   0  -3  -2   17.62    1.66
   0  -3  -2   17.78    1.98
   0  -3   2   19.80    1.77
   0   3   2   18.54    2.13
   0   3   2   17.01    1.63
   0  -3  -2   16.83    2.19
   0   3   3  588.81    9.16
   0   3  -3  550.61    9.25
   0  -3  -3  540.30   12.45
   0   3   3  565.01    9.43
   0  -3   3  566.18    9.02
   0   3   3  555.82   11.58
   0  -3  -3  570.72   11.44
   0  -3  -3  556.82    8.90
   0   3   3  572.24   12.49
   0   3  -4  162.35    5.09
   0  -3  -4  172.50    4.93
   0   3  -4  158.06    4.75
   0   3   4  172.40    7.38
   0   3   4  165.60    4.91
   0   3   4  164.18    5.12
   0  -3   4  156.51    4.76
   0  -3  -4  161.66    7.36
   0   3   4  155.96    6.77
   0  -3  -4  156.61    6.56
   0  -3   5 1621.42   15.41
   0  -3   5 1662.16   24.96
   0  -3  -5 1616.52   28.63
   0   3  -5 1600.44   15.33
   0   3  -5 1618.02   24.86
   0   3  -5 1632.93   16.04
   0   3   5 1622.19   16.27
   0   3   5 1659.62   15.88
   0   3   5 1583.72   23.03
   0  -3  -5 1609.02   24.63
   0  -3  -5 1588.32   15.15
   0   3  -6    6.94    2.37
   0   3   6    6.00    1.23
   0  -3   6    5.32    1.15
   0   3   6    3.00    0.94
   0   3   6    3.33    1.95
   0  -3  -6    7.98    2.52
   0  -3  -6    2.01    0.77
   0   3  -6    2.48    1.00
   0   3  -6    2.60    0.89
   0  -3  -6    4.35    2.61
   0  -3   6    2.38    1.93
   0  -3   6    2.88    1.79
   0  -3   7  320.02   12.60
   0  -3  -7  315.30   12.65
   0   3   7  334.40   12.27
   0  -3   7  319.54    7.30
   0   3   7  338.76    7.70
   0  -3  -7  318.56    7.18
   0   3   7  350.67    7.75
   0  -3  -7  321.89   15.11
   0   3  -7  339.32   12.91
   0   3  -7  330.79    7.28
   0   3  -7  320.05    7.43
   0  -3  -8  541.39   20.77
   0  -3   8  547.09   17.01
   0   3  -8  544.69    9.70
   0   3  -8  546.50    9.85
   0   3   8  565.03   10.15
   0  -3   8  501.09    9.49
   0   3   8  544.11   16.49
   0   3  -8  558.29   17.25
   0  -3  -8  545.18    9.77
   0   3   8  542.38   10.04
   0  -3  -8  561.48   17.69
   0  -3   9  180.12   10.40
   0   3  -9  176.49    5.69
   0   3   9  172.13   10.00
   0  -3  -9  174.44    5.68
   0   3   9  177.53    5.96
   0  -3  -9  172.51   12.67
   0  -3   9  164.61    5.61
   0  -3  -9  190.07   10.89
   0   3  -9  177.67    5.66
   0   3   9  164.86    5.64
   0   3  -9  177.17   10.59
   0  -3 -10   -1.97    3.47
   0   3 -10    0.58    2.27
   0  -3  10    0.19    0.95
   0   3  10    2.45    1.02
   0   3 -10    2.09    0.91
   0  -3  10   -1.49    2.97
   0   3  10    1.48    2.33
   0  -3 -10   -0.57    2.12
   0  -3 -10    0.87    0.90
   0   3 -11   78.29    7.82
   0   3  11  100.34    8.56
   0  -3 -11   95.00   10.68
   0  -3 -11   87.87    8.42
   0   3  11   85.81    4.32
   0   3 -11   90.40    4.18
   0  -3  11   94.18    8.60
   0   3 -12   70.79    7.85
   0  -3  12   72.65    7.74
   0  -3 -12   72.36    9.94
   0  -3 -12   65.26    7.71
   0   3  12   56.40    7.00
   0   3  13   -0.09    2.10
   0  -3 -13    1.87    2.29
   0  -3 -13    2.38    3.61
   0   3 -13    1.48    2.48
   0  -3  13    1.28    2.80
   0   3 -14   -0.52    2.45
   0  -3 -14   -1.22    3.15
   0  -3 -14   -4.43    3.54
   0  -3  14   -0.71    2.25
   0   3  14    1.91    2.97
   0   3  15   14.86    4.44
   0  -3  15   21.81    5.11
   0  -3 -15   16.35    6.47
   0  -3 -15   15.52    4.61
   0   3 -15   20.86    4.99
   0  -3 -16    1.97    2.92
   0   3  16   -0.21    2.25
   0  -3  16    3.69    2.72
   0  -3 -16    1.95    3.35
   0   3 -16    4.06    2.96
   0  -3  17   -2.49    2.67
   0  -3 -17    4.02    3.26
   0  -3 -17    2.38    4.21
   0   3 -17    3.35    3.23
   0   3  17    0.27    2.77
   0  -3  18   -2.57    2.65
   0   3  18   -0.34    3.05
   0   3 -18    2.78    2.92
   0  -3 -18    1.52    3.31
   0  -3 -18    4.38    3.06
   0  -3 -19    9.23    6.00
   0   4   0   69.43    3.92
   0  -4   0   63.93    3.95
   0   4   1  204.40    7.76
   0   4   1  208.96    6.56
   0   4  -1  203.17    6.49
   0  -4  -1  199.98    6.77
   0  -4  -2   11.25    1.77
   0   4  -2   11.16    1.63
   0   4   2    9.72    1.81
   0   4   2   11.29    1.99
   0   4   2   14.27    1.92
   0  -4  -3   69.72    5.04
   0   4   3   76.82    4.07
   0   4   3   69.55    4.67
   0   4  -3   73.57    4.09
   0   4   3   76.94    5.00
   0  -4  -3   77.22    4.62
   0   4  -4    5.00    1.42
   0   4   4    5.05    1.31
   0  -4  -4    1.96    1.47
   0   4   4    5.39    1.80
   0   4   5  555.94   14.57
   0  -4  -5  584.20   16.06
   0   4  -5  598.31   11.41
   0   4   5  599.24   11.53
   0  -4   5  587.53   15.69
   0   4   6    6.71    2.06
   0   4   6    1.02    0.84
   0   4  -6    0.48    1.55
   0  -4  -6    1.57    1.56
   0   4  -6    1.39    1.09
   0  -4  -6    0.79    2.25
   0  -4   6    1.24    1.54
   0   4   7  346.83    8.96
   0   4   7  353.09   13.07
   0  -4   7  368.83   13.82
   0   4  -7  352.08    8.94
   0  -4  -7  352.18   13.86
   0  -4  -7  360.73   16.52
   0   4  -7  348.30   13.58
   0   4  -8  185.27    6.66
   0  -4  -8  185.61   10.70
   0  -4   8  188.94   10.51
   0   4  -8  184.01   10.56
   0  -4  -8  175.87   12.46
   0   4   8  183.22   10.08
   0   4   8  195.89    7.00
   0   4   9   24.26    2.53
   0  -4  -9   26.19    4.64
   0   4   9   26.61    4.30
   0  -4  -9   30.83    5.89
   0   4  -9   29.00    4.68
   0   4  -9   25.55    2.65
   0  -4   9   34.36    5.02
   0   4  10   53.89    6.04
   0  -4  10   67.10    7.16
   0   4 -10   57.28    6.53
   0   4  10   62.83    4.20
   0  -4 -10   46.80    7.44
   0  -4 -10   52.26    3.72
   0   4 -10   59.32    3.95
   0  -4 -10   56.89    6.70
   0  -4  11   -2.37    3.05
   0  -4 -11   -4.27    3.11
   0   4  11    0.70    0.92
   0   4 -11   -1.09    2.70
   0   4 -11    0.78    1.00
   0  -4 -11    1.29    3.55
   0   4  11    2.54    2.43
   0   4  12   51.73    6.66
   0  -4 -12   56.04    7.27
   0  -4 -12   51.67    8.80
   0  -4  12   40.67    5.95
   0   4 -12   54.92    7.00
   0  -4  13    5.71    3.27
   0   4  13    0.98    1.96
   0  -4 -13   -1.15    2.10
   0  -4 -13    3.75    4.11
   0   4 -13    2.77    2.17
   0  -4 -14   23.94    7.22
   0  -4  14   21.23    4.82
   0   4 -14   12.71    4.22
   0   4  14   12.34    3.77
   0  -4 -14   10.50    4.08
   0  -4  15    7.00    3.04
   0  -4 -15   11.51    4.30
   0   4  15   14.04    4.92
   0   4 -15    3.17    2.47
   0   4 -16   -1.81    3.47
   0  -4 -16    0.11    2.52
   0   4  16   -2.60    3.13
   0  -4  16    2.65    2.63
   0  -4 -16    2.77    4.40
   0  -4 -17    7.92    4.46
   0   4  17    6.04    3.93
   0  -4 -17    3.69    4.84
   0   4 -17    1.24    2.81
   0  -4  17   -0.81    2.43
   0  -4 -18    3.59    4.07
   0   4 -18   -2.58    2.98
   0   4  18    0.09    3.16
   0  -4 -18    3.18    3.09
   0  -4  18    3.23    3.21
   0  -4 -19   -4.49    5.92
   0  -5   0    0.35    0.96
   0   5   0    1.67    1.46
   0   5   1  341.48    9.59
   0   5  -1  333.04    9.50
   0  -5  -1  323.87    9.62
   0   5   2  327.60    9.57
   0  -5  -2  316.46    9.58
   0   5  -2  333.17    9.59
   0   5   3  384.12   11.82
   0   5   3  409.12   10.65
   0   5  -3  415.87   10.65
   0  -5  -4  111.72    7.14
   0   5   4  113.84    6.81
   0   5  -4  123.73    5.98
   0   5   4  131.32    6.07
   0  -5  -5  153.41    8.79
   0   5   5  163.98    8.43
   0   5   5  172.31    7.02
   0   5  -5  173.23    7.01
   0   5  -6   29.68    3.05
   0  -5  -6   30.38    4.46
   0  -5   6   22.67    3.78
   0   5   6   31.09    4.12
   0   5   6   26.03    2.90
   0  -5  -6   28.88    5.39
   0  -5  -7   11.27    3.09
   0  -5   7   10.14    2.95
   0   5   7    6.32    1.98
   0  -5  -7   12.84    4.42
   0   5  -7   10.90    2.04
   0   5  -7   11.52    2.86
   0   5   7   10.60    2.07
   0   5  -8   71.66    4.69
   0  -5  -8   72.26    7.22
   0   5   8   69.95    4.73
   0   5   8   64.71    6.29
   0   5  -8   79.92    7.34
   0  -5   8   67.04    6.62
   0  -5  -8   80.51    9.06
   0  -5  -9   -1.17    2.80
   0   5   9   -0.94    1.42
   0  -5  -9   -0.81    2.09
   0  -5   9   -0.35    2.19
   0   5  -9    1.58    1.98
   0   5   9   -1.87    2.51
   0   5  -9    0.28    1.19
   0  -5 -10   13.98    3.63
   0   5  10   15.66    3.77
   0   5 -10   11.02    2.13
   0   5  10   11.74    2.14
   0  -5 -10   14.11    5.01
   0   5 -10   15.29    2.40
   0   5 -10   18.58    4.38
   0  -5  10   14.36    4.05
   0   5  11    0.61    1.18
   0   5 -11   -0.05    2.09
   0  -5 -11   -0.46    2.53
   0  -5  11    2.45    3.04
   0  -5 -11   -2.66    4.19
   0   5  11    0.04    2.02
   0   5 -11    1.46    1.36
   0  -5 -12    8.89    4.60
   0   5 -12    8.42    3.56
   0  -5 -12    8.97    3.29
   0   5  12   11.11    2.25
   0  -5  12    9.11    3.63
   0   5  12    7.14    3.51
   0   5  13  105.19    9.98
   0  -5 -13  128.61   14.05
   0  -5  13  128.76   11.21
   0  -5 -13  108.20   10.66
   0   5 -13  113.19   10.44
   0  -5 -14    4.14    3.89
   0   5  14    4.72    3.14
   0   5 -14    0.53    2.43
   0  -5 -14    3.49    3.57
   0  -5  14    6.28    2.93
   0  -5 -15    5.53    4.98
   0   5 -15   -0.76    2.68
   0  -5  15   -0.08    2.24
   0  -5 -15   -0.54    2.83
   0   5  15    4.16    2.87
   0  -5  16   -1.95    3.33
   0  -5 -16    0.05    3.14
   0   5  16    0.02    3.01
   0   5 -16    3.73    3.07
   0  -5  17    1.53    3.11
   0   5  17   -0.33    2.85
   0   5 -17   -7.53    4.17
   0  -5 -17    4.41    2.71
   0  -5 -17    0.08    3.95
   0  -5 -18   -0.69    3.41
   0  -5  18    1.50    3.04
   0   5 -18   -2.48    3.36
   0  -6   0 1179.34   20.21
   0   6   0 1247.46   20.38
   0   6  -1   24.48    3.30
   0   6   1   23.57    3.20
   0   6   2  983.47   18.27
   0   6  -2 1012.21   18.45
   0   6   3    9.97    2.54
   0   6  -3    8.35    2.23
   0   6   4  142.25    7.01
   0   6   4  132.04    7.90
   0   6  -4  143.11    7.06
   0  -6  -5    0.81    1.55
   0   6  -5    2.23    1.48
   0   6   5    2.00    1.76
   0   6   5   -0.05    1.58
   0   6   6   18.78    3.49
   0  -6  -6   17.56    3.88
   0  -6   6   18.11    3.40
   0   6  -6   23.64    3.12
   0   6   6   24.55    3.16
   0   6  -7   19.52    2.91
   0   6   7   22.65    3.87
   0   6  -7   16.70    3.67
   0  -6  -7   22.86    5.11
   0  -6  -7   21.53    4.22
   0   6   7   19.73    2.92
   0  -6   7   15.11    3.63
   0  -6  -8   40.40    6.81
   0   6  -8   43.63    5.76
   0   6  -8   47.79    4.39
   0   6   8   47.59    4.45
   0  -6  -8   49.13    6.36
   0   6   8   54.01    6.19
   0  -6   8   52.59    5.96
   0  -6  -9   -1.12    3.49
   0   6   9   -1.18    1.61
   0   6  -9   -1.81    1.65
   0  -6   9    5.66    2.75
   0   6  -9    4.83    2.67
   0  -6  -9   -0.27    1.78
   0   6   9    2.20    2.31
   0  -6  10  106.00    9.19
   0   6  10  107.07    6.69
   0  -6 -10  101.96    9.69
   0   6 -10  100.31    6.45
   0  -6 -10  107.05   11.82
   0   6 -10  105.71    9.24
   0   6  10  108.73    9.24
   0  -6  11   41.79    6.42
   0  -6 -11   34.80    5.88
   0   6  11   37.48    4.14
   0   6  11   28.10    5.05
   0   6 -11   34.33    3.93
   0  -6 -11   29.14    6.89
   0   6 -11   35.31    5.61
   0  -6 -12   18.17    4.73
   0   6  12   20.57    4.64
   0   6 -12   15.12    4.15
   0  -6  12   17.06    4.47
   0  -6 -12   16.43    5.63
   0  -6 -13    4.52    2.99
   0   6  13   -3.85    2.84
   0  -6  13   -1.43    3.08
   0   6 -13   -2.74    2.62
   0  -6 -13    0.39    3.18
   0  -6 -14   -3.71    2.94
   0  -6  14    2.31    3.14
   0   6 -14    0.16    2.14
   0   6  14    0.40    2.12
   0  -6 -14    2.09    2.91
   0  -6 -15   -0.67    3.06
   0   6  15   -2.76    2.96
   0  -6  15   -0.71    3.20
   0   6 -15   -2.26    2.89
   0  -6 -15   -0.77    2.80
   0   6 -16    5.47    3.56
   0   6  16    3.33    3.38
   0  -6 -16    6.32    4.07
   0  -6  16    0.12    2.74
   0   6 -17   -1.75    3.20
   0  -6 -17    6.82    4.28
   0   6  17   -0.19    2.62
   0  -6  17    2.92    3.64
   0  -6 -17    4.92    5.05
   0  -6  18    0.84    2.97
   0   7   0    2.45    1.90
   0   7  -1   11.69    2.79
   0   7   1    8.81    2.41
   0   7  -2   59.59    5.17
   0   7   2   68.62    5.46
   0   7   3    2.43    1.67
   0   7   3    0.97    0.61
   0   7  -3    3.78    2.19
   0   7  -4  306.85   11.25
   0   7   4  315.00   11.47
   0   7  -5  106.55    6.81
   0   7   5   86.96    7.14
   0   7   5  104.20    6.70
   0  -7  -6    4.25    2.26
   0   7   6    9.85    2.47
   0   7   6    8.28    2.71
   0  -7  -7   58.58    8.26
   0  -7   7   56.90    6.24
   0  -7  -7   49.87    6.34
   0   7  -7   69.25    5.53
   0   7   7   52.19    6.08
   0   7   7   61.47    5.49
   0   7   8   34.00    5.15
   0  -7  -8   28.77    6.27
   0   7  -8   34.25    4.07
   0   7   8   31.96    3.99
   0   7  -8   32.53    5.27
   0  -7  -8   29.72    5.22
   0  -7   8   32.80    5.03
   0   7   9   53.89    5.20
   0  -7   9   56.93    6.67
   0   7   9   56.60    6.79
   0   7  -9   47.76    4.94
   0  -7  -9   48.37    8.19
   0   7  -9   44.70    6.11
   0  -7  -9   56.19    7.17
   0   7 -10  102.70    9.53
   0  -7 -10  102.91   10.06
   0  -7 -10   91.60   11.19
   0  -7  10  107.62    9.31
   0   7  10  118.52   10.02
   0   7 -10  101.32    7.05
   0   7  10   96.65    6.92
   0   7 -11   20.23    4.72
   0   7 -11   18.59    3.30
   0   7  11   16.66    3.23
   0  -7  11   18.00    4.27
   0   7  11   15.27    4.26
   0  -7 -11   14.12    5.14
   0  -7 -11   21.29    5.05
   0  -7 -12   59.28    8.28
   0  -7 -12   53.38    9.42
   0  -7  12   49.33    6.98
   0   7  12   59.54    7.83
   0   7 -12   48.20    7.02
   0  -7 -13   -1.72    3.80
   0  -7  13   -1.61    2.36
   0  -7 -13   -2.53    3.30
   0   7 -13   -1.45    2.43
   0   7  13    4.04    2.72
   0   7 -14    5.63    3.17
   0   7  14   12.37    4.55
   0  -7 -14    2.87    3.58
   0  -7  14    4.85    3.43
   0  -7 -14    3.57    3.40
   0   7 -15   -2.14    2.74
   0  -7 -15   -1.34    2.85
   0   7  15    1.56    2.67
   0  -7  15    0.44    2.09
   0   7  16   14.97    5.09
   0   7 -16    3.34    2.44
   0  -7 -16   18.32    5.59
   0  -7 -16   12.86    6.87
   0  -7  16   12.91    4.62
   0   7 -17    5.75    4.00
   0  -7  17   -0.19    2.88
   0   8   0   44.45    4.82
   0   8   1  144.63    8.45
   0   8  -1  139.52    8.35
   0   8   2  305.74   12.32
   0   8  -2  297.80   12.12
   0   8   3  220.87   10.49
   0   8  -3  241.54   10.91
   0   8  -4    6.28    2.53
   0   8   4    9.15    2.92
   0   8   5  219.60   10.68
   0   8  -5  200.98   10.16
   0   8  -6  366.68   13.74
   0   8   6  340.74   13.25
   0  -8   7   92.26    8.05
   0   8   7  105.94    7.71
   0   8   7  101.55    8.72
   0   8  -7  103.99    7.52
   0  -8   8    7.71    2.99
   0   8  -8    7.32    2.29
   0   8  -8   13.00    3.58
   0  -8  -8    7.78    4.42
   0  -8  -8    8.21    3.58
   0   8   8    8.37    2.81
   0   8   8    5.53    2.14
   0  -8  -9    7.93    4.57
   0   8  -9    6.18    2.70
   0  -8   9    3.61    2.53
   0   8   9    8.60    3.15
   0   8   9    0.42    1.84
   0   8  -9    6.40    2.29
   0  -8  -9    7.16    2.94
   0   8  10   68.11    8.09
   0  -8 -10   65.91   10.35
   0   8  10   66.85    6.27
   0   8 -10   59.92    5.92
   0   8 -10   67.83    8.04
   0  -8  10   77.56    8.18
   0  -8 -10   58.33    8.00
   0   8 -11   60.05    6.05
   0   8  11   61.55    6.22
   0  -8 -11   57.85    9.98
   0   8  11   57.75    7.59
   0   8 -11   49.27    7.10
   0  -8  11   51.17    6.99
   0  -8 -11   49.01    7.66
   0   8  12    1.08    2.35
   0   8 -12   -2.20    2.57
   0  -8 -12    8.77    3.99
   0  -8 -12   -0.18    4.27
   0  -8  12    3.28    2.73
   0  -8 -13   12.45    5.91
   0  -8 -13    4.52    2.71
   0   8  13    9.02    4.21
   0  -8  13    2.51    2.98
   0   8 -13    5.16    3.22
   0   8  14   -2.53    3.01
   0  -8  14    1.77    2.86
   0   8 -14    1.63    2.65
   0  -8 -14    1.55    2.87
   0  -8 -14   -3.75    4.13
   0  -8 -15    3.07    3.64
   0   8  15    3.81    2.88
   0  -8  15    0.42    2.66
   0   8 -15    2.23    2.68
   0   8 -16    6.35    4.10
   0   8  16    0.36    2.78
   0  -8  16   -1.69    2.50
   0   9   0    3.50    2.56
   0   9  -1  103.40    7.75
   0   9   1   97.03    7.50
   0   9  -2    5.61    2.25
   0   9   2    6.67    2.47
   0   9   3  647.20   19.40
   0   9  -3  613.65   18.89
   0   9   4    2.78    2.24
   0   9  -4    2.41    1.96
   0   9  -5   20.18    3.68
   0   9   5   18.91    3.92
   0   9  -6   -2.56    2.65
   0   9   6   -2.60    2.50
   0   9   7   35.45    4.94
   0  -9   7   40.83    5.84
   0   9  -7   33.06    4.81
   0   9  -8    8.90    3.49
   0   9  -8    2.99    1.79
   0  -9  -8    2.16    3.70
   0   9   8    2.42    1.97
   0  -9   8    8.13    2.86
   0   9   8    4.73    2.57
   0  -9   9  165.73   11.65
   0   9   9  171.52   12.56
   0   9  -9  163.51   12.32
   0   9  -9  144.81   10.01
   0   9   9  168.15   10.72
   0  -9  -9  140.11   14.82
   0  -9  10   -0.45    2.19
   0   9 -10    1.76    1.68
   0   9  10   -2.25    2.28
   0   9  10   -3.22    2.43
   0   9 -10   -0.25    1.90
   0   9 -10    3.94    2.31
   0  -9 -10    4.61    4.30
   0  -9 -10    1.07    2.07
   0   9  10    1.02    2.11
   0   9 -11   -1.18    2.15
   0  -9 -11   -3.92    3.25
   0  -9 -11    4.66    4.18
   0  -9  11    8.28    3.63
   0   9  11    3.91    2.62
   0   9 -11    4.01    2.31
   0   9  11    5.47    2.61
   0   9 -12    2.87    2.64
   0  -9 -12    4.61    5.10
   0  -9 -12   -0.64    2.77
   0   9  12   -1.60    2.48
   0  -9 -13   34.49    7.13
   0   9  13   37.86    6.99
   0   9 -13   40.64    7.07
   0  -9 -13   45.00    9.72
   0  -9 -14    2.13    2.95
   0   9 -14   -0.77    2.16
   0   9  14    0.29    2.78
   0   9 -15    0.95    2.41
   0   9  15    0.52    2.19
   0  10   0   30.05    4.79
   0  10  -1   42.44    5.59
   0  10   1   47.72    5.94
   0  10  -2    7.11    2.63
   0  10   2    6.15    2.64
   0  10  -3    1.57    2.12
   0  10   3    3.37    2.39
   0  10  -4   64.99    6.91
   0  10   4   64.08    6.92
   0  10   5   31.68    5.15
   0  10  -5   30.39    4.95
   0  10  -6   -0.89    2.08
   0  10   6    2.94    2.26
   0  10  -7   25.57    4.72
   0  10   7   22.62    4.45
   0 -10  -7   28.86    6.96
   0 -10  -8    2.93    3.32
   0  10  -8   -0.77    2.63
   0  10  -8   -0.55    1.99
   0  10   8    1.64    1.77
   0 -10  -9   35.25    8.18
   0  10   9   21.01    4.29
   0  10  -9   21.18    4.37
   0  10  -9   22.39    4.90
   0  10 -10    3.68    2.33
   0 -10 -10    7.03    4.49
   0  10  10    7.56    3.13
   0  10 -10    0.54    2.16
   0  10  11    3.67    2.37
   0  10 -11    0.09    1.49
   0 -10 -11    5.42    4.46
   0  10 -11    1.15    2.06
   0  11   0   -1.08    1.86
   0  11   1   -0.28    2.04
   0  11  -1    0.44    2.01
   0  11   2    4.21    2.29
   0  11  -2    1.18    2.02
   0  11   3   -2.99    2.83
   0  11  -3   -8.95    3.49
   0  11  -4    7.86    3.28
   0  11   4    9.11    3.26
   0  11  -5   37.31    5.73
   0  11   5   32.26    5.51
   0  11  -6    2.52    2.33
   0  11   6    2.50    2.10
   0  11  -7   75.65    8.17
   0 -11  -7   95.42   12.53
   0  11   7   70.84    8.10
   0  11  -8    4.07    2.63
   0  11   8   10.37    3.47
   0 -11  -8   13.07    5.11
   0 -11  -9   11.54    5.10
   0  11   9    9.25    3.51
   0  11  -9    4.27    2.84
   0  11 -10    4.63    2.79
   0  11  10    5.66    2.86
   0  11  11    8.59    3.21
   0  12   0   68.22    8.20
   0  12   1    0.15    2.22
   0  12  -1    0.32    2.65
   0  12  -2   -6.79    3.33
   0  12   2   -4.63    3.48
   0  12  -3    0.29    2.34
   0  12   3    0.53    2.26
   0  12  -4   11.81    3.75
   0  12   4    2.61    2.63
   0  12  -5   12.04    3.56
   0  12   5    0.37    2.85
   0  12  -6    1.33    1.88
   0  12   6    3.36    2.51
   0  12   7    7.63    3.57
   0  12   7    1.29    2.46
   0  12  -7    3.72    2.92
   0  12  -8   10.29    3.85
   0  12   8    7.27    3.30
   0  12  -9    3.49    2.80
   0  12 -10    6.57    3.27
   1   0   2  282.00    5.93
  -1   0   2  270.53    6.01
   1   0  -2  256.52    5.61
  -1   0   2  267.75    8.41
   1   0  -2  272.57    5.95
   1   0  -2  276.38    8.48
  -1   0   2  270.04    5.93
  -1   0  -2  268.15    5.94
  -1   0  -2  255.10    6.00
  -1   0  -2  262.19    6.30
   1   0   2  265.53    5.93
  -1   0   3 2873.82   25.44
  -1   0  -3 2791.85   19.28
   1   0   3 2973.72   19.37
   1   0  -3 2854.46   31.36
  -1   0  -3 2917.18   22.39
  -1   0   3 2863.15   22.71
  -1   0  -3 2828.71   23.95
  -1   0   3 2916.94   31.62
  -1   0   3 2785.35   19.18
   1   0  -3 2811.98   22.70
   1   0   3 2879.55   24.39
   1   0   3 2811.01   22.23
   1   0  -3 2878.48   18.72
  -1   0  -4 6948.54   29.85
  -1   0   4 7071.72   30.31
   1   0  -4 6617.07   53.48
   1   0   4 7142.73   37.24
  -1   0  -4 6672.88   39.48
  -1   0   4 6901.58   40.34
  -1   0   4 6874.38   52.84
   1   0  -4 6861.10   45.43
   1   0  -4 6807.18   39.97
   1   0   4 6717.79   38.66
  -1   0  -4 6926.66   39.46
  -1   0   4 6792.85   43.27
  -1   0  -4 6767.71   41.56
   1   0   4 7073.05   43.85
  -1   0   4 6884.41   28.46
   1   0   5  101.92    5.23
  -1   0   5   93.17    3.30
   1   0  -5   97.89    7.38
  -1   0  -5  100.33    3.42
  -1   0   5  104.83    7.19
   1   0  -5  103.57    6.18
  -1   0  -5   99.16    5.38
  -1   0   5   94.52    5.76
  -1   0  -5  103.40    3.46
  -1   0  -5   98.43    5.70
  -1   0   5   94.14    5.32
   1   0   5   98.79    5.70
   1   0  -5   90.53    5.26
   1   0   5   96.68    5.26
   1   0   5  107.75    3.62
  -1   0  -5   93.70    5.54
  -1   0   5   88.05    3.12
   1   0  -6  300.06   13.49
  -1   0  -6  297.53    5.61
  -1   0   6  304.11   10.81
   1   0   6  291.60    9.88
  -1   0  -6  299.93   10.65
  -1   0   6  280.37    5.28
  -1   0  -6  293.50   10.79
   1   0  -6  291.40   10.19
  -1   0  -6  295.07    5.41
  -1   0   6  300.53    5.42
   1   0   6  292.66    9.78
  -1   0  -6  307.68    5.64
   1   0  -7 1000.73   26.35
  -1   0   7  983.19    8.32
   1   0   7  920.70   19.27
  -1   0   7 1017.16    8.29
  -1   0  -7  974.41   20.59
  -1   0  -7  955.47   21.77
  -1   0  -7 1006.90    8.48
  -1   0  -7  971.11    8.67
   1   0  -7  936.05   19.81
  -1   0   7 1008.94   21.15
   1   0   7  941.13   19.01
  -1   0   8 2801.48   37.66
   1   0  -8 2775.72   46.98
   1   0  -8 2606.03   35.44
   1   0   8 2578.57   33.88
  -1   0  -8 2740.18   36.56
  -1   0  -8 2689.69   39.74
   1   0  -9 1018.07   23.52
  -1   0   9 1031.12   24.29
   1   0  -9 1039.04   30.60
   1   0   9 1004.78   22.48
  -1   0  -9 1028.40   23.89
  -1   0 -10  281.20   14.81
  -1   0  10  290.31   13.47
   1   0 -10  298.19   13.65
   1   0 -10  311.61   17.73
   1   0  10  298.47   13.25
  -1   0 -10  277.53   13.31
   1   0 -11  135.23   12.31
   1   0  11  135.12    9.51
  -1   0 -11  121.12    9.42
  -1   0 -11  140.14   11.39
  -1   0  11  132.67    9.73
   1   0 -11  123.15    9.34
  -1   0 -12  161.50   11.30
   1   0 -12  166.92   11.59
   1   0  12  147.66   10.47
   1   0 -12  166.44   14.64
  -1   0  12  143.37   10.54
  -1   0 -12  159.11   12.71
   1   0  13  152.84   11.21
  -1   0  13  155.80   11.38
   1   0 -13  142.98   11.30
  -1   0 -13  166.01   13.58
   1   0 -13  140.36   13.86
  -1   0 -13  151.71   11.39
   1   0  14   59.37    7.47
  -1   0 -14   63.03    8.05
  -1   0 -14   51.28    8.14
  -1   0  14   48.84    6.77
   1   0 -14   57.55    7.62
   1   0 -14   50.32    9.20
  -1   0 -15   19.27    5.79
   1   0  15    7.42    3.33
   1   0 -15   10.86    4.36
  -1   0  15    9.73    4.03
  -1   0 -15    4.60    2.79
   1   0 -15    8.32    4.24
   1   0 -16   11.47    5.39
   1   0  16   14.27    4.43
   1   0 -16   17.97    5.08
  -1   0  16   14.80    4.49
  -1   0 -16   12.60    4.30
  -1   0 -16   19.55    5.46
  -1   0  17    2.36    2.99
  -1   0 -17    6.46    4.09
  -1   0 -17   -8.26    4.92
   1   0 -17   -0.41    3.05
   1   0  17    2.81    3.08
   1   0 -17    1.82    2.50
   1   0 -18    0.03    3.33
  -1   0  18   -3.15    3.63
   1   0 -18   -1.29    2.83
   1   0  18   -1.49    3.41
  -1   0 -18   -0.76    2.68
  -1   0 -18   -0.58    3.58
   1   0  19    5.49    3.35
   1   0 -19    0.95    3.20
   1   0 -19    3.20    4.44
   1   0 -20    0.95    3.64
   1  -1  19   12.55    4.97
   1   1 -19    8.85    4.37
   1   1 -19   -2.94    4.10
   1   1 -18    5.17    3.05
   1  -1  18    7.41    3.78
  -1  -1 -18    5.31    3.66
  -1   1  18   13.96    4.90
   1   1 -18   -3.34    4.19
  -1  -1 -18    6.65    4.11
  -1   1  17   -4.93    3.89
   1   1 -17   -2.17    3.56
   1   1 -17    6.84    3.95
   1  -1  17    1.68    3.30
  -1  -1 -17    0.23    2.57
  -1  -1 -17    0.69    2.60
  -1  -1 -16    5.36    3.35
   1   1 -16    5.20    3.35
  -1  -1 -16   12.45    5.28
  -1   1  16   -0.85    3.01
   1  -1  16    3.79    3.50
   1   1 -16    0.33    3.19
  -1  -1 -15   38.29    7.69
  -1  -1 -15   38.63    6.73
  -1   1  15   37.96    6.50
   1  -1  15   31.09    5.77
   1   1 -15   43.24    6.82
   1   1 -15   35.47    8.04
   1   1 -14   19.72    5.90
   1  -1  14   22.67    4.89
   1   1 -14   20.88    5.00
  -1  -1 -14   21.85    5.05
  -1   1  14   23.35    5.30
  -1  -1 -14   19.84    5.72
   1   1 -13  125.28   10.46
   1   1 -13  134.04   13.39
   1  -1  13  127.15   10.12
  -1  -1 -13  125.37   12.35
  -1   1  13  113.53    9.80
  -1  -1 -13  127.23   10.63
  -1  -1 -12   40.31    5.89
  -1   1  12   45.80    6.11
   1   1 -12   41.42    6.03
  -1  -1 -12   36.54    7.09
   1   1 -12   44.10    7.45
   1  -1  12   50.79    6.44
   1   1 -11   86.81    7.82
  -1  -1 -11   80.13    7.57
  -1   1  11   81.23    7.60
   1   1 -11   88.94   10.06
   1  -1  11   78.77    7.28
  -1  -1 -11   85.70    9.06
   1  -1  10  362.89   14.40
   1   1 -10  377.79   19.24
  -1  -1 -10  392.51   17.92
   1   1 -10  364.15   14.91
  -1   1  10  383.77   15.11
  -1  -1 -10  357.17   15.00
   1  -1   9  167.76    9.29
   1   1  -9  174.03   12.36
  -1  -1  -9  165.21    9.70
  -1   1   9  200.46    4.54
  -1  -1  -9  175.77   11.32
  -1  -1  -9  182.94    4.08
   1   1  -9  159.48    9.29
  -1   1   9  178.55    2.68
  -1   1   9  179.13    9.81
  -1  -1  -9  167.60    2.54
   1   1  -8   55.14    6.61
  -1  -1  -8   59.31    5.44
  -1  -1  -8   53.88    1.75
  -1   1   8   56.88    2.82
   1  -1   8   56.09    5.13
   1  -1   8   52.20    5.16
   1   1  -8   48.30    2.41
  -1  -1  -8   56.60    6.31
  -1   1   8   59.09    5.46
   1   1  -8   52.73    5.08
  -1   1   8   58.48    1.73
   1   1  -7  718.19    9.98
   1  -1   7  775.93   17.88
   1   1  -7  746.91   22.72
   1  -1   7  784.42   17.23
  -1  -1  -7  748.20    7.09
  -1   1   7  702.12   16.86
   1   1  -7  754.53   17.20
  -1  -1  -7  764.24   19.99
  -1  -1  -7  727.92   17.55
  -1   1   7  737.81    6.79
  -1   1   7  718.93   10.68
  -1  -1  -7  764.62    7.46
   1  -1   6 1755.84   16.57
   1  -1   6 1724.22   24.43
  -1   1   6 1735.89   24.77
   1   1  -6 1776.78   16.80
  -1   1   6 1778.50   16.90
  -1  -1  -6 1721.26   12.28
   1  -1   6 1689.14   23.36
  -1   1   6 1766.49   11.78
  -1  -1  -6 1756.46   27.64
   1   1  -6 1659.77   31.64
   1   1  -6 1732.93   23.98
  -1  -1  -6 1712.96   24.74
  -1  -1  -5 1074.53   10.37
   1   1  -5 1065.24   17.06
   1   1  -5 1069.06   23.50
  -1   1   5 1081.74   10.20
  -1  -1  -5 1117.44   18.32
  -1   1   5 1084.00   22.61
  -1  -1  -5 1033.68   19.05
  -1  -1  -5 1065.23   10.03
   1  -1   5 1114.84   17.40
  -1  -1  -5 1081.79   17.90
   1  -1   5 1104.51   13.03
  -1   1   5 1106.49   18.77
   1   1  -5 1048.59   12.75
  -1   1   5 1125.64   18.79
   1  -1   5 1097.34   16.90
   1  -1   4 2224.82   21.24
   1  -1   4 2149.47   18.35
  -1   1   4 2172.43   24.15
  -1  -1  -4 2083.58   22.47
  -1  -1  -4 2197.85   23.98
   1  -1   4 2104.54   18.40
   1  -1   4 2120.11   20.97
   1   1  -4 2088.60   21.23
  -1  -1  -4 2235.30   23.43
  -1   1   4 2121.60   22.81
  -1   1   4 2151.53   29.30
  -1   1   4 2183.48   15.20
   1   1  -4 2152.95   17.76
  -1  -1  -4 2144.93   15.25
   1   1  -4 2099.62   30.36
   1   1  -3 1804.98   16.90
  -1   1   3 1828.85   20.02
   1  -1   3 1766.24   16.02
  -1  -1  -3 1797.09   14.52
  -1  -1  -3 1809.41   17.91
   1   1  -3 1803.07   16.16
   1  -1   3 1892.28   16.97
  -1   1   3 1841.58   18.37
  -1   1   3 1813.47   14.49
  -1   1   3 1837.11   24.33
   1  -1   3 1834.13   16.69
  -1  -1  -3 1858.24   19.79
   1   1  -2 3704.67   22.98
   1  -1   2 3635.93   23.35
  -1  -1  -2 3701.20   21.39
  -1   1   2 3770.06   30.57
   1   1  -2 3710.32   19.31
   1  -1   2 3740.68   19.41
  -1  -1  -2 3679.30   24.96
  -1   1   2 3733.28   21.34
  -1  -1  -2 3746.59   21.44
  -1   1   2 3658.49   25.65
  -1   1   2 3668.41   22.17
  -1   1   1 1702.33   17.10
  -1   1   1 1648.04   11.37
  -1  -1  -1 1704.34   10.54
   1   1  -1 1671.66   15.26
   1  -1   1 1737.90   15.97
  -1  -1  -1 1660.14   14.53
  -1  -1   1 1669.13   14.51
   1   1   1 1641.49   10.87
   1  -1  -1 1648.89   15.58
   1  -1  -1 1697.90   17.63
  -1   1  -1 1682.75   14.61
   1   1   1 1701.86   15.41
  -1   1  -2 3787.33   20.18
  -1   1  -2 3777.62   21.80
   1  -1  -2 3742.11   23.32
   1  -1  -2 3864.91   31.75
  -1  -1   2 3652.95   21.26
   1   1   2 3705.14   25.45
   1  -1  -2 3764.66   26.16
   1  -1  -2 3824.17   23.79
   1   1   2 3731.91   23.05
   1   1   2 3761.21   21.83
  -1  -1   2 3745.40   20.38
   1  -1  -3 1823.41   19.49
  -1  -1   3 1813.99   14.46
   1  -1  -3 1781.53   16.33
  -1  -1   3 1845.91   26.16
   1   1   3 1823.08   19.52
   1  -1  -3 1786.98   16.02
  -1   1  -3 1851.81   15.76
  -1   1  -3 1788.52   14.60
  -1  -1   3 1816.10   17.74
   1   1   3 1867.09   18.66
   1  -1  -3 1851.32   20.42
   1   1   3 1801.87   16.31
   1  -1  -3 1792.44   24.90
  -1   1  -4 2192.85   22.48
   1   1   4 2142.77   23.61
   1  -1  -4 2136.17   24.13
   1  -1  -4 2141.75   18.43
  -1   1  -4 2138.22   15.40
  -1  -1   4 2164.86   22.45
  -1   1  -4 2113.02   21.28
   1  -1  -4 2094.03   24.07
   1  -1  -4 2118.59   17.66
  -1  -1   4 2157.85   30.81
   1   1   4 2210.71   18.45
   1  -1  -4 2108.20   30.07
  -1   1  -4 2058.26   24.71
   1   1   4 2206.29   23.37
  -1  -1   4 2136.38   14.93
  -1  -1   4 2141.49   26.27
  -1  -1   5 1144.75   20.57
   1   1   5 1060.40   18.17
  -1   1  -5 1068.50   17.78
  -1   1  -5 1041.94   13.16
  -1   1  -5 1078.32   10.40
   1  -1  -5 1062.79   23.48
  -1  -1   5 1077.49    9.94
   1  -1  -5 1067.50   18.79
  -1   1  -5 1081.84   17.89
  -1  -1   5 1051.35   10.15
  -1  -1   5 1093.79   17.89
  -1  -1   5 1065.33   23.57
   1   1   5 1108.35   13.35
   1  -1  -5 1066.85   19.12
  -1   1  -5 1070.67   19.29
   1  -1  -5 1015.25   12.47
   1   1   5 1087.87   18.31
   1  -1  -6 1746.68   16.42
   1  -1  -6 1722.85   32.57
  -1  -1   6 1745.46   27.13
   1  -1  -6 1657.11   25.22
  -1   1  -6 1772.69   26.67
  -1   1  -6 1677.52   16.67
  -1  -1   6 1718.80   11.95
  -1  -1   6 1628.28   11.40
  -1   1  -6 1724.51   25.51
  -1   1  -6 1696.58   12.02
   1   1   6 1609.33   17.12
   1   1   6 1789.91   24.97
  -1   1  -7  786.69   10.80
   1   1   7  751.04   17.58
   1  -1  -7  732.05   22.83
  -1  -1   7  783.51    6.81
  -1   1  -7  757.83   18.69
  -1  -1   7  749.34    7.23
   1  -1  -7  751.95   18.38
  -1   1  -7  720.80   18.36
   1   1   7  710.53   10.87
  -1  -1   7  770.94   19.38
  -1   1  -8   56.53    2.67
   1   1   8   57.15    2.89
  -1  -1   8   53.01    5.65
   1  -1  -8   76.78    8.21
  -1  -1   8   58.91    1.80
   1  -1  -8   69.72    6.19
  -1   1  -8   59.46    1.80
  -1   1  -8   54.58    5.80
   1   1   8   61.47    5.70
  -1   1  -8   59.82    5.85
  -1   1  -9  176.43    2.73
  -1   1  -9  180.47   10.97
   1   1   9  159.97    4.16
   1  -1  -9  169.35   12.71
  -1   1  -9  172.86   10.20
   1  -1  -9  169.10    9.98
  -1  -1   9  188.24   10.60
   1   1   9  180.61    9.94
  -1  -1  10  378.37   15.99
  -1   1 -10  377.58   16.73
  -1   1 -10  359.62   15.27
   1   1  10  369.85   14.75
   1  -1 -10  367.96   15.40
   1  -1 -10  377.05   19.68
  -1   1 -11   79.49    8.41
   1  -1 -11   73.22    7.47
  -1   1 -11   72.67    7.36
   1   1  11   69.28    7.08
  -1  -1  11   86.77    8.45
   1  -1 -11   75.17    9.72
  -1  -1  12   49.25    6.60
   1  -1 -12   44.83    8.09
  -1   1 -12   50.90    6.57
   1  -1 -12   57.85    7.22
  -1   1 -12   45.59    7.00
   1   1  12   54.37    6.85
   1   1  13  117.56    9.82
  -1  -1  13  115.09   10.10
  -1   1 -13  117.64   10.22
   1  -1 -13  125.22   13.55
   1  -1 -13  120.00   10.39
  -1   1 -13  137.70   11.99
   1   1  14   20.92    4.85
   1  -1 -14   21.57    4.62
   1  -1 -14   22.35    6.38
  -1   1 -14   27.97    5.56
  -1  -1  14   23.92    5.11
  -1   1 -14   29.39    6.00
  -1   1 -15   31.12    6.02
   1  -1 -15   44.10    8.81
  -1  -1  15   39.51    6.45
   1   1  15   42.67    6.83
   1  -1 -15   34.45    6.33
  -1   1 -15   38.88    7.26
   1  -1 -16    2.78    3.95
  -1   1 -16    3.03    2.80
  -1   1 -16    2.70    2.80
   1  -1 -16    3.57    2.90
  -1  -1  16    4.63    3.11
   1   1  16    7.28    4.30
   1  -1 -17    3.82    4.37
  -1   1 -17   -0.24    2.06
   1  -1 -17    3.31    3.25
  -1   1 -17    4.01    3.42
   1   1  17    2.25    3.23
  -1  -1  17    3.57    3.20
   1  -1 -18    4.18    3.27
   1   1  18    1.49    3.07
  -1  -1  18    6.31    3.55
   1  -1 -18   10.12    5.52
  -1   1 -18    3.63    3.19
   1  -1 -19   -0.10    4.65
   1  -1 -20    7.21    5.27
   1  -2  19    2.71    3.74
   1   2 -19   -1.04    2.97
   1   2 -18   -2.12    2.87
  -1  -2 -18   -0.42    2.82
   1  -2  18    4.13    3.48
  -1  -2 -18    2.76    3.68
  -1   2  18    1.28    3.12
  -1   2  17   18.05    5.14
   1   2 -17   15.30    5.03
  -1  -2 -17   19.09    6.05
  -1  -2 -17   16.63    5.30
   1  -2  17   20.38    5.25
   1  -2  16    5.38    3.57
  -1  -2 -16    7.81    3.66
  -1  -2 -16   -0.35    3.44
  -1   2  16    3.74    3.25
   1   2 -16    0.43    2.29
  -1   2  15   42.58    6.76
  -1  -2 -15   43.15    8.47
   1  -2  15   46.35    6.92
  -1  -2 -15   33.91    6.25
   1   2 -15   37.16    6.41
   1   2 -14   69.94    8.20
  -1  -2 -14   78.30   10.60
  -1  -2 -14   77.10    8.79
   1  -2  14   66.74    7.82
  -1   2  14   70.16    8.13
   1  -2  13  111.19    9.40
   1   2 -13   98.81    9.34
  -1   2  13   96.77    8.98
  -1  -2 -13  112.04   12.28
  -1  -2 -13  104.12    9.75
  -1  -2 -12   45.71    6.39
  -1   2  12   42.66    6.01
   1  -2  12   50.86    6.38
   1   2 -12   51.86    6.44
  -1  -2 -12   53.10    8.02
  -1  -2 -11  107.28    8.99
  -1  -2 -11  104.30    2.90
   1  -2  11  112.12    8.56
  -1   2  11  111.42    8.71
   1   2 -11   94.40    3.13
  -1   2  11   98.50    3.01
  -1   2  11  102.30    4.00
   1   2 -11  100.74    8.38
  -1  -2 -11  104.15   10.54
   1  -2  10   20.28    3.81
  -1   2  10   31.21    2.61
  -1   2  10   28.90    1.67
  -1  -2 -10   32.84    6.12
   1   2 -10   30.65    4.74
  -1   2  10   32.18    1.79
  -1   2  10   34.08    4.78
  -1  -2 -10   29.12    1.65
   1   2 -10   29.76    2.32
  -1  -2 -10   32.52    5.02
  -1  -2  -9   78.78    8.25
   1   2  -9   82.65    4.12
   1   2  -9   79.03    6.72
  -1   2   9   81.39    6.71
  -1  -2  -9   79.90    6.91
  -1  -2  -9   81.86    2.73
   1  -2   9   80.98    4.16
  -1   2   9   85.91    2.89
   1  -2   9   81.04    6.63
  -1  -2  -8  453.88    6.68
   1  -2   8  462.65   14.50
  -1   2   8  469.61    6.74
  -1  -2  -8  491.56   17.96
   1  -2   8  449.06   10.09
  -1  -2  -8  440.50   14.92
   1   2  -8  423.24    9.47
   1  -2   8  427.51   10.15
   1   2  -8  446.32   14.59
  -1   2   8  458.34   14.37
   1  -2   8  472.68   15.80
  -1  -2  -7   44.84    5.20
   1   2  -7   50.21    3.33
  -1   2   7   51.56    2.35
  -1  -2  -7   47.56    4.73
   1  -2   7   44.46    4.91
   1   2  -7   53.12    4.72
   1  -2   7   50.12    3.41
   1  -2   7   52.94    4.76
  -1  -2  -7   50.05    2.34
  -1   2   7   48.97    4.60
  -1   2   6  120.27    6.41
   1  -2   6  115.34    4.94
  -1  -2  -6  111.49    7.36
  -1  -2  -6  120.83    6.77
   1  -2   6  112.54    6.11
  -1  -2  -6  120.25    3.86
  -1  -2  -6  120.00    3.61
   1  -2   6  116.69    6.77
  -1   2   6  127.81    3.69
   1   2  -6  117.90    4.80
   1   2  -6  115.91    6.34
  -1  -2  -5 1309.74   12.29
   1  -2   5 1367.19   19.53
   1  -2   5 1305.99   16.02
  -1  -2  -5 1372.47   13.01
   1   2  -5 1346.66   15.83
  -1  -2  -5 1327.27   20.42
   1   2  -5 1340.03   19.46
   1  -2   5 1347.03   20.98
  -1  -2  -5 1326.53   22.75
  -1   2   5 1347.56   12.18
  -1   2   5 1337.03   19.19
  -1   2   4 1642.15   25.76
  -1  -2  -4 1722.44   22.18
   1   2  -4 1610.40   16.92
   1  -2   4 1717.56   20.01
  -1  -2  -4 1626.24   20.27
  -1  -2  -4 1613.71   13.89
   1  -2   4 1710.45   20.94
   1   2  -4 1645.27   19.60
  -1   2   4 1604.38   18.85
   1  -2   4 1614.79   17.25
  -1   2   4 1606.46   22.43
  -1  -2  -4 1647.21   14.61
  -1   2   4 1636.28   13.94
  -1   2   3   39.09    3.77
   1  -2   3   36.57    2.60
  -1   2   3   37.57    3.24
   1  -2   3   33.77    2.45
  -1  -2  -3   34.56    2.20
   1   2  -3   35.97    2.56
  -1  -2  -3   38.46    2.88
  -1  -2  -3   36.08    2.21
   1   2  -3   31.79    2.48
  -1   2   3   35.59    2.56
  -1   2   3   40.23    2.35
  -1  -2  -3   31.93    2.90
  -1   2   2  198.60    6.88
  -1  -2  -2  208.70    5.34
  -1   2   2  192.37    5.08
  -1  -2  -2  197.50    6.68
  -1   2   2  190.52    4.80
   1   2  -2  191.62    4.83
   1  -2   2  192.51    4.59
   1   2  -2  185.37    5.64
  -1  -2  -2  193.18    5.20
  -1  -2  -2  197.97    5.34
   1  -2   2  187.23    5.72
  -1  -2  -1 7252.29   25.75
  -1  -2  -1 7048.73   38.15
  -1   2   1 7006.11   40.12
  -1   2   1 7093.89   30.78
  -1  -2  -1 7034.17   31.01
   1  -2   1 7040.52   34.45
  -1  -2  -1 6895.70   31.36
   1   2  -1 6940.89   33.72
  -1   2   0  225.86    4.75
  -1   2   0  236.77    5.73
  -1  -2   0  215.54    5.54
   1  -2   0  240.72    6.40
  -1  -2   0  215.10    5.61
   1   2   0  230.61    6.09
  -1  -2   0  224.60    5.69
   1   2   1 6938.43   33.76
   1   2   1 7098.64   25.44
   1   2   1 6948.30   31.29
  -1  -2   1 7026.28   31.31
   1  -2  -1 7013.12   21.94
  -1  -2   1 7041.30   30.86
  -1   2  -1 7081.45   30.93
   1  -2  -1 6942.35   34.29
   1  -2  -2  210.29    5.32
  -1   2  -2  192.94    5.09
   1   2   2  190.74    6.65
  -1  -2   2  201.58    5.20
   1  -2  -2  189.28    6.85
   1  -2  -2  198.89    7.79
   1  -2  -2  189.17    5.74
   1   2   2  192.81    5.20
   1   2   2  198.04    5.83
  -1  -2   2  191.00    5.13
   1  -2  -3   39.25    4.22
   1   2   3   35.53    3.23
   1  -2  -3   35.61    3.28
   1   2   3   34.17    2.63
   1  -2  -3   40.64    2.85
  -1   2  -3   35.91    2.25
  -1  -2   3   35.14    2.17
  -1   2  -3   32.76    2.58
  -1  -2   3   33.80    2.14
   1  -2  -3   36.73    2.60
   1   2   3   33.77    2.48
  -1  -2   4 1647.98   28.33
   1   2   4 1658.41   20.61
   1   2   4 1669.10   22.41
  -1  -2   4 1676.53   13.87
   1  -2  -4 1690.48   20.78
  -1   2  -4 1743.93   21.12
  -1  -2   4 1671.54   20.35
   1  -2  -4 1700.84   27.68
   1  -2  -4 1622.25   23.11
   1   2   4 1635.56   17.27
   1  -2  -4 1597.23   17.24
  -1  -2   4 1641.04   14.59
  -1   2  -4 1645.10   14.27
  -1   2  -5 1387.23   12.41
   1  -2  -5 1370.34   27.40
  -1   2  -5 1347.04   22.85
   1  -2  -5 1362.76   22.52
  -1  -2   5 1363.00   23.81
   1   2   5 1336.35   21.21
   1  -2  -5 1329.46   15.90
  -1  -2   5 1342.70   12.22
   1  -2  -5 1374.24   21.16
   1   2   5 1358.81   20.65
  -1  -2   5 1297.87   26.99
  -1  -2   5 1356.74   12.84
  -1  -2   5 1331.92   20.20
   1   2   5 1308.75   15.80
  -1   2  -5 1408.49   21.24
  -1  -2   6  124.78    7.74
  -1  -2   6  129.50    3.91
   1  -2  -6  120.01    5.07
   1   2   6  123.85    5.05
   1   2   6  120.05    7.01
  -1  -2   6  130.50    3.64
  -1   2  -6  126.11    3.75
  -1   2  -6  127.73    7.51
   1  -2  -6  135.43    7.63
   1  -2  -6  149.05   10.01
   1  -2  -7   55.60    5.29
  -1  -2   7   54.67    5.60
  -1   2  -7   53.78    5.32
  -1  -2   7   49.41    2.34
   1  -2  -7   48.78    6.39
  -1   2  -7   48.44    2.28
   1   2   7   47.98    5.02
   1  -2  -7   43.15    3.09
   1   2   7   51.11    3.35
   1  -2  -8  489.64   20.21
   1   2   8  449.91   15.21
   1  -2  -8  457.34    9.78
   1  -2  -8  460.44   15.81
   1   2   8  456.64   10.14
  -1   2  -8  449.26   15.86
  -1  -2   8  463.86    6.70
  -1   2  -8  457.65    6.68
  -1  -2   8  473.70   16.55
   1  -2  -8  476.23   10.34
  -1   2  -9   75.34    7.15
   1  -2  -9   73.59    8.72
  -1   2  -9   77.19    7.00
  -1  -2   9   81.98    7.48
   1   2   9   88.63    7.20
  -1   2  -9   84.19    2.88
  -1   2  -9   79.34    4.20
  -1  -2   9   82.06    2.73
   1   2   9   75.99    4.20
   1  -2  -9   82.95    4.11
   1  -2  -9   82.80    7.27
   1   2  10   27.00    2.61
  -1  -2  10   31.42    5.56
  -1   2 -10   30.79    1.74
  -1  -2  10   29.52    1.71
   1   2  10   36.39    5.15
  -1   2 -10   34.51    5.03
   1  -2 -10   29.43    4.90
  -1   2 -10   28.01    4.82
  -1   2 -10   33.86    2.59
   1  -2 -10   47.16    7.70
  -1   2 -10   34.74    1.69
  -1  -2  11  122.66    9.79
  -1   2 -11  100.42    9.03
   1  -2 -11  118.47   12.25
   1  -2 -11  109.55    9.29
  -1   2 -11  108.59    2.74
  -1   2 -11  114.29    9.56
   1   2  11  103.96    8.76
  -1  -2  11  103.17    2.91
  -1   2 -11   96.85    3.44
   1   2  11  102.86    4.14
   1  -2 -12   52.12    8.56
   1  -2 -12   45.38    6.50
  -1   2 -12   45.85    6.69
  -1  -2  12   45.76    6.53
   1   2  12   46.77    6.45
  -1   2 -12   45.95    6.44
   1   2  13   95.86    9.44
  -1  -2  13  111.76    9.98
  -1   2 -13  109.27   10.10
   1  -2 -13  117.47   13.36
  -1   2 -13  109.99   10.86
   1  -2 -13  108.56   10.08
   1   2  14   79.78    9.00
  -1  -2  14   55.02    7.31
   1  -2 -14   61.82    8.05
   1  -2 -14   69.51   10.72
  -1   2 -14   73.75    8.70
   1  -2 -15   34.40    7.85
   1   2  15   41.70    6.97
  -1   2 -15   39.81    6.92
   1  -2 -15   45.38    7.53
  -1  -2  15   46.20    7.24
   1   2  16    5.70    3.55
   1  -2 -16    2.51    2.73
   1  -2 -16    0.53    4.34
  -1   2 -16   -1.84    3.21
  -1  -2  16    5.62    4.03
  -1  -2  17   14.30    5.11
   1  -2 -17   15.26    4.91
  -1   2 -17   19.87    5.45
   1   2  17   24.13    5.87
   1  -2 -17   16.05    6.54
   1  -2 -18    3.47    4.94
   1   2  18    3.06    3.79
   1  -2 -18   -0.17    2.71
  -1  -2  18    5.50    3.77
  -1   2 -18    2.44    2.95
   1  -2 -19   -0.60    4.04
   1   3 -19   12.64    4.97
   1  -3  19   16.00    5.52
  -1  -3 -19    6.87    5.60
   1  -3  18    3.18    2.81
  -1   3  18   14.47    5.16
  -1  -3 -18   -2.44    4.47
   1   3 -18    8.58    4.36
  -1  -3 -18   11.26    4.82
  -1  -3 -17   -0.26    2.88
  -1   3  17    4.16    3.22
   1   3 -17    3.59    3.51
   1  -3  17   -0.22    2.63
  -1  -3 -16   17.68    6.60
   1  -3  16   25.04    5.61
  -1  -3 -16   10.37    4.06
  -1   3  16   14.98    4.34
   1   3 -16   15.55    4.61
   1  -3  15    6.55    3.06
  -1   3  15    9.14    3.93
   1   3 -15    4.85    3.26
  -1  -3 -15    5.80    3.46
  -1  -3 -15   13.84    6.00
   1   3 -14   89.82    9.14
   1  -3  14   80.12    8.43
  -1  -3 -14   76.13    8.86
  -1  -3 -14   99.03   12.01
  -1   3  14   92.20    9.24
   1   3 -13  122.75   10.34
  -1  -3 -13  118.15   10.41
  -1  -3 -13  110.37   12.07
   1  -3  13  115.01    9.73
  -1   3  13  121.62   10.11
  -1   3  12   21.37    4.39
   1  -3  12   19.87    4.33
  -1  -3 -12   13.62    3.75
   1   3 -12   19.79    4.39
  -1  -3 -12   20.23    5.86
  -1  -3 -11   94.30   10.29
  -1   3  11   99.96    8.33
   1  -3  11  101.14    5.34
   1  -3  11  101.23    8.38
  -1   3  11   89.08    3.80
   1   3 -11   91.76    5.01
  -1  -3 -11   98.25    8.72
   1   3 -11   96.00    8.38
  -1   3  10   42.87    2.66
  -1   3  10   42.36    5.35
   1  -3  10   43.72    5.41
  -1  -3 -10   39.07    6.56
  -1  -3 -10   47.26    5.92
   1  -3  10   42.11    3.67
   1   3 -10   35.80    4.99
   1   3 -10   44.70    3.58
   1  -3  10   39.79    3.48
  -1   3  10   41.46    2.52
  -1  -3 -10   39.22    2.39
   1  -3   9   46.71    3.79
  -1   3   9   46.90    5.21
  -1   3   9   50.92    2.77
   1  -3   9   44.24    5.10
   1   3  -9   51.47    5.54
  -1  -3  -9   42.35    6.32
  -1   3   9   50.14    2.82
  -1  -3  -9   51.21    5.78
  -1  -3  -9   44.06    2.50
   1   3  -9   41.88    3.49
  -1   3   8  322.07    6.98
   1   3  -8  331.06    9.27
   1  -3   8  326.38   12.64
  -1  -3  -8  310.45   12.85
   1  -3   8  312.17    9.27
   1  -3   8  312.99   13.53
  -1  -3  -8  309.44    6.71
   1   3  -8  308.03   12.30
  -1  -3  -8  311.70   14.88
  -1   3   8  313.98   11.98
  -1  -3  -7  386.00   13.46
   1  -3   7  421.05   13.49
   1   3  -7  393.71   12.97
   1  -3   7  381.66   10.03
  -1   3   7  415.00    7.81
  -1  -3  -7  381.30   15.25
   1  -3   7  414.35   14.62
  -1  -3  -7  399.70    7.67
  -1   3   7  381.47   12.49
   1   3  -7  407.56   10.07
  -1  -3  -6   52.14    2.93
   1   3  -6   56.13    3.73
   1  -3   6   54.87    4.70
   1  -3   6   57.03    3.78
  -1  -3  -6   59.40    5.84
  -1   3   6   53.48    4.43
   1   3  -6   59.29    4.76
  -1   3   6   61.41    3.06
   1  -3   6   52.98    5.01
  -1  -3  -6   58.45    5.03
  -1  -3  -5   26.29    3.26
  -1   3   5   31.58    3.20
   1   3  -5   30.34    3.27
  -1  -3  -5   29.23    2.19
   1  -3   5   30.90    2.73
  -1   3   5   30.23    2.25
   1  -3   5   31.29    3.22
   1   3  -5   32.54    2.77
  -1   3   4  808.05   14.03
   1  -3   4  818.20   13.57
   1  -3   4  811.37   14.25
   1   3  -4  808.72   13.30
   1   3  -4  831.03   13.29
   1   3  -4  798.74   14.47
  -1  -3  -4  815.18   10.97
  -1  -3  -4  812.54   11.58
  -1  -3  -4  816.83   15.42
  -1   3   4  825.94   11.06
  -1   3   3 1297.34   13.90
   1   3  -3 1255.72   16.41
  -1  -3  -3 1273.26   13.78
  -1  -3  -3 1292.50   14.85
  -1  -3  -3 1308.21   17.48
   1   3  -3 1270.92   16.42
   1  -3   3 1306.08   15.89
  -1  -3  -3 1294.22   19.32
  -1   3   3 1304.30   20.65
   1   3  -3 1286.51   16.66
  -1   3   3 1338.46   16.21
   1   3  -3 1334.73   16.55
   1  -3   3 1281.29   16.68
  -1  -3  -2  624.30   10.28
  -1  -3  -2  612.52   12.76
   1  -3   2  631.48   11.55
  -1   3   2  611.46    9.73
  -1   3   2  632.94   13.93
  -1  -3  -2  603.80   10.63
   1   3  -2  620.57   11.44
  -1  -3  -2  595.57    9.58
   1   3  -2  639.36   11.41
  -1   3   2  617.29    9.74
   1  -3   2  605.24    9.48
  -1   3   1 1029.19   10.55
  -1  -3  -1 1049.05   16.70
   1   3  -1 1085.66   14.82
  -1   3   1 1128.61   18.23
  -1  -3  -1 1042.91   13.45
   1  -3   1 1080.72   14.99
   1  -3   1 1024.45   10.38
  -1  -3  -1 1049.51   12.66
  -1   3   1 1038.63   12.75
   1   3  -1 1064.78   14.93
   1   3   0   84.54    4.11
  -1  -3   0   84.42    3.66
   1  -3   0   88.41    2.60
  -1   3   0   94.83    3.93
   1  -3   0   91.78    4.43
   1   3   0   74.35    3.21
  -1  -3   0   83.36    3.56
  -1  -3   0   90.18    3.96
   1   3   0   90.28    4.38
   1   3   1 1087.10   13.06
   1   3   1 1076.22   14.82
  -1  -3   1 1058.27   12.66
  -1   3  -1 1059.31   12.85
  -1  -3   1 1030.00   13.38
   1   3   1 1042.68   14.80
   1   3   1 1101.39   12.71
   1  -3  -1 1028.58   10.07
   1  -3  -1 1081.47   14.97
   1   3   2  636.36   11.67
   1   3   2  556.44   10.23
  -1   3  -2  624.73    9.77
   1  -3  -2  612.01    9.22
  -1  -3   2  616.79    9.67
   1   3   2  602.30   13.15
  -1  -3   2  618.72   10.29
   1  -3  -2  639.27   11.60
   1   3   2  668.97   11.70
   1   3   3 1287.36   16.54
   1   3   3 1271.24   20.00
   1   3   3 1246.22   16.48
  -1   3  -3 1263.00   13.87
  -1  -3   3 1297.08   13.90
   1  -3  -3 1290.06   16.58
   1   3   3 1296.92   17.26
   1  -3  -3 1220.04   20.65
   1  -3  -3 1245.68   15.71
  -1  -3   3 1296.58   14.80
   1  -3  -3 1275.88   23.02
   1  -3  -4  811.01   17.66
   1   3   4  808.64   13.46
   1  -3  -4  807.43   13.33
   1   3   4  823.47   13.49
  -1  -3   4  796.97   10.79
  -1   3  -4  811.84   11.09
  -1  -3   4  807.42   11.60
   1   3   4  813.15   15.08
   1  -3  -4  794.70   14.30
   1  -3  -4  778.44   19.90
   1   3   4  797.37   16.71
   1  -3  -5   32.32    4.75
   1  -3  -5   36.76    4.15
   1   3   5   37.05    3.98
  -1  -3   5   31.09    2.26
   1  -3  -5   34.05    3.52
  -1   3  -5   33.63    2.36
   1   3   5   30.23    2.68
   1  -3  -5   33.64    2.81
   1  -3  -6   56.75    3.74
   1   3   6   63.27    5.31
   1   3   6   64.31    4.04
   1  -3  -6   65.18    5.75
  -1   3  -6   55.80    5.37
  -1  -3   6   48.35    5.24
   1  -3  -6   52.32    6.36
  -1  -3   6   63.72    3.16
  -1   3  -6   49.22    2.77
  -1  -3   7  410.17    7.79
  -1   3  -7  420.10    7.86
   1   3   7  393.85   13.88
   1  -3  -7  395.30   10.03
   1  -3  -7  420.25   14.98
   1  -3  -7  432.67   18.39
  -1   3  -7  420.83   15.06
  -1  -3   7  411.27   15.21
   1   3   7  392.93   10.07
   1  -3  -8  306.48    9.10
   1  -3  -8  324.96   17.25
  -1  -3   8  312.11   13.89
  -1   3  -8  306.31   13.69
   1   3   8  299.65   12.80
   1  -3  -8  320.97   13.79
  -1   3  -8  312.11    6.87
   1   3   8  312.04    9.24
  -1  -3   8  299.06    6.60
  -1   3  -9   47.37    5.95
   1   3   9   43.72    3.61
  -1  -3   9   52.59    6.32
   1  -3  -9   49.25    3.77
  -1  -3   9   47.53    2.63
  -1   3  -9   50.78    2.85
   1  -3  -9   47.85    7.47
   1  -3  -9   42.98    5.70
   1   3   9   57.10    6.24
  -1   3 -10   31.39    5.24
   1  -3 -10   33.45    3.23
   1  -3 -10   41.34    3.52
  -1   3 -10   41.38    2.57
   1  -3 -10   37.93    7.13
   1  -3 -10   38.27    5.39
  -1   3 -10   40.31    2.36
   1   3  10   30.37    5.07
   1   3  10   42.30    3.62
  -1  -3  10   36.49    5.58
  -1  -3  10   38.39    2.46
  -1  -3  11  105.05    9.56
  -1   3 -11   87.23    3.73
   1  -3 -11   86.53    8.51
  -1   3 -11  102.65    9.18
   1   3  11   84.48    8.27
   1   3  11  100.06    5.54
   1  -3 -11   96.84    5.15
   1  -3 -11  109.80   11.95
  -1  -3  12   15.29    4.41
   1   3  12   15.81    4.35
   1  -3 -12   17.93    4.01
  -1   3 -12   10.48    3.60
   1  -3 -12   22.91    6.77
   1  -3 -13  123.88   10.84
   1   3  13  115.20   10.33
  -1  -3  13  123.43   10.87
   1  -3 -13  143.07   14.69
  -1   3 -13  125.50   11.06
   1  -3 -14   73.05   11.85
   1  -3 -14   77.97    9.13
  -1  -3  14   84.31    9.56
  -1   3 -14   81.42    9.24
   1   3  14   77.78    8.77
   1   3  15   -0.44    2.56
   1  -3 -15    6.29    3.47
   1  -3 -15   -4.61    5.16
  -1   3 -15    5.25    3.13
  -1  -3  15    7.72    4.61
   1   3  16   20.00    5.59
  -1  -3  16   18.84    5.19
   1  -3 -16    0.87    3.81
  -1   3 -16   18.00    4.97
   1  -3 -16   17.93    5.43
   1  -3 -17   -2.41    4.13
   1   3  17    3.38    3.07
  -1  -3  17    7.81    4.42
   1  -3 -17    6.37    3.55
  -1   3 -17    0.37    2.41
   1   3  18    7.69    3.98
   1  -3 -18    1.57    3.43
  -1  -3  18    3.10    3.53
  -1   3 -18    1.24    2.66
   1  -3 -18   -5.46    6.13
   1  -3 -19    6.94    4.88
  -1  -4 -19   -4.57    4.48
  -1  -4 -18   -0.44    3.86
  -1  -4 -18    1.11    2.91
  -1   4  18    0.98    3.23
   1   4 -18    5.70    4.12
   1  -4  18    3.57    3.50
   1  -4  17    3.62    2.80
  -1  -4 -17    7.66    3.80
   1   4 -17    7.55    3.94
  -1  -4 -17   11.95    5.44
  -1   4  17   13.02    4.79
   1   4 -16   28.74    6.24
  -1  -4 -16   28.33    7.55
  -1   4  16   21.49    5.66
   1  -4  16   36.71    6.51
  -1  -4 -16   26.78    5.99
   1   4 -15   42.82    7.01
  -1  -4 -15   32.71    6.38
   1  -4  15   40.43    6.44
  -1  -4 -15   36.12    8.47
  -1   4  15   33.08    6.19
  -1   4  14   13.37    4.29
  -1  -4 -14   16.56    4.57
  -1  -4 -14   19.67    5.97
   1  -4  14   11.26    3.85
   1   4 -14   15.30    4.23
  -1   4  13   11.59    3.87
   1   4 -13    7.22    3.23
  -1  -4 -13   15.06    5.13
   1  -4  13    9.31    3.34
  -1  -4 -13    6.40    3.16
  -1  -4 -12   62.67    7.55
   1   4 -12   63.97    7.26
  -1  -4 -12   61.77    9.41
   1  -4  12   58.77    6.93
  -1   4  12   65.86    7.35
  -1  -4 -11   25.43    5.71
  -1  -4 -11   28.60    5.13
  -1   4  11   28.89    2.64
   1  -4  11   25.99    4.83
  -1   4  11   28.28    4.75
   1   4 -11   27.41    3.25
   1   4 -11   29.01    4.72
   1   4 -10  132.43    6.92
   1   4 -10  148.88    9.80
  -1  -4 -10  128.89   11.60
   1  -4  10  131.76    9.19
  -1   4  10  135.38    9.30
  -1  -4 -10  128.61    9.65
  -1   4  10  134.33    5.42
   1  -4   9  138.11    9.01
  -1  -4  -9  127.73    9.25
   1   4  -9  143.34    9.16
   1   4  -9  132.80    6.75
  -1   4   9  132.18    8.87
  -1  -4  -9  119.45   10.52
  -1   4   9  135.16    5.40
  -1  -4  -8  111.76    8.12
   1   4  -8  124.46    8.24
  -1   4   8  120.91    5.04
  -1  -4  -8  109.54    9.42
   1   4  -8  121.15    6.28
  -1   4   8  131.37    8.23
   1  -4   8  118.18    7.90
  -1  -4  -7  182.54   11.32
   1  -4   7  207.06    9.61
   1   4  -7  184.02    9.24
  -1   4   7  200.92    9.58
   1   4  -7  193.61    7.57
  -1  -4  -7  195.64    9.98
  -1   4   7  201.65    6.43
   1  -4   6  316.86   11.13
  -1   4   6  301.11   10.81
   1   4  -6  301.88   11.17
  -1  -4  -6  308.33   11.70
   1   4  -6  308.22    9.33
  -1   4   6  297.22    7.66
   1  -4   5  262.26    9.44
   1   4  -5  260.18    9.54
  -1   4   5  263.84    9.37
   1   4  -5  239.50    8.29
  -1   4   5  256.34    7.09
  -1  -4  -5  265.94   10.19
   1   4  -5  258.39    8.53
  -1  -4  -4  627.21   14.60
   1   4  -4  591.82   13.51
  -1   4   4  600.85   12.92
   1   4  -4  598.85   12.83
   1  -4   4  601.10   12.99
  -1   4   4  603.57   10.88
   1   4  -3 1008.30   16.47
  -1   4   3  982.65   13.93
  -1  -4  -3  983.65   16.79
   1  -4   3  977.47   15.36
  -1   4   3 1035.29   15.46
  -1   4   2  604.83   10.73
   1   4  -2  612.12   12.82
  -1   4   2  592.74   10.85
  -1  -4  -2  585.62   12.00
  -1  -4  -2  613.72   14.07
   1  -4   1 2674.46   15.55
  -1   4   1 2704.98   22.96
   1   4  -1 2694.76   26.66
  -1  -4  -1 2673.45   29.39
   1  -4   0 1291.39   12.85
  -1   4   0 1270.77   15.86
   1   4   0 1209.35   15.77
   1  -4  -1 2649.23   19.18
   1   4   1 2593.56   20.57
  -1  -4   1 2626.12   21.06
   1   4   1 2590.67   23.08
  -1   4  -1 2656.64   22.78
   1   4   1 2670.90   26.61
   1  -4  -2  577.15    9.94
  -1   4  -2  588.86   10.76
   1   4   2  593.56   12.65
   1   4   2  600.82   11.81
   1  -4  -3  999.19   14.52
   1   4   3  949.88   16.19
   1   4   3  968.13   16.40
   1   4   3  948.17   18.98
  -1   4  -3 1029.54   14.15
   1   4   4  593.53   13.77
   1   4   4  600.62   15.66
   1   4   4  597.20   13.01
  -1   4  -4  604.48   10.87
   1  -4  -4  596.27   18.19
   1  -4  -4  600.63   12.69
   1  -4  -4  536.03   15.56
   1   4   5  255.63    8.62
  -1   4  -5  261.78    7.16
   1  -4  -5  251.55   12.84
   1  -4  -5  250.93   11.29
   1   4   5  260.04   10.75
   1  -4  -6  290.48   14.78
  -1   4  -6  289.17    7.58
   1   4   6  293.69   12.13
   1  -4  -6  278.42   12.48
   1   4   6  287.80    9.28
   1   4   7  188.82    7.77
  -1   4  -7  183.54   10.52
  -1  -4   7  200.25   11.15
   1  -4  -7  196.31   12.94
   1  -4  -7  213.08   11.33
  -1   4  -7  202.72    6.40
   1   4   7  193.49   10.22
  -1   4  -8  130.99    5.18
   1   4   8  128.47    8.74
   1  -4  -8  119.06    9.16
  -1   4  -8  124.53    9.15
   1   4   8  127.57    6.55
  -1  -4   8  124.18    9.07
   1  -4  -8  117.56   11.04
   1  -4  -9  124.42    9.65
  -1  -4   9  126.04    9.60
  -1   4  -9  131.02    9.78
   1   4   9  123.80    9.00
  -1   4  -9  137.79    5.45
   1  -4  -9  130.49   11.90
   1   4   9  132.35    6.82
  -1  -4  10  133.66   10.39
   1  -4 -10  129.59   10.21
  -1   4 -10  134.88    5.42
   1  -4 -10  144.51   13.24
  -1   4 -10  131.99   10.25
   1   4  10  114.47    9.18
   1   4  10  125.21    6.78
   1  -4 -11   41.78    8.20
   1   4  11   31.00    5.31
  -1   4 -11   30.55    5.55
   1   4  11   29.67    3.45
  -1  -4  11   30.85    5.64
  -1   4 -11   30.53    2.70
   1  -4 -11   27.82    5.01
  -1   4 -12   61.95    3.80
   1  -4 -12   74.07    8.47
   1   4  12   65.03    7.56
   1  -4 -12   71.79   10.57
  -1   4 -12   59.64    7.61
  -1  -4  12   64.25    7.88
   1   4  13    3.78    2.81
  -1  -4  13    6.74    3.33
   1  -4 -13    8.59    3.80
  -1   4 -13    5.61    2.97
   1  -4 -13   13.46    5.72
  -1  -4  14   13.86    4.35
   1  -4 -14   20.19    6.51
   1  -4 -14   19.40    5.09
  -1   4 -14   10.09    3.86
   1   4  14   17.40    4.42
  -1  -4  15   43.87    7.41
   1  -4 -15   30.83    8.51
   1   4  15   40.68    6.97
  -1   4 -15   34.26    6.46
   1  -4 -15   26.43    6.03
  -1  -4  16   17.17    4.89
   1  -4 -16   32.60    8.59
  -1   4 -16   24.63    5.62
   1  -4 -16   34.53    6.87
   1   4  16   28.97    6.52
   1  -4 -17    7.06    5.44
  -1  -4  17    9.98    4.53
  -1   4 -17   11.93    5.01
   1   4  17   10.32    4.69
   1  -4 -17    1.64    2.15
  -1  -4  18   -0.48    3.11
   1   4  18    6.60    4.49
   1  -4 -18   -6.64    5.74
   1  -4 -18    3.45    3.52
  -1   4 -18    3.75    3.47
   1  -5  18    3.36    2.93
   1   5 -18    0.05    3.36
  -1  -5 -18    3.02    4.98
   1  -5  17    3.67    3.02
  -1   5  17    7.40    3.65
   1   5 -17   15.34    4.86
  -1  -5 -17    4.67    4.10
  -1  -5 -17    7.21    5.06
  -1   5  16    5.25    3.48
   1   5 -16    1.16    2.61
   1  -5  16    4.30    3.23
  -1  -5 -16    4.36    3.40
  -1  -5 -16    7.58    4.82
  -1  -5 -15   14.53    6.16
   1  -5  15   17.16    4.69
  -1  -5 -15   12.81    4.18
   1   5 -15   13.86    4.38
  -1   5  15   10.50    4.09
   1  -5  14   25.50    5.15
  -1   5  14   18.78    4.74
  -1  -5 -14   30.84    7.96
   1   5 -14   27.58    5.51
  -1  -5 -14   32.51    6.04
  -1  -5 -13   26.25    6.38
  -1   5  13   43.36    6.72
   1  -5  13   42.66    6.35
  -1  -5 -13   39.65    6.51
   1   5 -13   39.16    6.24
  -1  -5 -12   86.62    9.06
  -1  -5 -12  100.99   11.62
   1   5 -12   86.26    8.36
   1  -5  12   86.90    8.34
  -1   5  12   94.58    8.97
  -1   5  11   57.19    4.09
   1   5 -11   55.36    6.56
  -1  -5 -11   54.82    6.88
   1  -5  11   57.48    6.53
   1   5 -11   63.33    5.28
  -1   5  11   59.23    6.63
  -1  -5 -11   53.88    8.50
  -1   5  10   51.80    6.04
  -1   5  10   55.64    4.00
   1   5 -10   47.61    5.93
  -1  -5 -10   54.72    6.61
  -1  -5 -10   43.79    7.12
   1   5 -10   47.91    4.60
   1  -5  10   52.24    6.20
  -1   5   9  104.94    8.06
  -1  -5  -9  116.33    9.09
   1   5  -9  104.95    6.42
  -1   5   9  113.21    5.65
   1  -5   9  116.02    8.34
  -1  -5  -9  106.18   10.55
   1   5  -9  115.47    8.51
   1   5  -8   35.47    4.68
  -1   5   8   36.62    4.75
  -1   5   8   37.91    3.31
  -1  -5  -8   39.52    6.47
   1  -5   8   38.67    4.84
  -1  -5  -8   34.36    4.81
   1   5  -8   42.46    4.17
   1   5  -7  236.04    9.30
   1  -5   7  243.35   10.63
  -1   5   7  230.85   10.61
  -1  -5  -7  236.02   11.54
  -1   5   7  236.87    7.92
   1   5  -7  245.75   11.19
   1  -5   6  187.64    8.88
  -1   5   6  180.60    6.80
  -1  -5  -6  176.35    9.53
  -1   5   6  170.39    8.56
   1   5  -6  171.77    7.89
   1   5  -6  178.40    8.98
   1   5  -6  185.37    8.16
  -1   5   5   89.03    5.83
   1   5  -5   85.01    5.55
  -1   5   5   82.78    4.60
  -1  -5  -5   83.23    6.15
   1  -5   5   82.46    5.60
   1   5  -5   78.05    5.71
  -1   5   4  463.29   12.28
   1  -5   4  477.00   12.37
  -1  -5  -4  458.05   13.45
  -1   5   4  478.98   10.91
   1   5  -4  470.20   12.65
  -1   5   3  443.43   11.26
  -1   5   3  434.65   10.33
   1   5  -3  457.25   12.34
  -1  -5  -3  417.41   12.25
   1   5  -2  484.32   12.68
  -1   5   2  513.18   11.19
   1   5  -1  774.23   15.98
  -1   5   1  757.42   13.64
   1  -5   0  982.25   13.41
  -1   5   0  993.84   15.78
   1   5   0 1017.96   16.61
   1   5   0 1039.50   18.48
   1  -5  -1  731.53   11.75
  -1  -5   1  771.97   11.15
   1   5   1  779.20   16.04
   1   5   1  788.35   14.63
  -1   5  -1  792.25   13.92
   1  -5  -2  480.81   10.22
   1   5   2  496.75   12.93
   1   5   2  526.42   10.18
   1   5   2  488.59   11.97
  -1   5  -2  501.78   11.13
   1   5   3  453.22   12.15
   1  -5  -3  440.87   10.32
  -1   5  -3  435.93   10.44
   1   5   3  442.27   12.29
   1  -5  -4  465.43   11.60
  -1   5  -4  487.85   10.92
   1   5   4  441.40   14.60
   1   5   4  488.49   12.91
   1   5   5   81.44    5.49
   1  -5  -5   89.99    8.36
   1  -5  -5   79.27    6.80
  -1   5  -5   82.06    4.61
   1   5   5   83.55    6.71
  -1   5  -6  159.59    6.39
   1  -5  -6  163.17   10.00
   1   5   6  171.83    7.92
   1   5   6  167.58    9.64
   1  -5  -6  170.70   11.97
   1   5   7  243.69   12.10
  -1   5  -7  238.33    7.92
   1  -5  -7  226.91   14.42
   1   5   7  225.65    9.33
   1  -5  -7  240.07   12.80
   1   5   8   32.38    3.73
  -1   5  -8   38.39    3.29
   1  -5  -8   43.08    5.84
  -1   5  -8   36.21    5.28
  -1  -5   8   38.59    5.64
   1  -5  -8   40.50    7.17
   1   5   8   43.44    5.80
  -1  -5   9  103.98    9.16
  -1   5  -9  102.36    8.90
   1  -5  -9  103.60    9.33
   1   5   9   89.14    8.05
   1   5   9  107.15    6.67
  -1   5  -9  113.85    5.66
   1  -5  -9  108.51   11.29
   1   5  10   49.13    6.47
   1   5  10   42.42    4.39
  -1  -5  10   41.85    6.00
  -1   5 -10   43.71    6.36
   1  -5 -10   52.22    6.84
  -1   5 -10   51.74    3.89
   1  -5 -10   39.74    7.48
  -1  -5  11   57.11    7.38
   1  -5 -11   61.23    9.69
  -1   5 -11   54.63    7.42
   1   5  11   60.67    5.30
  -1   5 -11   54.84    4.01
   1  -5 -11   58.02    7.61
   1   5  11   58.11    7.10
   1  -5 -12   91.03   12.00
   1   5  12   96.21    9.45
  -1   5 -12   89.26    5.24
  -1  -5  12  104.11   10.04
   1  -5 -12   94.90   10.10
  -1   5 -12   90.73    9.43
   1   5  12  100.25    6.81
   1  -5 -13   46.40    9.13
  -1   5 -13   54.68    8.06
   1  -5 -13   50.42    7.57
   1   5  13   36.61    6.39
  -1  -5  13   43.49    7.08
  -1  -5  14   18.87    5.00
   1  -5 -14   21.62    5.63
   1   5  14   18.21    5.05
   1  -5 -14   21.59    7.04
  -1   5 -14   29.92    6.09
  -1  -5  15   14.20    5.30
   1   5  15   18.93    5.13
   1  -5 -15   16.55    4.85
  -1   5 -15   15.54    4.80
   1  -5 -15   22.51    7.14
   1  -5 -16   -6.98    6.05
   1   5  16    0.45    2.90
   1  -5 -16    4.29    2.74
  -1   5 -16    2.08    2.69
  -1  -5  16    0.11    2.80
   1   5  17    1.45    2.94
   1  -5 -17    3.95    4.20
  -1   5 -17   -0.42    2.61
   1  -5 -17   10.79    4.53
  -1  -5  17    7.59    3.88
  -1  -5  18   -1.03    3.07
  -1   5 -18    4.21    3.43
   1   6 -18   11.80    4.62
   1  -6  18    6.20    3.59
  -1  -6 -17    6.75    4.14
  -1   6  17    9.51    4.21
   1  -6  17   -2.11    2.22
  -1  -6 -17    5.82    4.87
   1   6 -17    4.04    3.33
  -1   6  16    2.91    2.87
   1   6 -16    1.01    2.47
   1  -6  16    2.53    2.52
  -1  -6 -16    2.47    3.81
  -1  -6 -16    1.01    2.84
  -1  -6 -15    0.58    3.37
  -1   6  15    3.38    2.22
   1   6 -15    7.63    3.66
  -1  -6 -15    5.70    3.60
   1  -6  15    8.78    3.73
   1  -6  14    5.60    3.14
  -1  -6 -14   -1.45    3.76
  -1   6  14    7.32    3.36
   1   6 -14    3.80    2.75
  -1  -6 -14    1.29    2.43
  -1  -6 -13   -3.21    4.19
  -1   6  13   -1.38    2.29
   1   6 -13    1.53    1.84
  -1  -6 -13   -1.32    2.53
   1  -6  13   -2.10    2.77
  -1  -6 -12   15.08    5.72
   1   6 -12   14.70    3.91
  -1   6  12   15.75    4.26
   1  -6  12   16.23    4.02
  -1  -6 -12   14.51    4.31
  -1   6  11  120.96    9.70
  -1  -6 -11  129.09   12.87
   1  -6  11  129.35    9.93
   1   6 -11  124.10    9.98
  -1  -6 -11  136.51   11.31
  -1   6  11  127.33    6.87
   1   6 -11  131.08    8.21
   1   6 -10   91.25    6.80
   1   6 -10   92.92    8.39
  -1  -6 -10  104.42    9.48
  -1   6  10  100.45    5.98
  -1   6  10   91.72    8.09
  -1  -6 -10   88.98   10.59
   1  -6  10   87.83    7.90
   1  -6   9   21.00    4.11
  -1   6   9   18.71    2.73
   1   6  -9   15.20    3.05
  -1  -6  -9   13.97    3.84
  -1   6   9   11.81    3.09
   1   6  -9   16.17    3.52
  -1  -6  -8   16.68    3.75
  -1   6   8    9.68    2.54
  -1  -6  -8   15.95    4.62
   1  -6   8   16.58    3.50
   1   6  -8   13.06    2.91
   1   6  -8   16.43    3.46
  -1   6   8   16.46    2.60
   1   6  -7   36.80    4.73
  -1   6   7   43.57    5.01
   1  -6   7   31.84    4.36
  -1   6   7   43.86    3.93
  -1  -6  -7   35.35    5.10
   1   6  -7   37.44    4.32
   1   6  -6   49.23    5.06
   1  -6   6   58.64    5.31
   1   6  -6   53.45    4.94
  -1   6   6   51.34    4.09
  -1  -6  -6   58.82    5.83
  -1   6   6   53.57    5.18
   1   6  -5   39.65    4.20
   1  -6   5   51.92    4.73
  -1   6   5   34.06    3.50
  -1   6   5   42.24    4.38
  -1  -6  -5   45.20    4.86
   1   6  -4  183.51    8.73
   1  -6   4  150.46    7.72
  -1   6   4  186.51    7.62
  -1   6   4  184.51    8.45
  -1  -6  -4  170.49    8.79
  -1   6   3  311.19    9.82
   1   6  -3  314.73   11.31
  -1   6   2    4.30    1.59
   1   6  -2    5.20    1.68
  -1   6   1   51.81    4.12
   1   6  -1   53.67    4.73
   1  -6   1   54.75    3.74
  -1   6   0  240.67    8.57
   1   6   0  233.14    9.00
   1   6   0  243.30    9.83
   1  -6   0  231.83    7.27
   1   6   1   48.17    4.16
  -1   6  -1   56.08    4.32
   1   6   1   53.35    4.85
   1  -6  -1   54.90    3.60
  -1   6  -2    3.89    1.50
  -1  -6   2    2.98    0.91
   1   6   2    5.26    1.82
   1  -6  -2    4.65    1.39
   1   6   2    3.81    1.04
   1   6   3  323.26    8.76
   1   6   3  325.79   11.48
   1  -6  -3  312.23    9.33
  -1   6  -3  293.52    9.54
   1   6   4  190.89    8.88
  -1   6  -4  175.39    7.48
  -1   6  -5   48.83    3.99
   1   6   5   43.74    5.32
   1   6   5   42.05    4.27
   1  -6  -5   41.05    6.19
   1  -6  -6   49.26    6.05
  -1   6  -6   55.70    4.34
   1   6   6   54.02    4.94
   1   6   6   52.76    6.04
   1  -6  -6   58.21    7.79
   1   6   7   35.95    4.16
   1  -6  -7   25.80    5.52
   1   6   7   31.36    4.89
  -1   6  -7   39.21    3.70
   1  -6  -7   38.90    5.62
  -1   6  -8   15.61    2.65
   1  -6  -8   16.43    4.24
  -1   6  -8   10.26    3.50
   1   6   8   10.17    3.09
   1   6   8   13.69    2.88
  -1  -6   8   13.60    3.87
   1  -6  -8   11.14    4.59
   1   6   9   16.45    3.05
  -1   6  -9   19.77    2.83
  -1  -6   9   13.94    3.64
   1  -6  -9   13.28    5.11
   1   6   9   13.60    3.81
  -1   6  -9   17.69    4.21
   1  -6  -9   15.12    4.12
  -1   6 -10   93.28    9.15
   1  -6 -10   85.83   10.97
   1  -6 -10   79.27    8.81
  -1  -6  10   91.73    9.10
   1   6  10   92.01    8.93
  -1   6 -10   92.46    5.72
   1   6  10   87.91    6.73
  -1  -6  11  136.15   11.11
   1   6  11  127.76   10.81
  -1   6 -11  138.54   11.53
   1   6  11  128.32    8.25
   1  -6 -11  128.17   11.42
  -1   6 -11  132.23    6.92
   1  -6 -11  119.06   13.09
   1  -6 -12   18.59    5.10
  -1  -6  12   16.10    4.51
  -1   6 -12   17.29    4.58
   1   6  12   19.15    5.00
   1  -6 -12   11.25    5.22
  -1   6 -13    1.54    2.08
   1   6  13    7.81    3.81
   1  -6 -13   10.15    5.52
   1  -6 -13   -2.99    2.98
  -1  -6  13    0.32    2.91
  -1  -6  14   11.91    4.42
   1   6  14    5.27    3.32
   1  -6 -14    9.54    5.40
   1  -6 -14    4.29    3.05
  -1   6 -14    1.89    2.33
  -1   6 -15    7.43    3.58
   1  -6 -15    6.89    4.59
   1  -6 -15    3.75    3.74
  -1  -6  15    8.66    4.33
   1   6  15    5.88    3.42
  -1   6 -16   12.04    4.67
   1   6  16    8.87    3.62
   1  -6 -16    7.27    5.08
   1  -6 -16   13.56    5.39
  -1  -6  16    7.69    4.64
  -1  -6  17    2.32    3.31
   1   6  17    4.91    3.41
  -1   6 -17   -0.44    2.70
  -1   7  17    4.75    3.69
   1   7 -17    5.98    3.36
   1  -7  17    5.25    3.54
  -1   7  16   -1.18    3.30
   1   7 -16    3.23    3.17
  -1  -7 -16    3.07    3.29
   1  -7  16    0.19    2.83
   1  -7  15    6.81    3.32
  -1   7  15   -0.07    2.40
  -1  -7 -15    4.95    3.79
   1   7 -15    1.86    2.51
  -1  -7 -15    0.34    4.15
  -1  -7 -14   19.70    6.89
   1  -7  14   13.19    4.01
  -1   7  14   20.42    5.17
   1   7 -14   14.40    4.29
  -1  -7 -14   13.74    4.87
   1   7 -13   -1.32    2.36
  -1  -7 -13    5.34    3.23
  -1  -7 -13    8.22    4.99
   1  -7  13    1.17    2.35
  -1   7  13    3.38    2.75
  -1  -7 -12   17.47    4.62
   1   7 -12   21.35    4.66
  -1  -7 -12   21.12    5.89
   1  -7  12   22.67    4.65
  -1   7  12   22.32    4.93
  -1   7  11    0.11    2.02
   1   7 -11   -1.77    2.03
  -1   7  11    0.43    1.21
   1  -7  11   -2.48    2.60
  -1  -7 -11    1.87    2.77
   1   7 -11    1.36    2.11
  -1  -7 -11    1.74    3.65
  -1  -7 -10   22.21    6.12
  -1   7  10   11.68    3.58
   1  -7  10   12.30    3.22
   1   7 -10   13.63    2.96
  -1  -7 -10   14.47    4.07
   1   7 -10   14.00    3.66
  -1   7  10   13.30    2.59
  -1   7   9    5.33    2.16
   1  -7   9    4.07    2.10
  -1   7   9    7.85    2.17
  -1  -7  -9    7.64    3.18
   1   7  -9    4.91    2.11
   1   7  -9    7.38    2.77
  -1  -7  -9    5.49    3.76
  -1   7   8   51.29    4.77
  -1   7   8   51.22    5.77
   1   7  -8   62.21    5.78
   1  -7   8   47.61    5.42
   1   7  -8   50.78    5.95
  -1  -7  -8   44.55    6.04
  -1  -7  -7   58.17    6.53
   1  -7   7   62.95    5.95
  -1   7   7   59.21    6.05
   1   7  -7   58.79    6.05
  -1   7   7   64.49    5.33
   1   7  -7   68.50    6.12
  -1  -7  -6    6.11    2.50
   1  -7   6    4.78    1.85
   1   7  -6    5.98    2.13
  -1   7   6    1.24    1.52
  -1   7   6    7.00    2.16
   1   7  -6    5.84    2.19
   1   7  -5   11.28    2.74
   1  -7   5   16.98    2.95
  -1   7   5   16.19    3.05
  -1   7   5   15.88    2.83
   1   7  -4  101.47    7.15
  -1   7   4  103.21    6.32
   1   7  -3   -0.34    1.70
   1  -7   3    0.01    0.38
  -1   7   3   -3.29    1.97
   1   7  -2   32.33    4.12
  -1   7   2   32.81    3.73
  -1   7   1  249.85    9.58
   1   7  -1  250.13   10.99
   1  -7   1  245.35    8.55
  -1   7   0  217.74    9.01
   1   7   0  208.37   10.01
   1  -7   0  233.01    8.02
   1  -7  -1  247.08    8.29
   1   7   1  244.90   10.89
  -1   7  -1  259.98    9.77
   1  -7  -2   33.38    3.36
   1   7   2   36.94    4.48
  -1   7  -2   30.71    3.52
  -1  -7   3   -0.50    0.62
   1   7   3    2.84    1.77
   1   7   3    1.09    0.89
  -1   7  -3   -0.51    1.63
   1   7   4   95.46    6.94
   1   7   4  107.79    5.60
  -1   7  -4  101.63    6.27
   1   7   5   14.43    2.92
  -1   7  -5   18.47    3.05
   1   7   6    1.52    2.61
   1  -7  -6    5.42    3.26
   1   7   6    6.05    2.01
  -1   7  -6    7.23    2.30
   1   7   7   58.26    5.77
   1  -7  -7   52.85    6.81
  -1   7  -7   67.79    5.30
   1   7   7   58.18    6.84
   1  -7  -7   59.30    8.40
   1   7   8   48.16    5.28
  -1   7  -8   51.74    4.74
   1  -7  -8   44.19    6.38
  -1  -7   8   40.93    6.13
   1   7   8   44.96    6.35
   1  -7  -8   54.42    8.54
  -1   7  -9    5.81    2.00
  -1   7  -9    8.24    3.06
   1  -7  -9    4.97    2.48
   1   7   9    5.98    2.44
   1   7   9    6.29    2.97
  -1  -7   9    5.28    2.82
   1  -7  -9    5.16    3.96
   1   7  10    8.64    3.38
   1  -7 -10    8.66    3.57
   1   7  10   13.80    3.17
  -1   7 -10    8.66    3.21
  -1  -7  10    9.07    3.29
  -1   7 -10   10.50    2.31
   1  -7 -10    3.77    3.95
   1  -7 -11   -1.62    2.42
   1   7  11    4.61    2.94
  -1  -7  11   -1.48    2.61
  -1   7 -11   -3.43    2.00
   1   7  11    1.77    2.00
  -1   7 -11   -2.22    2.62
   1  -7 -12   17.42    5.74
   1   7  12   21.76    5.19
  -1  -7  12   21.75    5.11
  -1   7 -12   25.04    5.59
   1  -7 -12   30.50    6.12
   1  -7 -13    4.57    3.76
   1  -7 -13    3.53    3.93
   1   7  13    8.35    4.18
  -1  -7  13    1.60    2.75
  -1   7 -13    4.07    3.01
   1  -7 -14   24.56    8.05
  -1  -7  14   16.10    4.83
   1   7  14   14.57    4.62
  -1   7 -14   17.38    5.14
   1  -7 -14    7.41    3.83
  -1   7 -15   -2.74    3.45
   1   7  15   12.39    4.83
  -1  -7  15    9.20    4.33
   1  -7 -15    8.99    4.49
   1  -7 -15   -0.52    3.44
  -1   7 -16    8.39    4.00
   1  -7 -16    5.39    3.63
   1   7  16    4.65    2.93
  -1  -7  16   -1.27    3.18
  -1  -7  17    3.33    3.21
  -1  -8 -16    4.22    3.72
  -1   8  16    3.41    3.66
   1   8 -16    4.91    3.36
  -1  -8 -15    0.39    3.96
   1   8 -15    1.75    2.21
  -1  -8 -15    8.86    3.85
  -1   8  15    9.80    4.09
  -1  -8 -14   -1.83    4.18
   1   8 -14    2.68    2.65
  -1   8  14    4.88    3.66
  -1  -8 -14    8.10    4.09
   1  -8  13    5.83    2.98
  -1  -8 -13   12.34    5.27
  -1   8  13    6.76    3.44
   1   8 -13   12.86    4.10
  -1  -8 -13    9.53    4.11
  -1  -8 -12   14.61    5.44
   1   8 -12   13.26    3.81
  -1  -8 -12   11.14    4.25
  -1   8  12   14.32    4.15
   1  -8  12    7.87    3.20
   1   8 -11   26.82    4.57
  -1   8  11   29.77    5.39
   1  -8  11   26.67    5.05
  -1  -8 -11   29.17    6.83
   1   8 -11   20.95    4.62
  -1  -8 -11   25.41    5.46
  -1   8  11   27.29    4.23
   1   8 -10   23.82    4.30
  -1  -8 -10   24.55    5.24
  -1   8  10   29.50    5.25
   1   8 -10   27.87    4.94
  -1  -8 -10   36.22    8.04
  -1   8  10   26.61    3.81
   1  -8  10   19.56    4.19
  -1  -8  -9    9.10    4.26
   1   8  -9    6.43    2.38
   1   8  -9    7.56    2.98
  -1   8   9    9.25    3.07
   1  -8   9    9.52    3.03
  -1   8   9    9.18    2.48
  -1  -8  -9   10.13    3.54
   1  -8   8   29.61    4.58
  -1   8   8   24.72    4.45
  -1   8   8   26.00    3.71
   1   8  -8   29.82    4.67
   1   8  -8   24.92    4.42
  -1  -8  -8   26.23    4.91
  -1   8   7   47.73    4.89
  -1   8   7   45.31    5.65
   1   8  -7   37.02    5.11
   1  -8   7   48.25    5.51
   1   8  -7   49.98    5.58
  -1  -8  -7   35.35    5.64
   1   8  -6  131.88    8.96
   1   8  -6  117.94    8.44
  -1   8   6  129.53    8.83
   1  -8   6  119.95    8.00
  -1   8   6  141.38    8.20
  -1   8   5   35.39    4.24
   1  -8   5   31.74    4.28
   1   8  -5   25.80    4.15
   1   8  -4    2.92    2.22
  -1   8   4   12.65    2.92
   1   8  -3  281.21   12.63
  -1   8   3  298.77   11.77
   1   8  -2   80.84    6.89
  -1   8   2   85.82    6.43
   1   8  -1   27.75    4.09
  -1   8   1   26.35    3.74
   1   8   0   88.95    7.15
  -1   8   0   95.34    6.62
   1   8   1   19.08    3.44
  -1   8  -1   24.22    3.67
  -1   8  -2   95.12    6.68
   1   8   2   96.36    7.55
  -1   8  -3  296.63   11.58
   1   8   3  278.69   12.72
   1   8   4   11.49    1.79
  -1   8  -4    8.36    2.43
   1   8   4    7.12    2.49
   1   8   5   34.33    3.42
   1   8   5   22.07    3.71
  -1   8  -5   37.58    4.48
   1  -8  -6  116.60   11.59
   1   8   6  136.97    9.24
  -1   8  -6  129.63    7.88
   1   8   7   42.73    5.54
   1   8   7   47.03    6.29
  -1   8  -7   45.47    4.84
   1  -8  -7   39.18    7.23
  -1  -8   8   21.86    4.89
  -1   8  -8   29.00    3.87
   1   8   8   23.14    4.53
   1   8   8   30.76    4.64
   1  -8  -8   16.38    5.31
  -1  -8   9    5.04    3.07
   1  -8  -9   11.74    4.83
  -1   8  -9    9.23    3.43
   1   8   9    7.25    2.74
   1   8   9   10.76    3.62
   1  -8  -9    6.79    2.65
  -1   8  -9    8.49    2.37
  -1  -8  10   33.53    6.01
   1  -8 -10   33.96    7.96
   1   8  10   30.90    4.96
   1   8  10   15.75    4.33
  -1   8 -10   24.50    5.21
  -1   8 -10   22.39    3.48
   1  -8 -10   24.50    5.42
   1  -8 -11   21.82    5.41
   1   8  11   24.70    5.58
   1  -8 -11   32.76    8.07
  -1   8 -11   25.61    3.75
   1   8  11   16.37    3.75
  -1  -8  11   24.95    5.32
  -1   8 -11   25.10    5.70
   1  -8 -12   11.11    5.23
   1   8  12   11.39    4.26
  -1  -8  12   15.54    4.83
  -1   8 -12   10.91    4.09
   1  -8 -12   14.11    4.62
   1  -8 -13    9.52    5.07
  -1   8 -13    7.85    3.79
  -1  -8  13   11.35    4.06
   1   8  13    8.78    4.31
   1  -8 -13    6.71    4.28
   1  -8 -14    0.83    4.61
  -1  -8  14    7.94    4.21
   1   8  14    1.69    2.78
  -1   8 -14   -0.52    2.76
   1  -8 -14   -3.25    3.80
  -1   8 -15    2.91    3.22
   1  -8 -15    4.30    3.10
  -1  -8  15    3.05    3.51
   1   8  15    5.23    3.61
  -1  -8  16   -0.82    2.98
  -1   8 -16   -0.57    2.83
  -1  -9 -15    0.54    2.21
  -1  -9 -14    4.02    3.60
  -1  -9 -13   -2.32    3.35
  -1  -9 -13    5.40    3.13
  -1  -9 -12   13.74    5.66
  -1   9  12   15.36    4.52
  -1  -9 -12    5.39    3.05
   1   9 -11   12.83    3.89
  -1   9  11   11.59    3.56
   1   9 -11    6.44    2.70
  -1  -9 -11    9.33    3.82
  -1  -9 -11   17.14    6.01
  -1   9  11    5.72    2.30
   1   9 -10   10.23    3.31
  -1   9  10   14.42    4.02
  -1  -9 -10   11.24    4.25
   1   9 -10   11.79    3.60
  -1   9  10   12.72    3.26
  -1  -9 -10    7.52    4.15
   1   9  -9    3.12    2.45
  -1   9   9    1.78    1.83
  -1   9   9   -0.55    2.10
   1   9  -9    5.03    2.62
   1   9  -8   15.71    3.82
   1   9  -8   22.66    4.44
  -1   9   8   14.93    3.26
  -1   9   8   14.31    3.53
   1   9  -7   93.42    8.37
  -1   9   7   98.98    7.54
   1   9  -7   91.39    8.16
   1   9  -6   29.02    4.85
   1   9  -6   35.50    5.27
  -1   9   6   34.51    4.57
  -1   9   5   33.20    4.49
   1   9  -5   29.96    4.74
  -1   9   4    8.08    2.78
   1   9  -4    3.76    2.25
   1   9  -3    8.20    2.76
  -1   9   3   11.43    2.90
   1   9  -2   38.27    5.30
  -1   9   2   40.25    4.86
   1   9  -1   73.25    7.14
  -1   9   1   76.12    6.64
  -1   9   0   31.67    4.43
   1   9   0   20.77    3.77
   1   9   1   66.40    6.78
  -1   9  -1   75.04    6.53
  -1   9  -2   50.23    5.45
   1   9   2   41.55    5.50
   1   9   3    8.20    2.54
  -1   9  -3   15.36    3.36
   1   9   4    2.52    2.49
  -1   9  -4   10.57    2.85
   1   9   5   33.62    4.98
  -1   9  -5   35.39    4.69
   1   9   6   39.00    5.62
  -1   9  -6   34.51    4.68
   1  -9  -6   33.64    6.90
   1   9   6   32.10    4.96
  -1   9  -7  101.54    7.66
   1  -9  -7   95.48   11.52
   1   9   7   93.77    8.33
   1  -9  -8   19.26    6.67
  -1   9  -8   15.91    3.35
   1   9   8   22.74    4.51
  -1  -9   8   17.54    4.32
   1  -9  -9    5.80    4.69
  -1   9  -9    1.50    1.56
  -1  -9   9    1.33    2.15
   1   9   9    5.29    2.57
   1   9   9    6.11    2.85
  -1   9  -9    2.20    2.59
  -1  -9  10   14.05    4.07
  -1   9 -10    9.21    3.41
   1  -9 -10   10.96    5.47
   1   9  10   15.97    4.52
   1   9  10   20.23    4.38
  -1   9 -10   14.54    3.20
  -1   9 -11    4.13    2.18
   1  -9 -11   10.10    6.03
   1   9  11    6.94    3.58
   1   9  11   12.30    3.41
  -1   9 -11    7.03    3.49
  -1  -9  11   12.99    4.07
   1  -9 -12   11.07    5.47
  -1   9 -12   10.53    4.20
   1   9  12   13.09    4.12
   1  -9 -12   15.17    5.18
  -1  -9  12   19.52    5.14
   1   9  13    4.84    3.36
   1  -9 -13   -3.62    4.12
  -1  -9  13    4.50    3.47
  -1   9 -13    0.84    2.66
   1  -9 -13   -5.41    5.14
  -1  -9  14    7.73    4.18
   1   9  14    0.06    2.82
  -1   9 -14   -0.26    2.52
   1  -9 -14   -0.60    2.78
  -1   9 -15    3.50    3.20
  -1  -9  15    0.19    2.64
  -1 -10 -13    7.89    4.06
  -1  10  11    7.86    3.04
  -1 -10 -11   15.86    6.38
  -1  10  10   -0.37    2.01
  -1 -10 -10    5.17    3.87
   1  10 -10    5.37    2.88
  -1 -10  -9   23.15    6.68
   1  10  -9   22.50    4.80
  -1  10   9   14.29    3.64
   1  10  -8   42.36    6.13
  -1  10   8   45.93    5.66
   1  10  -7   37.72    5.90
  -1  10   7   35.51    5.15
   1  10  -6   51.15    6.66
  -1  10   6   54.16    6.30
   1  10  -5   93.97    8.91
   1  10  -5  108.92    9.38
  -1  10   5  105.15    8.31
  -1  10   4   96.29    8.01
   1  10  -4   89.54    8.49
   1  10  -3    4.67    2.15
  -1  10   3    4.90    2.96
   1  10  -2    5.69    2.58
  -1  10   2   19.46    4.10
   1  10  -1   13.25    3.72
  -1  10   1   14.64    3.33
  -1  10   0    0.47    2.28
   1  10   0    1.55    2.42
  -1  10  -1   20.16    3.88
   1  10   1    5.39    2.81
  -1  10  -2    6.62    2.77
   1  10   2   11.15    3.61
   1  10   3    4.33    2.62
  -1  10  -3    5.99    2.45
  -1  10  -4   92.57    7.74
   1  10   4   80.41    8.11
   1  10   5   87.51    8.44
  -1  10  -5  101.07    8.22
   1  10   6   57.53    7.15
   1 -10  -6   59.21    9.42
  -1  10  -6   45.53    5.56
   1  10   7   30.70    5.28
   1 -10  -7   26.20    6.90
  -1  10  -7   36.37    5.20
   1  10   8   45.93    6.45
  -1  10  -8   38.63    5.32
   1 -10  -8   46.13    9.06
  -1 -10   8   36.13    6.27
  -1  10  -9   13.53    4.55
  -1  10  -9   14.37    3.61
  -1 -10   9   10.99    3.98
   1  10   9   17.50    4.31
   1 -10 -10    5.78    4.02
  -1  10 -10    4.82    2.46
   1  10  10    7.45    3.27
  -1  10 -10    6.18    3.21
   1 -10 -11    6.18    5.15
  -1  10 -11    0.48    2.62
  -1  10 -11    5.85    2.69
   1  10  11    8.43    3.26
   1  10  12   20.40    5.55
  -1  10 -12    8.86    3.85
  -1  10 -13    4.68    3.58
   1  10  13    0.72    2.49
   1  10  14   -1.07    2.63
  -1  10 -14    3.56    3.35
  -1  11  10    8.58    3.10
   1  11 -10   11.32    4.18
  -1 -11  -9    2.68    4.37
  -1  11   9   -0.99    2.43
   1  11  -9    8.96    3.69
  -1  11   8    4.38    2.62
   1  11  -8   10.65    3.76
   1  11  -7    6.63    3.29
  -1  11   7   -0.11    2.16
  -1  11   6   20.62    4.51
   1  11  -6   22.49    5.13
  -1  11   5   14.61    4.00
   1  11  -5   14.02    4.36
   1  11  -4    6.67    3.39
  -1  11   4    3.45    2.72
   1  11  -3    8.04    3.40
  -1  11   3   10.97    3.32
   1  11  -3    5.78    2.54
  -1  11   2   13.15    3.81
   1  11  -2   22.17    4.99
   1  11  -2    9.95    3.41
   1  11  -1   34.58    5.77
   1  11  -1   35.59    5.78
  -1  11   1   39.22    5.59
   1  11   0    2.70    2.38
  -1  11   0    4.59    2.59
   1  11   1   38.39    6.03
   1  11   1   33.63    5.90
  -1  11  -1   45.40    6.02
  -1  11  -2   18.56    4.17
   1  11   2    6.64    2.34
   1  11   2   22.27    5.19
   1  11   3   14.89    4.28
  -1  11  -3    5.65    2.63
   1  11   3   10.24    3.60
   1  11   4    5.38    3.36
  -1  11  -4   -1.69    2.29
   1  11   5   21.55    5.07
  -1  11  -5   15.30    3.72
   1  11   6   21.26    5.03
  -1  11  -6   16.70    3.77
   1 -11  -6   30.62    7.88
   1 -11  -7    7.09    4.99
   1  11   7    1.91    3.08
  -1  11  -7    5.28    2.71
   1 -11  -8    0.62    3.58
  -1  11  -8    1.87    2.09
  -1  11  -9    1.91    2.70
   1  11   9    3.23    2.26
  -1  11  -9   -0.18    1.85
   1 -11  -9   -3.23    3.90
  -1  11 -10    5.86    3.41
   1  11  10   13.07    3.92
  -1  11 -10    7.62    2.91
   1  12 -10    4.83    3.32
   1  12  -9    9.94    4.00
   1  12  -8   12.37    4.21
  -1  12   8    4.29    2.50
  -1  12   7    2.19    2.17
   1  12  -7    5.54    3.05
  -1  12   6   -0.34    2.13
   1  12  -6    9.29    3.69
  -1  12   5    1.13    1.80
   1  12  -5    0.56    2.07
   1  12  -4   23.87    5.33
  -1  12   4   14.95    3.93
  -1  12   3    4.94    2.97
   1  12  -3    9.66    3.94
   1  12  -2   19.39    4.75
  -1  12   2   10.31    3.20
  -1  12   1   15.00    3.99
   1  12  -1   19.61    4.98
   1  12   0   14.93    4.56
  -1  12   0   12.17    3.94
   1  12   1   11.01    4.09
  -1  12  -1   12.66    3.80
   1  12   2   13.77    4.24
  -1  12  -2   17.48    4.20
   1  12   3    8.13    3.98
  -1  12  -3    9.81    3.55
   1  12   4   26.73    5.44
  -1  12  -4   21.95    4.57
   1 -12  -5   -0.92    3.59
  -1  12  -5   -0.08    2.29
   1 -12  -6    6.08    4.72
   1  12   6    5.67    3.37
  -1  12  -6   -0.40    2.29
   1  12   7    0.11    2.26
  -1  12  -7    8.25    3.04
   1  12   8    7.59    3.48
  -1  12  -8    4.12    2.28
  -1  12  -9    0.70    2.37
  -2   0   0  717.06   13.75
  -2   0   0  662.85   12.66
   2   0   0  695.51   13.31
  -2   0   0  722.94   13.29
   2   0  -1 7969.61   48.07
   2   0   1 7960.71   44.92
   2   0   1 8170.01   44.88
  -2   0   1 8229.74   36.37
  -2   0   1 7957.10   49.09
  -2   0   1 8294.70   47.06
  -2   0  -1 8052.22   46.31
   2   0  -1 8094.65   44.99
  -2   0  -1 8305.21   37.97
   2   0   2   64.02    4.19
   2   0  -2   55.42    3.88
   2   0  -2   55.09    3.24
  -2   0   2   56.26    4.71
  -2   0   2   58.80    3.99
   2   0   2   59.89    3.57
  -2   0  -2   62.57    4.11
  -2   0  -2   56.93    3.34
   2   0  -2   60.01    4.95
  -2   0   2   57.96    3.25
   2   0   3 2517.82   23.85
  -2   0   3 2549.27   23.50
   2   0  -3 2517.50   23.77
  -2   0   3 2531.85   25.90
  -2   0  -3 2547.22   24.09
  -2   0   3 2546.87   33.79
   2   0   3 2432.50   24.90
   2   0  -3 2470.23   24.88
   2   0  -3 2508.37   33.75
  -2   0  -4 1374.05   19.29
   2   0  -4 1452.12   19.77
   2   0   4 1392.33   19.03
  -2   0  -4 1375.07   20.39
  -2   0  -4 1434.07   15.64
  -2   0  -4 1398.36   18.99
  -2   0   4 1364.20   26.69
  -2   0   4 1438.21   19.69
  -2   0   4 1447.88   19.48
   2   0   4 1418.79   19.46
  -2   0  -4 1505.69   19.58
   2   0  -4 1406.03   18.80
  -2   0   4 1397.38   18.90
   2   0  -4 1407.88   27.48
  -2   0  -5  130.03    6.86
   2   0   5  119.65    6.31
   2   0   5  129.82    5.84
   2   0  -5  131.75    6.52
  -2   0   5  127.53    5.71
  -2   0  -5  121.08    5.58
  -2   0   5  124.31    6.25
  -2   0   5  131.55    7.33
  -2   0  -5  115.29    5.62
   2   0  -5  132.00    5.84
  -2   0   5  144.44    6.17
  -2   0  -5  136.18    6.06
   2   0  -5  122.78    8.92
  -2   0   6  363.10   12.92
   2   0   6  344.86    9.43
  -2   0  -6  347.76   10.76
  -2   0   6  361.27    9.29
   2   0  -6  375.54   11.89
  -2   0  -6  358.99   12.27
  -2   0   6  366.37    9.67
  -2   0  -6  352.70    9.40
   2   0   6  356.37   11.61
   2   0  -6  358.25   16.08
  -2   0  -6  344.68    9.28
   2   0  -6  383.28    9.69
  -2   0   7  746.52   19.36
   2   0  -7  762.65   24.78
  -2   0  -7  762.94   13.25
   2   0   7  751.07   17.91
  -2   0  -7  799.89   13.70
  -2   0   7  694.04   12.58
   2   0   7  778.84   13.97
  -2   0  -7  788.58   19.11
  -2   0  -7  775.21   17.76
   2   0  -7  749.20   18.10
  -2   0   7  722.63   13.20
  -2   0   8  202.21    6.49
   2   0  -8  184.81   13.14
  -2   0   8  188.54    6.19
  -2   0   8  209.61   10.89
  -2   0  -8  204.90    6.68
  -2   0  -8  202.22    6.77
  -2   0  -8  203.50   10.31
   2   0  -8  210.31   10.30
  -2   0  -8  186.39   10.05
   2   0   8  203.16    9.99
  -2   0   8  198.51    6.45
  -2   0  -8  190.02    6.31
  -2   0  -9    3.10    1.08
  -2   0  -9    6.91    2.91
   2   0  -9    5.03    3.45
  -2   0   9    5.98    3.12
  -2   0   9    3.70    0.98
  -2   0  -9    5.84    2.72
  -2   0  -9    3.20    0.91
   2   0   9    5.11    2.54
  -2   0   9    4.47    1.14
   2   0  -9    5.09    2.27
  -2   0 -10    1.65    2.44
   2   0  10    4.08    3.05
  -2   0 -10    3.40    0.86
  -2   0 -10    2.08    2.26
  -2   0  10    2.64    0.80
  -2   0 -10    3.34    0.83
  -2   0  10    2.04    2.62
   2   0 -10    2.59    3.48
   2   0 -10    1.64    2.10
  -2   0  10    2.62    0.71
  -2   0  11   98.91    2.46
   2   0  11   79.11    7.82
  -2   0 -11   83.03    2.52
  -2   0 -11   87.22    8.41
  -2   0  11   81.24    8.21
  -2   0  11   89.38    2.38
  -2   0 -11   85.03    2.48
   2   0 -11   77.54    7.64
  -2   0  11   80.30    2.26
  -2   0 -11   73.64    7.58
   2   0 -11   77.07   10.27
   2   0 -12  149.43   14.49
  -2   0  12  166.47   11.82
  -2   0 -12  147.30   10.99
  -2   0 -12  152.81   11.80
   2   0  12  146.73   10.75
   2   0 -12  166.12   11.62
  -2   0  13  228.83   14.11
   2   0 -13  212.61   13.65
   2   0  13  229.08   13.88
  -2   0 -13  219.31   14.02
   2   0 -13  228.78   18.36
  -2   0 -13  233.09   15.24
   2   0 -14   -2.60    3.89
  -2   0 -14    1.55    2.67
   2   0 -14    1.11    2.36
  -2   0 -14    1.87    2.49
  -2   0  14    4.16    3.44
   2   0  14    0.79    2.85
  -2   0 -15   27.62    6.33
  -2   0  15   37.09    6.64
   2   0  15   33.62    6.25
   2   0 -15   31.25    6.00
  -2   0 -15   29.09    5.81
   2   0 -15   31.90    7.90
   2   0 -16   15.41    5.95
  -2   0 -16   22.99    5.89
  -2   0  16   10.66    4.03
   2   0  16   15.27    4.72
  -2   0 -16    5.30    2.83
   2   0 -16    8.90    4.06
   2   0  17   -2.29    3.44
   2   0 -17    3.63    4.80
  -2   0 -17    3.05    2.66
   2   0 -17    1.81    2.98
  -2   0  17    0.87    2.57
  -2   0 -18    6.54    3.89
  -2   0  18    0.86    2.69
   2   0  18    7.56    4.57
   2   0 -18    8.28    4.49
   2   0 -18   -0.11    3.98
   2   0 -19   -2.42    3.62
   2   0 -19   -1.61    3.44
   2  -1  19    8.45    4.68
   2   1 -19    7.65    4.13
   2  -1  18   22.12    5.77
  -2   1  18   11.51    4.50
  -2  -1 -18   10.45    4.35
   2   1 -18   11.28    4.72
   2   1 -18    3.78    4.07
  -2  -1 -17   -0.71    2.56
  -2  -1 -17    0.29    2.28
  -2   1  17    0.02    3.01
   2   1 -17    1.33    3.19
   2  -1  17    1.70    2.95
   2   1 -17    0.58    3.69
  -2   1  16   11.09    4.29
  -2  -1 -16    7.99    3.99
   2  -1  16    9.82    3.68
  -2  -1 -16    3.72    3.07
   2   1 -16   11.00    4.03
   2   1 -16    3.26    4.31
   2  -1  15   12.72    4.39
  -2   1  15   17.86    4.66
   2   1 -15   14.29    4.18
  -2  -1 -15   19.05    4.97
  -2  -1 -15   10.84    4.13
   2   1 -15   10.24    5.38
   2  -1  14   10.80    3.81
  -2  -1 -14    6.29    3.80
  -2   1  14    9.87    3.69
   2   1 -14    8.07    5.20
  -2  -1 -14   13.15    4.11
   2   1 -14    9.25    3.64
   2   1 -13   32.62    5.69
   2  -1  13   45.06    6.29
  -2   1  13   47.41    6.62
  -2  -1 -13   41.94    6.36
  -2  -1 -13   39.91    6.97
   2   1 -13   47.71    8.52
  -2   1  12  167.25   11.44
  -2  -1 -12  162.42   11.61
   2   1 -12  179.03   11.76
   2  -1  12  166.99   11.17
   2   1 -12  180.78   15.65
  -2  -1 -12  168.60   13.01
  -2  -1 -11   11.13    3.98
  -2  -1 -11   12.16    1.47
  -2   1  11   18.11    4.33
   2  -1  11   16.28    3.92
   2   1 -11   12.94    3.52
  -2  -1 -11   10.95    3.57
  -2  -1 -11   12.25    1.05
  -2   1  11   15.13    1.06
  -2   1  11   12.47    1.49
   2   1 -11   17.15    5.13
  -2  -1 -10  199.47   12.24
  -2   1  10  205.27   11.57
  -2  -1 -10  204.82   11.44
  -2   1  10  202.36    4.56
  -2  -1 -10  195.98    6.57
  -2   1  10  191.44    6.48
   2  -1  10  191.06   10.66
  -2  -1 -10  218.50    4.99
  -2  -1 -10  187.08    4.82
   2   1 -10  191.87   14.56
   2   1 -10  192.26   10.99
  -2  -1  -9   55.22    2.89
  -2   1   9   52.93    2.78
  -2  -1  -9   54.10    5.73
  -2  -1  -9   57.78    6.46
   2  -1   9   54.38    4.83
   2   1  -9   59.98    7.88
  -2  -1  -9   46.66    3.56
  -2   1   9   45.97    5.67
   2  -1   9   52.67    5.44
   2   1  -9   45.41    5.19
   2   1  -9   58.06    3.82
  -2  -1  -9   51.55    2.71
  -2   1   9   54.61    3.84
  -2   1   8   15.65    3.21
  -2   1   8   16.90    1.81
   2  -1   8   20.32    2.76
   2  -1   8   18.45    3.28
   2   1  -8   20.74    2.46
  -2  -1  -8   16.87    3.49
   2   1  -8   13.04    2.87
  -2  -1  -8   15.63    3.10
   2   1  -8   22.97    5.11
  -2   1   8   21.70    2.52
  -2  -1  -8   21.08    1.96
   2   1  -7   94.62    5.03
  -2   1   7  113.69    4.75
  -2   1   7  104.72    5.47
  -2  -1  -7  104.60    6.82
   2  -1   7  116.50    6.83
   2   1  -7  110.15    6.87
  -2  -1  -7  114.41    4.80
   2  -1   7  111.40    5.61
  -2   1   7  120.08    7.50
   2   1  -7  116.79    9.94
  -2  -1  -7  116.73    7.37
   2   1  -6  473.45   12.88
  -2  -1  -6  445.40   13.03
  -2   1   6  479.92   10.15
  -2   1   6  455.96   11.38
   2  -1   6  448.87    9.85
   2   1  -6  474.87   18.45
   2   1  -6  455.69   11.10
  -2   1   6  475.50   14.07
   2  -1   6  493.74   12.81
  -2  -1  -6  481.75   10.27
  -2  -1  -6  440.22   12.93
  -2   1   5  356.04    9.07
   2  -1   5  343.33    9.98
   2   1  -5  348.63   10.09
  -2  -1  -5  349.53   10.69
  -2  -1  -5  360.35    9.14
  -2   1   5  355.79   10.02
  -2   1   5  370.71   11.52
   2   1  -5  362.10   10.00
   2   1  -5  360.25   15.12
  -2  -1  -4  216.29    7.64
  -2   1   4  234.52    8.45
   2   1  -4  231.46    7.37
  -2  -1  -4  226.33    8.33
  -2   1   4  225.67    8.40
   2  -1   4  216.19    7.88
  -2   1   4  233.64    7.52
  -2   1   4  225.54    7.97
   2   1  -4  224.57    8.01
   2  -1   4  217.58    7.33
  -2  -1  -4  227.55    7.39
  -2   1   4  227.42   10.62
  -2  -1  -3 3624.36   30.78
  -2   1   3 3534.20   30.01
  -2   1   3 3609.90   30.12
   2   1  -3 3743.26   33.19
   2  -1   3 3564.36   31.43
  -2   1   3 3526.12   29.46
  -2   1   3 3601.48   30.99
  -2   1   3 3565.40   38.57
   2   1  -3 3583.00   25.22
   2  -1   3 3607.36   25.91
  -2   1   3 3541.66   31.35
  -2  -1  -3 3514.55   27.40
  -2  -1  -3 3605.50   29.89
  -2   1   2  838.78   14.19
  -2  -1  -2  826.86   11.46
  -2   1   2  832.53   15.07
  -2   1   2  842.06   14.62
  -2   1   2  847.92   14.59
  -2  -1  -2  836.93   14.22
   2  -1   2  828.06   15.14
   2  -1   2  857.20   11.18
   2   1  -2  821.63   10.36
   2   1  -2  839.36   15.48
  -2  -1  -2  833.27   14.56
  -2   1   2  832.00   16.77
   2  -1   1 3641.63   29.67
  -2  -1  -1 3782.99   31.07
   2  -1   1 3712.72   31.81
  -2   1   1 3776.17   30.97
  -2   1   1 3755.48   31.02
  -2   1   1 3784.31   29.43
   2   1  -1 3717.67   32.30
   2  -1   1 3763.27   21.14
  -2  -1  -1 3793.86   29.73
  -2   1   1 3696.27   31.46
  -2   1   1 3705.09   31.51
   2   1   0 1559.01   20.97
  -2   1   0 1477.02   16.69
   2  -1   0 1520.29   20.36
  -2   1   0 1575.30   19.88
  -2  -1   0 1581.72   20.06
  -2  -1   0 1528.44   19.68
  -2   1   0 1502.81   20.23
  -2   1   0 1553.80   20.04
   2  -1   0 1549.34   17.87
  -2   1   0 1507.00   18.90
   2  -1  -1 3721.65   31.78
  -2   1  -1 3753.51   31.01
  -2   1  -1 3717.03   20.74
  -2   1  -1 3630.02   19.70
  -2   1  -1 3704.76   31.21
  -2  -1   1 3783.68   31.27
  -2  -1   1 3634.10   17.70
   2   1   1 3722.47   30.83
   2  -1  -1 3705.24   32.84
   2   1   1 3887.11   33.01
  -2   1  -1 3644.52   31.43
  -2   1  -2  878.97   11.15
   2  -1  -2  829.22   15.15
   2   1   2  884.65   16.04
  -2  -1   2  836.48   18.80
  -2  -1   2  851.72   10.48
   2  -1  -2  838.33   14.19
  -2   1  -2  824.37   14.67
  -2   1  -2  823.16   15.21
   2  -1  -2  902.62   18.40
   2   1   2  847.80   14.69
  -2  -1   2  854.11   14.72
  -2   1  -2  856.52   14.81
   2  -1  -3 3552.70   31.64
  -2   1  -3 3706.65   30.29
  -2   1  -3 3651.10   32.02
   2   1   3 3508.17   31.30
  -2   1  -3 3665.23   30.45
  -2   1  -3 3620.33   25.42
   2  -1  -3 3590.06   31.52
  -2  -1   3 3572.45   41.88
  -2  -1   3 3552.62   24.88
  -2  -1   3 3557.71   29.83
   2  -1  -3 3483.28   40.02
   2  -1  -4  239.16   11.52
   2  -1  -4  224.46    7.93
  -2   1  -4  230.06    7.26
   2  -1  -4  235.36    8.72
  -2   1  -4  243.01    8.38
  -2   1  -4  230.55    7.55
  -2  -1   4  240.87    7.49
   2   1   4  220.74    8.59
  -2   1  -4  219.91    4.91
   2   1   4  235.04    8.23
   2   1   4  245.50    8.60
  -2  -1   4  240.47    7.76
  -2  -1   4  232.20   11.44
  -2   1  -5  381.42    9.60
  -2   1  -5  354.89    8.31
   2   1   5  361.36   11.38
   2   1   5  361.05   11.22
   2   1   5  376.04   10.59
  -2   1  -5  383.10   10.46
  -2   1  -5  351.30   11.94
   2  -1  -5  371.79   11.71
  -2  -1   5  367.87   10.31
  -2  -1   5  364.64    9.26
   2  -1  -5  352.03   15.12
  -2   1  -5  351.45   10.07
  -2   1  -6  485.04   14.76
   2  -1  -6  463.76   18.25
  -2  -1   6  456.90   15.23
  -2   1  -6  443.43   11.22
   2   1   6  474.65   13.79
   2  -1  -6  472.83   14.14
  -2   1  -6  461.25   10.33
  -2   1  -6  474.70   11.73
   2   1   6  453.63   11.61
  -2  -1   6  458.75   10.05
  -2  -1   7  112.16    8.15
   2  -1  -7  113.74    7.52
  -2   1  -7  113.36    5.63
   2  -1  -7  103.49    9.39
  -2   1  -7  122.30    8.03
  -2   1  -7  107.25    6.32
  -2   1  -7  107.19    4.78
   2   1   7  107.28    5.55
   2   1   7  113.70    7.18
  -2  -1   7  105.70    4.63
   2  -1  -8   11.48    3.93
   2  -1  -8   18.87    3.61
  -2  -1   8   24.88    4.61
  -2   1  -8   13.95    1.58
  -2   1  -8   20.21    3.73
  -2   1  -8   18.58    2.34
  -2   1  -8   18.28    3.20
   2   1   8   13.52    2.82
  -2  -1   8   16.39    1.75
   2   1   8   19.15    2.42
   2  -1  -9   37.56    6.58
  -2   1  -9   50.96    2.78
   2   1   9   60.37    6.10
  -2  -1   9   48.21    3.47
  -2  -1   9   48.87    2.58
  -2   1  -9   53.64    6.00
   2  -1  -9   49.29    5.72
   2   1   9   57.04    4.02
  -2   1  -9   55.93    3.87
  -2   1  -9   50.50    5.34
  -2  -1   9   50.70    2.68
  -2  -1   9   51.12    6.33
  -2  -1  10  209.88   12.48
   2  -1 -10  191.07   11.47
  -2  -1  10  200.16    4.50
   2   1  10  190.07    6.82
  -2   1 -10  199.10   11.83
  -2   1 -10  200.77    6.44
   2   1  10  194.76   11.43
  -2   1 -10  192.02   11.14
  -2  -1  10  191.97    6.19
   2  -1 -10  196.27   15.00
  -2  -1  10  190.08    4.54
  -2   1 -10  184.14    4.64
  -2   1 -11   12.37    3.89
   2  -1 -11   18.09    6.03
  -2  -1  11   18.85    4.82
   2   1  11   10.66    3.83
  -2  -1  11   14.93    1.55
   2  -1 -11    9.91    3.11
  -2  -1  11   12.16    0.98
  -2   1 -11   14.43    3.66
  -2   1 -11   16.78    1.20
  -2   1 -11   12.28    1.43
  -2  -1  12  176.95   12.34
   2  -1 -12  179.27   12.25
  -2   1 -12  170.21   12.01
   2   1  12  153.59   11.58
  -2   1 -12  176.91   12.08
   2  -1 -12  173.78   15.86
  -2   1 -13   33.46    5.99
   2  -1 -13   38.47    8.33
   2   1  13   44.36    7.02
   2  -1 -13   42.34    6.55
  -2  -1  13   41.10    6.97
  -2   1 -13   41.98    6.68
  -2   1 -14    6.76    3.17
   2  -1 -14    8.69    4.93
   2   1  14    5.52    3.36
  -2  -1  14   12.01    4.70
  -2   1 -14    5.93    3.58
   2  -1 -14    4.85    3.04
  -2  -1  15   11.41    4.33
   2  -1 -15   16.45    4.61
  -2   1 -15   13.08    4.30
   2   1  15   18.22    5.08
   2  -1 -15   15.67    6.56
  -2   1 -15   15.64    4.46
   2  -1 -16   11.79    6.01
  -2   1 -16   15.24    5.11
  -2  -1  16    9.34    3.69
   2   1  16   17.50    5.15
   2  -1 -16    4.61    2.94
   2  -1 -17    2.84    3.39
  -2  -1  17    4.77    3.40
   2   1  17    5.06    3.97
  -2   1 -17    4.37    3.28
   2  -1 -17   -1.30    2.51
  -2  -1  18   13.93    4.83
   2   1  18   11.88    4.59
   2  -1 -18   15.24    5.35
  -2   1 -18    9.95    4.32
   2  -1 -18   17.19    7.05
   2  -1 -19    1.60    3.96
   2  -2  19   18.08    6.01
   2   2 -19    7.28    4.01
   2  -2  18    5.57    3.25
   2   2 -18    4.39    3.22
  -2  -2 -18    4.89    4.09
  -2   2  18    9.32    4.43
  -2  -2 -17    2.04    2.97
   2  -2  17    5.66    3.20
  -2   2  17    9.29    4.00
  -2  -2 -17    2.54    2.68
   2   2 -17    8.27    4.01
   2   2 -16    0.19    2.80
   2  -2  16    4.64    3.07
  -2   2  16    0.48    2.76
  -2  -2 -16   -1.88    2.50
  -2  -2 -16    6.41    4.40
   2  -2  15   13.62    4.41
  -2   2  15   13.47    4.28
  -2  -2 -15    6.88    3.99
  -2  -2 -15    1.51    2.63
   2   2 -15    4.00    2.62
  -2  -2 -14   48.44    8.18
   2  -2  14   50.46    6.89
   2   2 -14   62.44    7.73
  -2   2  14   45.62    6.70
  -2  -2 -14   41.71    6.79
   2   2 -13  114.35    9.94
   2  -2  13  134.92   10.38
  -2  -2 -13  123.33   10.52
  -2   2  13  129.23   10.33
  -2  -2 -13  132.63   12.45
  -2  -2 -12  144.73   10.78
  -2   2  12  159.58   11.00
   2  -2  12  165.21   10.78
   2   2 -12  149.12   10.78
  -2  -2 -12  178.01   13.65
   2   2 -11  192.52    7.05
   2   2 -11  222.00   12.26
   2  -2  11  202.72   11.52
  -2   2  11  216.89    4.80
  -2  -2 -11  205.27   12.24
  -2   2  11  214.75   12.09
  -2  -2 -11  215.25   14.06
   2   2 -10  129.49    8.87
  -2  -2 -10  118.76    8.74
  -2   2  10  127.08    3.92
  -2  -2 -10  131.12    4.14
  -2   2  10  132.67    9.08
  -2  -2 -10  115.21    4.14
   2  -2  10  128.86    8.66
  -2   2  10  102.94    5.80
   2   2 -10  120.35    5.92
  -2  -2 -10  113.44   10.29
  -2  -2  -9  267.39    6.29
  -2   2   9  254.56   11.87
  -2  -2  -9  258.35   13.64
  -2  -2  -9  241.96   11.86
   2  -2   9  244.77   11.19
   2   2  -9  254.11    8.89
  -2  -2  -9  248.32    6.26
  -2   2   9  255.81    9.23
   2   2  -9  252.67   11.58
   2  -2   9  249.94   10.34
  -2   2   9  259.55    6.01
  -2   2   8  170.42    5.33
  -2   2   8  157.16    7.38
   2  -2   8  152.02    7.55
   2  -2   8  155.75    8.30
  -2  -2  -8  152.14    9.63
  -2  -2  -8  162.38    9.07
   2   2  -8  166.59    8.70
  -2  -2  -8  169.04    5.55
  -2  -2  -8  160.62    5.40
   2  -2   8  155.35    7.29
  -2   2   8  161.70    8.96
   2   2  -8  169.17    7.57
  -2   2   7  559.88   15.30
  -2   2   7  563.64   10.27
   2  -2   7  544.98   13.53
   2  -2   7  559.67   14.45
   2   2  -7  535.85   14.46
  -2  -2  -7  524.86   10.22
  -2  -2  -7  549.92   16.76
  -2  -2  -7  524.92   15.16
  -2  -2  -7  547.70   10.23
  -2   2   7  521.13   12.88
   2  -2   7  567.98   13.15
   2   2  -7  551.44   13.35
  -2   2   6  218.18    9.15
  -2   2   6  224.26    6.73
  -2  -2  -6  230.55    9.27
  -2  -2  -6  218.51    6.70
   2  -2   6  220.10    8.50
  -2  -2  -6  214.27    6.72
   2  -2   6  234.19    7.47
   2  -2   6  218.71    8.43
   2   2  -6  225.05    8.49
   2   2  -6  213.98    8.42
   2  -2   5  132.75    4.77
  -2   2   5  114.01    5.03
  -2   2   5  119.57    6.25
  -2  -2  -5  122.16    5.19
   2  -2   5  119.72    6.29
   2  -2   5  117.84    5.63
   2  -2   5  118.79    6.24
  -2  -2  -5  111.37    5.93
   2   2  -5  112.65    5.56
   2   2  -5  115.78    6.04
  -2   2   4  549.18   11.24
   2   2  -4  525.29   10.45
   2  -2   4  555.94   10.65
  -2   2   4  558.90   11.88
   2  -2   4  515.73   12.73
   2  -2   4  543.76   13.09
  -2  -2  -4  597.87   12.27
   2  -2   4  538.21    7.86
   2   2  -4  538.64   12.73
  -2  -2  -4  547.85   11.24
  -2   2   3  781.81   12.43
   2  -2   3  805.96   15.82
  -2   2   3  798.09   18.07
   2  -2   3  748.78   11.07
  -2   2   3  760.10   13.51
   2  -2   3  706.90   15.02
   2   2  -3  760.99   10.71
  -2   2   3  795.68   16.02
  -2  -2  -3  755.28   13.44
   2   2  -3  765.41   15.04
  -2  -2  -3  785.33   15.55
  -2  -2  -3  758.40   12.01
  -2   2   2  832.56   11.29
  -2  -2  -2  885.39   10.80
   2   2  -2  882.86    9.01
  -2   2   2  859.66   17.02
   2  -2   2  823.87   15.62
  -2   2   2  867.34   16.58
  -2   2   2  824.08   14.23
   2  -2   2  857.49   16.15
  -2  -2  -2  859.01   15.94
   2   2  -2  847.30   15.73
   2  -2   2  856.71    9.42
   2  -2   2  829.37    8.69
  -2  -2  -2  864.60   14.50
  -2  -2  -1 3408.25   31.43
   2  -2   1 3301.44   27.82
  -2   2   1 3333.61   28.59
   2  -2   1 3350.20   31.74
  -2  -2  -1 3390.01   15.51
   2   2  -1 3252.00   30.81
  -2   2   1 3318.53   29.60
  -2   2   1 3203.93   17.45
   2  -2   1 3379.38   22.73
  -2  -2  -1 3299.59   28.69
   2  -2   0  619.16   13.75
  -2   2   0  621.10   11.82
  -2  -2   0  607.91   12.74
  -2   2   0  627.77   12.49
   2   2   0  614.79   13.47
   2  -2   0  615.27   11.90
  -2  -2   0  615.59   12.43
  -2  -2   1 3269.08   28.26
   2  -2  -1 3315.61   31.51
   2  -2  -1 3265.19   31.33
  -2   2  -1 3237.61   28.33
   2   2   1 3243.37   29.37
   2   2   1 3191.10   30.59
   2  -2  -2  885.00   16.40
   2   2   2  880.26   11.25
  -2  -2   2  886.51    9.25
  -2   2  -2  845.87   14.39
  -2   2  -2  852.57    9.58
   2   2   2  844.82   16.44
   2   2   2  854.68   15.92
   2  -2  -2  872.43   18.38
  -2  -2   2  870.83   14.57
  -2   2  -3  800.49   13.85
   2   2   3  771.26   16.18
  -2   2  -3  815.86   11.77
   2  -2  -3  831.37   16.02
   2   2   3  770.85   12.57
  -2  -2   3  773.53   11.22
   2  -2  -3  776.40   15.32
   2  -2  -3  812.83   16.67
   2   2   3  750.56   15.05
   2  -2  -3  806.98   19.39
  -2  -2   3  772.93   13.60
   2   2   4  526.23   13.95
  -2  -2   4  545.10   10.97
   2  -2  -4  547.90   13.00
  -2  -2   4  536.55   11.14
   2  -2  -4  544.26   13.04
   2  -2  -4  529.23   17.24
   2   2   4  556.69   12.31
   2  -2  -4  540.73   14.43
  -2   2  -4  523.42   11.08
  -2   2  -4  575.24   11.40
   2   2   4  579.29   13.37
   2  -2  -4  529.71   12.67
  -2   2  -5  116.94    5.89
   2  -2  -5  113.08    6.14
   2  -2  -5  123.72    6.88
  -2  -2   5  127.98    6.06
   2  -2  -5  115.52    7.11
   2   2   5  121.20    7.26
   2  -2  -5  128.26    9.43
   2  -2  -5  111.14    5.97
   2   2   5  115.60    6.25
   2   2   5  115.39    6.10
  -2   2  -5  106.33    4.92
  -2  -2   5  114.33    4.95
  -2  -2   6  218.31    6.74
   2   2   6  218.38   10.15
   2  -2  -6  230.15   10.53
  -2   2  -6  221.83    6.86
  -2  -2   6  219.29    6.61
  -2   2  -6  207.20    8.23
   2  -2  -6  217.39    8.39
   2   2   6  222.95    8.58
   2  -2  -6  235.45   13.44
  -2   2  -7  542.91   10.23
  -2   2  -7  533.93   17.40
   2  -2  -7  563.68   17.28
   2   2   7  588.25   14.05
  -2  -2   7  552.53   10.00
  -2  -2   7  553.26   10.30
  -2  -2   7  566.14   18.63
  -2   2  -7  576.68   13.94
   2  -2  -7  550.80   13.46
   2  -2  -7  531.03   21.26
   2   2   7  554.22   16.65
  -2   2  -8  152.12    5.11
  -2  -2   8  166.77   10.48
  -2   2  -8  160.93    9.89
  -2  -2   8  165.60    5.38
   2  -2  -8  162.90    9.82
  -2  -2   8  147.55    5.10
   2   2   8  160.90    9.52
   2   2   8  170.60    7.85
  -2   2  -8  166.07    7.65
   2  -2  -8  159.33    7.24
   2  -2  -8  166.00   12.87
  -2   2  -9  253.36    6.16
   2   2   9  265.95   12.68
  -2   2  -9  270.15   13.57
  -2  -2   9  245.26   13.33
   2  -2  -9  299.30   17.85
  -2  -2   9  253.18    5.99
  -2  -2   9  246.03    6.12
   2  -2  -9  255.70   12.76
  -2   2  -9  277.33    9.71
   2   2   9  256.41    9.43
   2  -2 -10  123.72    9.47
   2  -2 -10  101.33   11.55
  -2   2 -10  134.86   10.15
  -2  -2  10  115.03    3.96
  -2  -2  10  132.80    3.98
   2   2  10  136.38    9.92
  -2   2 -10  130.49    6.35
   2   2  10  125.52    6.34
  -2   2 -10  123.34    4.05
  -2  -2  10  146.46   10.78
   2   2  11  210.33   12.50
  -2   2 -11  210.72   12.05
  -2   2 -11  217.30   13.34
   2  -2 -11  192.28   12.36
   2   2  11  215.45    7.99
  -2   2 -11  209.03    4.85
  -2  -2  11  206.88   13.22
   2  -2 -11  212.25   16.87
   2  -2 -12  154.08   14.91
  -2  -2  12  159.08   12.07
   2   2  12  148.69   11.40
  -2   2 -12  143.97   10.46
   2  -2 -12  159.34   11.76
  -2   2 -12  133.23   11.01
  -2  -2  13  123.54   11.05
   2  -2 -13  117.31   10.65
   2   2  13  124.20   10.83
   2  -2 -13  121.11   14.04
  -2   2 -13  114.76   10.51
   2  -2 -14   48.00    9.51
  -2  -2  14   52.70    7.96
   2   2  14   53.56    7.62
  -2   2 -14   41.95    6.71
   2  -2 -14   54.12    7.74
   2  -2 -15   10.45    6.08
   2   2  15    5.49    3.71
   2  -2 -15   18.41    5.56
  -2  -2  15   14.03    5.05
  -2   2 -15    5.27    3.46
   2  -2 -16    0.93    3.91
  -2  -2  16   -0.28    2.46
   2   2  16   -1.11    3.30
  -2   2 -16    3.83    2.93
   2  -2 -16    3.74    2.95
   2  -2 -17    7.67    5.83
  -2  -2  17    0.46    3.59
   2   2  17    3.80    3.50
  -2   2 -17    4.29    3.86
   2  -2 -17    8.04    4.25
   2  -2 -18    9.60    5.35
  -2  -2  18    9.82    4.72
  -2   2 -18    8.56    4.37
   2   2  18    3.91    3.22
   2  -2 -18    9.48    4.60
   2  -2 -19    8.38    5.60
   2  -3  19    5.62    3.79
   2   3 -19   -1.65    2.35
   2  -3  18   10.95    4.22
  -2  -3 -18    7.17    4.55
  -2   3  18   11.32    4.73
  -2  -3 -18   11.63    4.99
   2   3 -18    7.74    3.87
  -2   3  17   -2.18    2.48
   2  -3  17    3.18    2.88
  -2  -3 -17   -3.44    4.06
   2   3 -17    3.07    2.87
  -2  -3 -17    4.02    3.63
  -2  -3 -16    5.36    4.40
  -2   3  16   17.39    5.24
   2  -3  16   10.48    4.12
   2   3 -16   13.54    4.52
  -2  -3 -16    9.82    3.79
  -2   3  15    8.65    3.65
  -2  -3 -15   23.61    6.63
  -2  -3 -15   14.28    4.57
   2  -3  15   13.43    4.48
   2   3 -15   16.06    4.51
   2  -3  14   28.90    5.64
  -2  -3 -14   40.01    7.76
  -2   3  14   31.54    5.58
   2   3 -14   30.96    5.69
  -2  -3 -14   25.19    5.50
  -2   3  13   22.59    4.68
  -2  -3 -13   19.62    5.19
   2  -3  13   21.63    4.52
   2   3 -13   16.19    4.17
  -2  -3 -12   39.47    7.15
  -2   3  12   50.32    6.35
   2   3 -12   51.47    6.37
  -2  -3 -12   47.93    6.49
   2  -3  12   45.83    5.87
  -2   3  11  402.39   16.31
   2  -3  11  394.02   12.44
   2   3 -11  407.81   12.56
  -2  -3 -11  396.69   19.78
   2   3 -11  396.74   16.28
  -2  -3 -11  387.50   16.79
   2  -3  11  397.10   15.79
  -2   3  11  383.59    7.75
  -2  -3 -10    7.93    4.12
   2   3 -10    6.92    2.74
   2  -3  10    4.52    1.83
  -2   3  10    4.38    1.10
   2   3 -10    7.28    2.07
  -2  -3 -10    8.40    3.37
   2  -3  10    2.36    2.08
  -2   3  10    5.50    2.74
  -2  -3 -10    3.57    0.99
  -2  -3  -9    2.39    2.74
  -2  -3  -9    1.38    0.86
  -2   3   9    1.56    0.93
   2   3  -9   -0.41    1.05
  -2   3   9   -0.64    1.90
   2  -3   9    1.14    1.77
  -2  -3  -9    3.26    1.22
   2  -3   9    1.77    1.29
   2  -3   9   -2.06    1.65
   2   3  -9   -0.59    1.63
  -2  -3  -9    3.85    2.61
   2  -3   8  251.93   10.03
   2   3  -8  248.99    9.68
   2  -3   8  255.69   10.50
  -2  -3  -8  259.42   11.60
  -2  -3  -8  243.10    6.68
  -2   3   8  249.88    6.70
   2   3  -8  258.62   10.77
  -2   3   8  251.50   10.76
  -2  -3  -8  257.57   12.99
   2  -3   8  241.04    9.96
  -2  -3  -8  251.85    7.12
   2  -3   7  179.76    8.27
  -2   3   7  182.93    8.65
   2  -3   7  193.73    8.48
   2   3  -7  184.92    8.47
  -2  -3  -7  197.43    6.23
  -2  -3  -7  190.76    9.35
   2   3  -7  183.17    8.27
   2  -3   7  168.37    7.94
  -2   3   7  181.19    5.95
  -2   3   6   44.74    3.97
  -2  -3  -6   53.01    3.38
  -2   3   6   56.19    3.48
   2   3  -6   47.95    4.01
  -2  -3  -6   50.06    4.54
   2  -3   6   48.55    3.98
   2   3  -6   49.66    4.35
   2  -3   6   49.64    4.10
   2  -3   5  203.17    7.21
  -2   3   5  193.53    6.57
  -2   3   5  194.61    7.47
  -2  -3  -5  211.02    7.02
   2  -3   5  215.20    7.60
  -2  -3  -5  204.45    8.12
   2   3  -5  197.81    7.24
   2   3  -5  195.87    8.18
  -2   3   4  734.94   12.93
   2   3  -4  710.87   15.48
  -2  -3  -4  709.04   13.73
  -2  -3  -4  721.65   12.92
   2  -3   4  697.23   11.67
   2   3  -4  677.09   11.91
  -2   3   4  711.03   12.70
  -2   3   3  169.13    6.39
   2   3  -3  155.86    4.98
   2  -3   3  169.19    4.89
  -2  -3  -3  160.87    6.14
   2   3  -3  174.68    7.60
  -2   3   3  177.37    5.49
  -2  -3  -3  171.28    6.02
  -2   3   2  740.12    9.44
  -2   3   2  742.66   13.35
   2   3  -2  775.28    8.56
  -2  -3  -2  738.06   13.34
   2   3  -2  749.45   15.63
   2  -3   2  792.41    7.93
  -2  -3  -2  788.65   10.85
   2  -3   1 1570.37   19.39
  -2   3   1 1713.74   20.45
   2   3  -1 1670.03   23.22
  -2  -3  -1 1686.81   20.04
  -2  -3  -1 1673.59   12.33
  -2   3   0  121.76    5.58
  -2  -3   0  129.49    5.94
   2   3   0  120.45    6.33
  -2  -3   0  127.32    5.60
  -2   3   0  116.76    4.94
   2  -3   0  128.37    6.04
  -2   3  -1 1673.83   20.32
   2   3   1 1706.41   21.87
  -2  -3   1 1682.02   21.87
   2   3   1 1772.18   23.84
   2   3   1 1750.03   12.25
  -2  -3   1 1711.78   20.12
   2  -3  -1 1744.55   24.49
  -2   3  -2  774.01   13.73
   2   3   2  764.46   14.98
   2   3   2  767.27   10.54
  -2  -3   2  739.36   13.18
   2  -3  -2  730.04   10.71
   2   3   2  753.74   15.76
   2  -3  -2  774.10   17.97
  -2   3  -3  177.09    6.51
  -2   3  -3  182.53    5.65
   2   3   3  170.81    8.20
  -2  -3   3  172.53    6.32
   2   3   3  174.41    6.01
   2  -3  -3  167.80    6.16
   2   3   3  162.54    7.34
   2  -3  -3  165.64    9.36
  -2   3  -4  739.12   13.40
  -2  -3   4  721.53   12.67
   2  -3  -4  712.81   14.44
   2  -3  -4  714.29   17.92
   2   3   4  721.56   14.07
   2   3   4  707.58   17.47
   2  -3  -4  719.41   20.61
   2   3   4  692.77   15.34
  -2   3  -4  695.20   12.81
  -2   3  -5  189.40    6.58
   2   3   5  198.66    9.64
   2   3   5  204.38    8.32
  -2  -3   5  198.88    6.68
   2  -3  -5  202.48   10.21
   2  -3  -5  194.20    8.34
  -2   3  -5  206.16    8.07
   2   3   5  198.34    8.35
   2  -3  -5  202.24   11.79
  -2   3  -6   40.83    3.11
   2   3   6   55.60    5.64
   2  -3  -6   51.92    5.59
   2  -3  -6   56.84    7.16
  -2  -3   6   48.61    3.18
   2   3   6   45.06    4.11
   2   3   7  180.11    8.30
   2  -3  -7  179.73   10.48
   2   3   7  196.46   10.47
   2  -3  -7  179.10    8.23
  -2  -3   7  185.57    5.91
   2  -3  -7  178.53    8.14
  -2   3  -7  179.19    6.01
   2  -3  -7  194.54   13.22
   2   3   8  237.86   12.08
   2  -3  -8  235.75    9.51
  -2  -3   8  239.57   13.14
  -2   3  -8  252.50    6.79
   2  -3  -8  243.82    9.74
   2  -3  -8  272.96   13.49
  -2   3  -8  248.84   12.87
  -2  -3   8  253.82    6.69
   2   3   8  245.27    9.79
   2  -3  -8  244.91   15.69
  -2   3  -9    2.55    1.38
   2  -3  -9   -1.89    1.51
  -2   3  -9    0.51    0.93
  -2  -3   9   -0.83    2.59
   2  -3  -9    0.28    2.17
   2   3   9   -0.28    1.09
  -2   3  -9   -1.46    2.04
   2  -3  -9    0.05    1.25
   2  -3  -9    2.29    3.50
   2   3   9    0.49    2.30
  -2   3 -10    4.39    1.69
  -2  -3  10    4.83    1.08
   2   3  10    5.01    1.74
  -2  -3  10    3.76    3.21
   2   3  10    1.92    2.56
   2  -3 -10    6.41    4.86
   2  -3 -10    2.86    1.59
  -2   3 -10    8.85    1.38
  -2   3 -10    8.21    3.35
   2  -3 -10    4.67    2.45
   2   3  11  374.84   12.67
  -2  -3  11  428.09   19.33
  -2   3 -11  400.79    7.92
  -2   3 -11  417.97   18.93
   2  -3 -11  383.20   18.02
   2  -3 -11  398.41   12.36
   2   3  11  398.49   17.62
   2  -3 -11  401.01   23.19
   2  -3 -12   46.27    9.25
   2   3  12   55.61    7.35
  -2  -3  12   55.44    7.73
  -2   3 -12   49.13    2.79
  -2   3 -12   44.31    6.77
   2  -3 -12   46.00    6.84
   2  -3 -13   28.83    7.38
   2  -3 -13   24.68    5.35
   2   3  13   20.51    4.97
  -2  -3  13   25.06    5.72
  -2   3 -13   23.34    5.46
   2  -3 -14   25.96    7.64
   2   3  14   24.66    5.45
  -2   3 -14   28.56    6.06
   2  -3 -14   27.69    5.89
  -2  -3  14   31.24    6.37
   2  -3 -15   12.53    5.36
   2   3  15   17.00    4.94
  -2  -3  15   13.98    4.86
  -2   3 -15   11.47    4.10
   2  -3 -15   21.95    5.64
  -2   3 -16    7.82    3.26
   2  -3 -16   13.09    5.89
   2   3  16    8.04    4.03
   2  -3 -16   10.66    4.55
  -2  -3  16   10.80    4.74
   2  -3 -17   -0.40    3.23
  -2  -3  17    9.22    4.33
   2   3  17    2.19    3.19
   2  -3 -17    2.25    2.89
  -2   3 -17    3.67    3.39
   2  -3 -18   17.12    6.74
  -2   3 -18    7.45    4.52
  -2  -3  18    4.79    3.88
   2   3  18   10.72    4.77
   2  -3 -18   10.20    4.98
   2   4 -19   -1.09    2.81
  -2   4  18   13.01    5.15
   2  -4  18    8.20    4.18
   2   4 -18   11.41    4.63
  -2  -4 -18    2.76    3.61
  -2  -4 -18   12.25    4.64
  -2  -4 -17    8.16    4.58
   2  -4  17   18.38    5.37
  -2  -4 -17    6.54    3.32
   2   4 -17   12.04    4.53
  -2   4  17    4.28    3.06
  -2  -4 -16   14.69    5.90
  -2   4  16   18.66    4.99
   2  -4  16   12.12    4.24
  -2  -4 -16    4.10    2.88
   2   4 -16    5.89    3.12
  -2  -4 -15    9.46    4.63
   2  -4  15    5.31    3.43
  -2   4  15    2.35    2.36
   2   4 -15   10.13    3.87
  -2  -4 -15    3.80    3.14
  -2  -4 -14   86.57   11.19
  -2  -4 -14   71.85    8.94
   2  -4  14   80.40    8.52
   2   4 -14   86.73    8.99
  -2   4  14   77.27    8.74
  -2  -4 -13   27.81    6.94
  -2   4  13   27.19    5.12
   2   4 -13   24.32    4.85
  -2  -4 -13   26.14    5.30
   2  -4  13   26.81    4.86
  -2   4  12   22.56    4.64
  -2  -4 -12   16.57    5.04
  -2  -4 -12   18.78    4.39
   2   4 -12   16.49    3.96
   2  -4  12   17.57    4.01
   2  -4  11   97.33    6.90
  -2  -4 -11  108.30   11.07
  -2   4  11   98.30    8.38
   2   4 -11  107.11    8.63
   2  -4  11  100.19    8.22
  -2  -4 -11   97.28    8.92
  -2   4  11   98.91    4.60
   2   4 -11   96.19    6.71
  -2  -4 -10   63.90    8.06
   2   4 -10   68.68    5.68
   2  -4  10   60.88    6.00
   2   4 -10   55.64    5.97
  -2  -4 -10   52.85    6.36
   2  -4  10   59.39    5.51
  -2   4  10   60.09    3.65
  -2   4  10   58.48    6.24
   2  -4   9    1.46    1.44
  -2   4   9    5.39    1.30
  -2  -4  -9   12.80    4.25
  -2   4   9    4.04    2.29
   2   4  -9    4.65    1.89
   2  -4   9    6.94    2.55
  -2  -4  -9   12.17    3.36
   2   4  -9    7.87    2.56
  -2   4   8  159.79    8.73
   2  -4   8  180.52    8.89
  -2  -4  -8  156.42    9.40
   2   4  -8  172.29    8.93
   2   4  -8  162.28    8.42
  -2  -4  -8  163.13   11.15
  -2   4   8  172.02    6.10
   2  -4   8  164.37    9.32
  -2   4   7  396.54   12.78
   2  -4   7  447.12   12.93
   2   4  -7  413.00   12.90
  -2  -4  -7  376.45   13.56
  -2  -4  -7  415.38    9.58
   2  -4   7  385.54   13.27
  -2   4   7  431.76    9.67
   2   4  -7  409.87   13.01
  -2   4   6   91.02    5.73
   2   4  -6   85.80    6.03
   2  -4   6   95.87    5.66
  -2  -4  -6   95.09    6.46
  -2  -4  -6   99.77    4.79
  -2   4   6   93.84    4.67
   2  -4   6   84.14    6.02
   2   4  -6   91.08    5.71
   2   4  -5  259.94    8.69
   2  -4   5  269.86    8.35
  -2   4   5  263.07    8.82
  -2  -4  -5  269.10    9.83
  -2  -4  -5  255.20    7.74
   2   4  -5  255.24    9.99
  -2   4   5  272.95    7.89
  -2   4   4  207.73    7.23
   2   4  -4  218.16    7.12
  -2  -4  -4  218.01    8.02
  -2  -4  -4  216.15    7.23
   2  -4   4  211.26    6.57
   2   4  -4  210.42    8.93
  -2   4   4  197.71    6.91
   2  -4   3  168.23    4.86
  -2  -4  -3  155.38    6.22
  -2   4   3  164.77    5.59
   2   4  -3  166.37    5.60
  -2   4   3  184.62    6.76
  -2  -4  -3  180.44    6.64
   2   4  -3  152.28    7.66
  -2   4   2  101.34    5.09
   2   4  -2  104.91    3.92
   2  -4   2  104.34    2.87
   2  -4   2   93.77    4.83
  -2  -4  -2  105.48    4.47
  -2  -4  -2  100.12    5.08
  -2   4   2  104.94    3.77
   2   4  -2  106.69    6.39
  -2   4   1 1617.56   19.00
  -2  -4  -1 1752.23   20.98
  -2   4   1 1684.68   20.65
   2  -4   1 1760.62   19.78
   2   4  -1 1641.34   24.78
  -2   4   0   41.72    3.65
   2   4   0   49.23    2.25
  -2  -4   0   52.48    3.75
  -2  -4   0   48.49    3.67
   2   4   0   46.96    4.45
  -2   4  -1 1661.75   20.69
   2   4   1 1577.92   24.93
   2  -4  -1 1647.15   11.40
   2   4   1 1647.29   14.97
  -2  -4   1 1752.27   20.93
  -2  -4   1 1605.17   22.11
   2   4   1 1665.91   21.87
   2   4   2   98.99    5.58
  -2   4  -2   98.85    5.06
   2  -4  -2  101.08    3.90
  -2  -4   2   95.08    4.94
   2  -4  -2   93.98    6.85
   2   4   2   97.14    6.17
   2   4   2  104.31    4.34
   2   4   3  186.25    6.67
  -2  -4   3  166.71    6.41
   2  -4  -3  170.40    6.14
   2  -4  -3  175.89   10.08
   2   4   3  167.45    8.03
  -2   4  -3  178.40    6.65
   2  -4  -4  221.19    7.94
   2   4   4  226.37    8.20
   2  -4  -4  191.94   10.08
   2   4   4  206.43   10.12
  -2  -4   4  214.40    7.15
   2  -4  -4  226.80   12.15
   2   4   4  194.73    8.75
  -2   4  -4  198.27    7.02
   2  -4  -5  268.62    9.76
   2  -4  -5  261.17   14.02
   2   4   5  278.67   12.24
  -2  -4   5  267.68    7.83
   2  -4  -5  252.61   12.01
   2   4   5  253.01   10.16
  -2   4  -5  274.91    7.93
   2   4   6   97.30    7.53
  -2  -4   6   96.16    4.69
   2   4   6   93.13    6.25
   2  -4  -6  100.30    7.91
   2  -4  -6   97.70    9.33
  -2   4  -6   97.15    4.75
   2  -4  -7  421.64   19.94
  -2  -4   7  420.93    9.46
   2  -4  -7  421.40   16.83
  -2   4  -7  429.25    9.74
   2   4   7  405.47   13.13
   2   4   7  409.30   15.86
  -2  -4   8  164.09   11.42
   2   4   8  161.45   10.50
  -2   4  -8  171.66   11.35
   2  -4  -8  177.65   11.49
  -2   4  -8  177.89    6.25
   2   4   8  162.60    8.52
   2  -4  -8  168.17   13.37
  -2   4  -9    7.11    1.49
   2  -4  -9    6.13    4.34
  -2  -4   9    2.76    2.71
   2   4   9    6.30    2.15
   2   4   9    8.11    3.54
  -2   4  -9    4.71    2.77
   2  -4  -9    6.93    2.91
  -2  -4  10   68.51    7.98
   2  -4 -10   51.55    8.71
  -2   4 -10   61.38    3.71
  -2   4 -10   64.73    7.73
   2  -4 -10   61.00    5.47
   2  -4 -10   65.28    7.72
   2   4  10   57.04    7.04
   2   4  10   60.99    5.47
   2   4  11   97.10    9.12
   2  -4 -11   94.03    9.54
  -2   4 -11  101.27    4.72
  -2  -4  11   97.50    9.88
  -2   4 -11   96.42    9.60
   2  -4 -11   93.66    6.64
   2   4  11  101.54    7.04
   2  -4 -11  104.06   12.33
   2  -4 -12   13.70    5.50
   2   4  12   22.20    5.03
  -2  -4  12   21.58    5.40
  -2   4 -12   17.10    4.86
  -2   4 -12   23.43    2.37
   2  -4 -12   18.94    4.69
   2  -4 -13   22.17    7.01
  -2   4 -13   29.99    6.09
  -2  -4  13   29.77    5.92
   2   4  13   17.30    4.67
   2  -4 -13   28.55    6.35
   2  -4 -14   94.32   13.43
   2   4  14   76.45    9.08
   2  -4 -14   79.17    9.64
  -2   4 -14   84.82    9.91
  -2  -4  14   84.95    9.98
   2  -4 -15    2.45    3.69
   2  -4 -15    2.71    2.75
  -2  -4  15    3.56    3.07
   2   4  15    3.43    2.62
  -2   4 -15    2.01    2.97
   2  -4 -16    9.06    4.68
  -2  -4  16   11.78    4.13
  -2   4 -16   16.44    5.41
   2  -4 -16   25.27    6.25
   2   4  16   14.72    4.66
   2  -4 -17   17.69    7.32
  -2   4 -17    4.10    3.29
   2  -4 -17   12.05    4.78
   2   4  17    6.42    3.98
  -2  -4  17    6.76    4.36
   2  -4 -18   12.90    6.54
  -2  -4  18   15.06    5.67
  -2  -5 -18    3.68    4.14
   2  -5  18    7.03    3.88
   2   5 -18    6.44    3.89
  -2  -5 -17    5.67    4.85
   2  -5  17    0.57    2.52
  -2   5  17    8.57    4.51
   2   5 -17   11.54    4.66
  -2  -5 -17    1.70    3.06
  -2  -5 -16    5.23    4.03
   2  -5  16    1.86    2.98
  -2  -5 -16    4.70    2.96
  -2   5  16   -0.94    2.70
   2   5 -16    7.68    3.78
  -2  -5 -15   18.08    5.99
  -2  -5 -15   22.26    5.49
  -2   5  15   24.17    5.59
   2  -5  15   21.22    4.86
   2   5 -15   21.88    5.24
  -2  -5 -14    4.69    4.42
  -2   5  14    2.58    3.02
   2  -5  14    3.05    2.84
  -2  -5 -14    0.65    2.47
   2   5 -14    3.09    2.86
  -2  -5 -13    6.39    4.18
  -2   5  13   14.87    4.18
   2  -5  13   13.32    3.69
   2   5 -13    9.95    3.39
  -2  -5 -13   11.78    3.88
  -2  -5 -12   10.43    4.79
  -2   5  12   13.25    3.98
   2  -5  12   13.89    3.55
  -2  -5 -12   10.33    3.21
   2   5 -12    8.14    3.16
   2  -5  11   15.48    3.35
  -2  -5 -11   17.71    5.46
   2   5 -11   20.88    3.61
  -2   5  11   18.12    2.35
   2  -5  11   19.96    4.03
   2   5 -11   21.82    4.22
  -2   5  11   19.66    4.34
  -2  -5 -11   11.74    3.37
   2  -5  10   54.87    5.70
  -2  -5 -10   51.17    7.74
  -2  -5 -10   38.30    5.54
   2   5 -10   46.37    5.46
  -2   5  10   52.92    3.83
   2   5 -10   48.50    5.28
  -2   5  10   41.62    5.43
   2  -5   9   93.66    7.15
  -2   5   9   95.20    7.57
  -2  -5  -9   98.77    8.17
   2   5  -9   90.74    7.11
  -2  -5  -9   83.50    9.06
  -2   5   9   95.79    5.10
   2   5  -9   90.64    6.95
   2  -5   8  234.10   10.42
  -2   5   8  242.47   11.13
  -2  -5  -8  243.17   11.90
   2   5  -8  264.11   11.40
  -2   5   8  244.93    8.03
   2   5  -8  223.68   10.53
   2  -5   7  130.08    8.54
   2   5  -7  119.44    7.30
  -2   5   7  135.80    7.92
  -2  -5  -7  130.80    8.32
   2  -5   7  127.88    7.11
  -2   5   7  126.98    5.91
   2   5  -7  134.04    8.02
  -2   5   6  303.49   10.80
   2  -5   6  293.61    9.91
   2   5  -6  284.71   10.37
  -2  -5  -6  314.36   12.03
  -2   5   6  310.32    9.05
   2   5  -6  295.02   11.73
   2  -5   5  685.90   13.74
  -2  -5  -5  675.55   13.27
  -2  -5  -5  704.84   16.72
  -2   5   5  694.46   14.95
   2   5  -5  662.60   14.71
  -2   5   5  669.18   13.39
   2   5  -5  649.69   17.13
  -2   5   4  360.13    9.84
   2   5  -4  354.87    9.83
   2  -5   4  306.94    8.45
  -2  -5  -4  346.11    9.61
  -2  -5  -4  360.28   11.06
   2   5  -4  340.70   12.19
  -2   5   4  376.60    9.97
  -2   5   3  435.49    9.75
  -2  -5  -3  412.48   10.43
   2   5  -3  401.23    9.71
   2  -5   3  410.98    8.31
  -2  -5  -3  418.83   11.02
  -2   5   3  427.68   10.69
   2   5  -3  417.67   13.58
   2  -5   2   34.16    2.89
  -2   5   2   33.65    2.42
   2  -5   2   33.57    2.03
  -2  -5  -2   33.83    3.25
   2   5  -2   33.05    3.90
  -2   5   2   41.92    3.50
  -2  -5  -1  527.22   11.97
  -2   5   1  540.30    9.90
   2   5  -1  523.71   15.07
   2   5  -1  492.87    9.39
  -2   5   1  546.81   12.16
   2   5   0   96.58    4.06
  -2  -5   0   85.89    4.91
   2   5   0   90.79    6.39
  -2   5   0  100.57    5.30
  -2  -5   1  547.84   12.20
   2   5   1  540.77   10.19
  -2  -5   1  555.78   13.03
   2  -5  -1  558.56    7.45
  -2   5  -1  557.69   12.21
   2   5   1  545.80   15.32
   2   5   2   31.87    2.73
   2  -5  -2   39.32    4.99
   2  -5  -2   40.53    2.68
  -2  -5   2   31.53    3.13
   2   5   2   35.63    3.43
  -2   5  -2   35.36    3.34
   2   5   2   38.05    4.43
  -2  -5   3  405.37   10.36
   2  -5  -3  445.01    9.95
   2   5   3  419.47   10.72
   2   5   3  427.90   12.18
  -2   5  -3  437.53   10.84
   2  -5  -3  407.40   15.84
   2   5   3  412.98   13.57
   2  -5  -4  371.68   10.31
   2   5   4  366.48   10.91
  -2  -5   4  338.12    9.45
  -2   5  -4  372.08    9.95
   2   5   4  348.22   14.10
   2  -5  -4  343.51   15.69
   2   5   4  348.24   12.74
  -2  -5   5  685.97   13.17
  -2   5  -5  733.19   13.95
   2   5   5  660.17   19.94
   2  -5  -5  657.49   22.74
   2   5   5  692.20   18.01
  -2   5  -6  298.03    8.97
   2   5   6  303.27   13.86
   2  -5  -6  289.49   14.22
   2  -5  -6  300.34   16.54
   2   5   6  310.50   12.10
   2   5   7  134.27    9.76
   2  -5  -7  116.32    9.32
   2  -5  -7  127.60   11.58
  -2   5  -7  115.79    5.61
   2   5   7  129.16    8.01
   2  -5  -8  230.05   13.54
  -2   5  -8  239.44    7.98
   2  -5  -8  221.47   15.74
   2   5   8  234.33   10.92
   2   5   8  246.37   13.42
  -2   5  -9  101.80    5.29
   2  -5  -9   86.09   10.82
   2  -5  -9   94.77    9.30
   2   5   9   92.76    8.90
  -2  -5   9   86.13    8.95
   2   5   9   92.66    6.98
  -2   5  -9   96.16    9.21
   2  -5 -10   46.86    6.93
   2  -5 -10   41.44    8.43
  -2  -5  10   52.68    7.34
   2   5  10   50.53    5.36
  -2   5 -10   55.81    7.21
   2   5  10   48.36    6.75
  -2   5 -10   46.00    3.60
   2   5  11   10.83    3.82
   2  -5 -11   16.10    5.51
  -2  -5  11   15.26    4.49
   2   5  11   14.60    3.16
   2  -5 -11   19.06    3.40
   2  -5 -11   13.66    4.07
  -2   5 -11   15.73    2.22
  -2   5 -11   10.60    3.80
   2  -5 -12    3.11    4.26
  -2  -5  12   17.29    5.10
   2   5  12   20.95    5.37
   2   5  12   10.34    2.61
  -2   5 -12    7.18    3.33
   2  -5 -12   14.57    4.71
  -2   5 -12   15.43    2.25
  -2  -5  13   12.01    4.54
   2  -5 -13   16.07    6.00
   2   5  13   15.86    4.66
  -2   5 -13    8.54    3.62
   2  -5 -13   10.99    4.13
   2  -5 -14    2.75    4.19
  -2  -5  14    3.25    3.43
  -2   5 -14   -1.20    2.56
   2   5  14    3.13    3.26
   2  -5 -14    8.10    4.53
   2  -5 -15   20.42    7.41
   2  -5 -15   30.37    6.63
  -2  -5  15   26.55    6.26
   2   5  15   25.83    5.82
  -2   5 -15   20.43    5.83
   2  -5 -16   -0.76    4.26
  -2  -5  16   -2.70    3.91
  -2   5 -16   -0.40    2.87
   2   5  16    3.30    3.85
   2  -5 -16   11.99    4.80
   2  -5 -17   -5.42    5.09
   2   5  17   -0.88    3.10
  -2  -5  17    7.04    4.08
  -2   5 -17    6.51    3.90
   2  -5 -17    9.96    4.11
   2  -6  18    3.21    3.43
   2   6 -18    1.51    2.64
   2  -6  17    9.11    3.77
  -2   6  17   10.45    4.51
   2   6 -17    9.89    3.83
  -2  -6 -17    9.11    4.21
  -2  -6 -16    1.26    4.07
  -2   6  16    7.75    3.68
   2  -6  16   -1.33    2.88
   2   6 -16    0.58    2.08
  -2  -6 -16    0.96    2.49
  -2  -6 -15    2.29    4.37
   2  -6  15    1.09    2.11
  -2   6  15    1.63    2.75
  -2  -6 -15   -1.05    2.36
   2   6 -15    0.19    1.99
  -2  -6 -14   29.66    7.49
   2  -6  14   30.24    5.47
  -2   6  14   29.70    5.81
   2   6 -14   23.62    5.07
  -2  -6 -14   27.31    5.70
  -2  -6 -13    8.34    4.99
  -2   6  13    8.32    3.45
   2  -6  13    4.57    2.58
   2   6 -13    3.27    2.15
  -2  -6 -13   10.73    3.81
  -2  -6 -12   23.46    6.38
  -2   6  12   25.58    4.95
   2  -6  12   19.23    4.12
   2   6 -12   27.81    5.00
  -2  -6 -12   14.18    4.18
  -2   6  11   39.75    5.63
  -2  -6 -11   45.76    7.93
   2   6 -11   43.87    5.82
   2   6 -11   32.88    4.81
  -2   6  11   44.07    4.00
  -2  -6 -11   39.23    6.05
   2  -6  11   34.19    5.01
  -2  -6 -10    9.19    4.12
   2   6 -10    3.54    1.77
   2  -6  10    6.48    2.39
  -2   6  10    2.42    1.82
  -2   6  10    6.32    1.76
   2   6 -10    5.27    2.53
  -2  -6 -10    6.72    2.98
  -2  -6  -9   52.38    7.59
   2   6  -9   36.35    4.80
  -2   6   9   43.52    5.29
   2  -6   9   46.44    5.23
  -2  -6  -9   48.44    6.09
  -2   6   9   44.67    3.89
   2   6  -9   44.08    5.19
   2  -6   8  252.96   10.99
  -2   6   8  252.66   11.60
  -2   6   8  263.29    9.19
   2   6  -8  252.53   11.61
  -2  -6  -8  273.37   13.31
   2   6  -8  246.11   11.78
   2  -6   7    6.92    2.13
  -2   6   7    8.65    2.09
   2   6  -7    5.21    2.08
   2   6  -7    5.53    2.23
  -2   6   7    6.13    2.00
  -2  -6  -7    7.09    2.59
  -2   6   6   42.34    4.32
   2  -6   6   51.66    4.64
  -2  -6  -6   46.84    4.96
   2   6  -6   46.01    4.47
  -2   6   6   48.01    4.05
   2   6  -6   42.40    5.08
  -2   6   5  121.09    6.68
   2   6  -5  107.62    6.34
   2  -6   5  118.40    6.14
  -2  -6  -5  109.20    7.06
  -2   6   5  120.30    6.27
   2   6  -5  122.00    8.11
  -2   6   4  110.06    5.89
   2  -6   4   99.19    5.11
   2   6  -4  100.48    5.76
  -2  -6  -4  110.42    6.67
  -2   6   4  113.23    5.96
   2   6  -4   98.90    7.37
  -2   6   3   18.92    2.72
  -2   6   3   13.18    2.02
   2   6  -3   17.59    3.48
   2  -6   3   16.76    2.19
   2  -6   3   17.87    2.01
   2   6  -2  722.32   18.83
   2  -6   2  728.65   10.42
  -2   6   2  698.99   11.49
   2  -6   2  667.05   10.05
  -2   6   2  705.71   14.85
   2   6  -1  224.79   10.74
   2  -6   1  212.24    4.65
   2   6  -1  216.94    7.27
  -2   6   1  239.27    8.76
  -2   6   0    2.33    1.60
   2   6   0    3.23    2.27
   2   6   0    0.58    0.68
   2  -6   0    1.75    0.56
   2   6   1  231.04   10.84
  -2  -6   1  214.36    7.88
   2   6   1  219.86    7.36
   2  -6  -1  206.32    5.13
  -2   6  -1  212.38    8.23
   2   6   2  715.70   18.84
  -2  -6   2  671.98   14.98
   2  -6  -2  665.53   11.02
   2   6   2  641.81   13.47
  -2   6  -2  707.29   14.81
   2  -6  -3   15.52    4.00
   2  -6  -3   16.92    2.09
   2   6   3   18.45    3.58
   2   6   3   14.75    2.55
   2   6   3   14.66    2.30
  -2   6  -3   17.45    2.75
  -2   6  -4  111.00    5.98
   2   6   4  125.29    7.03
   2  -6  -4  117.24    9.83
   2  -6  -4  124.24    6.23
   2   6   4  118.84    8.02
  -2   6  -5  120.54    6.22
   2  -6  -5  118.86   10.26
   2   6   5  116.60    8.02
   2  -6  -6   49.35    7.34
   2   6   6   38.17    5.46
  -2   6  -6   47.40    4.00
   2   6   6   44.28    5.24
  -2   6  -7    8.99    2.09
   2  -6  -7    7.59    4.87
   2   6   7    3.23    2.26
   2   6   7    7.78    2.49
   2  -6  -7    4.79    2.81
   2  -6  -8  261.74   17.77
   2   6   8  250.05   14.37
  -2   6  -8  260.42    9.08
   2  -6  -8  249.57   15.01
   2   6   8  250.03   12.09
   2  -6  -9   37.60    7.53
   2   6   9   47.45    6.63
   2   6   9   49.08    5.53
  -2   6  -9   39.52    6.30
  -2  -6   9   38.86    6.66
  -2   6  -9   43.63    3.88
   2  -6  -9   37.99    6.26
   2  -6 -10    1.29    4.12
   2  -6 -10    4.75    2.96
  -2  -6  10    2.35    2.61
   2   6  10    9.26    3.62
   2   6  10    7.94    2.76
  -2   6 -10    5.92    3.02
  -2   6 -10    4.80    1.65
   2  -6 -11   30.94    7.68
   2   6  11   48.42    7.09
   2   6  11   31.41    4.48
  -2  -6  11   46.52    7.12
  -2   6 -11   34.32    6.29
   2  -6 -11   42.88    6.86
  -2   6 -11   45.02    4.05
   2  -6 -12   27.70    7.64
   2   6  12   19.45    5.11
  -2  -6  12   23.27    5.53
  -2   6 -12   23.34    5.61
   2  -6 -12   21.35    5.46
   2  -6 -13   11.22    5.40
  -2  -6  13    5.93    3.46
   2   6  13    9.15    4.03
  -2   6 -13    5.76    3.42
   2  -6 -13    1.89    3.18
   2  -6 -14   32.49    8.85
   2   6  14   33.01    6.70
  -2  -6  14   29.50    6.45
  -2   6 -14   27.58    6.24
   2  -6 -14   36.57    7.18
   2  -6 -15    5.54    4.50
  -2  -6  15    7.84    4.40
   2   6  15    1.93    2.41
  -2   6 -15    0.25    3.04
   2  -6 -15    2.29    2.79
   2  -6 -16    9.28    5.72
  -2  -6  16    2.27    3.07
  -2   6 -16   -4.23    3.81
   2   6  16    4.22    4.10
   2  -6 -16    4.19    3.74
  -2  -6  17    5.42    4.25
  -2   7  17    1.24    2.86
  -2  -7 -16    6.45    4.84
  -2   7  16    8.65    3.69
   2   7 -16    9.04    3.85
  -2  -7 -16    5.69    3.92
  -2  -7 -15    0.71    3.57
   2  -7  15   -0.21    2.05
  -2   7  15    3.74    2.74
   2   7 -15    1.71    2.29
  -2  -7 -15    3.08    3.11
   2  -7  14    6.70    3.26
  -2   7  14   -0.43    1.99
  -2  -7 -14    1.39    3.28
   2   7 -14    2.42    2.38
  -2  -7 -14    1.09    2.53
  -2  -7 -13    7.33    5.15
   2   7 -13    1.22    2.16
  -2   7  13   -0.37    2.23
   2  -7  13    5.78    3.02
  -2  -7 -13   -1.64    2.65
  -2  -7 -12   11.69    5.12
  -2   7  12    8.04    2.89
   2  -7  12    8.21    2.91
   2   7 -12    5.86    2.61
  -2  -7 -12   13.28    4.15
   2  -7  11   14.87    3.66
   2   7 -11   17.17    3.72
  -2  -7 -11   23.44    6.47
  -2   7  11   20.88    4.24
   2   7 -11   18.24    3.89
  -2   7  11   21.88    3.17
  -2  -7 -11   21.27    4.88
  -2  -7 -10   39.45    7.03
   2   7 -10   46.16    5.90
  -2   7  10   41.84    5.54
  -2  -7 -10   51.56    6.85
  -2   7  10   61.62    5.11
   2  -7  10   46.42    5.56
   2   7 -10   55.13    6.31
  -2  -7  -9   21.96    4.28
   2  -7   9   27.29    4.03
   2   7  -9   25.30    4.42
   2   7  -9   24.75    3.99
  -2   7   9   23.59    4.18
  -2   7   9   20.41    3.03
   2   7  -8  129.12    8.60
   2  -7   8  115.22    7.58
  -2   7   8  131.24    8.75
  -2  -7  -8  121.54    9.34
  -2   7   8  115.43    6.70
   2   7  -8  122.47    8.93
   2   7  -7  159.04    9.09
  -2   7   7  165.51    9.23
  -2  -7  -7  165.33   10.25
  -2   7   7  163.97    7.94
   2  -7   7  153.94    8.53
   2   7  -7  162.76   10.05
   2   7  -6  239.73   10.63
   2  -7   6  244.67    9.78
  -2   7   6  259.28   10.98
  -2  -7  -6  249.76   11.98
  -2   7   6  255.87    9.79
   2   7  -6  237.15   12.14
  -2   7   5  156.96    7.68
   2   7  -5  150.66    9.54
   2   7  -5  143.89    7.76
   2  -7   5  158.00    7.27
  -2  -7  -5  140.65    8.50
  -2   7   5  151.31    7.97
   2  -7   4    2.78    1.24
  -2   7   4    2.02    1.43
  -2   7   4    3.98    1.81
   2   7  -4    3.67    2.52
   2   7  -4    1.45    1.37
   2  -7   4    3.20    1.40
  -2   7   3   36.97    3.87
   2  -7   3   39.23    2.83
   2  -7   3   35.24    2.89
   2   7  -3   29.43    4.52
  -2   7   3   32.08    2.59
   2  -7   2    0.00    0.86
   2  -7   2    0.23    0.67
   2   7  -2    2.35    2.51
   2  -7   1  446.53    7.92
   2   7  -1  473.68   16.75
   2   7  -1  450.04   11.89
  -2   7   1  466.45   13.11
  -2   7   0   14.12    2.61
   2  -7   0   10.16    1.28
   2   7   0   13.18    3.58
   2   7   0   13.73    2.19
   2   7   1  477.27   16.87
  -2   7  -1  469.10   13.18
   2  -7  -1  439.65    8.36
   2   7   1  460.61   11.91
   2  -7  -2    2.20    1.03
  -2  -7   2    1.28    1.02
   2   7   2   -0.05    1.85
   2   7   3   40.04    5.40
   2   7   3   35.42    3.60
  -2  -7   3   32.67    3.66
   2  -7  -3   37.35    3.23
  -2   7  -3   36.32    3.91
  -2   7  -4    1.37    1.32
   2   7   4    2.79    1.51
   2  -7  -4    3.19    1.36
   2  -7  -4    3.09    3.00
   2   7   4    3.02    2.43
  -2   7  -5  156.27    7.77
   2   7   5  145.34    8.06
   2  -7  -5  160.86   12.76
   2   7   5  142.06    9.67
  -2   7  -6  272.47   10.10
   2  -7  -6  237.30   16.07
   2   7   6  257.67   12.66
  -2   7  -7  159.63    7.92
   2  -7  -7  142.13   13.09
   2   7   7  153.28   11.60
   2   7   7  155.21   10.37
   2   7   8  112.68   10.19
   2   7   8  126.93    9.27
   2  -7  -8  112.27   12.37
   2  -7  -8  115.04   10.57
  -2   7  -8  117.29    6.85
   2  -7  -9   11.58    4.90
  -2   7  -9   18.42    2.88
   2  -7  -9   21.38    4.97
  -2  -7   9   24.67    5.23
   2   7   9   26.84    4.55
   2   7   9   22.07    4.93
   2   7  10   56.96    7.79
   2  -7 -10   50.65    9.35
  -2  -7  10   53.96    7.65
  -2   7 -10   64.07    5.24
  -2   7 -10   42.08    6.91
   2  -7 -10   55.52    7.86
   2   7  10   54.53    6.50
   2  -7 -11   25.33    6.94
  -2  -7  11   20.91    5.44
   2   7  11   17.57    3.82
  -2   7 -11   22.57    5.21
   2  -7 -11   15.27    4.84
   2   7  11   21.74    5.26
  -2   7 -11   25.06    3.45
   2  -7 -12    1.66    3.43
   2   7  12   10.50    4.13
  -2  -7  12   12.22    4.43
  -2   7 -12   13.88    4.39
   2  -7 -12   14.66    5.03
   2   7  13    5.41    3.30
   2  -7 -13    6.67    4.75
  -2  -7  13    3.50    3.48
   2  -7 -13    2.12    3.00
  -2   7 -13    4.37    3.10
  -2  -7  14   12.40    4.63
   2   7  14    8.40    4.15
   2  -7 -14   -4.51    3.86
  -2   7 -14    3.27    2.88
   2  -7 -14    1.62    3.61
   2  -7 -15   13.87    6.80
  -2  -7  15    9.95    4.83
   2   7  15    2.91    3.60
   2  -7 -15    5.21    3.76
  -2   7 -15   -0.61    2.28
  -2  -7  16    8.10    4.42
  -2   7 -16    8.79    4.33
  -2  -8 -16   10.28    4.18
  -2  -8 -15   -0.28    2.46
  -2  -8 -15   -4.54    4.61
  -2   8  15    2.92    2.67
  -2  -8 -14    4.16    4.67
  -2   8  14    8.42    3.62
  -2  -8 -14    3.15    2.95
  -2  -8 -13   11.44    4.72
  -2   8  13    7.27    3.14
  -2  -8 -13    9.16    3.48
  -2   8  12    1.67    2.29
  -2  -8 -12    7.83    4.97
  -2  -8 -12    4.08    2.78
   2   8 -11   19.77    4.21
  -2   8  11   22.66    4.74
   2   8 -11   26.21    4.83
  -2   8  11   30.40    4.01
  -2  -8 -11   31.33    5.79
  -2  -8 -11   32.88    7.74
   2   8 -10    7.60    3.12
  -2  -8 -10    7.58    4.26
  -2   8  10    8.15    3.13
   2   8 -10    2.85    2.23
  -2   8  10    6.21    2.31
  -2  -8 -10   11.58    3.55
   2   8  -9   88.20    7.82
  -2   8   9   80.70    7.58
  -2  -8  -9   70.03    7.72
  -2   8   9   89.06    6.63
   2   8  -9   80.79    7.99
  -2   8   8   13.36    2.77
   2   8  -8   12.44    3.38
  -2   8   8   12.64    3.12
   2   8  -8   11.03    2.96
  -2  -8  -8   12.90    3.38
   2   8  -7   95.26    7.40
  -2   8   7   98.19    7.62
  -2   8   7  113.39    7.25
  -2  -8  -7   96.93    8.52
   2   8  -7  109.19    8.97
  -2   8   6   41.69    4.77
   2   8  -6   41.08    4.69
  -2   8   6   52.21    4.90
   2  -8   6   44.86    4.39
   2   8  -6   41.46    6.10
  -2   8   5  172.17    8.81
   2  -8   5  174.46    7.89
   2   8  -5  165.68    8.80
   2   8  -5  153.42   10.38
   2   8  -4  141.62    9.89
   2  -8   4  136.35    6.51
  -2   8   4  132.97    7.76
   2   8  -3   89.00    8.08
  -2   8   3   89.14    6.37
   2  -8   3   96.64    5.03
   2   8  -2   80.66    7.55
   2  -8   2   66.68    4.00
  -2   8   2   65.59    5.52
  -2   8   1   33.48    4.01
   2   8  -1   31.46    5.18
  -2   8   0   -0.32    1.67
   2   8   0    0.74    2.03
   2   8   1   34.49    5.28
  -2   8  -1   37.78    4.32
   2   8   2   69.76    7.08
  -2   8  -2   57.43    5.23
   2   8   3   87.63    8.03
  -2   8  -3   84.34    6.18
   2   8   4  156.83   10.54
   2   8   4  131.52    7.18
  -2   8  -4  142.74    8.04
   2  -8  -4  150.69   12.40
  -2   8  -5  160.76    8.57
   2   8   5  180.72    9.02
   2  -8  -5  173.84   13.71
   2   8   5  164.62   10.92
   2  -8  -6   45.95    7.70
   2   8   6   51.96    5.30
   2   8   6   48.92    6.17
  -2   8  -6   52.41    5.04
  -2   8  -7  100.90    6.87
   2  -8  -7  115.16   12.21
   2   8   7  110.15    9.15
   2  -8  -8    8.90    5.07
   2   8   8    2.03    2.34
   2   8   8   10.40    3.20
  -2   8  -8    6.89    2.13
   2  -8  -9   70.78   10.74
  -2  -8   9   78.06    9.10
   2   8   9   70.05    8.62
  -2   8  -9   85.77    6.50
   2   8   9   75.07    7.88
  -2  -8  10    9.25    4.14
   2  -8 -10    0.54    4.27
   2   8  10    5.98    3.19
   2   8  10    9.33    3.30
  -2   8 -10   10.15    3.89
  -2   8 -10   14.37    3.06
   2  -8 -11   31.55    6.57
   2  -8 -11   22.15    7.01
  -2  -8  11   21.86    5.37
   2   8  11   22.25    5.27
   2   8  11   22.30    4.53
  -2   8 -11   24.98    5.81
  -2   8 -11   31.19    4.08
  -2  -8  12   -0.61    3.11
   2  -8 -12   -1.65    5.19
   2   8  12    3.13    3.04
  -2   8 -12    6.61    3.63
   2  -8 -12    1.27    2.31
   2  -8 -13   11.02    5.95
   2   8  13   10.69    4.41
  -2  -8  13    8.73    4.42
  -2   8 -13   14.12    4.56
   2  -8 -13    4.45    3.87
  -2  -8  14    7.72    3.86
   2   8  14   -2.13    2.58
  -2   8 -14    9.56    4.27
   2  -8 -14    2.87    3.46
  -2   8 -15   13.52    4.82
   2   8  15    7.59    4.12
  -2  -8  15    3.51    2.99
  -2  -9 -14   -0.47    2.47
  -2  -9 -13    4.33    3.93
  -2  -9 -13   -1.37    2.00
  -2  -9 -12   22.70    7.27
  -2  -9 -12   19.22    4.87
  -2  -9 -11    6.52    4.07
   2   9 -11    6.42    3.01
  -2   9  11    8.75    2.55
  -2  -9 -11    6.21    2.87
  -2  -9 -10   20.43    5.73
   2   9 -10   12.47    3.73
  -2   9  10   13.51    3.08
  -2  -9 -10   13.48    4.07
  -2   9   9    0.24    1.71
   2   9  -9    0.21    2.03
  -2  -9  -9    2.04    2.24
   2   9  -8   31.48    5.45
  -2   9   8   38.05    4.90
   2   9  -7    1.06    2.12
  -2   9   7   -0.09    1.35
  -2   9   6    9.34    2.68
   2   9  -6   11.18    3.80
   2   9  -5    2.90    2.71
  -2   9   5   -2.10    2.18
   2   9  -4   34.75    5.46
  -2   9   4   27.85    4.16
   2   9  -3   13.70    3.82
  -2   9   3   10.32    2.72
   2   9  -2   17.13    4.04
  -2   9   2   23.81    3.82
   2   9  -1  104.15    9.09
  -2   9   1   96.30    7.19
   2   9   0  239.21   13.59
  -2   9   0  224.88   10.77
   2   9   1   92.68    8.53
  -2   9  -1   89.42    6.91
   2   9   2   25.70    4.89
  -2   9  -2   21.37    3.61
   2   9   3    4.93    2.81
  -2   9  -3    7.38    2.59
   2  -9  -4   33.57    6.50
  -2   9  -4   28.19    3.94
   2   9   4   24.49    4.74
   2  -9  -5    7.44    4.73
  -2   9  -5   -1.53    2.14
   2   9   5    2.33    2.87
   2   9   6   10.21    3.46
  -2   9  -6   11.18    2.98
   2  -9  -6   17.12    5.55
   2  -9  -7    7.64    5.13
   2   9   7    0.36    2.38
  -2   9  -7    2.30    1.90
   2  -9  -8   32.63    7.73
   2   9   8   33.73    5.64
  -2   9  -8   41.85    5.04
  -2  -9   9   -2.11    2.47
   2  -9  -9   -2.51    3.77
   2   9   9   -0.62    2.07
  -2   9  -9    1.80    1.95
   2  -9 -10   13.31    5.38
  -2  -9  10   10.84    4.40
   2   9  10   10.72    4.25
   2   9  10   13.08    3.72
  -2   9 -10   17.74    5.15
  -2   9 -10   17.97    3.45
   2  -9 -11    7.12    4.63
  -2  -9  11    3.40    2.77
   2   9  11    1.25    2.34
   2   9  11    9.05    3.20
  -2   9 -11    8.97    3.84
  -2   9 -11    7.43    2.45
  -2  -9  12   24.12    5.80
   2  -9 -12   16.69    6.71
   2   9  12   14.23    4.40
  -2   9 -12   23.17    5.89
   2   9  13    1.12    2.61
  -2  -9  13    2.19    2.64
  -2   9 -13    1.52    2.56
  -2  -9  14    3.03    2.98
   2   9  14   -2.06    3.37
  -2   9 -14    7.00    4.24
  -2  -9  15    7.73    3.86
  -2 -10 -11   23.48    7.00
  -2  10  11    5.45    2.59
  -2 -10 -10    7.37    4.14
   2  10 -10    8.80    3.61
  -2  10  10   12.52    3.33
  -2  10   9    5.59    2.61
   2  10  -9   -1.86    2.29
   2  10  -8    8.20    3.43
  -2  10   8   16.60    3.71
   2  10  -7    3.28    2.69
  -2  10   7    3.30    2.42
  -2  10   6    5.18    2.29
   2  10  -6    9.40    3.51
   2  10  -5    7.66    3.82
  -2  10   5    2.37    2.02
  -2  10   4   14.05    3.40
   2  10  -4   12.36    4.14
   2  10  -3   32.76    5.66
  -2  10   3   36.03    5.02
  -2  10   2   24.40    4.27
   2  10  -2   29.73    5.49
   2  10  -1   11.83    4.04
  -2  10   1   14.84    3.55
   2  10   0   33.02    5.85
  -2  10   0   31.86    4.63
   2  10   1   14.83    4.40
  -2  10  -1   20.77    3.87
   2  10   2   25.76    5.39
  -2  10  -2   20.43    3.72
  -2  10  -3   24.86    4.34
   2  10   3   26.22    5.27
   2 -10  -4   13.24    4.83
  -2  10  -4   22.84    4.07
   2  10   4   14.75    4.11
   2 -10  -5    4.04    4.16
   2  10   5   11.90    4.13
  -2  10  -5    5.11    2.57
   2 -10  -6    9.70    5.03
   2  10   6    5.05    3.25
  -2  10  -6    4.62    2.46
   2  10   7    9.06    3.74
   2 -10  -7   -0.99    3.69
  -2  10  -7    4.10    2.49
   2 -10  -8   12.03    5.79
   2  10   8   10.62    3.89
  -2  10  -8   10.04    2.79
   2 -10  -9   -1.02    3.70
  -2 -10   9   -3.45    3.50
   2  10   9    0.87    2.25
  -2  10  -9    0.98    1.70
   2 -10 -10   18.12    7.49
  -2  10 -10   10.06    4.40
  -2 -10  10    9.63    4.02
  -2  10 -10    9.56    2.89
   2  10  10    7.89    3.23
   2 -10 -11   13.95    6.26
   2  10  11    8.43    3.56
  -2 -10  11   11.56    4.32
  -2  10 -11    6.12    3.66
  -2  10 -11   10.00    2.84
  -2 -10  12    2.02    2.26
  -2  10 -12   -4.02    3.73
  -2  10 -13    0.57    2.73
   2  10  13    2.86    3.32
  -2 -10  13    6.13    4.01
   2  11 -10   12.59    4.33
  -2  11  10   15.19    3.86
   2  11  -9    0.38    2.36
  -2  11   9    2.10    1.93
   2  11  -8    1.45    2.26
  -2  11   8    8.04    2.97
   2  11  -7    5.51    3.39
  -2  11   7    5.14    2.62
   2  11  -6   30.76    6.25
  -2  11   6   26.62    4.56
   2  11  -5    3.89    3.24
  -2  11   5    3.80    2.16
   2  11  -4   17.64    4.65
  -2  11   4   19.29    4.05
   2  11  -3   26.15    5.51
  -2  11   3   32.67    5.17
   2  11  -2    5.52    3.45
  -2  11   2    5.38    2.49
  -2  11   1    9.17    3.06
   2  11  -1   14.94    4.43
   2  11   0    4.10    2.89
  -2  11   0    5.15    3.09
   2  11   1   11.59    4.52
  -2  11  -1   13.05    3.44
   2  11   2    4.44    3.29
  -2  11  -2    6.66    2.85
   2 -11  -3   22.53    5.87
   2  11   3   30.39    5.95
  -2  11  -3   36.74    5.40
   2 -11  -4   25.92    7.00
   2  11   4   26.53    5.85
  -2  11  -4   14.06    3.49
   2 -11  -5    7.22    4.49
   2  11   5    6.33    3.57
  -2  11  -5    7.89    3.12
  -2  11  -6   31.58    5.06
   2 -11  -6   28.09    7.19
   2  11   6   21.49    5.79
   2 -11  -7   10.24    6.21
   2  11   7    3.17    2.67
  -2  11  -7    9.85    3.15
   2  11   8   12.31    4.10
  -2  11  -8    5.02    2.21
   2 -11  -9   -1.16    3.39
   2  11   9   -1.43    2.31
  -2  11  -9    0.95    2.05
   2  11  10   10.47    3.76
  -2  11 -10    8.49    3.86
  -2  11 -10   10.47    3.45
  -2  11 -11    5.03    3.80
  -2  11 -12    2.82    3.33
   2  12  -8    2.59    2.68
  -2  12   7    5.24    2.70
   2  12  -7    5.40    3.33
  -2  12   6    6.10    2.99
   2  12  -6    9.51    4.37
   2  12  -5   28.68    6.15
  -2  12   5   18.95    4.39
  -2  12   4   33.82    5.43
   2  12  -4   32.90    6.43
   2  12  -3    0.59    2.32
  -2  12   3    3.09    2.61
   2  12  -2   19.11    4.93
  -2  12   2   11.77    3.53
   2  12  -1   15.80    4.82
  -2  12   1   15.57    3.95
   2  12   0   21.08    5.73
  -2  12   0   22.95    4.77
   2  12   1   14.16    4.78
  -2  12  -1   16.62    3.98
  -2  12  -2   10.94    3.43
   2  12   2    9.79    4.00
   2 -12  -3   -0.99    2.70
   2  12   3    4.40    3.47
  -2  12  -3   -0.90    2.07
   2  12   4   42.69    7.36
  -2  12  -4   32.80    5.31
   2 -12  -4   25.39    7.61
   2  12   5   13.72    5.13
   2 -12  -5   13.76    6.01
  -2  12  -5   14.21    3.74
   2 -12  -6    5.26    4.10
  -2  12  -6    7.15    3.14
   2  12   6    6.84    3.89
  -2  12  -7    2.12    2.36
   2 -13  -2   33.47    8.04
   2 -13  -3    0.89    3.54
   3   0   0   -0.40    1.39
  -3   0   0   -1.75    1.36
  -3   0   0   -0.78    1.19
  -3   0   0    2.37    1.37
  -3   0  -1   42.02    3.35
   3   0   1   41.10    4.05
  -3   0   1   40.21    3.85
  -3   0  -1   38.65    3.74
  -3   0   1   40.90    3.15
   3   0  -1   33.31    3.78
   3   0   1   40.71    4.21
  -3   0   1   38.65    4.00
  -3   0  -1   38.00    4.00
  -3   0   1   47.25    4.51
  -3   0  -2  349.44    9.61
  -3   0   2  330.34    8.96
  -3   0  -2  340.34   11.75
   3   0   2  337.24   11.63
   3   0  -2  327.47   11.23
   3   0   2  324.37   11.32
  -3   0   2  345.36   11.72
   3   0  -2  323.80   12.50
  -3   0   2  334.95   12.88
  -3   0  -3  190.84    7.35
   3   0   3  192.32    7.67
  -3   0   3  184.33    6.96
   3   0  -3  196.98    7.47
   3   0  -3  189.78    8.59
   3   0   3  180.01    8.44
  -3   0   3  201.91    9.11
  -3   0  -3  169.66    8.46
   3   0  -3  186.83   10.40
   3   0   4  277.45    9.73
   3   0  -4  267.15   10.15
   3   0  -4  252.44   12.91
  -3   0  -4  291.74   10.64
  -3   0   4  289.22   10.65
  -3   0   4  287.95    9.33
   3   0  -4  285.88    9.64
   3   0   4  278.01   10.57
  -3   0   4  298.81   10.99
  -3   0  -4  289.89   10.96
  -3   0   5  114.73    6.71
   3   0   5  113.31    6.76
  -3   0  -5  124.83    7.16
  -3   0  -5  109.73    6.91
   3   0  -5  122.94    6.89
   3   0  -5  117.72    6.70
   3   0   5  116.13    6.83
  -3   0   5  128.06    7.32
  -3   0  -5  108.42    6.67
   3   0  -5  115.39    9.53
  -3   0  -6   81.61    4.80
  -3   0   6   89.96    7.03
   3   0   6   92.75    6.30
   3   0  -6   82.57    8.49
  -3   0  -6   92.19    5.99
  -3   0  -6   88.18    6.43
   3   0  -6   89.67    6.30
   3   0  -6   96.89    6.12
   3   0   6   96.12    6.28
  -3   0   6   96.44    6.40
  -3   0   6   82.15    5.67
  -3   0  -6   82.35    5.78
  -3   0   7  937.24   23.39
  -3   0  -7  916.30   21.87
  -3   0   7  918.22   18.25
  -3   0  -7  893.77   18.34
   3   0  -7  938.28   21.09
   3   0   7  903.14   20.79
   3   0  -7  978.69   19.24
   3   0   7  953.57   19.24
  -3   0   7  925.46   18.91
  -3   0  -7  955.04   19.09
   3   0  -7  899.50   28.86
  -3   0  -7  901.16   17.72
  -3   0  -8  140.99    7.13
  -3   0   8  136.23    6.94
   3   0   8  134.75    8.50
   3   0  -8  133.06    8.54
   3   0   8  149.69    7.59
  -3   0  -8  144.82    7.98
  -3   0  -8  139.54    9.11
  -3   0   8  124.54    6.78
  -3   0  -8  129.49    6.80
   3   0  -8  131.35   12.03
  -3   0   8  132.96    9.32
  -3   0  -9  454.02   17.02
  -3   0   9  429.67   11.84
  -3   0   9  484.41   18.30
  -3   0  -9  460.43   12.60
  -3   0  -9  445.63   12.05
   3   0  -9  456.55   16.62
  -3   0   9  459.85   12.27
   3   0   9  453.54   16.52
   3   0  -9  483.01   23.45
  -3   0   9  436.60   12.28
  -3   0  -9  470.42   15.42
  -3   0  -9  456.94   12.52
   3   0 -10   16.39    5.03
  -3   0 -10   15.64    3.39
   3   0 -10   20.62    4.06
  -3   0 -10   19.67    2.49
  -3   0  10   21.31    2.69
  -3   0  10   26.55    5.31
  -3   0 -10   16.53    2.42
  -3   0 -10   21.68    4.28
   3   0  10   18.42    4.00
  -3   0  10   17.81    2.44
   3   0 -11    2.17    4.29
  -3   0 -11    4.16    2.59
  -3   0 -11    5.33    2.72
  -3   0  11    5.12    3.36
   3   0  11   -2.77    3.11
  -3   0  11    3.85    1.33
   3   0 -11    7.18    3.30
  -3   0 -11    3.41    1.47
   3   0 -12   31.12    7.12
  -3   0 -12   34.41    5.41
  -3   0  12   34.27    6.01
   3   0 -12   38.03    5.70
  -3   0 -12   40.40    6.10
   3   0  12   40.43    5.92
   3   0 -13    9.05    4.49
  -3   0 -13   16.62    4.32
   3   0  13   18.80    4.51
  -3   0  13   11.36    3.85
  -3   0 -13   20.53    4.86
   3   0 -13   12.90    3.64
   3   0  14  109.49   10.19
  -3   0  14  104.33   10.67
   3   0 -14  103.71   10.19
  -3   0 -14  120.37   11.10
   3   0 -14  105.71   13.80
  -3   0 -14  108.01   10.52
   3   0  15    9.77    3.89
  -3   0  15    3.26    3.14
  -3   0 -15    5.66    3.34
   3   0 -15    9.79    3.93
   3   0 -15    1.91    3.24
   3   0  16   12.50    4.75
  -3   0  16    8.70    3.66
  -3   0 -16    9.72    3.79
   3   0 -16    8.56    3.63
   3   0 -16    7.69    4.43
  -3   0  17   11.20    4.71
   3   0  17   15.06    4.76
  -3   0 -17    8.99    3.95
   3   0 -17   13.46    4.75
   3   0 -17   11.92    6.31
  -3   0  18    2.82    3.75
   3   0  18   -4.12    2.99
  -3   0 -18    1.22    2.29
   3   0 -18    8.62    4.30
   3   0 -18    1.23    4.08
   3   1 -19    2.58    3.62
  -3   1  18   -3.08    3.35
   3  -1  18    0.96    3.29
   3   1 -18    4.46    3.06
  -3  -1 -18   -0.16    3.01
  -3   1  17    0.48    2.98
   3  -1  17   -1.13    3.06
  -3  -1 -17    0.03    2.47
   3   1 -17    0.48    2.33
  -3   1  16    1.85    2.64
   3  -1  16    6.36    3.70
  -3  -1 -16    4.70    3.01
   3   1 -16    2.05    2.04
   3   1 -16   -1.46    4.38
  -3   1  15    3.33    3.74
  -3  -1 -15   -0.52    3.10
   3  -1  15   -2.12    3.01
   3   1 -15    9.40    4.09
  -3  -1 -15    3.72    3.19
   3   1 -15    1.15    4.08
   3  -1  14    8.42    3.83
  -3  -1 -14   15.22    4.81
  -3   1  14    9.31    4.08
  -3  -1 -14    7.40    3.41
   3   1 -14    6.82    3.22
   3   1 -14   19.72    6.46
  -3  -1 -13   48.81    7.54
   3  -1  13   56.20    7.23
  -3   1  13   60.53    7.57
  -3  -1 -13   66.86    8.17
   3   1 -13   55.16    7.08
   3   1 -13   57.77   10.07
  -3   1  12  158.21   11.68
   3  -1  12  170.24   11.43
   3   1 -12  152.88   11.14
  -3  -1 -12  154.43   11.29
  -3  -1 -12  180.71   12.51
   3   1 -12  161.14   15.28
  -3  -1 -11   37.04    5.73
  -3   1  11   32.11    2.67
  -3   1  11   34.37    5.47
   3   1 -11   39.36    5.57
  -3  -1 -11   40.18    5.66
   3  -1  11   38.02    5.56
   3   1 -11   35.61    7.64
  -3   1  10  159.23   10.73
  -3   1  10  157.34    6.47
   3  -1  10  160.87   10.53
  -3  -1 -10  147.49    7.57
  -3  -1 -10  148.94    9.94
   3   1 -10  163.28   10.34
   3   1 -10  154.12   13.85
   3   1 -10  188.16    8.32
  -3   1  10  165.45    8.09
  -3  -1 -10  184.63   11.29
  -3  -1 -10  155.02    6.42
  -3  -1  -9   69.74    5.30
  -3   1   9   74.75    4.68
   3  -1   9   74.78    6.66
  -3  -1  -9   71.87    4.66
  -3  -1  -9   64.26    6.32
   3   1  -9   74.37    6.65
  -3   1   9   84.21    7.69
   3   1  -9   77.36    5.52
  -3   1   9   70.27    5.60
  -3  -1  -9   66.85    6.75
   3   1  -9   75.91    9.52
  -3   1   8  550.59   13.21
  -3   1   8  560.57   18.23
  -3  -1  -8  522.00   16.79
   3   1  -8  544.63   16.61
   3   1  -8  533.78   14.39
  -3   1   8  551.64   15.18
   3  -1   8  515.56   16.45
  -3  -1  -8  530.96   13.12
   3   1  -8  515.98   23.06
  -3  -1  -8  509.19   16.01
  -3   1   7  255.54   11.75
  -3   1   7  244.41    9.16
   3  -1   7  251.12   10.65
  -3  -1  -7  262.75   11.26
   3   1  -7  267.98   10.79
   3   1  -7  243.86    9.77
  -3   1   7  251.49   10.31
   3   1  -7  252.20   15.37
  -3  -1  -7  242.31    9.16
  -3  -1  -7  237.57   10.05
  -3   1   6  165.00    8.93
  -3  -1  -6  161.16    8.21
  -3   1   6  166.94    7.67
  -3   1   6  152.47    7.30
   3   1  -6  168.94    7.95
  -3  -1  -6  155.73    7.52
   3  -1   6  172.39    8.25
   3   1  -6  157.76    7.97
  -3   1   6  160.55    8.18
   3   1  -6  155.26   11.53
  -3   1   5  198.85    8.54
   3  -1   5  210.44    8.40
  -3   1   5  209.27    8.68
   3   1  -5  210.85    8.24
  -3  -1  -5  210.62    8.82
  -3   1   5  203.78    9.14
   3   1  -5  205.76    9.09
  -3  -1  -5  207.43    8.73
  -3   1   5  207.48    9.45
   3  -1   4  344.57   10.00
  -3   1   4  329.13   11.10
  -3   1   4  344.30   11.18
  -3  -1  -4  357.52   10.57
   3   1  -4  333.74    9.59
  -3   1   4  320.39   11.45
   3   1  -4  337.04   11.74
  -3  -1  -4  359.56   11.51
  -3   1   3 1149.71   19.31
  -3   1   3 1123.94   20.31
  -3   1   3 1143.96   20.71
   3  -1   3 1143.24   17.02
   3   1  -3 1135.15   15.97
  -3  -1  -3 1118.12   17.10
  -3   1   3 1124.32   21.28
   3   1  -3 1099.97   21.32
  -3  -1  -3 1145.88   20.80
   3  -1   2  673.94   12.42
   3  -1   2  709.97   16.45
  -3  -1  -2  699.76   14.92
  -3   1   2  730.77   16.50
  -3   1   2  690.82   16.21
  -3   1   2  721.19   15.18
   3  -1   2  709.40   16.84
  -3   1   2  696.19   16.76
   3   1  -2  711.89   17.06
  -3  -1  -2  683.03   16.10
  -3   1   2  674.91   17.25
  -3   1   1  130.30    6.78
   3  -1   1  142.24    7.70
  -3  -1  -1  154.83    7.52
  -3  -1  -1  135.99    6.61
  -3   1   1  146.89    7.41
   3  -1   1  139.55    7.22
  -3   1   1  131.92    7.35
   3   1  -1  134.80    7.53
  -3  -1  -1  147.19    7.61
  -3   1   1  132.64    6.99
  -3   1   0  452.63   11.45
  -3  -1   0  465.28   13.13
  -3   1   0  489.83   13.59
  -3   1   0  458.42   12.78
   3  -1   0  464.95   13.71
  -3   1   0  436.37   13.49
   3   1   0  434.63   13.51
  -3  -1   0  434.34   13.18
   3  -1   0  412.56   11.49
  -3  -1   1  133.56    7.07
  -3   1  -1  133.68    5.24
   3   1   1  134.99    7.37
  -3   1  -1  138.98    7.19
  -3  -1   1  140.42    4.67
   3  -1  -1  147.82    7.78
  -3   1  -1  139.84    7.65
  -3   1  -1  149.94    7.10
   3   1   1  142.87    7.81
  -3  -1   1  142.51    7.49
   3  -1  -1  139.32    7.47
  -3   1  -1  136.98    5.49
   3   1   2  667.29   16.42
  -3   1  -2  731.90   12.26
  -3   1  -2  707.35   16.49
  -3  -1   2  682.52   10.87
  -3   1  -2  756.73   16.89
  -3   1  -2  705.79   17.03
   3   1   2  674.21   16.94
  -3  -1   2  702.01   19.66
  -3  -1   2  706.82   16.65
   3  -1  -2  696.64   18.32
  -3   1  -2  786.74   10.46
  -3   1  -3 1184.37   16.78
  -3   1  -3 1172.02   20.79
  -3   1  -3 1080.46   20.24
  -3  -1   3 1164.20   15.84
   3  -1  -3 1099.31   19.37
   3   1   3 1109.66   20.15
  -3   1  -3 1173.10   21.95
   3   1   3 1141.67   21.87
  -3  -1   3 1115.39   20.68
   3  -1  -3 1123.40   25.14
  -3   1  -4  365.97    9.95
  -3   1  -4  341.22   11.44
  -3   1  -4  348.59   11.52
   3   1   4  354.21   11.88
   3  -1  -4  337.29   11.51
  -3   1  -4  346.75   11.97
   3   1   4  352.07   12.16
  -3  -1   4  334.27   11.18
   3  -1  -4  339.42   15.08
  -3  -1   4  362.81    9.68
  -3   1  -5  205.29    8.66
  -3   1  -5  207.25    8.82
  -3  -1   5  193.46    7.79
   3  -1  -5  205.45    9.45
  -3   1  -5  210.81    9.40
   3   1   5  209.26    9.42
   3  -1  -5  218.41   12.87
   3   1   5  218.37    9.61
  -3  -1   5  201.94    8.59
   3   1   6  140.45    8.26
   3  -1  -6  155.62    8.67
  -3   1  -6  155.92    9.09
  -3   1  -6  156.40    7.59
  -3   1  -6  172.27    8.09
   3   1   6  154.73    8.14
  -3   1  -6  157.13    8.17
   3  -1  -6  168.14   11.95
  -3   1  -6  156.16    5.37
  -3  -1   6  163.71    7.73
  -3  -1   7  251.83   12.76
   3   1   7  243.43   11.40
  -3   1  -7  267.08   10.65
  -3   1  -7  262.78    9.70
  -3   1  -7  249.54   12.07
   3  -1  -7  256.37   11.82
   3   1   7  252.83   10.24
   3  -1  -7  249.87   15.46
  -3   1  -7  250.38    8.23
  -3  -1   7  252.86    9.44
   3   1   8  525.57   17.32
  -3  -1   8  546.32   19.34
  -3   1  -8  563.54   18.91
   3  -1  -8  549.65   18.03
  -3   1  -8  555.17   13.60
   3   1   8  550.89   15.04
  -3   1  -8  588.81   15.82
  -3   1  -8  517.35   13.63
   3  -1  -8  573.72   24.33
  -3  -1   8  533.04   13.15
   3   1   9   70.89    6.86
  -3  -1   9   75.04    7.79
   3  -1  -9   70.50    7.00
  -3   1  -9   73.53    7.28
  -3  -1   9   68.67    5.25
  -3   1  -9   67.71    4.65
   3   1   9   81.42    5.80
  -3   1  -9   70.01    5.41
   3  -1  -9   67.31    9.25
  -3  -1   9   71.89    4.66
  -3   1  -9   71.40    5.74
  -3  -1  10  165.99   11.73
  -3  -1  10  153.14    7.38
  -3   1 -10  156.81   11.02
   3  -1 -10  143.76   10.16
   3   1  10  166.55   10.77
   3   1  10  152.75    7.86
  -3   1 -10  150.13    7.64
  -3   1 -10  162.29    9.26
   3  -1 -10  152.51   14.11
  -3   1 -10  172.51    6.83
  -3  -1  10  153.45    6.28
  -3   1 -11   37.65    4.92
   3  -1 -11   39.39    8.18
  -3   1 -11   35.62    2.93
   3   1  11   31.87    5.29
  -3  -1  11   34.96    6.27
  -3   1 -11   35.62    5.88
   3   1  11   37.16    3.87
   3  -1 -11   37.16    5.64
  -3  -1  12  184.61   13.26
   3   1  12  166.04   11.80
  -3   1 -12  170.41   12.50
   3  -1 -12  164.54   11.89
  -3   1 -12  165.31   10.71
   3  -1 -12  170.70   16.37
   3  -1 -13   60.49   10.26
  -3  -1  13   69.63    8.62
  -3   1 -13   50.17    7.06
   3  -1 -13   47.88    6.79
  -3   1 -13   63.72    7.24
   3   1  13   59.40    7.61
   3  -1 -14    1.28    4.13
  -3  -1  14   10.19    3.95
  -3   1 -14    7.84    3.56
   3   1  14    4.98    3.24
   3  -1 -14   13.42    3.99
   3  -1 -15    4.84    4.81
  -3  -1  15   -0.89    3.67
   3   1  15   -0.64    2.38
  -3   1 -15   -2.89    3.36
   3  -1 -15   -2.48    3.05
  -3  -1  16    5.77    3.59
   3  -1 -16    0.22    2.57
   3   1  16    2.60    2.66
  -3   1 -16    1.82    2.23
   3  -1 -17    1.54    4.40
  -3  -1  17    9.41    4.38
   3   1  17    0.96    3.15
  -3   1 -17    0.11    2.66
   3  -1 -17   -3.30    3.01
   3  -1 -18    7.51    6.35
   3   1  18    0.70    2.68
  -3   1 -18    5.26    3.59
   3  -1 -18   -3.61    3.55
  -3  -1  18    0.25    3.07
   3   2 -19    2.07    3.70
   3  -2  18    0.34    3.01
  -3   2  18    7.42    3.69
  -3  -2 -18    0.32    2.88
   3   2 -18   -1.83    3.32
  -3  -2 -17   -2.82    2.62
   3  -2  17    4.78    3.66
  -3   2  17   -3.08    2.87
   3   2 -17    1.01    2.41
  -3  -2 -16   -1.23    3.42
   3  -2  16    6.14    3.48
  -3  -2 -16    9.23    4.30
  -3   2  16    7.81    3.92
   3   2 -16    8.66    4.01
  -3  -2 -15   12.01    4.74
   3   2 -15   11.47    4.17
  -3   2  15   11.19    4.07
   3  -2  15   10.39    4.20
  -3  -2 -15    4.80    2.87
   3  -2  14  125.65   10.83
  -3   2  14  107.00   10.09
  -3  -2 -14  112.96   10.53
   3   2 -14  115.39   10.60
  -3  -2 -14  107.40   11.46
  -3   2  13  112.82    9.92
  -3  -2 -13  125.35   10.57
   3   2 -13  127.17   10.44
   3  -2  13  128.82   10.52
  -3  -2 -13  141.88   12.32
  -3  -2 -12   -0.34    2.56
   3  -2  12    3.44    3.21
  -3   2  12   10.66    3.52
  -3  -2 -12    2.95    1.04
  -3  -2 -12    5.31    2.74
   3   2 -12    4.86    2.73
  -3   2  11   62.81    3.64
  -3  -2 -11   56.68    7.15
   3  -2  11   70.41    7.17
  -3  -2 -11   55.62    6.73
  -3  -2 -11   65.92    3.80
   3   2 -11   57.72    6.50
  -3   2  11   46.21    6.06
   3   2 -11   53.21    4.69
  -3   2  10   30.16    2.84
  -3  -2 -10   29.33    5.09
  -3   2  10   31.30    5.09
   3  -2  10   28.14    4.59
  -3  -2 -10   26.71    2.60
  -3  -2 -10   29.17    4.68
   3   2 -10   25.89    4.27
   3   2 -10   28.17    3.52
  -3   2   9   29.61    2.96
  -3  -2  -9   30.23    4.69
   3   2  -9   26.41    3.47
  -3   2   9   34.38    5.03
   3  -2   9   26.69    4.17
  -3  -2  -9   31.26    4.65
   3   2  -9   24.79    3.88
  -3  -2  -8   45.52    5.04
  -3   2   8   48.63    3.86
  -3   2   8   50.26    5.43
  -3  -2  -8   51.61    5.56
   3  -2   8   49.04    5.17
   3   2  -8   48.05    4.66
   3   2  -8   51.68    5.12
   3  -2   7   28.18    3.74
   3   2  -7   22.31    3.44
   3  -2   7   20.29    3.25
  -3   2   7   25.51    3.91
  -3   2   7   19.54    2.50
  -3  -2  -7   21.03    3.33
   3   2  -7   25.44    3.45
   3  -2   6  248.95    9.28
  -3   2   6  234.39    8.81
   3   2  -6  244.18    9.28
  -3   2   6  239.85   10.18
   3  -2   6  229.13   10.28
   3   2  -6  249.28   10.81
  -3  -2  -6  238.99    9.64
  -3   2   5  451.43   12.61
  -3   2   5  454.36   13.10
   3  -2   5  468.80   11.69
   3  -2   5  454.70   14.35
  -3  -2  -5  444.86   12.12
   3   2  -5  456.88   11.41
   3   2  -5  464.76   14.78
  -3   2   4  267.78    9.88
   3  -2   4  277.97    8.25
   3  -2   4  275.46   11.09
  -3  -2  -4  273.11    8.64
   3   2  -4  257.44    7.65
   3   2  -4  257.36   10.73
  -3   2   4  267.27    9.27
   3   2  -3  174.42    5.53
  -3   2   3  176.91    7.03
   3  -2   3  187.73    9.14
   3  -2   3  181.08    6.05
  -3  -2  -3  165.53    6.07
  -3   2   3  180.90    8.12
   3   2  -3  171.25    8.82
   3  -2   2 3143.79   36.70
   3  -2   2 3220.04   23.44
  -3  -2  -2 3168.57   22.61
   3   2  -2 3232.13   19.38
   3   2  -2 3179.26   37.22
   3  -2   2 3192.20   20.93
  -3   2   2 3114.17   34.12
   3  -2   2 3145.89   34.42
  -3   2   2 3161.76   36.48
   3  -2   1 3222.04   34.23
  -3   2   1 3204.92   33.28
  -3  -2  -1 3136.71   33.65
  -3   2   1 3210.21   34.89
  -3  -2  -1 3230.08   19.28
   3   2  -1 3027.95   36.33
   3  -2   1 3300.55   27.99
  -3   2   1 3224.57   33.52
   3  -2   1 3113.58   36.67
  -3   2   0  698.21   15.59
  -3   2   0  736.13   16.72
  -3  -2   0  707.27   16.57
   3   2   0  683.30   17.29
  -3   2   0  737.76   13.86
   3  -2   0  714.84   17.55
  -3   2  -1 3197.76   20.51
  -3  -2   1 3078.57   34.57
   3  -2  -1 3082.19   36.54
   3  -2  -1 3143.55   35.71
  -3  -2   1 3142.20   15.59
   3   2   1 3213.71   37.17
   3   2   1 3123.61   34.99
  -3   2  -1 3147.60   24.01
  -3   2  -1 3247.87   35.12
  -3   2  -2 3039.44   33.87
   3   2   2 3097.60   35.62
   3  -2  -2 3153.16   36.73
  -3  -2   2 3177.21   18.75
   3   2   2 3175.75   37.36
   3  -2  -2 3109.95   39.07
   3  -2  -3  186.77   10.56
  -3   2  -3  204.90    6.21
   3   2   3  194.02    9.08
   3  -2  -3  199.10    9.35
  -3   2  -3  192.14    8.51
   3   2   3  163.44    8.66
  -3  -2   3  182.80    5.51
   3   2   3  179.46    8.76
  -3   2  -4  291.92    8.29
   3   2   4  255.19   10.83
   3  -2  -4  274.70   11.04
  -3  -2   4  264.00    7.66
   3  -2  -4  263.25   10.89
  -3   2  -4  262.70    9.81
   3   2   4  253.21   10.78
   3  -2  -4  252.59   13.20
  -3   2  -5  460.91   11.56
  -3   2  -5  464.65   12.81
  -3  -2   5  470.23   11.47
   3  -2  -5  473.50   15.26
   3  -2  -5  451.38   14.22
   3   2   5  451.91   14.85
   3   2   5  461.46   14.77
   3  -2  -5  473.19   19.16
   3  -2  -6  216.54   10.05
   3   2   6  244.87   11.32
   3  -2  -6  229.79   11.28
  -3   2  -6  227.13    8.79
   3   2   6  233.14   10.75
   3  -2  -6  240.22   14.38
   3  -2  -7   27.32    5.78
   3   2   7   21.01    3.54
  -3   2  -7   18.38    2.52
   3  -2  -7   26.47    3.64
  -3   2  -7   22.19    4.08
   3   2   7   30.69    4.62
   3  -2  -7   27.85    4.45
   3  -2  -8   39.75    7.22
   3  -2  -8   43.20    5.62
  -3  -2   8   40.23    5.75
  -3   2  -8   46.77    3.83
   3   2   8   50.54    6.34
  -3   2  -8   47.47    5.88
   3   2   8   57.01    5.34
  -3   2  -9   25.56    2.77
   3  -2  -9   23.25    6.16
   3   2   9   25.37    3.60
  -3  -2   9   26.49    5.15
   3   2   9   24.18    4.67
  -3   2  -9   31.61    5.23
   3  -2  -9   29.88    4.82
   3  -2 -10   21.98    6.09
   3   2  10   19.48    4.32
  -3   2 -10   29.63    2.87
   3   2  10   22.98    3.31
  -3   2 -10   21.19    3.16
  -3  -2  10   23.69    5.09
  -3  -2  10   28.55    2.62
  -3   2 -10   34.80    5.44
   3  -2 -10   23.79    4.79
  -3   2 -11   56.45    3.53
   3  -2 -11   62.63   10.12
   3   2  11   51.04    6.71
  -3  -2  11   53.90    7.48
  -3   2 -11   49.46    6.70
   3   2  11   60.58    5.10
   3  -2 -11   53.62    6.92
  -3  -2  11   51.12    3.28
   3  -2 -12   -2.31    4.39
  -3   2 -12    3.90    1.02
  -3  -2  12    3.12    3.08
  -3   2 -12    5.29    3.46
   3  -2 -12   -0.54    2.98
   3   2  12    2.06    2.57
  -3  -2  13  131.97   11.92
   3  -2 -13  126.53   11.26
  -3   2 -13  116.48   11.05
   3   2  13  128.36   11.09
   3  -2 -13  128.28   15.01
   3   2  14  114.82   11.11
  -3  -2  14  131.31   12.21
  -3   2 -14  119.41   11.53
   3  -2 -14  106.94   10.86
   3  -2 -14  113.97   14.81
   3  -2 -15    5.91    4.17
   3   2  15   13.54    4.48
  -3  -2  15    9.92    4.63
  -3   2 -15    9.03    3.90
   3  -2 -15    7.10    3.55
   3  -2 -16    4.61    4.83
   3   2  16    3.36    3.52
  -3  -2  16    8.19    4.66
  -3   2 -16    2.68    2.94
   3  -2 -16    6.31    3.88
   3  -2 -17    2.28    4.14
  -3  -2  17   -2.65    3.09
  -3   2 -17    8.13    3.57
   3  -2 -17   -0.72    3.03
   3   2  17    2.87    2.97
   3  -2 -18    4.35    4.84
  -3  -2  18    0.36    2.75
  -3   2 -18    7.89    4.95
   3   2  18    0.57    3.49
   3  -2 -18    1.60    3.43
   3   3 -19   -3.75    3.21
   3  -3  18    4.11    3.07
  -3   3  18    1.24    2.56
  -3  -3 -18    3.49    2.92
   3   3 -18    5.87    3.72
  -3   3  17    4.93    3.94
   3  -3  17    4.56    3.45
  -3  -3 -17    4.99    3.52
   3   3 -17    2.06    3.38
  -3  -3 -16    8.81    4.91
  -3   3  16    8.80    3.68
  -3  -3 -16    2.84    2.60
   3   3 -16    4.63    3.08
   3  -3  16    7.05    3.38
  -3  -3 -15   38.76    7.76
  -3   3  15   37.99    6.28
   3  -3  15   37.52    6.44
  -3  -3 -15   38.40    6.59
   3   3 -15   25.86    5.38
  -3  -3 -14    0.30    2.92
  -3   3  14    2.81    2.41
  -3  -3 -14    4.87    3.21
   3   3 -14    5.01    3.23
   3  -3  14    6.00    3.74
  -3  -3 -13   16.90    4.88
  -3   3  13   13.07    3.81
   3  -3  13   17.61    4.26
  -3  -3 -13   19.92    4.69
   3   3 -13   20.18    4.54
   3  -3  12  132.48   10.02
  -3   3  12  118.39    9.48
  -3  -3 -12  125.05   10.16
   3   3 -12  115.68    9.39
  -3  -3 -12  138.42   11.97
  -3   3  11   49.75    6.03
   3   3 -11   51.86    6.17
  -3  -3 -11   54.75    3.52
   3  -3  11   44.59    5.83
  -3  -3 -11   60.41    6.85
   3   3 -11   46.63    4.81
  -3   3  11   49.72    3.28
  -3  -3 -11   67.56    8.39
  -3  -3 -10   11.47    3.42
   3   3 -10   12.10    2.83
  -3   3  10   13.25    3.24
   3  -3  10   15.25    3.44
  -3  -3 -10   12.07    3.39
  -3  -3 -10   17.19    2.25
   3   3 -10   11.79    2.94
   3  -3  10   11.54    2.75
  -3   3  10   18.48    2.26
  -3   3   9   29.44    2.93
   3   3  -9   31.20    4.28
  -3   3   9   28.11    4.52
   3  -3   9   22.11    3.73
   3  -3   9   27.96    4.03
  -3  -3  -9   30.14    3.00
  -3  -3  -9   29.61    5.08
  -3  -3  -9   25.75    4.10
   3   3  -9   30.25    4.16
   3  -3   9   24.15    2.69
  -3   3   8   33.82    3.23
  -3   3   8   34.51    4.49
   3  -3   8   27.07    4.04
   3  -3   8   33.86    4.25
  -3  -3  -8   28.48    3.03
  -3  -3  -8   30.66    4.20
   3   3  -8   28.07    3.71
   3   3  -8   34.91    4.46
   3  -3   8   32.45    2.66
  -3   3   7  265.71    8.97
  -3   3   7  252.58   10.52
  -3  -3  -7  259.82    8.83
  -3  -3  -7  256.52   10.72
   3   3  -7  263.60   10.19
   3  -3   7  263.37   10.33
   3   3  -7  244.21   11.22
   3  -3   7  230.98    5.66
   3  -3   7  251.56   11.41
  -3   3   6  139.07    6.65
  -3   3   6  146.92    7.49
   3  -3   6  122.45    6.85
   3  -3   6  131.26    8.10
  -3  -3  -6  130.67    6.44
  -3  -3  -6  137.89    7.33
   3   3  -6  133.15    6.64
   3   3  -6  139.78    8.33
  -3   3   5    0.54    1.34
   3   3  -5    1.89    1.45
  -3   3   5    2.24    1.33
   3  -3   5    2.95    1.39
   3  -3   5    1.24    1.68
  -3  -3  -5    3.64    1.47
   3   3  -5    4.25    1.46
  -3   3   4  625.77   14.54
   3  -3   4  613.37   11.38
   3  -3   4  612.65   17.03
  -3  -3  -4  638.37   12.78
   3   3  -4  652.30   11.73
  -3   3   4  656.17   13.27
   3   3  -4  609.44   16.98
  -3   3   3  221.55    8.86
   3  -3   3  234.01    6.12
   3  -3   3  221.53    9.40
   3  -3   3  221.82   10.38
  -3  -3  -3  226.63    6.80
   3   3  -3  218.51    5.39
   3  -3   3  224.81    5.46
   3   3  -3  215.38   10.11
  -3   3   3  228.02    6.86
  -3   3   2 1409.90   14.78
  -3   3   2 1410.18   22.43
   3  -3   2 1419.04   25.69
  -3  -3  -2 1440.15   14.02
   3  -3   2 1434.54   23.19
   3   3  -2 1398.43   25.39
   3  -3   2 1423.76   17.11
  -3   3   1 1993.03   14.14
   3  -3   1 2069.25   27.15
   3  -3   1 1972.54   29.98
  -3   3   1 1995.70   26.13
  -3   3   1 1974.03   26.68
   3   3  -1 1983.29   30.14
   3  -3   1 1973.14   23.50
  -3   3   0 3113.34   33.65
  -3   3   0 3132.67   32.22
   3  -3   0 3021.06   37.37
   3   3   0 3121.15   37.80
   3  -3   0 3146.22   33.26
   3  -3  -1 1974.28   30.03
   3   3   1 1967.71   28.42
  -3   3  -1 2013.62   27.02
   3  -3  -1 1987.28   29.12
   3   3   1 1994.80   30.28
  -3   3  -2 1471.20   12.25
  -3   3  -2 1459.32   22.94
   3   3   2 1449.04   24.69
   3  -3  -2 1412.61   25.59
   3   3   2 1432.06   25.80
   3  -3  -2 1385.96   26.74
  -3   3  -3  212.60    8.77
   3  -3  -3  208.97   10.02
  -3  -3   3  202.56    5.31
  -3   3  -3  215.51    6.04
   3   3   3  214.02    9.62
   3   3   3  213.83   10.10
   3  -3  -3  197.06   11.02
   3   3   4  625.66   18.00
  -3   3  -4  625.39   11.85
  -3   3  -4  609.47   14.57
   3   3   4  602.88   13.21
  -3  -3   4  577.70   11.19
   3  -3  -4  604.61   16.94
   3   3   4  604.11   16.87
   3  -3  -4  617.02   20.62
   3   3   5    2.74    1.63
   3  -3  -5    5.98    3.24
  -3   3  -5    0.74    1.43
   3  -3  -5    3.76    1.89
   3   3   5    4.74    2.53
  -3   3  -5    3.70    1.38
   3   3   5    1.85    1.21
   3  -3  -5    2.81    1.85
  -3  -3   5    3.79    1.11
  -3   3  -6  144.71    6.87
   3  -3  -6  143.93    8.49
   3  -3  -6  145.64    9.59
   3   3   6  139.95    9.27
   3   3   6  136.54    8.39
   3  -3  -6  144.07   11.56
  -3   3  -7  255.45    8.88
   3   3   7  248.14   12.59
  -3  -3   7  262.02    8.72
   3  -3  -7  267.52   11.58
   3   3   7  268.10   11.65
   3  -3  -7  264.47   13.40
   3  -3  -7  250.82   15.83
   3  -3  -8   33.37    4.33
   3  -3  -8   38.29    7.15
  -3   3  -8   34.82    3.32
   3   3   8   29.51    4.96
  -3  -3   8   29.14    2.93
  -3   3  -8   31.10    4.87
   3   3   8   35.95    4.53
   3  -3  -8   37.70    5.55
  -3   3  -9   25.92    2.90
   3   3   9   27.46    4.95
   3  -3  -9   20.19    6.22
  -3  -3   9   16.92    4.28
   3  -3  -9   23.93    3.75
  -3  -3   9   24.29    2.64
  -3   3  -9   25.09    4.87
   3  -3  -9   28.69    5.13
   3   3   9   28.63    4.10
  -3  -3  10   12.07    3.94
   3  -3 -10   13.35    5.52
   3   3  10   12.56    3.09
   3  -3 -10   11.88    2.80
   3   3  10   17.70    4.69
  -3   3 -10   12.86    2.06
  -3   3 -10    8.77    3.29
  -3  -3  10   15.62    2.04
   3  -3 -10   10.25    3.47
  -3  -3  11   57.61    7.90
   3  -3 -11   58.15    9.74
   3   3  11   52.33    6.96
  -3  -3  11   53.27    3.35
   3  -3 -11   56.77    7.50
  -3   3 -11   49.73    7.12
   3   3  11   50.03    5.26
  -3   3 -11   46.92    3.26
   3   3  12  122.78   10.70
  -3  -3  12  123.27   11.61
   3  -3 -12  125.86   11.23
  -3   3 -12  137.29   12.08
  -3   3 -12  127.34    5.02
   3  -3 -12  118.19   13.96
   3  -3 -13   13.94    5.82
   3   3  13   14.36    4.23
  -3  -3  13   19.58    5.44
  -3   3 -13   11.96    4.25
   3  -3 -13   25.02    5.56
   3  -3 -14    2.37    4.24
   3   3  14    0.93    3.12
  -3  -3  14    9.06    4.56
  -3   3 -14    0.35    2.87
   3  -3 -14    6.87    4.05
   3  -3 -15   38.80    9.30
  -3  -3  15   46.10    8.06
   3   3  15   42.52    7.28
  -3   3 -15   40.19    7.19
   3  -3 -15   36.72    7.25
   3  -3 -16    9.10    5.81
  -3  -3  16    6.36    4.12
  -3   3 -16    0.25    2.94
   3   3  16    5.72    3.80
   3  -3 -16    6.06    3.58
   3  -3 -17    7.36    5.43
   3   3  17    4.77    4.36
  -3  -3  17    2.96    3.71
  -3   3 -17    3.75    3.26
   3  -3 -17    8.39    4.36
   3  -3 -18    8.98    6.48
   3   4 -19   12.24    5.21
  -3   4  18    2.31    3.04
   3  -4  18    5.00    3.96
   3   4 -18    5.03    3.35
  -3  -4 -17    7.28    4.56
  -3   4  17   14.58    4.71
   3  -4  17    6.00    3.84
   3   4 -17    6.80    3.81
  -3  -4 -17   10.33    4.14
  -3  -4 -16    9.92    5.13
  -3   4  16    4.17    3.49
   3  -4  16   11.87    4.42
   3   4 -16    0.70    2.33
  -3  -4 -16   12.46    4.71
  -3   4  15   12.69    4.66
  -3  -4 -15   10.64    4.48
   3  -4  15   12.24    4.06
   3   4 -15   11.80    4.01
  -3  -4 -15   13.75    4.36
  -3  -4 -14   13.80    5.53
   3  -4  14   12.91    3.94
  -3   4  14   13.24    4.04
   3   4 -14   15.42    4.30
  -3  -4 -14    8.01    3.53
  -3  -4 -13   34.62    6.74
  -3   4  13   27.61    5.14
   3  -4  13   35.87    5.70
   3   4 -13   28.29    5.33
  -3  -4 -13   28.61    5.57
  -3  -4 -12   54.15    8.18
  -3   4  12   47.77    6.21
   3  -4  12   54.84    6.49
   3   4 -12   52.18    6.53
  -3  -4 -12   47.38    6.40
   3  -4  11   87.23    7.36
   3   4 -11   73.55    7.10
  -3  -4 -11   70.81    7.46
   3  -4  11   87.76    7.58
   3   4 -11   83.68    7.24
  -3   4  11   81.91    4.46
  -3  -4 -11   80.57    9.06
  -3   4  11   75.36    7.33
  -3  -4 -10   28.91    5.32
   3  -4  10   21.58    3.85
  -3   4  10   20.61    3.84
   3   4 -10   17.68    3.50
   3  -4  10   19.96    3.79
  -3  -4 -10   26.56    2.73
   3   4 -10   23.20    4.05
  -3  -4 -10   23.70    4.30
  -3   4  10   29.10    2.83
  -3  -4  -9   16.48    4.24
   3   4  -9   16.45    3.29
   3  -4   9   18.97    3.74
  -3   4   9   12.82    2.97
   3  -4   9   16.48    3.22
  -3   4   9   15.42    2.11
  -3  -4  -9   18.41    2.51
   3   4  -9   13.73    2.99
  -3  -4  -9   17.97    3.57
   3  -4   8    3.50    1.32
   3   4  -8    5.02    2.19
  -3   4   8    3.22    2.02
   3  -4   8    7.17    2.38
  -3   4   8    6.25    1.64
  -3  -4  -8    5.85    1.60
   3  -4   8    2.37    1.96
   3   4  -8    5.26    1.92
  -3  -4  -8    4.22    1.86
  -3   4   7  120.17    6.10
   3  -4   7  128.98    6.89
  -3   4   7  112.26    6.86
   3  -4   7  113.93    8.10
  -3  -4  -7  130.42    6.33
  -3  -4  -7  117.42    7.51
   3   4  -7  127.50    8.39
   3   4  -7  112.09    6.59
   3  -4   7   88.07    4.91
  -3   4   6   46.71    3.99
  -3   4   6   41.94    4.02
   3  -4   6   35.63    5.04
   3  -4   6   39.90    3.67
  -3  -4  -6   44.37    4.31
   3   4  -6   38.45    3.55
  -3  -4  -6   42.52    3.99
   3  -4   6   42.37    3.28
   3   4  -6   41.39    4.88
   3  -4   5  414.23   10.17
  -3   4   5  415.00   11.70
  -3   4   5  394.70   10.62
  -3  -4  -5  399.74   11.49
   3   4  -5  415.81   10.14
  -3  -4  -5  413.94   11.86
   3   4  -5  415.62   14.89
  -3   4   4   97.73    5.90
  -3   4   4   93.97    4.67
   3  -4   4   81.21    4.00
  -3  -4  -4   80.13    5.32
   3   4  -4   87.72    4.11
  -3  -4  -4   90.14    5.17
   3   4  -4   91.38    6.93
  -3   4   3  445.97   12.33
  -3   4   3  424.53    8.49
  -3  -4  -3  441.83   12.12
   3   4  -3  453.78    7.28
  -3  -4  -3  439.64    9.48
   3  -4   3  407.45    7.09
   3  -4   3  423.89   12.95
   3   4  -3  415.83   14.65
  -3   4   2  373.51   11.42
  -3   4   2  369.64    6.32
   3  -4   2  346.53   11.43
  -3  -4  -2  330.67   10.66
  -3  -4  -2  369.06    7.22
   3   4  -2  357.09   13.59
   3  -4   2  371.77   10.09
  -3   4   1   92.34    5.85
  -3  -4  -1   88.77    5.58
  -3   4   1   91.90    5.65
   3  -4   1  101.13    5.93
   3   4  -1   91.61    6.96
  -3   4   0  821.33   17.12
  -3   4   0  770.07   15.43
  -3  -4   0  800.93   16.58
   3   4   0  810.04   20.04
   3  -4   0  822.12   18.28
  -3   4  -1   96.17    5.93
  -3  -4   1   85.13    5.52
   3   4   1   89.40    6.74
   3  -4  -1   80.04    6.37
   3   4   2  348.92   12.34
  -3   4  -2  372.40   11.40
   3   4   2  363.50    7.31
  -3  -4   2  349.79   10.88
   3   4   2  366.18   13.67
   3  -4  -2  358.64   14.24
  -3   4  -3  445.97   12.45
   3   4   3  429.71   14.00
   3   4   3  432.01    9.67
  -3  -4   3  415.70   11.74
   3   4   3  439.41   15.14
   3  -4  -3  431.43   16.75
  -3   4  -4   99.04    5.84
  -3   4  -4   94.51    4.81
   3   4   4   94.75    5.22
  -3  -4   4   82.93    5.30
   3   4   4   98.78    7.36
   3  -4  -4  101.08    8.88
  -3   4  -5  426.22   11.83
  -3  -4   5  379.47   11.16
  -3   4  -5  413.28   11.12
   3   4   5  391.18   14.52
   3   4   5  393.86   15.56
   3  -4  -5  393.38   18.23
  -3   4  -6   39.18    3.74
   3  -4  -6   42.38    7.10
   3   4   6   39.10    5.25
   3  -4  -6   42.37    5.05
   3   4   6   35.09    4.62
  -3  -4   6   38.78    3.70
   3  -4  -6   44.89    5.81
  -3   4  -7  128.81    6.27
   3   4   7  121.24    9.26
   3  -4  -7  126.32    8.37
  -3  -4   7  121.72    6.04
   3  -4  -7  113.69    9.38
   3   4   7  116.21    8.05
   3  -4  -7  117.19   11.45
   3   4   8    2.34    2.46
   3  -4  -8    3.40    3.70
   3  -4  -8    2.95    2.02
   3   4   8    5.04    2.25
  -3  -4   8    4.24    1.51
  -3   4  -8    6.29    2.01
   3  -4  -8    3.38    2.79
   3   4   9   15.54    3.35
   3  -4  -9   25.36    6.76
  -3  -4   9   17.81    4.93
   3   4   9   18.81    4.51
   3  -4  -9   14.10    3.11
  -3  -4   9   19.74    2.46
  -3   4  -9   18.03    4.43
   3  -4  -9   15.21    4.22
  -3   4  -9   19.46    2.49
   3  -4 -10   22.73    6.69
   3   4  10   21.35    4.58
  -3  -4  10   26.21    2.69
  -3   4 -10   23.02    4.99
   3  -4 -10   24.41    3.95
   3   4  10   19.33    3.72
   3  -4 -10   26.37    5.33
  -3  -4  10   20.40    5.06
  -3   4 -10   27.08    2.75
  -3  -4  11   72.88    8.96
   3   4  11   68.88    8.25
  -3   4 -11   73.17    8.71
   3  -4 -11   76.14    6.71
   3  -4 -11   77.50    9.05
   3   4  11   86.79    7.46
  -3   4 -11   86.05    4.64
   3  -4 -11   82.22   11.46
   3   4  12   63.27    8.34
   3  -4 -12   71.32   11.48
   3  -4 -12   54.24    7.91
  -3   4 -12   49.13    7.44
  -3  -4  12   53.96    8.15
  -3   4 -12   50.42    3.52
   3  -4 -13   21.88    7.14
   3   4  13   23.55    5.54
  -3  -4  13   26.18    6.06
  -3   4 -13   32.74    6.46
   3  -4 -13   27.54    6.37
   3  -4 -14    4.20    4.28
  -3  -4  14   16.52    5.32
   3   4  14    9.81    4.30
  -3   4 -14   13.30    4.68
   3  -4 -14    9.42    4.43
   3  -4 -15    5.62    4.36
  -3  -4  15   11.87    5.14
   3   4  15   20.65    5.43
  -3   4 -15   17.73    5.31
   3  -4 -15   12.95    4.75
   3  -4 -16    0.69    4.35
  -3  -4  16    6.07    3.92
   3   4  16   13.50    5.31
  -3   4 -16   11.68    4.17
   3  -4 -16   -0.74    2.80
   3  -4 -17    3.74    5.51
  -3  -4  17    6.71    4.07
   3   4  17   -1.24    2.64
  -3   4 -17    7.10    4.08
   3  -4 -17    8.35    4.14
   3  -5  18    3.73    3.09
   3   5 -18    5.69    2.97
  -3  -5 -17    8.40    5.45
   3  -5  17    2.72    3.04
  -3   5  17    6.52    3.45
   3   5 -17    4.80    3.22
  -3  -5 -17    4.28    3.42
  -3  -5 -16    4.07    4.46
   3  -5  16    1.56    2.45
  -3   5  16    0.04    2.45
   3   5 -16    2.91    2.61
  -3  -5 -16   -3.13    3.07
  -3  -5 -15    0.75    4.33
   3  -5  15    7.04    3.29
  -3   5  15    3.16    3.03
   3   5 -15    2.53    2.57
  -3  -5 -15    6.04    3.22
  -3  -5 -14    4.26    3.68
   3  -5  14    9.44    3.38
   3   5 -14    1.04    2.20
  -3  -5 -14    8.38    3.59
  -3   5  14    6.28    2.74
  -3  -5 -13   36.21    6.94
   3  -5  13   42.84    6.13
  -3   5  13   37.21    5.75
   3   5 -13   46.57    6.37
  -3  -5 -13   42.43    6.63
  -3  -5 -12   -0.56    2.73
  -3   5  12    6.96    3.12
   3   5 -12    1.92    1.78
  -3  -5 -12    2.40    2.42
   3  -5  12    2.33    2.21
  -3   5  11    2.10    1.30
  -3  -5 -11    0.95    2.71
   3   5 -11   -0.81    1.95
   3  -5  11    3.65    2.53
  -3   5  11    0.80    1.86
   3  -5  11   -0.60    1.53
   3   5 -11    1.42    2.25
  -3  -5 -11    0.85    1.91
   3  -5  10  232.76   11.42
  -3   5  10  219.53   11.52
   3   5 -10  228.20   11.55
  -3  -5 -10  235.49   12.97
   3  -5  10  231.33   12.51
  -3   5  10  237.45    8.34
   3   5 -10  245.06   12.73
  -3  -5 -10  217.26   14.43
   3  -5   9  120.01    7.75
  -3   5   9  119.86    8.07
   3  -5   9  109.64    8.48
   3   5  -9  113.52    7.77
  -3  -5  -9  125.86    6.17
  -3  -5  -9  110.11    8.49
   3   5  -9  118.53    8.80
  -3   5   9  129.42    6.18
  -3   5   8    7.62    1.82
   3  -5   8    5.10    1.88
  -3   5   8    5.93    2.49
   3   5  -8    5.74    2.52
  -3  -5  -8    9.71    2.05
   3  -5   8    8.74    2.68
   3   5  -8    7.35    2.20
  -3  -5  -8    6.72    2.43
  -3   5   7   33.91    4.04
   3   5  -7   37.33    5.00
   3   5  -7   35.05    3.90
   3  -5   7   37.22    3.77
  -3  -5  -7   32.31    4.26
  -3  -5  -7   35.23    3.58
   3  -5   7   32.04    3.68
  -3   5   7   32.69    3.31
   3  -5   6  218.50    7.98
  -3   5   6  228.01    9.05
   3   5  -6  214.62    8.28
  -3  -5  -6  212.86    8.39
  -3  -5  -6  221.65    9.69
   3   5  -6  212.75   11.43
  -3   5   6  244.62    8.86
   3  -5   5  120.12    5.24
   3   5  -5  115.72    5.49
  -3  -5  -5  127.29    6.55
  -3  -5  -5  122.91    6.70
  -3   5   5  130.54    6.26
   3   5  -5  113.02    8.19
  -3   5   5  131.03    6.66
  -3   5   4   98.46    5.83
  -3   5   4   88.83    4.65
   3  -5   4   88.13    6.15
   3  -5   4   86.43    3.88
   3   5  -4   83.68    4.02
  -3  -5  -4   73.12    5.15
  -3  -5  -4   90.13    5.29
   3   5  -4   82.28    6.99
  -3   5   3  382.41   11.42
   3  -5   3  388.71   12.28
  -3   5   3  372.75    8.08
   3  -5   3  353.54    5.32
   3   5  -3  332.65    6.53
  -3  -5  -3  351.27   11.04
  -3  -5  -3  352.45    9.28
   3   5  -3  363.25   14.30
  -3   5   2  262.62    9.70
  -3   5   2  262.96    5.08
   3  -5   2  264.53    9.84
  -3   5   2  252.37    9.35
  -3  -5  -2  254.62    9.55
   3   5  -2  261.64   12.15
  -3   5   1  195.29    7.93
  -3   5   1  185.08    8.15
  -3  -5  -1  193.44    8.34
   3   5  -1  189.18   10.35
   3  -5   1  187.69    8.90
  -3   5   0  163.51    7.73
  -3  -5   0  171.11    7.93
   3   5   0  155.67    9.47
   3  -5   0  164.29    8.91
  -3   5  -1  181.92    8.15
   3   5   1  175.42    4.18
  -3  -5   1  187.63    8.23
   3   5   1  175.86   10.11
   3  -5  -1  185.67   10.24
  -3   5  -2  271.55    9.71
   3   5   2  256.71   10.72
   3   5   2  257.26    6.56
  -3  -5   2  254.69    9.48
   3   5   2  257.93   12.09
   3  -5  -2  276.49   13.18
  -3   5  -3  374.65   11.43
   3   5   3  370.02   13.25
   3   5   3  341.58    8.99
  -3  -5   3  346.22   10.94
   3   5   3  382.01   14.83
   3  -5  -3  378.95   16.52
  -3   5  -4   85.67    5.53
   3   5   4   88.22    6.76
   3   5   4   84.58    5.08
  -3  -5   4   87.14    5.53
   3   5   4   73.71    6.68
   3  -5  -4   88.59    8.65
   3  -5  -5  116.75    6.85
  -3  -5   5  137.89    6.74
   3   5   5  110.04    8.18
   3  -5  -5  132.15   11.02
  -3   5  -5  134.04    6.87
   3   5   6  213.91   12.68
  -3  -5   6  213.22    8.28
   3   5   6  222.19   11.64
   3  -5  -6  212.81   14.79
  -3   5  -6  214.93    8.37
   3   5   7   32.22    5.34
   3  -5  -7   35.09    7.16
  -3  -5   7   35.08    3.40
   3  -5  -7   32.01    5.56
   3   5   7   37.94    5.27
  -3   5  -7   32.12    3.36
   3  -5  -8    5.25    4.48
   3   5   8    7.49    3.80
  -3   5  -8    5.77    1.81
   3   5   8    9.39    2.80
   3  -5  -8    7.54    2.73
  -3  -5   8    9.01    1.90
   3  -5  -8    4.09    2.86
   3   5   9  120.17   10.49
   3  -5  -9  124.60    9.06
  -3  -5   9  129.50    6.14
   3  -5  -9  129.63   11.12
   3   5   9  127.12    9.26
  -3   5  -9  124.72    6.18
   3  -5  -9  113.77   12.75
  -3  -5  10  212.87   14.88
  -3   5 -10  220.43   14.82
   3  -5 -10  231.00   15.23
   3   5  10  238.52   14.93
   3  -5 -10  236.97   18.78
   3  -5 -10  212.32   11.84
  -3   5 -10  235.14    8.31
   3   5  10  242.24   12.76
   3  -5 -11    0.83    3.51
  -3   5 -11    0.32    1.01
   3  -5 -11    3.00    2.37
   3   5  11    2.30    2.86
   3   5  11   -0.22    1.71
  -3   5 -11    2.67    2.73
   3  -5 -11    1.96    2.56
  -3  -5  11   -1.52    3.68
  -3   5 -12    0.19    0.94
   3  -5 -12    4.60    5.33
  -3  -5  12    6.14    3.66
   3   5  12    7.78    3.71
  -3   5 -12    6.64    3.38
   3  -5 -12    4.62    3.58
   3  -5 -13   32.21    8.69
  -3  -5  13   38.88    7.09
   3   5  13   35.10    7.08
  -3   5 -13   43.14    7.31
   3  -5 -13   36.86    7.29
   3  -5 -14    3.36    4.82
  -3  -5  14   13.63    5.17
   3   5  14    8.01    3.80
  -3   5 -14    6.80    3.32
   3  -5 -14    2.20    3.60
   3  -5 -15    3.73    5.25
   3   5  15    6.30    3.73
  -3  -5  15    5.58    4.37
  -3   5 -15    7.67    4.26
   3  -5 -15    7.91    3.97
  -3  -5  16    7.03    4.39
   3   5  16    1.55    3.09
  -3   5 -16    3.23    2.89
   3  -5 -16    4.16    3.44
  -3  -5  17    8.92    4.66
  -3  -6 -17    7.22    4.76
  -3   6  17    1.07    2.58
  -3  -6 -17    1.62    3.20
  -3  -6 -16   -1.24    3.85
  -3   6  16   -4.41    3.21
  -3  -6 -16    5.76    3.45
  -3  -6 -15    2.30    3.64
  -3   6  15   -0.78    2.50
   3  -6  15    2.39    2.82
   3   6 -15    6.34    3.18
  -3  -6 -15    8.19    3.84
  -3  -6 -14    3.27    3.93
  -3  -6 -14    7.14    3.57
   3  -6  14    1.33    1.98
  -3   6  14    0.06    2.37
   3   6 -14    7.32    2.95
  -3  -6 -13   33.33    7.49
  -3   6  13   34.82    5.97
   3   6 -13   25.94    4.85
   3  -6  13   40.43    6.00
  -3  -6 -13   36.48    6.29
   3  -6  12   94.22    8.29
  -3   6  12   84.47    8.34
   3   6 -12   92.15    8.39
  -3  -6 -12   85.43    8.88
  -3  -6 -12   82.92   10.68
  -3  -6 -11    3.20    3.45
  -3   6  11    0.39    1.15
   3  -6  11    1.50    2.29
   3   6 -11    2.58    2.10
   3  -6  11    4.47    2.35
   3   6 -11    2.48    1.89
  -3  -6 -11    1.61    2.02
  -3   6  11    5.89    2.91
  -3   6  10   40.52    5.39
   3   6 -10   40.96    5.67
  -3  -6 -10   47.17    7.48
  -3  -6 -10   47.21    6.06
   3  -6  10   35.31    5.50
   3   6 -10   40.85    5.03
   3  -6  10   46.56    5.25
  -3   6  10   41.05    3.87
   3  -6   9  407.41   14.11
  -3   6   9  406.46   15.25
   3   6  -9  392.25   14.43
  -3  -6  -9  416.72   16.71
  -3   6   9  420.49   11.94
   3   6  -9  428.26   17.46
   3  -6   8   72.55    5.57
   3   6  -8   72.53    5.86
  -3  -6  -8   72.23    6.72
  -3   6   8   64.62    5.98
  -3   6   8   71.85    5.12
   3   6  -8   73.92    7.46
   3  -6   7  101.23    6.06
  -3  -6  -7   99.33    5.88
  -3   6   7   92.87    6.51
   3   6  -7   93.28    6.13
  -3  -6  -7   93.27    7.19
  -3   6   7   98.08    5.95
   3   6  -7   87.84    7.92
  -3   6   6  123.65    6.89
   3   6  -6  114.42    6.29
  -3  -6  -6  135.79    6.86
  -3  -6  -6  137.56    8.13
   3  -6   6  126.73    6.06
  -3   6   6  130.62    6.82
   3   6  -6  125.84    9.23
   3  -6   5   48.93    3.37
  -3   6   5   47.48    3.96
   3   6  -5   47.82    3.68
  -3  -6  -5   45.77    4.49
  -3  -6  -5   42.55    4.10
  -3   6   5   47.57    4.30
   3   6  -5   46.62    5.79
   3  -6   4  173.86    8.52
  -3   6   4  172.83    6.63
   3   6  -4  172.48    6.13
  -3  -6  -4  179.13    8.08
  -3  -6  -4  164.28    7.48
   3  -6   4  173.51    4.99
   3   6  -4  177.15   10.85
  -3   6   4  180.94    8.03
  -3   6   3  115.08    6.48
   3  -6   3  127.20    6.98
  -3   6   3  117.15    4.74
   3   6  -3  115.39    4.62
  -3  -6  -3  111.23    6.52
   3   6  -3  119.42    8.92
  -3   6   3  125.18    6.77
   3   6  -2   77.81    3.08
  -3   6   2   83.05    5.22
  -3  -6  -2   81.66    5.50
   3   6  -2   81.55    3.22
   3   6  -2   75.30    7.00
  -3   6   2   82.81    5.59
   3   6  -1  157.75    3.92
   3   6  -1  152.27    3.83
  -3  -6  -1  161.08    7.69
   3   6  -1  161.04   10.27
  -3   6   1  171.81    7.95
   3  -6   0    7.58    2.75
  -3   6   0   10.01    2.25
   3   6   0    6.14    2.34
  -3  -6   0    6.59    2.14
   3   6   0    7.54    0.98
   3   6   1  171.07    5.12
  -3  -6   1  162.84    7.75
   3   6   1  161.42   10.28
   3  -6  -1  169.30   10.43
  -3   6  -1  176.51    8.02
   3   6   2   85.74    4.34
  -3  -6   2   81.58    5.49
   3   6   2   86.87    7.62
   3  -6  -2   79.59    7.88
  -3   6  -2   80.78    5.50
   3   6   3  117.29    7.61
   3   6   3  121.46    5.62
  -3  -6   3  130.38    6.85
   3   6   3  127.05    9.26
   3  -6  -3  144.57   10.79
  -3   6  -3  127.52    6.89
   3   6   4  161.23    9.27
   3   6   4  160.83    7.23
  -3  -6   4  156.99    7.52
   3  -6  -4  162.06    7.00
   3   6   4  171.28   10.79
   3  -6  -4  170.85   12.49
  -3   6  -4  177.65    7.97
   3  -6  -5   44.65    7.15
   3   6   5   42.60    4.94
   3   6   5   42.86    5.76
  -3  -6   5   47.54    4.29
   3  -6  -5   39.89    4.03
  -3   6  -5   51.45    4.43
  -3  -6   6  127.51    6.67
  -3   6  -6  134.97    6.97
   3   6   6  132.95    9.62
   3  -6  -6  136.91   12.47
   3   6   7   95.08    9.11
  -3  -6   7   99.60    5.81
  -3   6  -7  103.19    6.03
   3   6   7   94.80    8.28
   3  -6  -7   94.47   10.77
   3   6   8   60.81    7.69
   3  -6  -8   59.38    9.31
   3  -6  -8   66.87    8.23
  -3   6  -8   75.22    5.24
   3   6   8   63.65    6.85
  -3   6  -9  402.18   11.77
   3  -6  -9  398.69   20.33
   3   6   9  424.55   20.30
   3   6   9  416.95   17.52
   3  -6  -9  414.56   24.18
   3  -6 -10   57.22   10.09
   3  -6 -10   50.44    6.32
   3   6  10   40.14    6.76
  -3  -6  10   35.37    6.44
  -3   6 -10   36.76    6.58
  -3   6 -10   43.47    4.03
   3  -6 -10   43.81    7.30
   3   6  10   43.40    5.88
  -3   6 -11    0.77    1.28
  -3  -6  11    2.65    2.99
   3  -6 -11   -0.57    3.16
   3   6  11    1.32    1.97
   3  -6 -11    5.39    2.67
   3   6  11    3.53    2.54
  -3   6 -11    5.12    3.26
   3  -6 -11    4.88    2.81
   3  -6 -12   82.04   12.42
  -3  -6  12   79.06    9.96
   3   6  12   96.34   10.55
  -3   6 -12   88.86   10.38
   3  -6 -12   82.44   10.27
   3  -6 -13   29.40    8.22
  -3  -6  13   27.47    6.71
  -3   6 -13   23.17    5.82
   3  -6 -13   36.06    7.31
   3   6  13   36.26    6.70
   3  -6 -14   16.62    6.78
   3   6  14    1.71    3.37
  -3   6 -14    5.05    3.32
  -3  -6  14    8.95    4.70
   3  -6 -14    9.24    4.31
   3  -6 -15    6.98    5.71
   3   6  15    4.56    3.38
  -3  -6  15   14.00    5.49
  -3   6 -15    3.79    2.91
   3  -6 -15    2.95    3.21
   3   6  16    8.21    3.89
  -3  -6  16    7.66    4.47
  -3   6 -16    4.90    3.38
  -3   7  16   -2.49    3.04
  -3  -7 -16   -1.13    3.36
  -3  -7 -16    4.05    3.28
  -3  -7 -15    5.50    4.38
  -3   7  15   -3.48    2.79
  -3  -7 -15    2.95    2.98
  -3  -7 -14   19.78    6.57
  -3   7  14    9.64    3.51
  -3  -7 -14    8.07    3.68
  -3  -7 -13   23.05    6.44
  -3   7  13   16.27    4.31
  -3  -7 -13   22.32    5.15
  -3  -7 -12    8.11    4.70
  -3   7  12    5.12    2.67
  -3  -7 -12    7.58    3.26
  -3  -7 -11    7.55    4.18
   3   7 -11   17.01    4.32
  -3   7  11   21.09    4.21
   3  -7  11   14.61    4.03
   3   7 -11   17.85    3.65
  -3  -7 -11   17.05    4.35
  -3   7  11   18.98    2.97
  -3   7  10    3.16    1.59
  -3   7  10    7.71    2.58
   3   7 -10    8.49    3.15
   3   7 -10    7.26    2.35
  -3  -7 -10    8.58    3.08
  -3   7   9   51.66    5.65
   3   7  -9   53.14    5.42
  -3  -7  -9   53.23    6.32
  -3   7   9   53.15    4.80
   3   7  -9   53.98    6.80
   3  -7   8   32.10    3.87
   3   7  -8   27.69    4.96
  -3   7   8   31.48    4.31
   3   7  -8   29.90    3.87
  -3  -7  -8   33.07    4.85
  -3   7   8   28.40    3.60
   3  -7   7   50.00    4.23
   3   7  -7   38.68    5.62
   3   7  -7   41.46    4.33
  -3  -7  -7   47.65    5.45
  -3   7   7   42.81    4.58
  -3   7   7   47.77    4.56
   3  -7   6  151.34    6.48
  -3   7   6  158.43    8.04
   3   7  -6  159.32    7.55
  -3  -7  -6  147.65    8.84
  -3   7   6  148.84    7.76
   3   7  -6  150.47   10.78
   3  -7   5  201.37    9.44
   3  -7   5  199.82    6.29
  -3   7   5  198.26    8.31
   3   7  -5  203.12    8.06
  -3  -7  -5  195.89    9.36
  -3   7   5  196.44    8.89
   3   7  -5  197.71   12.19
  -3   7   4  103.51    5.41
   3  -7   4  100.64    3.45
   3  -7   4   99.28    6.26
   3   7  -4   99.84    5.09
  -3   7   4  100.13    6.44
   3   7  -4   96.37    8.75
   3   7  -3   38.08    5.87
  -3  -7  -3   48.56    4.55
  -3   7   3   39.03    4.29
   3   7  -3   37.70    2.95
  -3  -7  -2  252.44    9.97
   3   7  -2  248.44    6.70
  -3   7   2  280.66   10.61
   3   7  -2  261.98   13.77
  -3  -7  -1  181.62    8.45
  -3   7   1  167.07    8.23
   3   7  -1  158.46   11.10
   3   7   0  346.16    7.78
  -3  -7   0  395.86   12.32
  -3   7   0  376.84   12.23
   3   7   0  378.89   16.53
  -3  -7   1  171.76    8.21
  -3   7  -1  155.79    7.98
   3   7   1  158.92   11.12
   3  -7  -1  158.64   10.92
  -3  -7   2  270.53   10.28
  -3   7  -2  268.19   10.39
   3   7   2  289.81   14.49
   3  -7  -2  283.57   15.09
   3  -7  -3   31.95    5.78
   3   7   3   40.41    5.80
  -3  -7   3   52.17    4.68
  -3   7  -3   41.34    4.25
   3   7   4   98.23    7.30
  -3   7  -4  111.15    6.74
   3  -7  -4  103.33   10.45
   3   7   4   90.09    8.34
   3   7   5  226.31   11.48
  -3   7  -5  210.27    9.14
   3  -7  -5  220.92   15.54
   3   7   5  209.00   12.79
   3   7   6  161.27   10.02
  -3   7  -6  153.37    7.92
   3   7   6  147.56   10.80
   3  -7  -6  139.88   13.07
   3  -7  -7   51.99    8.29
   3   7   7   33.66    5.49
  -3   7  -7   44.00    4.38
   3  -7  -8   28.15    6.86
   3   7   8   34.84    5.46
   3   7   8   27.69    5.65
  -3   7  -8   32.84    3.87
   3  -7  -9   48.78    8.79
   3   7   9   55.54    7.93
  -3   7  -9   63.03    5.15
   3   7   9   52.30    6.75
  -3   7 -10    3.53    1.71
   3  -7 -10    9.74    5.68
   3   7  10    3.81    3.08
   3   7  10   12.44    3.80
  -3  -7  10   11.21    4.60
   3  -7 -10    4.84    3.03
   3   7  11   19.85    5.46
   3  -7 -11   19.28    7.19
  -3  -7  11   19.79    5.38
  -3   7 -11   23.60    5.64
   3   7  11   16.81    4.13
   3  -7 -11   18.14    4.63
   3  -7 -11   24.21    5.77
  -3   7 -11   17.95    2.99
   3  -7 -12    8.33    5.85
  -3  -7  12   -0.03    2.90
   3   7  12   -1.78    3.04
  -3   7 -12    5.55    3.52
   3  -7 -12    6.08    3.57
  -3  -7  13   20.11    5.91
   3  -7 -13   10.61    5.69
   3   7  13   20.21    5.62
  -3   7 -13   15.60    5.18
   3  -7 -13   20.12    5.86
   3   7  14   13.03    5.15
  -3  -7  14    7.85    4.78
  -3   7 -14    6.45    3.62
   3  -7 -14    7.86    4.52
   3   7  15    7.64    4.06
  -3  -7  15   -2.03    3.90
  -3   7 -15    0.32    2.42
   3  -7 -15    3.99    3.42
  -3  -8 -14    2.59    3.64
  -3  -8 -14   12.09    4.15
  -3  -8 -13    0.31    3.60
  -3  -8 -13    2.22    2.35
  -3  -8 -12   -0.30    3.23
  -3  -8 -12    1.53    2.33
  -3  -8 -11   11.85    4.80
   3   8 -11    9.00    3.39
  -3  -8 -11   10.79    3.67
  -3   8  11    8.64    2.39
   3   8 -10   -1.94    2.80
  -3  -8 -10    0.18    1.97
  -3   8  10    0.47    1.53
  -3   8   9    0.72    1.40
   3   8  -9    1.65    2.01
  -3  -8  -9    1.67    2.05
  -3   8   8    5.52    2.03
   3   8  -8    7.16    2.82
  -3  -8  -8    6.36    2.48
  -3   8   7   12.29    2.61
   3   8  -7    8.26    2.89
  -3  -8  -7   12.38    2.94
  -3   8   6   17.48    3.10
   3   8  -6   16.80    4.16
  -3   8   5  252.74   10.72
   3   8  -5  222.84   13.65
  -3   8   4   18.35    3.28
   3   8  -4   19.17    4.63
  -3   8   3  169.97    8.73
   3   8  -3  170.15   12.19
  -3   8   2   72.72    5.97
   3   8  -2   67.17    7.51
  -3   8   1  137.69    8.00
   3   8  -1  120.63   10.31
   3   8   0   50.32    6.77
  -3   8   0   60.59    5.41
  -3   8  -1  132.62    7.81
   3  -8  -1  127.86   10.36
   3   8   1  131.87   10.67
  -3   8  -2   70.26    5.81
   3  -8  -2   63.97    8.00
   3   8   2   71.82    7.84
  -3   8  -3  172.21    8.89
   3  -8  -3  174.08   13.11
   3   8   3  160.22   11.75
   3  -8  -4   31.24    6.58
  -3   8  -4   22.81    3.49
   3   8   5  246.20   12.00
  -3   8  -5  253.94   10.73
   3  -8  -5  250.41   17.04
   3   8   5  239.26   14.40
  -3   8  -6   22.67    3.50
   3  -8  -6   14.56    4.66
   3   8   6   15.84    3.43
   3   8   6   15.78    4.29
  -3   8  -7   10.54    2.49
   3  -8  -7    5.78    4.72
   3   8   7    9.65    3.61
   3   8   7   11.31    3.25
  -3   8  -8    7.26    2.19
   3   8   8    4.70    2.89
   3  -8  -8   10.02    5.66
   3   8   8   12.12    3.38
  -3   8  -9    2.37    1.70
   3  -8  -9   -1.30    3.27
   3   8   9    2.80    2.23
  -3  -8  10    0.03    3.38
   3  -8 -10   -2.79    4.84
   3   8  10   -3.05    2.85
   3   8  10   -4.72    3.91
  -3   8 -10   -2.34    1.90
   3  -8 -11   12.42    6.58
   3   8  11   15.31    4.27
   3   8  11    9.01    4.40
  -3   8 -11    0.69    2.62
  -3  -8  11    3.45    2.86
  -3   8 -11    7.61    2.29
   3  -8 -12    5.20    6.46
  -3  -8  12    1.97    3.57
   3   8  12   -1.62    3.12
  -3   8 -12    0.98    2.64
   3   8  13    2.96    3.14
   3  -8 -13   -0.59    3.64
  -3  -8  13   -1.79    3.00
  -3   8 -13    3.55    3.57
   3  -8 -13   -1.34    2.86
   3   8  14    5.84    3.73
  -3   8 -14    5.12    3.42
  -3  -8  14    2.89    3.22
   3  -8 -14    7.73    4.50
  -3  -8  15   10.37    4.95
  -3  -9 -13   -0.92    3.19
  -3  -9 -12   40.77    8.77
  -3  -9 -11   10.65    5.03
   3   9 -11   11.45    3.87
  -3   9  11    5.84    2.44
   3   9 -10   11.79    3.76
  -3   9  10   25.84    4.15
   3   9  -9   -0.66    3.05
  -3   9   9    4.52    2.18
   3   9  -8   30.90    5.88
  -3   9   8   26.90    4.11
  -3   9   7   12.08    2.89
   3   9  -7   11.42    3.71
  -3   9   6   21.26    3.73
   3   9  -6   22.28    4.77
  -3   9   5    9.92    2.86
   3   9  -5    8.30    3.41
  -3   9   4   30.26    4.31
   3   9  -4   33.80    5.85
  -3   9   3   16.22    3.28
   3   9  -3   12.71    3.63
  -3   9   2   38.14    4.59
   3   9  -2   27.99    5.73
  -3   9   1    2.89    1.67
   3   9  -1    1.53    1.81
  -3   9   0    2.36    1.85
   3   9   0    1.38    2.39
  -3   9  -1    2.01    1.47
   3  -9  -1    5.48    3.31
   3   9   1    4.51    2.50
  -3   9  -2   37.35    4.61
   3  -9  -2   39.37    6.75
   3   9   2   36.03    6.28
   3  -9  -3   14.64    4.67
  -3   9  -3   25.52    3.95
   3   9   3   26.19    5.58
  -3   9  -4   31.11    4.30
   3  -9  -4   27.91    6.51
   3   9   4   27.15    5.73
  -3   9  -5    9.12    2.66
   3  -9  -5    5.56    4.22
   3   9   5   11.40    4.10
  -3   9  -6   23.50    3.83
   3   9   6   17.18    4.55
  -3   9  -7   13.18    3.01
   3  -9  -7   14.67    5.50
   3   9   7    7.93    3.70
   3  -9  -8   37.18    8.35
   3   9   8   24.27    5.41
  -3   9  -8   23.77    3.83
   3   9   9    3.07    2.10
   3  -9  -9    3.29    3.77
  -3   9  -9    6.01    2.30
   3  -9 -10   12.90    5.78
  -3  -9  10   16.36    5.40
   3   9  10   14.94    4.21
  -3   9 -10   21.19    3.64
   3  -9 -11    4.02    4.35
  -3  -9  11    1.55    3.35
   3   9  11    0.82    2.56
  -3   9 -11    6.11    3.76
  -3   9 -11    4.53    2.38
   3  -9 -12   18.29    7.09
  -3  -9  12   26.67    6.61
   3   9  12   40.50    7.95
  -3   9 -12   27.23    6.56
  -3  -9  13   -1.21    2.59
   3   9  13    0.27    2.24
  -3   9 -13    0.79    2.87
  -3  -9  14   -3.54    3.45
   3  10 -10    0.16    2.27
  -3  10  10    3.51    2.32
   3  10  -9    5.73    3.20
  -3  10   9   11.68    3.30
   3  10  -8    2.05    2.56
  -3  10   8    7.14    2.47
   3  10  -7    7.55    3.75
  -3  10   7    5.01    2.20
   3  10  -6    6.33    3.59
  -3  10   6    6.92    2.67
   3  10  -5   47.77    7.51
  -3  10   5   48.12    5.69
   3  10  -4   14.76    4.76
  -3  10   4    9.00    2.90
  -3  10   3   16.44    3.52
   3  10  -3   12.01    3.84
  -3  10   2   38.08    5.02
   3  10  -2   43.05    7.21
  -3  10   1    6.71    2.50
   3  10  -1    6.60    3.25
  -3  10   0   52.56    5.83
   3  10   0   58.98    8.04
  -3  10  -1   10.41    2.91
   3 -10  -1   11.65    4.31
   3  10   1   10.80    3.97
  -3  10  -2   32.07    4.64
   3 -10  -2   49.06    7.84
   3  10   2   43.82    7.31
  -3  10  -3   12.51    3.05
   3 -10  -3   21.91    5.84
   3  10   3   13.78    4.28
   3 -10  -4    9.58    4.61
   3  10   4    7.14    4.06
  -3  10  -4   12.76    3.27
   3 -10  -5   53.34    8.82
   3  10   5   49.12    7.68
  -3  10  -5   45.42    5.39
   3 -10  -6    6.56    4.62
   3  10   6    5.34    3.18
  -3  10  -6    9.47    2.84
   3 -10  -7    8.99    4.68
   3  10   7    3.70    3.02
  -3  10  -7    9.39    3.10
   3 -10  -8    3.32    3.64
   3  10   8    1.63    2.50
  -3  10  -8    7.46    2.53
   3 -10  -9   10.92    5.31
   3  10   9    8.85    3.50
  -3  10  -9   13.66    3.33
   3 -10 -10    4.52    4.68
   3  10  10    1.81    2.17
  -3 -10  10   -0.40    3.10
  -3  10 -10    9.42    3.04
  -3 -10  11    3.11    3.10
  -3  10 -11    7.01    3.89
   3  10  11    7.22    3.57
  -3  10 -11    8.75    2.92
  -3 -10  12    3.50    2.98
  -3  10 -12    2.20    3.01
  -3 -10  13    3.64    3.75
  -3  11  10    2.78    2.17
   3  11 -10   -4.54    3.25
   3  11  -9    5.53    3.59
  -3  11   9    3.90    2.14
   3  11  -8    3.28    3.29
  -3  11   8    9.47    3.23
   3  11  -7    4.08    2.77
  -3  11   7    6.46    2.67
   3  11  -6    8.98    4.15
  -3  11   6   14.55    3.57
   3  11  -5   13.64    4.42
  -3  11   5    6.07    2.62
   3  11  -4    5.02    3.25
  -3  11   4    6.61    2.68
   3  11  -3   -2.58    3.16
  -3  11   3    3.03    2.28
   3  11  -2   19.26    5.51
  -3  11   2   18.01    3.96
   3  11  -1    1.96    2.52
  -3  11   1    3.88    2.17
   3  11   0    2.56    2.89
  -3  11   0   -2.56    2.19
   3 -11  -1    1.59    3.21
   3  11   1   11.94    4.61
  -3  11  -1    5.25    2.59
   3 -11  -2   19.75    5.69
   3  11   2   12.75    4.84
  -3  11  -2   11.77    3.18
   3 -11  -3    7.42    4.22
   3  11   3    2.80    2.76
  -3  11  -3   -1.59    2.61
   3 -11  -4   10.22    4.71
   3  11   4    8.14    4.44
  -3  11  -4    9.82    3.05
   3 -11  -5   11.03    5.30
   3  11   5   11.66    4.70
  -3  11  -5   11.54    3.35
   3 -11  -6   14.02    6.27
   3  11   6    9.26    4.29
  -3  11  -6   16.57    4.00
   3  11   7    3.72    3.65
  -3  11  -7    9.31    3.19
   3 -11  -8    7.49    5.93
   3  11   8   -5.47    3.35
  -3  11  -8    7.14    2.77
   3  11   9    2.24    2.81
  -3  11  -9    8.34    3.02
   3  11  10   -0.98    3.03
  -3 -11  10    2.34    3.15
  -3  11 -10    2.64    2.23
   3  12  -5   -0.15    3.07
   3  12  -4    8.72    4.10
   3  12  -3   -0.11    2.94
  -3  12   3    9.19    3.09
   3  12  -2    7.48    3.81
  -3  12   2   12.72    3.82
   3  12  -1   20.03    5.96
  -3  12   1   19.70    4.44
   3 -12   0   -1.32    2.89
   3  12   0    5.32    4.06
  -3  12   0    9.49    3.57
   3 -12  -1    2.87    3.11
   3  12   1   16.65    5.91
  -3  12  -1   20.84    4.43
   3 -12  -2    8.18    4.54
   3  12   2    1.61    2.97
  -3  12  -2    7.69    3.10
   3 -12  -3    4.34    4.02
   3  12   3   15.25    5.32
  -3  12  -3    8.81    3.16
   3 -12  -4   11.70    5.58
  -3  12  -4    9.85    3.54
   3 -12  -5   -9.51    5.38
   3 -12  -6    0.21    3.69
   3 -13  -2    2.86    3.55
   3 -13  -3    6.85    5.35
   4   0   0   50.16    5.37
  -4   0   0   51.51    5.16
  -4   0   1   -0.91    1.18
   4   0  -1    0.09    1.48
   4   0   1    0.52    1.89
   4   0   1    0.39    1.71
  -4   0   1   -0.06    0.85
  -4   0  -1   -0.13    1.05
   4   0   2  703.93   19.26
  -4   0   2  739.60   15.38
   4   0  -2  702.38   19.05
   4   0   2  721.31   19.46
   4   0  -3   21.98    3.58
   4   0   3   26.69    4.09
   4   0   3   19.71    3.57
   4   0  -4    3.11    2.02
   4   0   4    3.12    2.11
   4   0   4    3.68    2.52
   4   0   4    1.11    1.51
   4   0  -4    0.90    1.39
   4   0  -4    1.98    2.39
   4   0   5 1193.90   23.12
   4   0  -5 1219.36   22.99
   4   0  -5 1137.30   24.29
   4   0   5 1150.16   24.97
   4   0  -5 1181.21   32.07
   4   0   6  284.89   12.06
  -4   0  -6  258.64   11.68
   4   0  -6  289.66   11.81
   4   0  -6  287.46   12.24
   4   0   6  284.81   12.43
   4   0  -6  292.06   17.03
  -4   0  -6  287.99    8.42
   4   0   7   52.70    5.53
  -4   0   7   47.35    5.85
  -4   0  -7   46.95    5.33
   4   0  -7   49.98    5.41
   4   0  -7   52.81    5.37
   4   0   7   50.19    5.36
  -4   0  -7   44.75    3.84
   4   0  -7   51.60    7.78
   4   0  -8    0.24    1.60
   4   0   8    1.54    1.77
  -4   0  -8    2.09    1.60
  -4   0   8    3.28    3.02
   4   0   8    3.58    2.42
  -4   0  -8    1.47    1.87
   4   0  -8    4.24    2.42
   4   0  -8    2.49    2.90
   4   0   9   68.08    6.85
  -4   0   9   69.98    5.86
  -4   0  -9   70.61    5.95
  -4   0  -9   74.07    7.34
   4   0  -9   77.76    7.42
  -4   0   9   72.53    7.87
  -4   0  -9   74.09    5.81
   4   0  -9   61.17    9.22
  -4   0  10   85.48    8.80
   4   0  10   80.54    7.85
  -4   0 -10   78.61    6.22
  -4   0 -10   84.52    8.14
   4   0 -10  103.94    8.92
  -4   0  10   87.98    6.42
   4   0 -10   90.70   11.22
  -4   0 -10   76.59    6.47
  -4   0 -11   18.14    3.78
   4   0  11   20.27    4.18
  -4   0  11   14.79    2.50
  -4   0 -11   23.04    3.29
  -4   0  11   23.86    5.29
  -4   0 -11   23.68    4.80
   4   0 -11   21.17    4.37
   4   0 -11   19.53    5.88
   4   0  12   77.01    8.20
  -4   0 -12   76.65    5.55
  -4   0 -12   80.59    8.59
   4   0 -12   73.75    8.15
  -4   0  12   80.25    8.93
  -4   0 -12   69.46    6.97
   4   0 -12   70.40   11.09
  -4   0  13   48.66    7.35
  -4   0 -13   55.27    7.48
   4   0  13   48.97    7.19
   4   0 -13   43.62    6.58
   4   0 -13   43.89    8.96
   4   0  14    7.44    3.87
  -4   0  14    9.90    4.13
  -4   0 -14    3.60    2.84
   4   0 -14    4.55    3.31
   4   0 -14   10.99    5.91
  -4   0 -15    1.79    2.50
   4   0 -15    0.90    2.38
  -4   0  15    0.49    3.00
   4   0  15    6.03    3.49
   4   0 -15   -0.79    4.63
   4   0  16    6.05    4.03
  -4   0  16    2.94    3.28
  -4   0 -16    8.88    4.19
   4   0 -16    1.60    2.66
   4   0 -16    4.50    4.85
  -4   0  17    4.91    3.99
   4   0  17    9.65    4.79
  -4   0 -17    0.11    2.96
   4   0 -17    5.77    4.09
   4   0 -17   -5.19    4.90
   4   0  18    6.68    3.92
   4   0 -18    2.29    3.69
   4   0 -18    0.52    4.04
   4  -1  18    0.57    3.05
  -4  -1 -18    1.15    3.12
   4   1 -18    1.14    2.79
  -4   1  17    7.79    4.37
   4  -1  17    4.17    3.66
  -4  -1 -17    5.50    3.41
   4   1 -17    1.71    2.79
  -4   1  16    4.16    3.93
   4  -1  16    0.03    2.93
  -4  -1 -16    5.43    3.60
   4   1 -16   -2.08    2.81
  -4   1  15    8.73    4.13
   4  -1  15   13.09    4.26
  -4  -1 -15   10.97    4.12
   4   1 -15    5.83    2.69
  -4   1  14   29.96    6.03
   4  -1  14   27.53    5.59
  -4  -1 -14   27.00    5.62
   4   1 -14   29.60    5.79
  -4   1  13   76.46    8.93
   4  -1  13   61.94    7.67
  -4  -1 -13   78.08    8.65
   4   1 -13   88.77    9.04
   4   1 -13   83.24   12.37
  -4  -1 -13   70.63    8.05
  -4   1  12   90.99    9.27
  -4  -1 -12   68.81    5.78
  -4  -1 -12   83.53    8.42
   4   1 -12   82.76    8.35
   4  -1  12   94.72    8.93
  -4  -1 -12   91.63    8.57
   4   1 -12   84.50   11.82
   4   1 -11   20.76    3.55
  -4  -1 -11   16.58    3.85
  -4   1  11   25.37    3.22
  -4   1  11   23.44    5.22
   4  -1  11   21.16    4.21
  -4  -1 -11   13.16    3.55
   4   1 -11   24.97    4.65
   4   1 -11   16.61    5.58
  -4  -1 -10   40.84    5.39
  -4   1  10   39.03    5.77
  -4   1  10   39.56    4.12
   4  -1  10   41.42    5.45
  -4  -1 -10   36.43    5.47
   4   1 -10   41.57    4.87
   4   1 -10   35.81    5.03
   4   1 -10   36.15    7.86
  -4   1   9   58.40    6.72
   4  -1   9   62.30    6.38
  -4   1   9   59.18    5.24
  -4  -1  -9   63.33    6.46
   4   1  -9   59.03    6.14
   4   1  -9   54.43    5.36
  -4  -1  -9   64.13    6.03
   4  -1   8   67.56    6.09
  -4   1   8   73.43    5.93
  -4  -1  -8   82.15    7.02
   4   1  -8   74.25    6.40
   4   1  -8   62.46    5.87
  -4  -1  -8   69.78    5.68
  -4   1   8   79.68    7.38
   4  -1   7  287.32   11.96
  -4   1   7  281.14   11.62
  -4  -1  -7  291.35   12.33
   4   1  -7  282.51   11.80
  -4   1   7  275.71   13.03
   4   1  -7  252.04   11.55
  -4   1   6   60.78    5.99
   4  -1   6   59.98    5.30
  -4   1   6   53.88    5.21
  -4  -1  -6   55.27    5.15
   4   1  -6   65.23    5.37
   4   1  -6   60.34    5.66
   4  -1   5  276.90   10.52
  -4  -1  -5  267.23   10.59
  -4   1   5  284.11   11.92
   4   1  -5  284.33   10.37
   4   1  -5  267.95   12.00
   4  -1   4  282.75   10.25
   4  -1   4  283.46   12.41
  -4   1   4  273.88   11.84
  -4  -1  -4  271.66   10.07
   4   1  -4  294.38    9.84
   4  -1   4  298.47   12.67
   4   1  -4  269.32   12.02
   4  -1   3  226.74   11.15
   4  -1   3  213.96   10.80
   4   1  -3  216.43   10.79
   4  -1   2  172.34    9.58
   4  -1   2  180.39    9.83
   4   1  -2  161.97    9.51
   4  -1   1  820.59   20.36
   4  -1   1  855.81   21.27
   4   1  -1  757.65   20.45
  -4   1   1  805.60   19.75
   4  -1   0  781.59   20.45
   4   1   0  752.15   20.41
  -4   1   0  807.32   18.23
   4   1   1  812.78   20.43
  -4   1  -1  797.64   15.24
  -4  -1   1  816.09   13.83
   4  -1  -1  814.03   20.85
   4   1   1  798.28   20.91
   4  -1  -1  786.79   19.92
  -4   1  -1  815.84   16.22
   4   1   2  175.78    9.72
  -4   1  -2  166.49    6.88
  -4  -1   2  165.79    6.26
   4  -1  -2  173.55    9.72
   4   1   2  150.97    9.13
   4  -1  -2  143.37    9.43
  -4   1  -2  156.27    6.34
   4   1   3  212.65   10.98
   4  -1  -3  210.79   10.69
  -4  -1   3  206.42    7.29
  -4   1  -3  210.03    8.03
   4   1   3  207.88   10.77
   4  -1  -3  203.41   11.91
  -4   1  -3  204.03    6.08
   4   1   4  261.85   12.22
   4   1   4  278.01   11.61
  -4   1  -4  277.98   11.90
  -4  -1   4  279.65    9.15
   4   1   4  283.27   12.53
   4  -1  -4  286.79   14.94
   4   1   5  276.85   11.89
  -4   1  -5  281.88   11.97
   4  -1  -5  266.83   11.66
   4   1   5  269.81   12.18
   4  -1  -5  280.95   15.60
   4  -1  -6   57.62    7.85
  -4   1  -6   61.01    5.59
   4  -1  -6   55.40    5.63
   4   1   6   55.83    5.61
   4   1   6   61.25    6.01
   4   1   7  272.61   12.72
  -4   1  -7  276.50   11.63
  -4   1  -7  244.18   12.58
   4  -1  -7  271.82   12.78
   4   1   7  265.72   12.08
   4  -1  -7  264.17   16.86
  -4   1  -7  245.07    6.36
   4  -1  -8   74.37    9.69
   4   1   8   72.79    7.13
  -4  -1   8   60.34    7.21
  -4   1  -8   72.78    5.99
  -4   1  -8   73.71    7.14
   4  -1  -8   66.70    6.85
   4   1   8   79.35    6.75
  -4   1  -8   64.57    4.02
  -4  -1   9   57.17    7.04
   4   1   9   71.15    7.31
  -4   1  -9   64.04    7.17
   4  -1  -9   59.45    6.79
   4   1   9   67.51    6.11
   4  -1  -9   74.07   10.10
  -4   1  -9   62.94    4.56
  -4   1  -9   68.46    5.68
   4  -1 -10   47.37    8.78
   4   1  10   32.94    4.43
  -4   1 -10   34.61    4.04
  -4  -1  10   34.14    6.08
  -4   1 -10   34.60    5.55
   4   1  10   37.89    6.21
   4  -1 -10   37.63    5.85
  -4   1 -10   41.06    4.17
  -4   1 -11   18.19    3.16
   4  -1 -11   21.02    6.45
   4   1  11   19.52    3.53
   4   1  11   21.93    4.59
  -4  -1  11   22.02    5.37
  -4   1 -11   22.58    3.12
  -4   1 -11   18.50    4.40
   4  -1 -11   23.51    4.96
   4   1  12   83.84    8.71
  -4  -1  12   88.62    9.67
  -4   1 -12   97.75    5.79
  -4   1 -12   85.51    9.34
   4  -1 -12   77.72    8.66
   4  -1 -12  104.36   13.62
   4  -1 -13   66.37   10.98
  -4  -1  13   86.98    9.86
   4   1  13   65.63    8.50
  -4   1 -13   80.09    9.19
   4  -1 -13   80.02    9.23
   4  -1 -14   20.28    7.49
   4   1  14   26.94    5.37
  -4  -1  14   41.84    7.41
  -4   1 -14   31.42    6.14
   4  -1 -14   27.44    5.84
   4  -1 -15   11.58    5.96
  -4  -1  15    9.52    4.26
   4   1  15    4.12    3.39
  -4   1 -15   11.44    4.30
   4  -1 -15    8.88    3.86
   4  -1 -16    5.13    3.85
   4   1  16   -2.02    2.79
  -4  -1  16   -1.13    3.90
  -4   1 -16    1.90    2.64
   4  -1 -16    2.13    2.79
   4   1  17    3.10    3.37
  -4   1 -17   -2.76    3.44
   4  -1 -17    3.43    3.00
  -4  -1  17   10.46    4.75
   4  -1 -17    3.22    4.81
   4   1  18   -3.96    4.11
   4  -1 -18    5.84    4.41
   4  -2  18   -0.21    3.34
  -4  -2 -18    6.29    3.76
  -4   2  17    4.56    3.69
   4  -2  17   -0.97    3.31
  -4  -2 -17    0.83    2.61
   4   2 -17    6.63    3.55
  -4   2  16   -1.58    3.21
   4  -2  16   -1.26    2.85
  -4  -2 -16    2.92    2.47
   4   2 -16    0.02    2.77
   4  -2  15    5.00    3.39
  -4   2  15    6.48    3.67
  -4  -2 -15    1.97    2.19
   4   2 -15    2.36    2.08
  -4  -2 -14   13.43    4.37
   4  -2  14    8.96    3.44
  -4   2  14    3.47    2.89
  -4  -2 -14   12.39    4.20
   4   2 -14   11.44    3.90
  -4  -2 -13    7.90    3.45
   4  -2  13    9.95    3.42
  -4   2  13    7.04    3.53
  -4  -2 -13    8.62    3.44
   4   2 -13   15.40    4.02
  -4   2  12   26.48    5.00
  -4  -2 -12   24.31    5.32
   4  -2  12   18.83    4.24
  -4  -2 -12   22.68    2.63
  -4  -2 -12   24.09    4.53
   4   2 -12   18.52    4.19
  -4   2  11  267.66    9.51
  -4   2  11  230.89   13.74
   4  -2  11  258.89   13.53
  -4  -2 -11  268.27   14.10
   4   2 -11  256.23   13.51
   4   2 -11  238.42   11.36
  -4  -2 -11  235.35   13.94
  -4   2  10  105.68    6.32
  -4   2  10   96.66    8.47
   4  -2  10   92.31    7.81
  -4  -2 -10  102.49    8.38
   4   2 -10   96.79    8.02
   4   2 -10   97.60    7.38
  -4  -2 -10  100.61    8.37
  -4   2   9   57.80    6.34
  -4   2   9   56.24    4.95
   4  -2   9   52.30    5.99
  -4  -2  -9   48.80    5.69
   4   2  -9   49.26    5.44
   4   2  -9   48.15    5.38
  -4  -2  -9   52.48    6.00
  -4   2   8   48.86    5.65
  -4   2   8   52.11    4.95
   4  -2   8   39.45    4.57
  -4  -2  -8   46.48    5.20
   4   2  -8   50.92    5.15
   4   2  -8   42.88    5.05
  -4   2   7  142.71    9.00
   4  -2   7  131.22    7.75
  -4   2   7  127.16    7.68
  -4  -2  -7  129.73    7.93
   4   2  -7  138.13    7.86
   4   2  -7  131.83    8.83
  -4   2   6 1113.24   23.30
   4  -2   6 1131.20   21.16
  -4  -2  -6 1064.91   21.41
   4   2  -6 1130.67   20.66
  -4   2   6 1132.33   22.78
   4   2  -6 1108.72   25.45
  -4   2   5  180.56    8.90
   4  -2   5  192.68    8.23
  -4   2   5  182.04    9.28
  -4  -2  -5  164.23    7.79
   4   2  -5  184.67    7.74
   4   2  -5  161.95    9.86
  -4   2   4  143.44    7.66
   4  -2   4  156.87    9.26
   4  -2   4  136.23    6.65
  -4   2   4  157.19    8.79
   4  -2   4  130.05    8.91
  -4  -2  -4  149.78    6.86
   4   2  -4  153.71    6.40
   4   2  -4  151.69    9.67
   4  -2   3  755.85   20.03
  -4   2   3  751.03   19.20
   4  -2   3  731.60   20.72
  -4  -2  -3  751.37   14.01
   4   2  -3  786.24   21.54
   4  -2   2  349.66   13.44
  -4   2   2  361.87   13.50
   4  -2   2  343.23   14.16
   4   2  -2  362.23   14.74
  -4  -2  -2  332.82    8.67
   4  -2   1 1568.05   27.92
  -4   2   1 1562.19   28.21
   4  -2   1 1536.78   29.81
   4   2  -1 1633.73   31.45
   4  -2   1 1497.00   22.19
  -4   2   1 1573.83   26.27
  -4   2   0 1277.01   25.43
   4  -2   0 1274.65   27.38
   4   2   0 1305.96   28.08
   4  -2   0 1319.18   23.50
  -4   2   0 1249.43   21.12
   4   2   1 1524.48   28.44
  -4   2  -1 1656.01   18.72
  -4   2  -1 1584.03   28.51
   4  -2  -1 1555.17   30.01
  -4  -2   1 1572.75   14.94
   4   2   1 1658.60   31.65
   4  -2  -1 1598.52   28.55
  -4   2  -1 1613.30   20.78
   4   2   2  353.17   13.89
  -4   2  -2  365.33    9.05
  -4   2  -2  374.73   13.78
   4  -2  -2  353.83   14.36
  -4  -2   2  365.20    7.81
   4   2   2  357.64   14.63
   4  -2  -2  347.16   14.51
  -4   2  -2  385.23    8.07
   4   2   3  762.85   20.60
   4  -2  -3  720.61   20.59
  -4   2  -3  766.26   19.49
  -4   2  -3  713.92   13.88
  -4  -2   3  718.54   12.20
   4   2   3  768.85   21.51
   4  -2  -3  713.15   22.13
  -4   2  -4  134.29    6.15
   4   2   4  155.24    9.53
   4   2   4  148.26    9.07
   4  -2  -4  137.27    9.10
  -4   2  -4  147.31    8.69
  -4  -2   4  148.73    6.02
   4   2   4  164.70   10.00
   4  -2  -4  143.37   10.93
   4   2   5  168.74    9.97
  -4   2  -5  179.01    9.44
  -4  -2   5  165.13    7.08
   4  -2  -5  175.18    9.89
   4   2   5  173.99   10.42
   4  -2  -5  165.36   12.20
   4   2   6 1143.00   26.32
  -4   2  -6 1150.45   23.26
   4  -2  -6 1176.71   26.77
   4   2   6 1157.93   26.31
   4  -2  -6 1081.11   32.81
  -4   2  -7  141.01    8.10
   4  -2  -7  136.37    9.68
   4   2   7  135.85    9.18
   4   2   7  129.21    9.37
   4  -2  -7  138.87   12.50
   4  -2  -8   44.33    7.96
  -4   2  -8   46.52    4.74
   4   2   8   45.21    5.85
  -4   2  -8   50.39    6.41
   4   2   8   51.56    5.82
   4  -2  -8   44.59    6.09
   4  -2  -9   54.37    8.71
  -4  -2   9   47.02    6.76
  -4   2  -9   49.58    4.64
   4   2   9   55.15    7.02
  -4   2  -9   50.06    6.68
   4  -2  -9   48.44    6.56
   4   2   9   50.34    5.73
  -4  -2  10   96.49    9.91
  -4   2 -10   87.53    5.92
   4   2  10   84.08    8.48
   4  -2 -10   90.85    9.09
   4   2  10   97.34    7.62
  -4   2 -10   91.91    9.13
   4  -2 -10  113.21   13.20
  -4   2 -11  241.80    9.23
  -4  -2  11  250.44   16.08
   4   2  11  283.43   15.97
  -4   2 -11  242.84   15.07
   4  -2 -11  257.01   15.30
   4   2  11  248.64   11.89
   4  -2 -11  254.98   19.93
   4  -2 -12   28.83    8.07
  -4   2 -12   24.20    2.88
   4   2  12   23.91    5.22
  -4  -2  12   28.16    6.00
  -4   2 -12   26.68    5.59
   4  -2 -12   37.03    6.34
   4  -2 -13   11.64    6.17
  -4  -2  13   13.35    4.93
   4   2  13    9.51    4.17
  -4   2 -13   13.33    4.21
   4  -2 -13   15.61    4.41
   4  -2 -14    3.07    3.40
  -4  -2  14   14.23    4.98
   4   2  14   14.18    4.76
  -4   2 -14   10.95    4.61
   4  -2 -14   14.61    5.04
   4  -2 -15    6.60    5.10
   4   2  15    8.31    3.81
  -4  -2  15    7.20    4.25
  -4   2 -15    4.89    3.42
   4  -2 -15    0.37    2.16
   4  -2 -16    0.12    4.11
  -4  -2  16   -1.42    3.38
   4   2  16    1.49    3.06
  -4   2 -16    0.59    2.60
   4  -2 -16    5.56    3.39
   4  -2 -17   -2.51    3.73
   4   2  17    6.71    4.22
  -4  -2  17    1.41    3.81
  -4   2 -17    7.63    4.15
   4  -2 -17    6.23    3.51
   4  -3  18    0.03    2.63
   4   3 -18    1.68    2.35
  -4   3  17    5.82    3.68
   4  -3  17    4.71    2.69
  -4  -3 -17   10.13    3.83
   4   3 -17    8.01    3.58
  -4   3  16    6.63    3.89
   4  -3  16    6.63    3.56
  -4  -3 -16    3.26    2.84
   4   3 -16    6.05    3.26
   4  -3  15   23.53    5.42
  -4   3  15   20.02    4.90
  -4  -3 -15   27.08    5.76
   4   3 -15   22.22    5.13
  -4  -3 -14    5.65    3.61
  -4   3  14    7.09    3.22
   4  -3  14    8.97    3.36
  -4  -3 -14   -0.59    2.12
   4   3 -14    9.00    3.55
  -4   3  13   15.80    4.13
  -4  -3 -13   28.84    5.91
   4  -3  13   30.47    5.28
  -4  -3 -13   31.26    5.59
   4   3 -13   27.36    5.29
  -4   3  12  126.53   10.16
   4  -3  12  122.52    9.90
  -4  -3 -12  126.06   10.26
  -4  -3 -12  149.43    6.61
   4   3 -12  142.64   10.56
  -4  -3 -12  147.22   12.02
  -4   3  11   54.48    4.24
  -4  -3 -11   51.79    7.00
   4  -3  11   44.10    6.03
  -4   3  11   48.31    6.17
  -4  -3 -11   53.66    6.36
  -4  -3 -11   58.80    4.53
   4   3 -11   44.91    5.84
   4   3 -11   46.91    5.42
  -4   3  10  144.02    7.19
  -4   3  10  143.44    9.77
  -4  -3 -10  133.85    6.95
  -4  -3 -10  142.93    9.82
   4   3 -10  144.83    9.48
   4   3 -10  153.08    9.82
   4  -3  10  144.66    9.78
  -4  -3 -10  138.77   10.44
  -4   3   9  121.64    6.86
  -4   3   9  117.73    8.59
   4  -3   9  119.00    8.10
  -4  -3  -9  117.71    6.66
  -4  -3  -9  120.32    8.50
   4   3  -9  126.47    8.44
   4   3  -9  128.58    9.15
  -4  -3  -9  123.32    9.27
  -4   3   8  105.72    6.63
   4  -3   8  113.28    7.43
   4  -3   8  103.57    8.27
  -4   3   8  106.27    7.84
  -4  -3  -8  108.67    7.67
   4   3  -8  103.65    7.08
   4   3  -8  108.70    8.43
  -4   3   7  120.56    7.84
  -4   3   7  121.74    7.25
   4  -3   7  115.96    7.06
   4  -3   7  125.59    9.21
  -4  -3  -7  117.71    7.49
   4   3  -7  127.84    7.24
   4   3  -7  113.87    8.87
  -4   3   6  129.57    7.43
  -4   3   6  110.26    7.14
   4  -3   6  113.42    6.59
   4  -3   6  115.90    8.78
  -4  -3  -6  118.03    6.89
   4   3  -6  117.54    6.38
   4   3  -6  112.59    8.74
  -4   3   5  308.19   10.82
  -4   3   5  315.77   12.03
   4  -3   5  321.61    9.92
   4  -3   5  316.33   14.29
  -4  -3  -5  329.64   10.53
   4   3  -5  314.33    9.37
   4   3  -5  337.54   14.77
  -4   3   4  324.18   12.38
   4  -3   4  319.63    9.21
   4  -3   4  317.76   14.15
  -4   3   4  339.46   10.49
  -4  -3  -4  332.66    9.62
   4  -3   4  325.25   13.48
   4   3  -4  325.27    8.28
   4   3  -4  334.68   14.53
  -4   3   3   94.29    5.19
   4  -3   3  102.28    7.51
  -4   3   3  111.35    7.45
   4  -3   3  100.16    8.08
  -4  -3  -3   96.67    4.55
   4   3  -3   99.61    8.02
   4  -3   3   83.47    3.31
  -4   3   2  230.29   10.71
  -4   3   2  226.36    7.35
   4  -3   2  245.77   11.29
   4  -3   2  229.23   11.98
  -4  -3  -2  242.70    6.09
   4   3  -2  231.99   12.09
   4  -3   2  239.70    7.95
  -4   3   1   76.88    6.33
  -4  -3  -1   72.89    2.62
   4  -3   1   70.07    6.88
   4   3  -1   73.04    6.94
   4  -3   1   75.06    5.25
  -4   3   1   79.82    5.90
  -4   3   0  897.63   11.50
  -4   3   0  869.31   20.49
   4  -3   0  836.95   22.68
   4   3   0  857.28   22.79
  -4   3  -1   79.59    3.31
   4  -3  -1   73.07    6.94
  -4   3  -1   92.44    7.05
   4   3   1   74.02    6.82
   4  -3  -1   87.38    7.04
   4   3   2  230.45   11.26
  -4   3  -2  225.49    5.94
   4  -3  -2  229.51   11.97
  -4  -3   2  241.71    4.27
  -4   3  -2  219.12   10.46
   4   3   2  255.79   12.61
   4  -3  -2  229.78   12.15
  -4   3  -3  102.42    4.52
   4   3   3   98.81    7.63
   4  -3  -3  111.58    8.32
  -4  -3   3   97.06    3.69
  -4   3  -3  101.45    7.13
   4   3   3  101.12    8.03
   4  -3  -3   88.09    8.28
   4   3   4  329.62   13.96
  -4   3  -4  330.27    8.87
  -4   3  -4  324.45   12.48
   4  -3  -4  308.15   13.91
  -4  -3   4  328.01    8.21
   4   3   4  337.10   14.53
   4  -3  -4  323.58   16.17
  -4   3  -5  331.58    9.85
  -4   3  -5  326.89   12.35
   4   3   5  298.99   13.99
   4  -3  -5  309.98   14.04
  -4  -3   5  315.76    9.26
   4   3   5  315.82   14.37
   4  -3  -5  309.29   17.06
  -4   3  -6  114.19    7.23
   4  -3  -6  106.41    8.38
   4  -3  -6  103.75    8.66
   4   3   6  109.74    8.84
   4   3   6  112.28    8.99
   4  -3  -6  100.74   10.36
  -4   3  -7  113.05    7.16
   4   3   7  124.14    9.60
   4  -3  -7  112.02    8.65
   4  -3  -7  115.28    9.45
   4   3   7  127.02    9.59
   4  -3  -7  131.72   12.24
  -4   3  -8  100.41    6.60
   4  -3  -8  115.77    8.71
   4   3   8  103.71    9.07
   4  -3  -8  102.56    9.15
   4   3   8  115.77    8.87
   4  -3  -8  103.28   11.64
  -4   3  -9  115.42    6.85
   4   3   9  120.38   10.11
  -4   3  -9  112.20   10.16
  -4  -3   9  121.33    6.62
   4  -3  -9  125.40   10.51
   4   3   9  116.41    8.88
   4  -3  -9  111.64   12.55
  -4   3 -10  147.97    7.35
  -4  -3  10  138.08   12.15
   4   3  10  157.10   11.88
  -4   3 -10  133.78   11.32
  -4  -3  10  139.89    6.98
   4  -3 -10  147.49   11.74
   4   3  10  140.83    9.69
   4  -3 -10  156.99   15.49
   4  -3 -11   51.45    9.72
  -4   3 -11   50.86    4.18
   4   3  11   57.79    7.50
  -4  -3  11   55.33    7.98
  -4   3 -11   58.65    7.79
  -4  -3  11   54.11    4.22
   4   3  11   50.00    5.77
   4  -3 -11   50.06    7.20
  -4   3 -12  137.61    6.53
  -4  -3  12  136.82   12.61
   4   3  12  137.90   11.92
   4  -3 -12  138.32   12.28
   4  -3 -12  127.94   15.27
  -4   3 -12  132.78   12.08
   4  -3 -13   16.63    6.86
   4   3  13   25.73    5.99
  -4  -3  13   25.27    5.99
  -4   3 -13   29.48    6.27
   4  -3 -13   23.23    5.59
   4  -3 -14    8.26    6.09
  -4  -3  14    7.99    3.88
   4   3  14    8.53    4.30
  -4   3 -14    3.29    2.80
   4  -3 -14    5.89    3.39
   4  -3 -15   25.46    7.86
   4   3  15   31.06    6.89
  -4  -3  15   18.41    5.53
  -4   3 -15   17.77    5.38
   4  -3 -15   25.29    6.42
   4  -3 -16   12.35    6.36
  -4  -3  16   13.59    5.54
   4   3  16   16.31    5.60
  -4   3 -16    2.29    2.88
   4  -3 -16    8.36    4.27
   4  -3 -17    0.50    3.47
  -4  -3  17   10.49    5.02
   4   3  17   12.64    5.24
  -4   3 -17    7.44    4.06
   4  -3 -17   12.34    4.95
   4  -4  18    7.44    3.95
   4   4 -18    6.64    3.36
  -4   4  17    3.09    2.59
   4  -4  17   -0.21    2.39
  -4  -4 -17    2.91    3.05
   4   4 -17   -0.52    2.21
   4  -4  16   -1.02    2.48
  -4  -4 -16    5.08    2.95
   4   4 -16    3.38    3.07
  -4  -4 -15   13.43    4.87
  -4   4  15   16.09    4.61
   4  -4  15   14.57    3.99
  -4  -4 -15   18.13    4.78
   4   4 -15   22.74    5.10
  -4  -4 -14   29.11    6.59
  -4   4  14   30.91    5.69
   4  -4  14   27.86    5.77
  -4  -4 -14   37.00    6.43
   4   4 -14   27.18    5.35
  -4  -4 -13   14.99    4.75
  -4   4  13   12.81    3.99
   4  -4  13   10.76    3.89
  -4  -4 -13    8.57    3.36
   4   4 -13   17.62    4.53
  -4  -4 -12   10.94    4.08
  -4   4  12    9.52    3.43
   4  -4  12   10.69    3.88
  -4  -4 -12   11.07    2.05
  -4  -4 -12   11.54    3.30
   4   4 -12   10.68    3.32
  -4  -4 -11    5.44    3.56
   4   4 -11    0.61    1.66
  -4   4  11    2.08    2.37
   4  -4  11    2.53    2.45
  -4   4  11    1.82    1.38
  -4  -4 -11    2.30    1.49
  -4  -4 -11    0.09    2.33
   4   4 -11    4.80    2.54
  -4  -4 -10    3.74    3.28
   4   4 -10    0.50    2.10
  -4   4  10   -0.54    1.77
   4  -4  10   -0.70    2.01
   4  -4  10   -0.86    2.25
  -4   4  10    1.26    1.40
  -4  -4 -10    0.61    1.31
  -4  -4 -10   -2.04    1.98
   4   4 -10    0.97    1.76
  -4   4   9   40.70    4.01
   4   4  -9   44.10    5.94
   4  -4   9   32.53    4.47
   4  -4   9   40.80    5.61
  -4   4   9   35.51    4.59
  -4  -4  -9   43.57    4.32
   4   4  -9   41.63    4.76
  -4  -4  -9   38.18    4.96
  -4   4   8  148.10    7.69
  -4   4   8  150.48    8.67
   4  -4   8  148.86    8.32
   4  -4   8  155.16   10.75
  -4  -4  -8  144.81    7.63
  -4  -4  -8  148.80    9.01
   4   4  -8  159.96    8.52
   4   4  -8  149.98   10.43
  -4   4   7   37.43    4.07
   4  -4   7   34.87    3.78
  -4   4   7   34.01    4.20
   4   4  -7   36.25    5.33
  -4  -4  -7   35.42    3.97
  -4  -4  -7   38.44    4.41
   4   4  -7   36.73    3.88
   4  -4   7   32.83    5.00
  -4   4   6    8.91    2.34
   4   4  -6   10.84    3.33
   4  -4   6    2.89    1.54
  -4  -4  -6    6.17    2.09
   4  -4   6    9.26    2.98
  -4  -4  -6    8.84    2.27
   4   4  -6   12.71    2.24
  -4   4   6    7.62    2.31
  -4   4   5  370.82   12.71
  -4   4   5  361.67   10.66
   4  -4   5  362.93    9.78
   4  -4   5  366.67   15.85
  -4  -4  -5  360.51   10.85
   4   4  -5  362.75    9.26
   4   4  -5  372.36   15.83
  -4   4   4   23.19    3.38
  -4   4   4   18.98    2.42
   4  -4   4   19.90    2.17
   4  -4   4   21.88    3.71
   4   4  -4   19.07    3.91
   4  -4   4   13.19    3.77
  -4  -4  -4   18.77    2.43
   4   4  -4   18.31    1.77
   4  -4   4   13.62    1.56
  -4   4   3  339.33   12.53
  -4   4   3  353.91    8.40
   4  -4   3  356.85   13.84
   4  -4   3  356.86   15.58
  -4  -4  -3  347.93    8.32
   4   4  -3  335.39   14.90
   4  -4   3  325.53    8.77
  -4   4   2  601.53   16.76
  -4   4   2  621.14    9.36
   4  -4   2  652.87   18.01
   4  -4   2  598.76   19.90
  -4  -4  -2  639.25    8.58
   4   4  -2  608.37   19.80
   4  -4   2  605.15   13.97
  -4   4   1  216.49   10.06
  -4   4   1  237.74    4.25
  -4   4   1  232.13    4.45
   4  -4   1  214.80   11.84
   4   4  -1  234.42   12.44
   4  -4   1  220.46    9.53
  -4   4   0  582.47   16.61
   4  -4   0  587.74   19.66
   4   4   0  599.44   19.73
   4  -4   0  572.98   16.75
  -4   4  -1  232.41   10.47
   4  -4  -1  234.22   12.34
   4   4   1  216.51   11.87
   4  -4  -1  225.46   11.46
  -4   4  -2  600.93    7.02
  -4   4  -2  622.17   17.05
   4  -4  -2  580.00   19.56
   4   4   2  609.83   18.52
   4   4   2  594.67   19.76
   4  -4  -2  585.34   19.73
  -4   4  -3  343.09    7.24
   4   4   3  341.31   14.28
   4  -4  -3  339.24   15.05
  -4   4  -3  356.66   12.84
   4   4   3  346.18   15.09
   4  -4  -3  333.54   15.95
  -4   4  -4   17.44    3.31
   4  -4  -4   17.66    4.75
  -4   4  -4   20.05    2.27
   4   4   4   19.71    3.87
   4   4   4   19.23    3.97
   4  -4  -4   15.18    3.50
  -4   4  -5  383.24   13.03
   4   4   5  381.91   15.56
   4  -4  -5  358.35   15.68
  -4   4  -5  372.42   10.36
   4   4   5  347.54   15.49
   4  -4  -5  373.22   18.67
   4  -4  -6   12.47    5.36
   4   4   6    4.47    2.77
   4  -4  -6    8.45    3.25
  -4  -4   6    5.35    1.89
   4   4   6    6.52    2.66
  -4   4  -6    5.08    1.91
   4  -4  -7   29.54    6.45
   4   4   7   35.08    5.61
   4   4   7   37.18    5.36
  -4  -4   7   30.34    3.57
   4  -4  -7   37.85    5.45
   4  -4  -7   35.66    6.13
  -4   4  -7   32.75    3.95
  -4   4  -8  150.36    7.89
   4   4   8  144.66   11.28
   4  -4  -8  138.26   10.04
  -4  -4   8  144.90    7.53
   4  -4  -8  130.22   10.94
   4   4   8  150.64   10.63
   4  -4  -8  133.66   13.46
  -4   4  -9   37.87    4.08
   4  -4  -9   32.15    7.20
   4   4   9   32.98    5.84
   4   4   9   39.56    5.65
   4  -4  -9   30.83    4.81
  -4  -4   9   38.08    3.95
   4  -4  -9   37.05    6.15
   4  -4 -10    1.96    4.48
  -4  -4  10   -2.75    3.00
   4   4  10    0.74    2.54
   4  -4 -10    0.74    2.10
   4   4  10   -3.96    2.72
  -4   4 -10    1.49    1.44
  -4   4 -10   -1.06    2.43
  -4  -4  10    1.65    1.39
   4  -4 -10    2.96    2.86
   4  -4 -11   -2.47    3.20
  -4  -4  11   -1.67    3.45
   4   4  11    0.87    1.59
   4   4  11    1.62    2.70
  -4   4 -11    4.49    1.69
  -4   4 -11    4.98    3.54
  -4  -4  11    0.71    1.01
   4  -4 -11    1.64    2.88
   4  -4 -12    6.81    5.01
  -4   4 -12   13.28    2.23
   4   4  12   13.53    4.49
  -4   4 -12    9.72    4.45
  -4  -4  12    9.44    4.49
   4  -4 -12    9.45    3.86
   4  -4 -13    9.40    5.03
   4   4  13   11.57    4.07
  -4   4 -13    8.93    3.61
  -4  -4  13   14.28    5.57
   4  -4 -13   12.58    4.77
   4  -4 -14   22.48    7.61
  -4  -4  14   27.67    6.33
  -4   4 -14   26.85    6.11
   4   4  14   31.05    6.73
   4  -4 -14   28.10    6.56
   4  -4 -15   32.19    9.33
  -4  -4  15   20.65    5.78
  -4   4 -15   23.43    5.98
   4   4  15   31.40    7.12
   4  -4 -15   21.70    6.03
   4  -4 -16    3.69    4.03
  -4  -4  16    5.80    3.93
   4   4  16    9.86    4.84
  -4   4 -16   -2.04    2.83
   4  -4 -16   12.11    5.28
  -4   5  17   10.54    4.21
  -4  -5 -17    7.10    4.14
  -4  -5 -16    4.68    4.05
  -4   5  16    8.00    3.82
   4  -5  16    1.83    2.88
  -4  -5 -15   11.24    4.49
   4  -5  15   19.03    4.66
  -4   5  15   16.27    4.52
   4   5 -15   11.77    3.72
  -4  -5 -15   15.49    4.65
  -4  -5 -14   22.36    6.24
  -4   5  14   19.70    4.56
   4  -5  14   23.21    5.17
   4   5 -14   20.66    4.79
  -4  -5 -14    8.58    3.13
  -4   5  13    2.17    2.48
  -4  -5 -13    2.47    3.60
   4  -5  13    4.63    2.69
   4   5 -13    3.77    2.34
  -4  -5 -13   -0.19    2.35
  -4  -5 -12   16.47    5.09
  -4   5  12   12.30    3.48
   4  -5  12   15.55    3.94
   4   5 -12   19.46    4.14
  -4  -5 -12   11.04    3.37
   4  -5  11  148.68   11.12
  -4   5  11  153.15   10.22
   4   5 -11  161.88   10.61
  -4  -5 -11  158.34   11.16
  -4  -5 -11  161.43    7.44
   4  -5  11  152.71   10.34
   4   5 -11  191.03   12.75
  -4   5  11  169.15    7.54
  -4  -5 -11  151.82   12.84
   4  -5  10    4.62    2.74
   4   5 -10   10.13    3.33
  -4   5  10    3.22    2.42
  -4   5  10    8.50    1.90
   4  -5  10    7.72    2.77
  -4  -5 -10   11.88    2.49
   4   5 -10    5.13    2.57
  -4  -5 -10    3.56    2.28
   4   5  -9    6.00    2.95
  -4   5   9    6.29    2.35
   4  -5   9    9.21    2.64
   4  -5   9    8.64    2.90
  -4   5   9    7.62    2.07
  -4  -5  -9   13.67    2.61
   4   5  -9    8.33    2.40
  -4  -5  -9    8.86    2.87
  -4   5   8  159.59    7.90
   4  -5   8  146.85    7.99
  -4   5   8  145.87    8.33
   4  -5   8  143.69   10.69
   4   5  -8  154.79    8.27
  -4  -5  -8  159.93    7.98
  -4  -5  -8  150.28    9.18
   4   5  -8  137.05   10.57
  -4   5   7  131.11    7.35
  -4   5   7  111.92    6.80
   4  -5   7  117.81    6.49
   4  -5   7  111.27    9.46
  -4  -5  -7  115.85    6.99
   4   5  -7  120.98    6.71
  -4  -5  -7  104.33    7.15
   4   5  -7  117.61    9.48
  -4   5   6  222.38    9.68
  -4   5   6  208.39    8.54
   4  -5   6  207.75    7.86
   4  -5   6  226.30   13.06
  -4  -5  -6  216.99    9.84
   4   5  -6  226.64    8.23
  -4  -5  -6  220.98    9.56
   4  -5   6  212.68    5.88
   4   5  -6  219.03   12.85
   4  -5   6  224.58    5.34
  -4   5   5  312.37   11.65
   4  -5   5  297.33   15.14
  -4   5   5  309.02    9.33
   4  -5   5  297.47    8.14
   4  -5   5  304.75   13.32
  -4  -5  -5  292.81   11.40
   4   5  -5  299.96    7.86
  -4  -5  -5  296.25   10.08
   4   5  -5  293.22   14.62
   4  -5   5  307.24    7.82
  -4   5   4   19.97    2.22
   4  -5   4   18.41    2.51
   4  -5   4   15.35    3.19
   4   5  -4   17.14    4.14
   4  -5   4   16.76    4.24
   4   5  -4   18.74    1.56
  -4  -5  -4   13.70    2.93
  -4   5   4   26.29    3.80
   4  -5   4   17.45    1.71
  -4  -5  -4   18.04    2.37
   4  -5   3   22.29    3.18
  -4   5   3   16.91    1.81
   4  -5   3   19.83    3.61
   4  -5   3   22.92    4.96
   4   5  -3   15.01    3.85
  -4  -5  -3   20.45    2.08
  -4  -5  -3   21.75    3.47
  -4   5   3   15.41    3.06
  -4   5   2  825.66   19.35
   4  -5   2  790.00   23.98
  -4  -5  -2  812.87   18.92
   4   5  -2  820.67   24.20
   4  -5   2  825.02   18.33
  -4   5   1  280.85   11.42
   4  -5   1  265.49   13.80
  -4  -5  -1  270.31   11.07
   4   5  -1  249.66   13.51
   4  -5   1  258.33   11.36
  -4   5   0  105.55    7.14
   4  -5   0  101.16    8.74
  -4  -5   0   95.73    6.63
   4   5   0  100.18    8.60
   4  -5   0   97.42    7.57
  -4   5  -1  275.59   11.33
   4  -5  -1  273.30   14.03
  -4  -5   1  263.59   10.96
   4   5   1  283.94   14.27
   4  -5  -1  262.52   13.06
  -4   5  -2  816.87   19.29
  -4  -5   2  800.75   18.81
   4  -5  -2  777.15   23.68
   4   5   2  797.97   24.11
   4  -5  -2  833.44   24.65
   4  -5  -3   20.47    4.60
   4  -5  -3   24.87    4.78
   4   5   3   22.01    4.30
  -4  -5   3   20.36    3.39
   4   5   3   17.13    3.66
  -4   5  -3   18.75    3.35
   4  -5  -4   24.90    5.55
   4  -5  -4   17.42    3.94
   4   5   4   15.21    3.90
   4   5   4   20.11    4.08
  -4  -5   4   21.13    3.29
  -4   5  -4   18.83    3.42
  -4   5  -5  300.31   11.57
   4  -5  -5  282.81   14.53
   4   5   5  245.33    9.58
  -4  -5   5  300.42   11.37
   4   5   5  305.44   14.29
   4   5   5  312.20   15.17
   4  -5  -5  298.62   17.49
  -4   5  -6  228.27    9.93
   4   5   6  219.17   12.43
   4  -5  -6  219.36   12.89
  -4  -5   6  217.29    9.81
   4   5   6  232.70   13.25
   4  -5  -6  206.81   15.37
  -4   5  -7  116.83    7.13
   4  -5  -7  107.89    9.32
  -4  -5   7  111.72    6.77
   4   5   7  115.91   10.20
   4   5   7  112.65    9.49
   4  -5  -7  132.16   13.00
  -4   5  -8  149.50    7.81
   4   5   8  153.30   12.10
   4  -5  -8  147.16   10.90
  -4  -5   8  148.31    7.60
   4  -5  -8  138.33   12.00
   4   5   8  148.84   10.96
   4  -5  -8  136.88   13.73
   4  -5  -9   10.54    4.84
   4  -5  -9   10.45    3.42
   4   5   9    9.12    3.56
   4   5   9    6.62    2.69
  -4   5  -9    9.07    2.28
  -4  -5   9   11.22    2.39
   4  -5  -9    8.54    4.09
   4   5  10    6.93    3.53
   4  -5 -10   11.40    5.30
   4   5  10    8.22    2.90
   4  -5 -10    4.17    2.38
  -4   5 -10    9.48    2.16
  -4   5 -10    6.26    3.67
  -4  -5  10   11.67    2.27
   4  -5 -10    8.27    3.69
   4  -5 -11  149.32   11.01
  -4   5 -11  167.30   13.85
  -4  -5  11  160.16    7.20
   4  -5 -11  168.67   14.11
  -4  -5  11  162.05   14.03
   4   5  11  143.12   10.94
   4  -5 -11  163.22   17.10
  -4   5 -11  169.23    7.60
   4   5  11  155.46   13.13
  -4  -5  12   17.72    5.25
   4  -5 -12   16.23    6.30
   4   5  12   18.69    5.45
  -4   5 -12   13.91    4.79
   4  -5 -12   17.01    5.11
   4  -5 -13    7.35    5.82
  -4  -5  13    0.70    2.97
   4   5  13    6.95    4.02
  -4   5 -13    5.60    3.55
   4  -5 -13   -2.26    3.12
   4  -5 -14   16.35    6.90
  -4  -5  14   18.53    5.79
   4   5  14   19.86    5.63
  -4   5 -14   20.36    5.63
   4  -5 -14   27.94    6.50
   4  -5 -15   12.78    6.21
   4   5  15    8.59    3.85
  -4  -5  15   15.00    5.40
  -4   5 -15   16.02    5.40
   4  -5 -15   12.58    5.15
   4  -5 -16   -3.93    4.97
   4   5  16    2.08    3.48
  -4  -5  16    4.87    4.55
  -4   5 -16    9.68    5.07
   4  -5 -16    1.37    2.36
  -4   6  17    9.17    4.12
  -4  -6 -17   15.58    5.09
  -4  -6 -16    7.29    4.56
  -4   6  16   10.53    3.99
  -4  -6 -16    4.98    3.09
  -4  -6 -15   -2.20    4.00
  -4   6  15    2.69    2.38
  -4  -6 -15    5.71    3.27
  -4  -6 -14    3.08    3.65
  -4   6  14    4.72    2.83
  -4  -6 -14    4.72    3.30
  -4  -6 -13    9.96    4.54
  -4   6  13    8.85    3.39
  -4  -6 -13    4.17    2.42
  -4  -6 -12    8.26    4.24
  -4   6  12   14.29    3.73
  -4  -6 -12   13.01    3.57
  -4  -6 -11   16.63    5.13
  -4   6  11   13.78    2.46
   4   6 -11   16.61    4.08
  -4   6  11   10.00    3.01
   4  -6  11   13.08    4.12
  -4  -6 -11   15.89    3.85
  -4   6  10   40.79    5.20
   4  -6  10   38.48    4.86
   4   6 -10   41.11    6.22
   4  -6  10   50.19    6.87
   4   6 -10   41.15    5.04
  -4  -6 -10   47.53    4.41
  -4  -6 -10   41.68    5.52
  -4   6  10   44.11    4.30
   4  -6   9   97.22    6.93
   4  -6   9   99.26    9.54
   4   6  -9  103.95    7.29
  -4  -6  -9  104.76    8.28
  -4  -6  -9  109.86    6.66
  -4   6   9  103.16    7.69
   4   6  -9  112.35   10.00
  -4   6   9  112.82    6.67
   4  -6   8   57.76    4.91
   4   6  -8   42.97    6.23
   4  -6   8   47.32    6.64
   4   6  -8   49.27    4.71
  -4  -6  -8   53.87    4.75
  -4  -6  -8   55.57    5.73
  -4   6   8   54.35    5.30
  -4   6   8   54.01    4.73
  -4   6   7   59.41    5.15
   4  -6   7   59.73    4.52
   4  -6   7   51.74    6.89
   4   6  -7   58.28    4.61
  -4  -6  -7   60.79    5.08
  -4  -6  -7   66.42    5.84
   4   6  -7   70.77    7.82
  -4   6   7   57.53    4.95
   4  -6   6   34.99    5.61
  -4   6   6   39.91    3.93
   4  -6   6   35.43    3.10
   4  -6   6   32.61    4.77
   4   6  -6   42.48    6.20
   4   6  -6   39.35    3.40
  -4  -6  -6   38.01    4.14
  -4  -6  -6   37.45    4.10
  -4   6   6   40.46    4.32
  -4   6   5  163.28    6.86
   4  -6   5  164.56    9.86
   4  -6   5  152.44    5.04
   4   6  -5  178.42    5.96
  -4  -6  -5  166.59    8.47
  -4  -6  -5  157.65    7.54
   4   6  -5  160.24   11.61
   4  -6   5  163.78    7.29
  -4   6   5  164.19    8.49
  -4   6   4  454.85   14.20
   4  -6   4  453.44   15.72
  -4   6   4  432.61    9.59
  -4  -6  -4  442.36   13.87
  -4  -6  -4  428.77   11.07
   4   6  -4  441.30   18.87
   4  -6   4  444.86   12.98
  -4   6   3  477.71   14.57
   4  -6   3  483.48   15.63
  -4   6   3  467.24    7.20
  -4  -6  -3  461.71   14.33
   4   6  -3  469.26   19.30
   4  -6   3  465.54   14.29
   4  -6   2   10.44    2.91
  -4  -6  -2   10.19    2.88
  -4   6   2    8.36    2.84
   4   6  -2   11.67    4.14
  -4   6   1  610.14   16.58
  -4  -6  -1  599.63   16.59
   4   6  -1  623.83   22.26
   4  -6   1  628.00   18.86
   4  -6   0    2.19    2.32
   4   6   0    0.28    2.41
  -4  -6   0    1.69    1.66
  -4   6   0    0.09    1.74
  -4   6  -1  620.92   16.81
  -4  -6   1  583.36   16.42
   4   6   1  615.66   22.16
   4  -6  -1  622.06   21.21
   4  -6  -2    8.52    2.94
   4   6   2   14.77    4.27
  -4  -6   2   10.48    2.90
  -4   6  -2   14.79    3.30
  -4   6  -3  464.73   14.53
   4   6   3  460.29   16.93
  -4  -6   3  453.23   14.17
   4   6   3  466.78   19.51
   4  -6  -3  475.84   20.63
  -4   6  -4  437.72   14.03
   4   6   4  463.13   17.39
  -4  -6   4  431.88   13.67
   4   6   4  453.87   19.39
   4  -6  -4  409.08   20.25
  -4   6  -5  161.46    8.54
   4   6   5  160.22   10.66
  -4  -6   5  153.17    8.19
   4   6   5  159.62   11.66
   4  -6  -5  139.36   12.62
   4  -6  -6   36.67    7.09
   4   6   6   38.20    5.51
   4   6   6   43.40    6.32
  -4  -6   6   43.47    4.51
   4  -6  -6   36.53    6.02
  -4   6  -6   38.63    4.22
   4  -6  -7   72.76    9.95
   4  -6  -7   59.46    7.24
  -4  -6   7   57.50    4.99
   4   6   7   55.22    6.93
  -4   6  -7   56.56    5.01
   4   6   7   53.74    6.66
   4  -6  -8   56.44    9.59
   4  -6  -8   53.53    6.92
   4   6   8   56.69    8.03
  -4  -6   8   52.41    4.70
   4   6   8   51.49    6.85
  -4   6  -8   49.72    4.62
   4   6   9   87.13    9.71
   4  -6  -9  107.32    9.73
  -4  -6   9   98.62    6.20
   4   6   9  107.11    9.74
   4  -6  -9  127.19   14.18
  -4   6  -9  110.76    6.65
   4   6  10   39.64    6.83
   4  -6 -10   41.57    8.67
   4   6  10   38.56    6.20
   4  -6 -10   39.61    6.04
  -4  -6  10   43.32    4.07
   4  -6 -10   37.89    6.89
  -4   6 -10   45.72    4.34
   4  -6 -11   21.21    7.12
  -4   6 -11   11.88    2.44
   4   6  11    4.87    2.59
   4   6  11    7.81    3.29
   4  -6 -11   11.67    3.54
  -4   6 -11   10.84    4.74
   4  -6 -11    4.52    3.20
  -4  -6  11   19.47    5.53
   4  -6 -12   17.51    7.13
  -4  -6  12    1.85    3.13
   4   6  12    5.62    3.70
  -4   6 -12    9.47    3.58
   4  -6 -12   13.07    4.78
   4  -6 -13   15.10    6.93
  -4  -6  13   11.01    4.69
   4   6  13   11.46    4.54
  -4   6 -13    8.97    4.17
   4  -6 -13    3.46    2.67
   4  -6 -14   -5.16    5.37
   4   6  14    5.73    4.17
  -4  -6  14   -0.01    3.22
  -4   6 -14    3.70    3.08
   4  -6 -14    6.52    3.97
   4  -6 -15   13.07    7.60
  -4  -6  15   15.03    6.08
   4   6  15    1.89    3.47
  -4   6 -15    9.66    4.50
   4  -6 -15    3.23    3.20
  -4  -7 -16    6.94    4.76
  -4  -7 -15    0.49    3.16
  -4  -7 -14   16.89    6.03
  -4  -7 -13    1.37    3.44
  -4  -7 -13   -1.23    2.50
  -4  -7 -12    3.62    3.90
  -4  -7 -12    2.84    2.32
  -4   7  11    0.39    1.34
  -4  -7 -11   -0.36    3.02
   4   7 -11    3.78    2.83
   4  -7  11    0.89    1.97
  -4  -7 -11    7.43    2.89
  -4   7  10   20.12    3.21
   4   7 -10   19.20    4.62
   4  -7  10   19.19    4.80
  -4  -7 -10   22.44    4.45
  -4   7   9   24.31    3.54
   4   7  -9   23.89    5.16
   4  -7   9   22.83    5.39
  -4  -7  -9   24.15    4.53
  -4   7   8    8.77    2.48
   4  -7   8    9.79    3.96
   4   7  -8    6.14    2.75
  -4  -7  -8   13.25    2.82
  -4  -7  -8   10.89    2.93
   4  -7   7  133.79    9.53
  -4  -7  -7  136.79    7.81
  -4  -7  -7  129.17    8.33
   4   7  -7  130.05   11.04
  -4   7   7  145.15    7.95
   4  -7   6   50.66    5.69
  -4  -7  -6   54.66    5.02
  -4  -7  -6   44.65    4.64
   4   7  -6   47.43    7.02
  -4   7   6   45.93    4.56
   4  -7   5  207.08   10.83
  -4  -7  -5  201.07    9.53
   4   7  -5  209.60   13.63
  -4   7   5  204.82    9.52
   4  -7   4  185.44    9.85
  -4  -7  -4  171.67    8.93
   4   7  -4  170.09   12.37
  -4   7   4  160.37    8.56
   4  -7   4  174.22    9.24
   4  -7   3   28.33    4.39
  -4   7   3   21.44    3.40
  -4  -7  -3   28.69    3.95
   4   7  -3   15.67    3.77
  -4  -7  -2  432.09   14.14
   4   7  -2  445.09   19.82
   4  -7   2  475.34   16.93
  -4   7   2  473.99   14.63
   4  -7   1   20.72    4.26
   4   7  -1   10.10    3.49
  -4   7   1   18.04    3.30
  -4  -7  -1   19.84    3.60
  -4  -7   0  281.98   11.44
   4   7   0  257.01   15.02
   4  -7   0  277.65   14.31
  -4   7   0  254.94   10.86
   4  -7  -1   18.14    4.49
   4   7   1   10.21    3.42
  -4   7  -1   17.19    3.28
  -4  -7   1   18.84    3.40
  -4  -7   2  421.54   13.90
   4   7   2  447.29   19.97
   4  -7  -2  450.06   20.33
  -4   7  -2  465.97   14.45
   4  -7  -3   15.09    4.65
   4   7   3   10.74    3.69
  -4   7  -3   16.70    3.17
  -4  -7   3   22.50    3.68
   4   7   4  165.40   10.51
  -4  -7   4  179.06    9.01
   4   7   4  164.81   12.23
   4  -7  -4  161.64   13.37
  -4   7  -4  178.95    9.00
   4   7   5  208.02   12.19
  -4  -7   5  215.72    9.76
   4   7   5  193.83   13.43
   4  -7  -5  200.67   15.45
  -4   7  -5  216.52    9.79
   4  -7  -6   41.18    7.62
   4   7   6   38.29    5.40
   4   7   6   39.69    6.45
  -4  -7   6   45.84    4.73
  -4   7  -6   47.52    4.75
   4   7   7  146.04   10.86
  -4  -7   7  137.19    7.69
   4   7   7  133.21   11.35
  -4   7  -7  139.73    7.96
   4  -7  -7  124.96   13.58
   4  -7  -8    9.91    5.31
  -4   7  -8   11.90    2.69
   4   7   8    8.90    3.58
   4  -7  -8   13.96    4.27
   4   7   8    6.22    2.57
   4  -7  -9   22.07    6.47
   4  -7  -9   23.03    5.22
  -4   7  -9   26.47    3.57
   4   7   9   22.89    4.92
   4  -7 -10   17.89    6.58
  -4   7 -10   16.16    2.95
   4   7  10   24.24    5.15
   4  -7 -10   14.38    4.26
   4   7  10   14.09    4.50
   4  -7 -11   -1.34    3.83
  -4   7 -11    2.18    1.58
   4   7  11    2.43    2.02
   4  -7 -11    1.65    2.17
   4   7  11   -2.86    3.92
  -4   7 -11   -0.31    2.82
  -4  -7  11    3.50    3.24
   4  -7 -12    3.80    5.45
  -4  -7  12    0.20    3.45
   4   7  12   -1.96    2.65
  -4   7 -12   -2.74    3.34
   4  -7 -12    6.75    4.15
   4  -7 -13   14.30    6.79
  -4   7 -13    6.76    3.61
  -4  -7  13    3.20    4.07
   4  -7 -13    1.12    2.77
   4   7  13    1.17    2.93
  -4  -7  14   19.59    6.38
   4  -7 -14   17.12    7.65
   4   7  14   13.40    5.00
  -4   7 -14   15.57    5.48
   4  -7 -14   10.34    4.96
  -4  -8 -14   10.41    5.01
  -4  -8 -13   12.88    5.66
  -4  -8 -12    4.59    4.05
  -4   8  11    7.67    2.32
  -4  -8 -11   11.96    5.17
   4   8 -11   16.11    4.70
   4  -8  11   10.46    3.73
   4  -8  10   50.97    7.59
  -4   8  10   55.73    5.40
   4   8 -10   57.63    7.99
  -4   8   9    5.22    1.81
   4   8  -9    3.80    3.14
   4  -8   9    6.14    3.82
  -4   8   8    7.40    2.21
   4   8  -8   16.33    4.71
   4   8  -7   44.16    6.91
  -4   8   7   35.47    4.43
   4   8  -6   28.68    5.60
  -4   8   6   32.96    4.14
  -4   8   5    8.08    2.45
   4   8  -5    2.37    2.35
  -4   8   4   26.42    3.89
   4   8  -4   32.00    5.81
  -4  -8  -4   26.48    3.86
  -4  -8  -3   70.78    5.97
  -4   8   3   76.79    6.25
   4   8  -3   59.40    7.74
   4  -8   3   74.92    7.06
  -4  -8  -2   77.15    6.29
  -4   8   2   74.37    6.18
   4   8  -2   75.28    8.81
   4  -8   2   72.75    7.29
   4   8  -1   60.93    7.71
  -4  -8  -1   57.54    5.42
  -4   8   1   60.74    5.65
   4  -8   1   68.22    7.46
   4  -8   0    6.80    3.31
  -4   8   0    3.34    2.28
   4   8   0    2.06    2.24
  -4  -8   0    8.75    2.74
  -4  -8   1   65.50    5.79
  -4   8  -1   62.75    5.73
   4   8   1   57.40    7.77
   4  -8  -1   65.26    7.99
  -4  -8   2   76.01    6.27
  -4   8  -2   81.69    6.39
   4   8   2   71.12    8.53
   4  -8  -2   77.21    8.95
   4  -8  -3   59.21    8.22
  -4  -8   3   64.98    5.79
  -4   8  -3   71.12    6.08
   4   8   3   66.49    8.34
   4  -8  -4   22.63    5.76
  -4   8  -4   30.37    4.19
   4   8   4   14.33    4.13
  -4  -8   4   37.73    4.42
   4  -8  -5   -0.66    3.38
   4   8   5    2.49    2.63
  -4   8  -5   11.03    2.94
   4   8   5    5.89    2.67
   4  -8  -6   36.12    7.70
  -4   8  -6   35.85    4.37
   4   8   6   29.81    4.98
   4   8   6   19.86    4.86
   4  -8  -7   34.97    7.63
  -4   8  -7   28.03    3.95
   4   8   7   33.59    6.31
   4   8   7   26.38    4.94
   4  -8  -8   10.08    4.57
  -4   8  -8   10.82    2.79
   4   8   8    9.67    3.43
   4   8   8   14.65    4.38
   4  -8  -9   11.84    6.09
  -4   8  -9    5.18    2.22
   4   8   9    4.92    2.85
   4   8   9    2.97    2.98
   4  -8  -9    7.58    3.37
   4  -8 -10   50.20   10.18
   4  -8 -10   54.93    7.93
   4   8  10   63.39    8.09
  -4   8 -10   53.59    5.29
   4   8  10   53.92    7.80
  -4   8 -11    6.26    2.03
   4  -8 -11   10.77    5.70
  -4  -8  11    7.53    3.78
   4   8  11    9.76    3.62
  -4   8 -11    6.10    3.71
   4  -8 -11   13.20    4.40
   4  -8 -12    0.71    4.14
  -4  -8  12   -3.17    3.57
   4   8  12   -5.32    4.13
  -4   8 -12    0.47    2.50
   4  -8 -13   11.53    6.56
  -4  -8  13    6.52    4.46
   4   8  13    5.07    3.91
  -4   8 -13    1.18    2.99
  -4  -8  14    0.31    2.69
  -4  -9 -12   -1.01    3.22
  -4  -9 -11    0.34    3.05
   4  -9  11    4.38    3.09
  -4   9  11   -1.69    1.88
  -4   9  10   -0.92    2.02
   4   9 -10    0.87    2.30
   4  -9  10    4.74    3.41
  -4   9   9    2.47    1.97
   4   9  -9   -0.46    2.23
  -4   9   8    3.62    2.02
   4   9  -8    5.97    3.26
  -4   9   7   23.74    3.77
   4   9  -7   22.23    5.20
  -4   9   6    3.09    2.12
   4   9  -6   -0.92    3.25
  -4   9   5    6.13    2.30
   4   9  -5    8.35    3.11
  -4   9   4    2.42    2.11
   4   9  -4   -4.35    3.86
  -4   9   3    2.83    2.13
   4   9  -3    4.07    2.83
   4  -9   2   26.29    5.02
  -4   9   2   23.85    3.87
   4   9  -2   21.44    5.54
   4  -9   1    7.36    3.43
  -4   9   1    3.83    1.99
   4   9  -1    4.82    2.39
  -4   9   0   13.05    3.05
   4   9   0    6.82    3.53
   4  -9   0    8.39    3.86
   4  -9  -1    7.97    3.73
  -4   9  -1    5.68    2.11
   4   9   1    2.80    2.26
   4  -9  -2   17.04    4.97
  -4   9  -2   15.85    3.29
   4   9   2   22.12    5.46
   4  -9  -3    0.79    2.91
  -4   9  -3    2.25    1.80
   4   9   3    4.39    3.04
   4   9   4   -0.62    3.07
   4  -9  -4   -2.42    3.47
  -4   9  -4   -1.20    1.73
   4  -9  -5    9.46    4.72
  -4   9  -5   15.32    3.44
   4   9   5   14.96    4.79
   4   9   6   -3.87    3.66
   4  -9  -6   -0.04    6.50
  -4   9  -6    5.16    2.42
   4  -9  -7   18.38    6.28
  -4   9  -7   27.37    4.16
   4   9   7   17.07    4.80
  -4   9  -8    6.49    2.36
   4  -9  -8    4.18    3.86
   4   9   8   11.64    4.27
  -4   9  -9    2.03    1.75
   4  -9  -9    3.27    4.05
   4   9   9   -0.16    2.62
  -4   9 -10   -0.35    1.81
   4  -9 -10    5.77    4.14
   4   9  10    7.72    3.94
   4  -9 -10    4.90    3.54
   4  -9 -11    7.26    4.99
  -4  -9  11   -0.21    3.53
   4   9  11    0.13    2.68
   4  -9 -11    6.63    3.83
  -4   9 -11   -1.76    3.68
  -4   9 -11   -1.95    1.75
  -4  -9  12    5.68    5.02
  -4   9 -12   19.69    5.89
  -4  -9  13   16.45    5.70
   4 -10  10    5.79    3.90
  -4  10  10    6.62    2.67
   4  10  -9   16.29    5.42
  -4  10   9   12.40    3.28
   4  10  -8    5.69    3.19
  -4  10   8    1.86    1.70
  -4  10   7    2.04    2.18
   4  10  -7   -1.25    3.12
  -4  10   6   14.63    3.52
   4  10  -6    7.17    3.34
  -4  10   5    6.44    2.47
   4  10  -5    1.53    2.26
  -4  10   4   12.35    3.16
   4  10  -4    8.64    3.84
  -4  10   3    9.23    2.78
   4  10  -3    3.34    2.82
  -4  10   2    1.07    2.29
   4  10  -2   -2.83    2.46
  -4  10   1    4.83    2.48
   4 -10   1    2.45    2.70
   4  10  -1    1.51    2.61
   4 -10   0    6.04    3.31
  -4  10   0    3.87    2.45
   4  10   0    5.39    3.16
  -4  10  -1   -6.16    2.59
   4 -10  -1    2.37    2.94
   4  10   1    3.30    2.74
  -4  10  -2    2.94    2.36
   4 -10  -2   -5.80    3.87
   4  10   2    2.69    3.24
  -4  10  -3   12.15    3.09
   4 -10  -3   11.61    4.94
   4  10   3    4.39    3.00
   4 -10  -4    6.51    4.31
   4  10   4    3.46    2.42
  -4  10  -5    6.99    2.80
   4 -10  -5    6.45    4.49
   4  10   5   -1.65    4.12
  -4  10  -6   13.14    3.49
   4 -10  -6   15.27    6.07
   4  10   6    9.84    3.32
  -4  10  -7    1.09    2.08
   4 -10  -7   -0.09    3.68
   4  10   7    2.06    2.46
  -4  10  -8    7.20    2.82
   4 -10  -8   -2.02    4.67
   4  10   8   -1.11    2.72
   4 -10  -9    2.11    3.85
   4  10   9   10.41    3.96
  -4  10  -9   13.46    3.38
   4 -10 -10    9.13    5.11
   4  10  10   11.78    4.78
   4 -10 -10    7.35    4.07
  -4  10 -10    5.14    2.20
  -4 -10  11   -4.07    4.53
   4  10  11   10.28    4.63
   4  11 -10    3.67    3.72
  -4  11  10    2.48    2.00
   4  11  -9   13.89    4.76
  -4  11   9    6.83    2.91
   4  11  -8   20.35    5.87
  -4  11   8   10.87    3.26
   4  11  -7   -6.11    3.67
  -4  11   7   -0.73    2.09
   4  11  -6    3.00    2.54
  -4  11   6    4.17    2.58
   4  11  -5    6.28    3.57
  -4  11   5    8.78    3.00
  -4  11   4    2.48    1.99
   4  11  -4   -0.64    3.05
  -4  11   3    2.38    1.76
   4  11  -3    5.12    3.89
  -4  11   2   28.42    4.62
   4  11  -2   28.68    6.67
  -4  11   1    0.45    2.08
   4  11  -1    0.99    2.64
  -4  11   0   -7.16    2.82
   4  11   0    0.23    3.16
  -4  11  -1   -1.51    2.03
   4 -11  -1   -2.01    2.69
   4  11   1   -3.07    3.66
  -4  11  -2   25.21    4.56
   4 -11  -2   28.93    6.84
   4  11   2   34.28    7.02
  -4  11  -3    4.50    2.41
   4 -11  -3    5.69    4.22
   4  11   3    6.23    4.40
  -4  11  -4   -3.95    2.67
   4 -11  -4    2.09    4.07
   4  11   4   -5.31    3.56
   4 -11  -5    7.18    4.41
   4  11   5    1.15    3.97
  -4  11  -5   15.03    3.69
   4 -11  -6    2.74    3.88
   4  11   6    4.11    3.61
  -4  11  -6    0.67    2.07
   4 -11  -7    4.87    4.13
   4  11   7    3.82    3.58
  -4  11  -7    2.23    1.96
   4 -11  -8   13.93    6.64
   4  11   8   15.03    5.19
  -4  11  -8   15.28    3.92
   4  11   9   13.27    4.99
  -4  11  -9    6.46    2.66
  -4  11 -10    4.85    2.51
   4 -12  -3   -0.50    3.16
   4 -12  -4    6.07    5.09
   4 -12  -5  -16.33    6.45
   4 -12  -6    9.72    5.42
   5   0   0    3.50    2.55
   5   0  -1   41.34    5.76
   5   0   1   40.52    5.71
  -5   0  -1   35.22    4.55
   5   0  -2    9.87    3.25
   5   0   2    6.96    2.98
   5   0   2    9.03    2.90
  -5   0  -2    6.12    2.26
   5   0  -3   39.59    5.39
   5   0   3   43.22    5.60
   5   0   3   36.96    5.39
   5   0  -4   15.08    3.47
   5   0   4   15.04    3.65
   5   0   4   18.99    4.17
   5   0   5  275.48   14.19
   5   0   5  259.29   11.95
   5   0  -5  275.74   13.70
   5   0   5  258.15   13.30
   5   0   6   50.78    5.64
  -5   0  -6   39.76    5.07
   5   0  -6   43.70    5.08
   5   0  -6   53.19    6.21
   5   0   6   51.73    6.31
   5   0  -6   38.20    6.47
   5   0   7  175.53   10.55
  -5   0  -7  172.24   10.53
   5   0  -7  160.29   10.00
   5   0  -7  167.74   10.47
   5   0   7  179.42   11.05
   5   0  -7  155.13   13.79
  -5   0  -7  160.70    6.93
  -5   0   8  156.93   11.34
   5   0   8  170.89   10.89
  -5   0  -8  147.86   10.29
   5   0  -8  170.85   10.76
   5   0  -8  164.93   10.47
   5   0   8  165.41   10.71
   5   0  -8  160.95   14.42
  -5   0  -8  155.51    7.22
   5   0   9    2.64    2.18
  -5   0   9   -1.42    2.40
   5   0   9    1.26    2.21
  -5   0  -9    3.07    1.85
  -5   0   9    2.58    2.87
  -5   0  -9   -2.03    2.33
  -5   0  -9    0.60    2.19
   5   0  -9    2.21    2.37
   5   0  -9    3.15    3.81
  -5   0  10  108.25   10.19
   5   0  10  102.67    9.17
  -5   0  10   89.29    7.44
  -5   0 -10   91.20    7.56
  -5   0 -10   96.63    9.07
   5   0 -10  100.86    9.14
   5   0 -10   95.40   12.09
  -5   0  11    1.66    1.81
  -5   0 -11    0.09    1.84
   5   0  11    1.06    2.27
  -5   0  11    1.71    2.89
  -5   0 -11    0.63    2.04
   5   0 -11   -0.04    2.07
   5   0 -11   -1.38    4.14
  -5   0  12   20.61    5.62
   5   0  12   23.11    5.47
  -5   0 -12   28.45    4.18
  -5   0 -12   30.83    5.74
   5   0 -12   25.20    4.92
   5   0 -12   35.40    8.25
  -5   0  13   29.24    6.12
   5   0  13   24.75    5.62
  -5   0 -13   23.81    5.36
   5   0 -13   25.24    5.59
   5   0 -13   16.46    6.57
   5   0  14   35.74    6.55
  -5   0  14   22.91    5.44
  -5   0 -14   27.85    6.01
   5   0 -14   33.98    6.52
   5   0 -14   28.26    7.78
   5   0  15   22.69    5.76
  -5   0  15   18.51    5.69
  -5   0 -15   11.54    4.24
   5   0 -15   11.52    4.23
   5   0 -15    8.04    5.91
  -5   0  16    2.92    3.13
   5   0  16    2.75    3.17
  -5   0 -16    2.37    2.33
   5   0 -16    4.64    3.10
   5   0 -16    2.77    4.81
   5   0  17    6.83    4.11
  -5   0  17    4.52    3.83
  -5   0 -17    0.79    2.58
   5   0 -17    5.95    3.83
   5   0 -18    9.91    5.08
   5  -1  18    8.82    4.43
   5   1 -18    8.57    4.31
  -5   1  17   18.90    5.44
   5  -1  17   12.39    5.07
  -5  -1 -17   13.19    4.89
   5   1 -17   21.54    6.01
  -5   1  16   24.10    6.13
   5  -1  16   13.51    5.10
  -5  -1 -16   10.50    4.52
   5   1 -16   13.19    4.88
   5  -1  15    3.18    2.69
  -5   1  15   11.40    4.25
  -5  -1 -15   12.47    4.18
   5   1 -15    7.63    3.91
   5  -1  14   23.20    5.39
  -5   1  14   18.76    5.32
  -5  -1 -14   20.49    5.20
   5   1 -14   25.10    5.62
  -5   1  13   30.36    5.95
   5  -1  13   32.64    6.25
  -5  -1 -13   28.10    5.47
   5   1 -13   33.30    6.01
  -5   1  12   23.19    5.33
   5  -1  12   23.55    5.20
  -5  -1 -12    9.89    2.62
  -5  -1 -12   14.99    4.03
   5   1 -12   13.14    3.91
  -5   1  11  130.96   11.09
   5  -1  11  113.96   10.10
  -5   1  11  135.16    8.43
  -5  -1 -11  123.69   10.25
   5   1 -11  130.47   10.38
   5   1 -11  132.65    9.33
  -5  -1 -11  127.90    9.36
   5   1 -10    8.34    2.42
   5  -1  10   14.29    3.75
  -5  -1 -10   13.50    2.96
  -5   1  10   16.18    3.28
  -5   1  10   20.84    4.85
  -5  -1 -10   13.00    3.61
   5   1 -10   17.88    4.05
   5   1  -9   10.12    2.93
  -5   1   9   10.32    3.26
  -5  -1  -9    9.92    2.55
   5  -1   9   13.87    3.66
  -5  -1  -9   11.66    3.34
  -5   1   9    9.73    2.79
   5   1  -9   13.36    3.50
  -5   1   8  103.75    8.98
   5  -1   8  101.53    8.10
  -5   1   8  101.50    8.04
  -5  -1  -8  109.66    8.46
   5   1  -8  102.46    8.00
   5   1  -8  110.12    8.63
  -5  -1  -8  108.83    6.85
   5  -1   7   77.93    6.77
  -5  -1  -7   83.61    7.16
  -5   1   7   83.10    7.82
   5   1  -7   96.96    7.37
  -5   1   7   75.05    7.02
   5   1  -7   77.97    7.37
   5  -1   6   63.23    6.04
  -5   1   6   67.98    6.64
  -5  -1  -6   70.51    6.19
   5   1  -6   59.33    5.49
   5   1  -6   56.45    6.31
   5  -1   5  200.87   12.15
   5  -1   5  204.49   10.10
  -5  -1  -5  201.13    9.86
  -5   1   5  203.85   11.54
   5   1  -5  218.49    9.70
   5   1  -5  203.27   11.64
   5  -1   4   84.22    7.84
  -5   1   4   84.20    7.40
   5  -1   4   86.46    7.88
   5   1  -4   86.56    7.74
   5  -1   3  141.85    9.99
   5  -1   3  142.84    9.94
   5   1  -3  139.36    9.86
   5  -1   2  255.05   13.06
   5  -1   2  258.29   13.31
   5   1  -2  243.46   12.89
   5  -1   1   54.03    6.29
   5   1  -1   48.81    6.14
   5  -1   0   20.79    4.24
  -5   1   0   21.90    3.60
   5   1   0   21.71    4.28
  -5  -1   1   55.18    4.20
   5  -1  -1   62.74    6.77
   5   1   1   53.53    6.28
  -5   1  -1   53.47    4.97
   5   1   2  260.94   13.35
  -5  -1   2  254.29    8.89
   5  -1  -2  249.92   13.05
   5   1   2  260.45   13.32
  -5   1  -2  240.47    9.44
   5   1   3  141.46    9.91
   5  -1  -3  143.37    9.95
   5   1   3  150.23   10.19
   5  -1  -3  135.71   10.65
  -5   1  -3  140.27    6.38
   5   1   4   83.36    8.01
  -5   1  -4   73.52    6.96
   5   1   4   86.45    7.78
   5  -1  -4   80.48    8.80
  -5   1  -4   79.15    4.12
   5   1   5  207.01   11.22
   5   1   5  217.16   12.61
  -5   1  -5  214.85   11.84
   5   1   5  191.09   11.67
   5  -1  -5  200.11   14.35
  -5   1  -5  198.89    5.12
   5  -1  -6   59.35    8.72
   5   1   6   66.55    6.57
  -5   1  -6   63.02    6.36
   5  -1  -6   62.14    6.42
   5   1   6   75.32    7.38
   5   1   7   86.40    7.82
  -5   1  -7   82.73    7.35
   5  -1  -7   87.19    7.75
   5   1   7   83.00    7.82
   5  -1  -7   83.92   10.35
   5   1   8  108.27    9.05
  -5   1  -8  106.89    8.30
  -5   1  -8   94.63    8.74
   5  -1  -8  111.50    9.19
   5   1   8  104.68    8.69
   5  -1  -8   97.33   11.66
   5  -1  -9    6.19    4.55
   5   1   9    8.46    3.04
  -5  -1   9    4.96    3.02
   5   1   9    8.01    3.27
  -5   1  -9   12.93    3.60
  -5   1  -9   13.61    3.19
   5  -1  -9   14.52    3.81
   5  -1 -10   11.17    5.53
   5   1  10   11.25    3.05
  -5  -1  10   11.71    4.13
  -5   1 -10   21.17    3.77
   5   1  10   15.43    4.35
  -5   1 -10   20.83    4.62
   5  -1 -10   18.76    4.36
  -5  -1  11  112.24   10.96
  -5   1 -11  131.52    8.51
   5   1  11  124.78   10.79
  -5   1 -11  120.91   10.83
   5  -1 -11  124.75   10.88
   5   1  11  131.05    9.56
   5  -1 -11  131.09   15.15
   5  -1 -12   17.16    6.53
  -5  -1  12   26.76    6.27
   5   1  12   24.80    5.27
  -5   1 -12   22.84    3.59
  -5   1 -12   19.90    4.99
   5  -1 -12   20.91    5.03
   5  -1 -13   27.85    7.67
  -5  -1  13   20.02    5.40
   5   1  13   30.11    5.93
  -5   1 -13   29.92    6.05
   5  -1 -13   28.23    5.86
  -5  -1  14   30.63    6.76
   5   1  14   26.33    6.02
  -5   1 -14   25.44    5.74
   5  -1 -14   14.83    4.88
   5  -1 -14   26.06    7.63
  -5  -1  15    6.56    4.10
   5   1  15   16.18    5.02
  -5   1 -15    7.93    3.80
   5  -1 -15    8.38    3.92
   5  -1 -15   16.42    6.54
  -5  -1  16   17.37    5.29
   5   1  16   22.41    6.06
  -5   1 -16   27.42    6.15
   5  -1 -16   29.70    6.83
   5  -1 -16   12.93    6.43
  -5  -1  17   26.53    6.77
   5   1  17   22.70    6.56
  -5   1 -17   16.21    5.35
   5  -1 -17   23.03    6.27
   5  -2  18    0.46    2.98
   5   2 -18    0.23    2.76
  -5   2  17    0.50    3.18
   5  -2  17   -2.28    3.07
  -5  -2 -17   -1.21    2.49
   5   2 -17    0.71    2.79
   5  -2  16    5.66    3.09
  -5   2  16    5.14    3.73
  -5  -2 -16    8.73    3.86
   5   2 -16    1.62    2.31
   5  -2  15    5.79    3.48
  -5   2  15    7.35    3.63
  -5  -2 -15    8.07    3.42
   5   2 -15    7.93    3.42
  -5   2  14   32.45    6.29
   5  -2  14   28.13    5.70
  -5  -2 -14   22.78    5.13
   5   2 -14   29.37    5.67
  -5   2  13   34.55    6.21
   5  -2  13   38.63    6.33
  -5  -2 -13   41.98    6.52
   5   2 -13   34.61    5.91
  -5  -2 -12   18.19    4.33
   5  -2  12   17.11    4.67
  -5   2  12   25.49    5.43
  -5  -2 -12   15.93    4.08
   5   2 -12   21.24    4.66
   5   2 -11    1.78    1.80
  -5  -2 -11    1.96    2.37
   5  -2  11    1.18    2.45
  -5   2  11    6.41    3.26
  -5   2  11   -0.80    2.11
  -5  -2 -11   -0.61    1.88
   5   2 -11    5.91    2.77
  -5   2  10  107.00    9.31
  -5   2  10  114.71    7.73
   5  -2  10  114.55    9.03
  -5  -2 -10   98.66    8.37
   5   2 -10  104.29    8.64
   5   2 -10   97.12    8.36
  -5  -2 -10  101.73    8.38
   5  -2   9  213.55   11.64
  -5   2   9  199.80   10.39
  -5  -2  -9  178.21   10.92
   5   2  -9  194.67   11.04
  -5   2   9  188.60   11.88
   5   2  -9  180.74   11.29
  -5  -2  -9  187.82   10.60
  -5   2   8   60.90    6.57
   5  -2   8   52.82    5.74
  -5   2   8   62.91    6.17
  -5  -2  -8   60.06    6.14
   5   2  -8   61.13    5.96
   5   2  -8   56.87    6.54
  -5   2   7  204.63   11.39
   5  -2   7  222.72   10.77
  -5   2   7  209.75   11.19
  -5  -2  -7  208.99   10.58
   5   2  -7  221.13   10.39
   5   2  -7  198.90   11.94
   5   2  -6   28.53    4.77
  -5   2   6   33.90    4.90
  -5   2   6   30.78    4.47
   5  -2   6   39.97    4.49
  -5  -2  -6   32.48    4.06
   5   2  -6   31.23    3.82
   5   2  -5    4.32    2.58
  -5   2   5    3.18    2.00
   5  -2   5    6.68    3.14
   5  -2   5    2.35    1.34
  -5   2   5    2.83    2.16
  -5  -2  -5    7.59    2.06
   5   2  -5    5.60    1.83
   5  -2   4   99.26    8.49
  -5   2   4  104.10    8.22
  -5  -2  -4  102.37    6.19
   5   2  -4   85.76    8.07
   5  -2   3  267.91   13.56
  -5  -2  -3  279.22    9.52
  -5   2   3  273.17   13.19
   5   2  -3  270.34   14.16
   5  -2   2 1120.68   27.16
  -5   2   2 1132.41   26.81
   5   2  -2 1116.23   28.41
  -5   2   1  120.28    8.78
   5   2  -1  116.58    9.36
  -5   2   0   45.22    3.76
   5   2   0   48.92    6.33
  -5   2   0   47.05    5.76
  -5  -2   0   46.64    3.28
   5  -2   0   49.12    5.15
  -5   2   0   41.59    4.41
  -5   2  -1  115.73    5.97
  -5   2  -1  109.90    8.51
  -5  -2   1  112.00    4.94
   5   2   1  115.33    9.43
   5  -2  -1  114.63    8.50
  -5   2  -1  104.49    6.19
   5   2   2 1128.98   27.87
  -5   2  -2 1142.58   18.51
  -5   2  -2 1125.83   26.80
  -5  -2   2 1098.99   15.49
   5   2   2 1133.16   28.93
   5  -2  -2 1128.36   28.28
  -5   2  -2 1081.54   16.78
   5   2   3  289.86   14.31
  -5   2  -3  273.23   13.22
  -5  -2   3  267.29    8.23
   5   2   3  277.32   14.41
   5  -2  -3  260.20   14.61
  -5   2  -3  283.92    6.52
   5   2   4  111.91    9.14
  -5   2  -4  105.21    8.30
  -5  -2   4  106.41    5.61
   5   2   4  105.81    9.01
   5  -2  -4  105.97   10.09
   5  -2  -5    3.05    2.99
   5   2   5    5.46    2.75
   5   2   5    5.36    2.55
  -5   2  -5    5.28    2.70
   5  -2  -6   36.31    6.90
   5   2   6   42.10    5.78
   5   2   6   35.48    5.72
  -5   2  -6   35.96    5.04
   5   2   6   30.84    4.91
   5   2   7  198.31   12.39
  -5   2  -7  196.32   11.04
   5  -2  -7  211.30   12.61
   5   2   7  213.95   12.62
   5  -2  -7  229.21   16.74
   5  -2  -8   69.35   10.11
   5   2   8   64.20    7.51
  -5   2  -8   79.32    6.88
   5  -2  -8   67.30    7.45
   5   2   8   71.05    7.44
  -5   2  -9  194.50   10.58
  -5   2  -9  201.35   13.26
   5   2   9  196.29   12.95
   5  -2  -9  204.45   13.39
   5   2   9  180.63   11.67
   5  -2  -9  181.63   16.44
  -5  -2  10   99.59   10.51
  -5   2 -10  105.27    7.61
   5   2  10  107.22    9.82
  -5   2 -10  100.48    9.89
   5  -2 -10  111.60   10.40
   5   2  10  110.97    9.07
   5  -2 -10  120.70   14.00
   5  -2 -11    5.11    3.70
   5   2  11    5.54    2.44
  -5  -2  11    0.50    3.06
  -5   2 -11   -1.53    1.86
   5   2  11    4.41    3.14
  -5   2 -11   -0.11    2.02
   5  -2 -11    3.83    3.37
   5  -2 -12   31.78    8.21
  -5   2 -12   21.04    3.30
  -5  -2  12   16.88    5.36
   5   2  12   23.25    5.66
  -5   2 -12   24.06    5.64
   5  -2 -12   22.51    5.46
   5  -2 -13   50.54   10.61
  -5  -2  13   43.37    7.64
   5   2  13   41.14    7.21
  -5   2 -13   51.24    7.91
   5  -2 -13   35.00    6.77
   5  -2 -14   37.20    9.92
  -5  -2  14   32.64    6.80
   5   2  14   32.68    6.71
  -5   2 -14   26.30    6.03
   5  -2 -14   32.26    6.63
   5  -2 -15   13.61    6.70
  -5  -2  15   13.21    5.00
   5   2  15   11.71    4.91
  -5   2 -15   13.77    5.18
   5  -2 -15    6.89    4.01
   5  -2 -16    1.20    4.87
   5   2  16   13.78    5.12
  -5  -2  16   19.25    6.12
  -5   2 -16   13.02    4.74
   5  -2 -16   10.58    4.68
   5   2  17    5.72    3.85
   5  -2 -17   -1.19    3.20
   5  -3  18  -14.16    5.19
  -5   3  17    0.66    2.73
   5  -3  17   -7.48    3.81
  -5  -3 -17    5.54    3.82
   5   3 -17   -5.00    3.67
  -5   3  16    8.95    3.82
   5  -3  16    7.46    3.79
  -5  -3 -16    5.11    3.11
   5   3 -16    9.46    3.82
   5  -3  15   -2.80    2.69
  -5   3  15    2.84    2.92
  -5  -3 -15    3.24    2.66
   5   3 -15   -1.92    2.34
  -5   3  14   10.30    3.79
   5  -3  14    4.23    3.33
  -5  -3 -14    5.65    2.72
   5   3 -14   10.06    3.74
  -5   3  13   11.31    3.77
   5  -3  13   11.22    3.59
  -5  -3 -13   10.13    3.54
   5   3 -13   13.43    3.93
  -5   3  12   43.41    6.35
  -5  -3 -12   33.03    5.85
  -5  -3 -12   36.32    4.01
   5  -3  12   35.38    5.49
  -5  -3 -12   31.97    5.45
   5   3 -12   39.64    5.82
   5   3 -11   17.16    3.78
  -5  -3 -11   19.36    4.34
  -5   3  11   13.15    3.66
   5  -3  11   17.10    3.65
  -5  -3 -11   10.90    2.39
  -5  -3 -11   13.94    3.49
   5   3 -11   19.14    3.97
  -5   3  11   15.47    2.73
  -5   3  10   61.74    5.55
  -5   3  10   56.64    6.65
   5  -3  10   63.48    6.96
  -5  -3 -10   60.56    6.66
   5   3 -10   67.29    6.80
   5   3 -10   68.69    7.29
  -5  -3 -10   60.74    6.95
   5   3  -9   -0.28    2.07
  -5   3   9    0.02    1.57
  -5   3   9   -0.33    1.92
   5  -3   9    1.82    2.19
  -5  -3  -9    3.70    1.95
   5   3  -9    3.49    1.99
  -5   3   8   81.05    7.08
  -5   3   8   75.35    6.40
   5  -3   8   67.35    6.10
  -5  -3  -8   76.56    6.65
   5   3  -8   84.52    6.63
   5   3  -8   74.57    7.77
   5   3  -7   18.18    4.27
   5  -3   7   20.78    3.29
  -5   3   7   22.18    3.93
  -5   3   7   23.16    3.91
  -5  -3  -7   23.16    3.61
   5   3  -7   21.93    3.25
  -5   3   6   86.80    6.77
   5  -3   6   84.81    8.03
  -5   3   6   91.65    7.44
   5  -3   6   90.35    6.26
  -5  -3  -6   85.69    6.06
   5   3  -6   89.01    5.84
   5   3  -6   97.28    8.99
  -5   3   5   62.21    5.44
   5  -3   5   71.83    7.29
   5  -3   5   66.63    5.06
   5  -3   5   53.87    6.85
  -5  -3  -5   56.98    4.62
  -5   3   5   71.31    6.64
   5   3  -5   66.08    4.56
   5   3  -5   62.01    7.29
  -5   3   4  162.45    8.17
   5  -3   4  186.89   11.41
  -5   3   4  164.17   10.10
   5  -3   4  167.11   11.45
  -5  -3  -4  177.95    7.37
   5   3  -4  164.89   11.73
  -5   3   3   88.15    5.69
   5  -3   3   91.87    7.95
  -5   3   3  102.17    8.10
   5  -3   3   93.24    8.67
  -5  -3  -3   89.95    4.88
   5   3  -3   99.87    9.02
   5  -3   2  464.16   17.47
   5  -3   2  423.07   18.18
  -5   3   2  456.42   16.59
  -5  -3  -2  431.48    9.32
   5   3  -2  452.54   19.14
  -5   3   1  427.55   16.30
   5  -3   1  421.31   17.97
  -5  -3  -1  437.20    8.16
   5   3  -1  466.35   19.47
   5  -3   1  450.81   14.15
  -5   3   0  375.51    9.41
  -5   3   0  380.47   15.39
   5  -3   0  352.74   16.74
  -5  -3   0  353.08    6.51
  -5  -3   0  363.05    6.45
   5   3   0  375.96   17.44
   5  -3   0  375.68   14.31
  -5   3   0  367.55   12.23
  -5   3  -1  428.12    9.85
  -5   3  -1  437.08   16.56
   5  -3  -1  420.30   17.94
  -5  -3   1  466.89    6.88
   5   3   1  432.65   18.79
   5  -3  -1  437.17   16.66
  -5   3  -1  438.90   11.93
   5   3   2  454.23   17.67
  -5   3  -2  428.96    9.93
  -5   3  -2  456.79   16.70
   5  -3  -2  420.26   18.29
  -5  -3   2  427.16    7.25
   5   3   2  452.34   19.05
   5  -3  -2  446.64   18.16
  -5   3  -3   86.92    4.76
   5   3   3   80.41    7.72
  -5   3  -3   92.16    7.72
   5  -3  -3   95.73    8.80
  -5  -3   3   91.30    3.93
   5   3   3   78.04    8.26
   5  -3  -3   89.67    8.83
   5   3   4  170.85   11.44
  -5   3  -4  185.36   10.76
   5  -3  -4  180.36   11.88
  -5  -3   4  169.65    6.22
   5   3   4  199.29   12.83
   5  -3  -4  177.17   13.05
  -5   3  -4  175.65    7.06
   5  -3  -5   60.13    8.08
   5   3   5   73.80    7.73
  -5  -3   5   70.34    4.46
  -5   3  -5   66.37    6.53
   5   3   5   64.78    7.58
   5  -3  -5   77.56    8.09
   5   3   6  101.46    9.13
  -5   3  -6   89.49    7.48
   5   3   6   89.90    8.84
   5  -3  -6   86.63   10.12
   5  -3  -7   17.58    5.11
   5   3   7   22.65    4.68
   5   3   7   14.89    3.61
  -5   3  -7   20.84    3.83
   5  -3  -8   71.47   10.17
  -5   3  -8   82.55    6.81
   5   3   8   70.49    8.11
   5  -3  -8   79.73    8.44
   5   3   8   83.52    8.31
   5  -3  -9    2.00    3.58
   5   3   9    2.88    2.35
  -5   3  -9   -2.43    2.28
   5   3   9   -2.76    3.24
  -5   3  -9    1.64    2.32
   5  -3  -9   -2.89    3.58
   5  -3 -10   74.58   11.56
  -5   3 -10   56.44    5.38
   5   3  10   60.42    8.14
  -5  -3  10   58.80    8.45
  -5   3 -10   57.93    7.88
   5  -3 -10   78.24    8.98
   5   3  10   60.94    7.13
   5  -3 -11   19.70    6.94
   5   3  11   15.86    3.91
  -5  -3  11   12.72    4.64
   5   3  11   15.15    4.36
  -5  -3  11   12.71    2.56
  -5   3 -11   19.12    4.86
   5  -3 -11   19.21    4.97
  -5   3 -11   15.43    2.84
   5  -3 -12   44.33    9.53
  -5  -3  12   38.41    7.38
   5   3  12   40.55    7.28
  -5   3 -12   32.78    6.31
   5  -3 -12   39.86    7.03
   5  -3 -13    3.56    5.03
  -5  -3  13   10.29    4.37
   5   3  13   14.36    4.75
  -5   3 -13   11.98    4.40
   5  -3 -13   17.73    4.95
   5  -3 -14   23.23    7.80
   5   3  14   16.96    5.16
  -5  -3  14    4.77    3.76
  -5   3 -14   11.57    4.67
   5  -3 -14    8.58    3.76
   5  -3 -15   -1.25    5.38
   5   3  15    0.43    2.47
  -5  -3  15    2.92    3.78
  -5   3 -15    4.08    3.60
   5  -3 -15    1.20    2.91
   5  -3 -16    2.80    3.51
   5   3  16    9.24    4.67
  -5  -3  16    9.75    5.04
  -5   3 -16   -3.39    3.22
   5  -3 -16    0.36    2.65
  -5   4  17    0.32    3.03
  -5  -4 -17    0.16    2.42
  -5   4  16    0.29    2.32
  -5  -4 -16    3.63    2.81
   5  -4  16   -0.01    2.53
  -5   4  15   19.61    4.77
   5  -4  15   14.83    4.60
  -5  -4 -15    9.14    3.62
  -5   4  14   10.15    3.65
   5  -4  14   17.32    4.56
  -5  -4 -14   12.69    4.16
   5   4 -14   11.49    3.69
  -5  -4 -13   10.40    4.25
   5  -4  13   12.39    3.80
  -5  -4 -13   14.03    4.03
   5   4 -13   10.88    3.40
  -5   4  13   15.56    3.89
  -5  -4 -12   19.84    4.87
  -5   4  12   12.07    3.19
   5  -4  12   14.54    3.85
  -5  -4 -12    8.16    3.16
   5   4 -12   13.68    3.59
  -5   4  11   40.46    4.34
   5   4 -11   35.63    5.68
  -5  -4 -11   46.07    6.77
  -5   4  11   37.83    5.49
   5  -4  11   35.90    5.22
  -5  -4 -11   40.66    4.57
  -5  -4 -11   44.51    6.04
   5   4 -11   30.50    4.72
  -5   4  10  112.08    7.31
  -5   4  10  110.44    8.56
   5  -4  10   96.64    7.98
  -5  -4 -10  107.13    7.13
  -5  -4 -10  104.77    8.53
   5   4 -10  110.13    8.30
   5   4 -10  105.37    9.69
  -5   4   9  106.34    7.28
  -5   4   9   89.98    7.44
   5  -4   9   87.75    7.20
  -5  -4  -9   93.68    6.77
  -5  -4  -9   86.91    7.34
   5   4  -9  101.39    7.46
   5   4  -9   97.51    9.45
  -5   4   8   79.03    6.51
  -5   4   8   83.20    6.72
   5  -4   8   86.06    6.57
   5  -4   8   75.74    8.38
  -5  -4  -8   71.54    5.97
  -5  -4  -8   76.61    6.51
   5   4  -8   80.02    6.17
   5   4  -8   89.19    8.85
  -5   4   7   10.04    2.52
   5   4  -7    6.28    2.90
   5  -4   7   13.26    2.58
   5  -4   7    9.48    2.97
  -5   4   7   10.60    2.86
  -5  -4  -7    7.44    2.08
   5   4  -7   13.23    2.49
  -5   4   6  122.39    8.33
  -5   4   6  122.54    7.49
   5  -4   6  121.53    9.72
   5  -4   6  115.12    6.71
   5  -4   6  107.74    9.71
  -5  -4  -6  115.74    6.84
   5   4  -6  120.96    6.33
   5   4  -6  125.81   10.72
  -5   4   5   41.95    4.23
  -5   4   5   38.22    4.72
   5  -4   5   51.82    6.41
   5  -4   5   43.02    3.83
   5  -4   5   51.68    6.73
  -5  -4  -5   45.28    4.02
   5   4  -5   48.36    3.48
   5   4  -5   34.96    5.76
  -5   4   4   62.32    4.55
  -5   4   4   59.00    5.89
   5  -4   4   65.87    6.99
   5   4  -4   50.52    6.84
   5  -4   4   53.83    7.11
  -5  -4  -4   55.70    3.88
  -5   4   3  302.18    9.09
  -5   4   3  321.86   13.64
   5  -4   3  330.16   14.78
   5  -4   3  306.29   16.01
  -5  -4  -3  296.14    7.76
   5   4  -3  289.07   15.57
   5  -4   3  279.75    8.23
  -5   4   2   97.27    4.67
  -5   4   2   98.33    7.56
   5  -4   2   85.86    8.62
  -5  -4  -2   91.51    3.32
   5   4  -2   99.80    9.13
   5  -4   2   96.61    6.14
  -5   4   1  106.54    4.39
  -5   4   1  104.33    7.95
  -5   4   1  113.06    4.38
   5  -4   1  105.91    9.42
   5   4  -1  105.92    9.48
   5  -4   1  116.11    7.57
  -5   4   0  215.47   11.41
  -5   4   0  213.58    5.31
   5  -4   0  211.64   13.29
   5   4   0  236.80   13.90
   5  -4   0  234.19   11.79
  -5   4  -1  117.45    8.36
   5  -4  -1  108.73    9.56
  -5   4  -1  115.34    3.65
   5   4   1  115.70    9.81
   5  -4  -1  113.95    8.91
  -5   4  -2   97.17    7.61
   5  -4  -2   98.79    9.17
   5   4   2   97.19    9.06
   5  -4  -2   83.08    8.14
  -5   4  -2   95.54    3.66
  -5   4  -3  294.11    7.29
  -5   4  -3  300.21   13.20
   5   4   3  299.52   14.89
   5  -4  -3  301.19   15.77
   5   4   3  284.46   15.32
   5  -4  -3  315.45   16.78
   5  -4  -4   63.11    8.01
  -5   4  -4   60.24    3.90
  -5   4  -4   55.46    5.85
   5   4   4   53.92    6.70
   5  -4  -4   55.30    6.94
   5   4   4   62.39    7.47
   5  -4  -5   42.07    7.10
  -5   4  -5   36.21    3.49
  -5   4  -5   40.24    4.92
   5   4   5   46.23    6.45
   5   4   5   45.15    6.25
  -5  -4   5   38.15    3.02
   5  -4  -5   39.63    6.02
  -5   4  -6  115.54    8.18
   5   4   6  118.09    9.98
   5  -4  -6  104.91    9.65
   5   4   6  126.07   10.70
   5  -4  -6  116.86   11.92
   5  -4  -7    8.41    4.24
  -5   4  -7    7.52    2.44
   5   4   7    5.32    2.59
   5   4   7    9.35    3.43
   5   4   7    7.64    3.79
   5  -4  -7    6.73    3.19
  -5   4  -8   78.27    6.47
   5   4   8   81.64    8.89
   5  -4  -8   75.65    8.34
  -5  -4   8   80.70    6.42
   5   4   8   90.03    9.22
   5  -4  -8   89.53   11.36
  -5   4  -9   99.29    7.14
   5   4   9   88.67    9.51
  -5  -4   9  105.00    7.03
   5  -4  -9   91.83    9.89
   5   4   9   89.86    9.16
   5  -4  -9   88.75   11.90
  -5   4 -10  105.61    7.15
   5   4  10   90.20    9.99
  -5   4 -10  102.18   10.74
  -5  -4  10   99.22    6.74
   5  -4 -10  109.34   11.10
   5   4  10  116.84   10.26
   5  -4 -10   97.67   12.99
   5  -4 -11   44.32    9.30
  -5   4 -11   34.24    4.19
   5   4  11   39.54    6.04
  -5  -4  11   40.06    7.64
   5   4  11   25.81    5.61
  -5  -4  11   30.92    3.85
  -5   4 -11   30.94    5.98
   5  -4 -11   26.85    5.85
   5  -4 -12   11.63    5.69
  -5  -4  12    6.41    3.95
   5   4  12   17.28    5.33
  -5   4 -12   21.92    5.78
   5  -4 -12   13.18    4.93
   5  -4 -13    8.93    5.92
  -5  -4  13    7.22    3.34
   5   4  13   18.44    4.86
  -5   4 -13    5.59    3.36
   5  -4 -13   13.59    4.55
   5  -4 -14    9.47    6.65
  -5  -4  14   16.41    5.58
   5   4  14   18.93    5.66
  -5   4 -14   13.31    4.61
   5  -4 -14   11.17    4.74
   5  -4 -15    7.05    5.85
  -5  -4  15   15.93    5.53
   5   4  15   17.57    6.12
  -5   4 -15   12.84    4.61
   5  -4 -15   14.71    5.19
   5  -4 -16    1.75    3.19
  -5   5  17   -0.01    2.68
  -5  -5 -17    3.97    3.46
  -5  -5 -16    5.92    3.76
  -5   5  16    1.62    2.67
  -5   5  15    4.13    3.01
  -5  -5 -15    2.21    3.28
  -5  -5 -14   10.40    4.36
  -5   5  14   14.86    4.27
  -5  -5 -14    7.18    3.43
  -5  -5 -13   26.29    6.21
  -5   5  13   40.41    5.97
  -5  -5 -13   30.08    5.61
  -5   5  12    1.78    2.48
  -5  -5 -12    3.73    2.52
  -5  -5 -11   26.04    5.74
   5   5 -11   17.59    4.65
  -5   5  11   26.25    4.55
   5  -5  11   23.82    4.24
  -5  -5 -11   26.13    3.59
  -5  -5 -11   18.18    4.04
  -5   5  11   28.74    3.66
  -5   5  10   66.47    5.59
  -5   5  10   55.24    5.94
   5  -5  10   54.42    5.77
   5  -5  10   54.50    7.54
  -5  -5 -10   55.14    5.19
  -5  -5 -10   48.09    5.90
   5   5 -10   54.85    7.58
   5   5  -9    4.83    3.06
  -5   5   9    7.82    2.56
   5  -5   9    8.55    2.49
   5  -5   9    4.08    2.99
  -5  -5  -9    2.61    1.69
  -5   5   9    3.50    1.83
  -5  -5  -9    2.71    1.76
  -5   5   8   85.57    6.61
  -5   5   8   76.34    6.15
   5  -5   8   79.58    6.03
   5  -5   8   80.65    8.91
  -5  -5  -8   82.96    6.54
  -5  -5  -8   81.93    6.81
   5   5  -8   76.29    8.89
   5  -5   7   13.56    3.62
  -5   5   7   13.56    2.75
   5  -5   7   15.99    2.62
   5   5  -7   12.38    4.18
   5  -5   7   21.49    4.86
  -5  -5  -7   16.18    3.29
  -5  -5  -7   14.42    2.89
  -5   5   7   20.93    3.66
   5   5  -7   13.67    2.39
  -5   5   6  409.74   14.67
  -5   5   6  409.19   12.16
   5  -5   6  418.78   17.95
   5  -5   6  396.42   19.03
  -5  -5  -6  399.66   14.44
  -5  -5  -6  407.13   12.75
   5   5  -6  423.80   10.38
   5   5  -6  409.84   19.28
   5  -5   6  418.68   11.49
  -5   5   5   77.40    4.84
  -5   5   5   71.60    6.52
   5  -5   5   74.67    7.57
   5  -5   5   71.94    8.36
  -5  -5  -5   71.07    6.32
  -5  -5  -5   72.94    5.00
   5   5  -5   69.57    8.12
  -5   5   4   88.42    4.64
  -5   5   4   91.10    7.28
   5  -5   4   96.21    8.23
   5  -5   4   80.88    8.54
  -5  -5  -4   85.53    6.90
  -5  -5  -4   93.32    4.78
   5   5  -4   84.86    8.83
   5  -5   4   93.44    4.46
  -5   5   3  260.20   12.16
  -5   5   3  258.78    6.59
   5  -5   3  284.33   13.74
   5  -5   3  286.89   16.00
  -5  -5  -3  249.44   11.72
  -5  -5  -3  277.23    6.39
   5   5  -3  231.15   14.28
   5  -5   3  277.67   10.04
  -5   5   2  209.23   10.97
  -5   5   2  197.47    4.11
   5  -5   2  205.98   13.61
   5   5  -2  198.93   13.16
   5  -5   2  203.18    9.71
  -5   5   1  267.19   12.37
   5  -5   1  260.24   15.16
   5   5  -1  268.01   15.38
   5  -5   1  251.28   11.73
  -5   5   0   71.12    6.58
   5  -5   0   68.65    8.16
   5   5   0   58.19    7.51
   5  -5   0   60.77    6.36
  -5   5  -1  251.10   12.03
   5  -5  -1  286.71   15.89
   5   5   1  278.17   15.69
   5  -5  -1  265.91   14.01
  -5   5  -2  222.39   11.41
   5  -5  -2  205.37   13.60
   5   5   2  199.79   13.26
   5  -5  -2  214.15   13.22
  -5   5  -3  281.79   12.65
   5   5   3  263.58   14.17
   5  -5  -3  273.09   15.54
  -5  -5   3  244.97   11.70
   5   5   3  277.75   15.58
   5  -5  -3  281.05   16.19
  -5   5  -4   90.70    7.35
   5   5   4   84.44    8.32
   5  -5  -4   88.00    8.92
  -5  -5   4   79.35    6.62
   5   5   4   83.52    8.92
   5  -5  -4   80.47    9.35
   5  -5  -5   72.14    9.18
  -5   5  -5   79.34    6.78
   5   5   5   85.25    8.44
   5  -5  -5   75.58    8.42
  -5  -5   5   76.99    6.50
   5   5   5   72.81    8.34
  -5   5  -6  399.90   14.76
   5   5   6  431.45   19.13
   5  -5  -6  385.33   18.72
  -5  -5   6  414.46   14.57
   5   5   6  424.71   19.71
   5  -5  -6  411.49   22.45
   5  -5  -7   10.41    4.97
   5   5   7   16.63    4.61
   5   5   7   18.76    4.44
   5  -5  -7   11.27    3.86
  -5  -5   7   14.04    2.93
  -5   5  -7   15.44    3.35
   5  -5  -8   71.46   10.61
  -5   5  -8   91.87    6.95
   5   5   8   88.93    9.31
   5  -5  -8   80.14    8.68
  -5  -5   8   81.03    6.38
   5   5   8   82.79    8.95
   5  -5  -9   -1.93    4.02
   5   5   9    2.57    2.22
   5   5   9    5.10    3.04
   5  -5  -9    3.83    2.54
  -5  -5   9    5.39    2.07
  -5   5  -9    3.48    1.93
  -5   5 -10   63.97    5.60
   5  -5 -10   57.11   10.35
   5   5  10   48.98    7.13
   5   5  10   46.17    7.40
   5  -5 -10   53.11    7.29
  -5  -5  10   57.00    5.19
   5  -5 -11   18.85    6.73
   5   5  11   23.96    5.10
  -5  -5  11   12.82    4.91
   5   5  11   18.65    4.89
  -5   5 -11   25.77    3.66
  -5   5 -11   20.85    5.54
  -5  -5  11   25.35    3.42
   5  -5 -11   23.81    5.84
   5  -5 -12   11.12    6.49
   5   5  12    9.69    4.59
  -5  -5  12    7.84    4.21
  -5   5 -12   -0.84    2.55
   5  -5 -12    6.07    3.80
   5  -5 -13   54.59   11.29
  -5  -5  13   24.87    6.67
   5   5  13   39.15    7.84
  -5   5 -13   34.46    7.20
   5  -5 -13   27.26    7.04
   5  -5 -14    0.98    4.82
  -5  -5  14   12.81    5.01
   5   5  14   13.41    5.53
  -5   5 -14    5.63    3.43
   5  -5 -14    5.27    4.06
   5  -5 -15   -3.98    4.89
  -5  -5  15   -0.79    2.69
   5   5  15    6.57    3.96
  -5   5 -15    0.17    2.17
   5  -5 -15    3.18    3.29
  -5  -6 -14   17.79    5.89
  -5  -6 -13   17.78    5.82
  -5  -6 -12   20.84    6.03
   5   6 -11    0.77    2.28
  -5   6  11    0.41    1.18
   5  -6  11   -1.20    2.62
  -5  -6 -11    4.75    2.05
  -5  -6 -11    1.60    1.71
   5   6 -10   -0.54    3.21
  -5   6  10    5.01    2.21
   5  -6  10   12.12    4.03
  -5  -6 -10    6.64    2.28
  -5  -6 -10    6.31    2.68
   5  -6   9   99.84   10.28
  -5  -6  -9  106.69    7.20
  -5  -6  -9  101.56    8.10
   5   6  -9  100.32   10.39
  -5   6   9   99.43    6.94
  -5   6   8   44.49    4.82
   5   6  -8   28.14    5.57
   5  -6   8   35.47    5.74
   5  -6   8   36.79    6.39
  -5  -6  -8   40.88    4.60
  -5  -6  -8   45.16    5.01
  -5   6   7   86.91    6.88
   5  -6   7   77.56    8.22
   5  -6   7   76.19    8.76
  -5  -6  -7   84.87    6.69
   5   6  -7   73.81    8.80
  -5   6   6  190.85   10.05
   5  -6   6  183.44   11.95
   5  -6   6  174.03   13.22
  -5  -6  -6  170.68    9.64
   5   6  -6  174.93   13.10
  -5   6   5   63.33    5.98
   5  -6   5   57.60    6.55
   5  -6   5   58.79    7.88
  -5  -6  -5   56.76    5.88
   5   6  -5   54.90    7.54
  -5   6   4   51.81    5.53
   5  -6   4   54.44    6.36
   5   6  -4   47.99    7.12
   5  -6   4   54.96    7.52
  -5  -6  -4   52.90    5.62
  -5   6   3  128.44    8.54
   5  -6   3  104.55   10.46
  -5  -6  -3  115.49    8.12
   5   6  -3  104.02   10.19
   5  -6   3  104.41    7.04
  -5   6   2  218.42   11.18
   5  -6   2  204.78   14.16
  -5  -6  -2  191.07   10.41
   5   6  -2  218.57   14.44
   5  -6   2  190.38   10.36
  -5   6   1  204.95   10.87
   5  -6   1  214.44   14.42
  -5  -6  -1  208.57   10.79
   5   6  -1  198.08   13.75
   5  -6   1  210.26   11.69
  -5   6   0  314.86   13.30
   5  -6   0  283.91   16.68
  -5  -6   0  265.18   12.20
   5   6   0  269.33   16.04
   5  -6   0  275.83   14.25
  -5   6  -1  220.41   11.19
   5  -6  -1  219.04   14.58
  -5  -6   1  213.36   10.89
   5   6   1  186.13   13.48
   5  -6  -1  204.75   13.12
  -5   6  -2  216.76   11.14
   5  -6  -2  203.09   14.15
  -5  -6   2  196.62   10.49
   5   6   2  192.01   13.69
   5  -6  -2  198.77   13.50
  -5   6  -3  113.16    7.99
   5  -6  -3  114.49   10.77
  -5  -6   3  110.85    8.05
   5   6   3  119.39   10.91
   5  -6  -3  113.36   10.81
  -5   6  -4   47.21    5.36
   5  -6  -4   61.41    8.49
   5   6   4   54.21    6.84
   5   6   4   51.63    7.40
   5  -6  -4   62.94    8.02
  -5  -6   4   48.27    5.37
  -5   6  -5   55.54    5.66
   5  -6  -5   63.07    8.97
   5   6   5   57.77    7.08
   5  -6  -5   58.21    7.68
  -5  -6   5   55.35    5.72
   5   6   5   74.89    8.78
  -5   6  -6  194.81   10.10
   5   6   6  170.63   12.41
   5  -6  -6  177.14   13.12
  -5  -6   6  175.24    9.68
   5   6   6  171.29   13.10
   5  -6  -6  176.75   15.14
  -5   6  -7   88.66    6.96
   5  -6  -7   75.27   10.69
   5   6   7   86.67    9.00
   5  -6  -7   90.12    9.65
  -5  -6   7   90.93    6.78
   5   6   7   70.23    8.62
  -5   6  -8   39.44    4.68
   5  -6  -8   32.58    7.92
   5   6   8   36.36    6.40
   5   6   8   35.22    6.08
   5  -6  -8   34.97    6.41
  -5  -6   8   41.43    4.61
   5   6   9  101.40   10.31
   5  -6  -9   91.61    9.86
  -5  -6   9  109.22    7.19
   5   6   9   98.53   10.33
   5  -6  -9  102.12   13.21
  -5   6  -9  116.28    7.55
   5  -6 -10    1.46    3.65
   5   6  10    4.25    2.53
  -5   6 -10    6.77    2.45
   5   6  10   -2.31    2.83
   5  -6 -10    2.84    3.06
  -5  -6  10    4.86    1.92
   5  -6 -11    5.73    4.94
   5   6  11    3.55    2.96
  -5   6 -11    2.72    1.69
   5   6  11    2.46    2.56
   5  -6 -11    0.54    2.24
  -5   6 -11    4.86    3.30
  -5  -6  11    4.62    1.89
   5  -6 -12   10.62    5.76
  -5  -6  12    8.46    3.94
   5   6  12   10.86    4.59
  -5   6 -12   10.39    4.59
   5  -6 -13   25.00    7.86
  -5  -6  13   24.09    6.69
   5   6  13   21.08    6.05
  -5   6 -13   14.43    4.84
   5  -6 -13    9.67    4.16
   5  -6 -14   -0.60    4.90
  -5  -6  14    3.91    3.91
   5   6  14   15.24    5.51
  -5   6 -14    8.41    4.34
   5  -6 -14    6.56    3.80
  -5  -7 -15   12.66    5.83
  -5  -7 -14    2.09    3.72
  -5  -7 -13   19.57    5.61
  -5  -7 -12    0.67    3.04
  -5   7  11    3.16    1.80
   5   7 -11    0.13    2.41
   5  -7  11    2.66    2.64
  -5   7  10   29.34    4.03
   5  -7  10   29.86    6.19
  -5  -7 -10   35.31    4.19
   5   7  -9    6.92    3.34
   5  -7   9    3.59    2.36
  -5   7   9    3.38    1.99
   5  -7   9   -2.45    3.13
  -5  -7  -9    4.90    2.20
   5  -7   8   15.86    3.97
   5   7  -8    7.05    3.26
  -5   7   8   15.27    3.17
   5  -7   8    7.62    3.74
  -5  -7  -8    6.86    2.33
   5  -7   7   25.65    4.81
   5   7  -7   38.23    6.71
  -5   7   7   30.57    4.11
   5  -7   7   26.28    5.86
  -5  -7  -7   26.51    3.93
   5  -7   6  163.02   11.27
   5  -7   6  146.00   12.90
  -5  -7  -6  151.50    8.89
   5   7  -6  162.60   13.17
  -5   7   6  155.06    9.03
   5  -7   5   10.77    2.96
   5   7  -5   12.86    4.17
   5  -7   5   11.81    4.31
  -5   7   5   11.04    2.86
  -5  -7  -5    7.48    2.41
  -5   7   4   39.05    4.83
   5   7  -4   32.39    6.02
   5  -7   4   39.62    7.03
  -5  -7  -4   37.40    4.63
   5   7  -3   30.72    6.13
   5  -7   3   35.57    6.67
  -5   7   3   36.21    4.70
  -5  -7  -3   29.29    4.27
   5  -7   2   24.94    4.35
   5   7  -2   30.22    5.81
   5  -7   2   26.64    5.95
  -5   7   2   34.48    4.70
  -5  -7  -2   32.89    4.50
  -5   7   1  153.54    9.28
   5  -7   1  133.34   12.00
  -5  -7  -1  130.91    8.60
   5   7  -1  129.27   11.74
   5  -7   1  121.71    9.72
   5  -7   0   31.11    5.35
   5   7   0   25.92    5.50
   5  -7   0   26.08    5.88
  -5   7   0   33.04    4.66
  -5  -7   0   23.07    3.84
  -5   7  -1  150.06    9.16
   5  -7  -1  108.42   10.96
  -5  -7   1  137.16    8.85
   5   7   1  133.12   12.04
   5  -7  -1  125.32   10.74
   5  -7  -2   29.08    6.25
   5   7   2   28.63    6.17
   5  -7  -2   33.13    6.42
  -5   7  -2   26.14    4.33
  -5  -7   2   29.64    4.40
   5  -7  -3   41.11    7.39
   5   7   3   32.83    6.43
   5  -7  -3   33.70    6.44
  -5   7  -3   32.98    4.59
  -5  -7   3   30.23    4.30
  -5   7  -4   34.60    4.58
   5  -7  -4   46.22    7.74
   5   7   4   40.10    6.74
   5  -7  -4   43.02    7.08
  -5  -7   4   38.10    4.77
   5  -7  -5   12.20    5.17
   5   7   5   10.34    3.46
   5   7   5    7.68    3.82
   5  -7  -5   12.14    4.44
  -5   7  -5   11.19    3.00
  -5  -7   5   12.23    2.99
   5   7   6  155.88   11.97
   5  -7  -6  151.65   12.97
  -5  -7   6  153.98    9.03
   5   7   6  156.72   12.97
   5  -7  -6  132.54   13.89
  -5   7  -6  152.98    9.10
   5  -7  -7   43.94    8.84
   5   7   7   30.71    5.82
   5   7   7   29.38    6.24
   5  -7  -7   33.11    6.41
  -5   7  -7   31.79    4.25
  -5  -7   7   27.99    4.01
   5  -7  -8   12.03    5.48
   5   7   8   13.69    4.03
   5   7   8   14.21    4.79
  -5   7  -8    9.92    2.67
   5  -7  -8   17.41    5.01
  -5  -7   8   10.05    2.68
   5  -7  -9   16.33    6.48
   5   7   9    6.52    3.49
   5   7   9    6.84    3.36
  -5   7  -9    6.46    2.24
   5  -7  -9    5.90    3.37
  -5  -7   9    6.76    2.49
   5  -7 -10   27.81    7.51
   5   7  10   46.75    7.63
   5   7  10   35.82    6.61
   5  -7 -10   27.64    5.97
  -5  -7  10   38.54    4.38
  -5   7 -10   36.46    4.32
  -5   7 -11    0.80    1.51
   5   7  11    3.22    2.71
   5   7  11    5.22    2.98
   5  -7 -11   -1.46    2.67
   5  -7 -12    3.18    4.35
  -5  -7  12    2.82    3.76
   5   7  12   -0.78    2.85
  -5   7 -12    2.34    3.42
   5  -7 -13   28.62    9.32
  -5  -7  13   29.48    6.79
   5   7  13   22.78    6.19
  -5   7 -13   32.37    7.32
  -5  -8 -14   12.81    5.82
  -5  -8 -13    8.37    4.88
  -5  -8 -12    4.47    4.14
  -5   8  11   19.93    3.48
   5   8 -11   21.70    5.65
   5  -8  11   10.64    4.09
  -5   8  10    4.11    2.04
   5   8 -10   -1.06    2.46
   5  -8  10    0.89    2.18
  -5   8   9   26.61    4.08
   5   8  -9   22.54    5.39
   5  -8   9   21.30    5.54
  -5   8   8   13.92    3.19
   5   8  -8   22.19    5.67
   5  -8   8   11.90    4.62
  -5  -8  -8   11.59    2.90
  -5   8   7   31.65    4.25
   5   8  -7   28.45    6.25
   5  -8   7   26.46    6.28
  -5  -8  -7   25.93    4.03
   5   8  -6   26.78    5.67
   5  -8   6   30.70    6.39
  -5  -8  -6   31.60    4.42
  -5   8   6   35.94    4.78
   5   8  -5    8.15    4.12
  -5   8   5    5.83    2.40
   5  -8   5    1.69    3.21
  -5  -8  -5    1.44    1.71
   5   8  -4   -1.80    2.15
  -5   8   4    3.63    2.22
   5  -8   4    1.23    2.79
  -5  -8  -4    1.35    1.88
   5   8  -3   34.40    6.42
   5  -8   3   48.89    8.01
  -5  -8  -3   41.09    5.04
  -5   8   3   45.76    5.19
   5  -8   2   91.27   10.63
  -5  -8  -2   90.64    7.22
   5   8  -2   88.64   10.23
  -5   8   2   89.82    7.22
   5  -8   1   12.13    4.22
   5   8  -1    8.23    3.77
  -5   8   1    8.91    2.76
  -5  -8  -1   12.36    3.06
   5  -8   0   -1.78    2.61
   5   8   0   -1.35    2.60
  -5   8   0    2.01    1.79
  -5  -8   0    3.80    2.54
   5  -8  -1   16.91    4.75
   5   8   1   11.87    4.20
  -5   8  -1   13.33    3.09
  -5  -8   1   10.77    3.02
   5  -8  -2   90.42   10.52
  -5  -8   2   91.77    7.25
   5   8   2   97.02   10.98
   5  -8  -2   82.10    9.98
  -5   8  -2   88.87    7.10
   5  -8  -3   44.52    7.87
   5   8   3   41.13    7.51
   5  -8  -3   52.51    8.12
  -5  -8   3   40.56    5.04
  -5   8  -3   43.08    5.14
   5  -8  -4    5.20    4.02
   5   8   4    0.01    2.57
  -5   8  -4   -0.03    1.58
   5  -8  -4    6.50    4.22
  -5  -8   4    0.39    1.53
   5  -8  -5    1.13    3.00
   5   8   5    1.63    2.89
  -5   8  -5    1.64    1.87
   5  -8  -5    1.94    2.92
  -5  -8   5    0.80    1.83
   5  -8  -6   37.80    8.41
   5   8   6   39.95    6.11
  -5   8  -6   32.65    4.53
   5   8   6   26.99    6.04
   5  -8  -6   31.38    6.62
  -5  -8   6   35.54    4.55
   5  -8  -7   35.11    6.95
   5   8   7   25.35    5.71
   5  -8  -7   38.39    7.17
  -5   8  -7   26.65    4.22
   5   8   7   23.84    5.08
  -5  -8   7   30.23    4.25
   5  -8  -8    7.87    5.09
  -5   8  -8   16.05    3.27
   5   8   8   11.25    3.84
   5   8   8    9.69    4.01
   5  -8  -8   14.95    4.48
  -5  -8   8   13.01    2.99
   5  -8  -9   36.91    9.09
  -5   8  -9   27.81    4.09
   5   8   9   38.78    6.72
   5   8   9   30.85    6.51
   5  -8  -9   17.28    5.06
   5  -8 -10    6.22    5.02
  -5   8 -10    4.41    2.23
   5   8  10   -0.34    2.77
   5   8  10    4.85    3.02
   5  -8 -10    1.56    2.67
   5   8  11   23.60    5.74
   5  -8 -11   18.39    7.27
  -5   8 -11   23.54    3.74
   5   8  11   22.18    5.44
   5  -8 -11   24.05    5.84
   5  -8 -12    5.58    5.93
  -5  -8  12    5.41    4.60
  -5   8 -12   -1.46    2.94
   5  -9  11    0.81    2.09
  -5   9  10    3.19    1.81
   5   9 -10    3.02    2.50
   5  -9  10    1.66    2.16
  -5   9   9    8.15    2.71
   5   9  -9    1.76    2.88
   5  -9   9    0.57    2.26
  -5   9   8    1.85    1.71
   5   9  -8   -3.92    3.03
   5  -9   8   -0.26    2.51
  -5   9   7    2.80    2.19
   5   9  -7    3.36    3.28
   5  -9   7    4.53    2.67
  -5   9   6    1.15    1.66
   5   9  -6   -1.08    3.08
   5  -9   6    5.50    4.03
   5   9  -5   16.89    5.48
   5  -9   5   19.42    5.43
  -5   9   5   22.24    3.90
  -5   9   4   10.75    3.04
   5   9  -4   15.37    5.27
  -5  -9  -4   16.97    3.54
  -5   9   3    8.46    2.74
   5   9  -3    8.77    4.26
  -5  -9  -3   10.04    3.31
  -5   9   2   27.72    4.32
   5   9  -2   30.53    6.62
  -5  -9  -2   33.65    4.62
  -5   9   1   17.19    3.67
   5   9  -1   18.10    5.34
  -5  -9  -1   18.40    3.72
   5  -9   0    6.27    3.19
  -5   9   0    6.43    2.53
   5   9   0   10.12    4.24
  -5  -9   0   13.31    3.45
   5  -9  -1   19.88    5.60
  -5   9  -1   18.20    3.56
   5   9   1   20.75    5.67
  -5  -9   1   25.73    4.27
   5  -9  -2   28.06    6.65
  -5   9  -2   26.27    4.09
   5   9   2   28.00    6.43
  -5  -9   2   37.42    4.84
   5  -9  -3    6.51    3.60
  -5   9  -3    6.18    2.51
   5   9   3    9.03    4.48
  -5  -9   3   13.77    3.28
   5  -9  -4   16.42    5.76
  -5   9  -4   12.01    3.11
   5   9   4   19.40    5.57
  -5  -9   4   13.64    3.17
   5  -9  -5   11.76    5.46
  -5   9  -5   17.90    3.63
   5   9   5   19.34    5.46
   5  -9  -5   19.26    5.73
   5  -9  -6    3.62    4.59
  -5   9  -6    6.19    2.30
   5   9   6   -0.08    2.30
   5  -9  -6    3.49    3.17
   5  -9  -7    7.03    4.58
  -5   9  -7    0.79    1.53
   5   9   7    4.06    3.35
   5  -9  -7    1.31    3.17
   5  -9  -8    0.50    3.60
  -5   9  -8    1.60    2.01
   5   9   8    3.98    3.60
   5  -9  -8   -2.63    3.19
  -5   9  -9    5.91    2.54
   5   9   9    5.24    3.13
   5  -9  -9    1.99    2.84
   5  -9 -10    6.67    5.51
  -5   9 -10    7.30    2.65
   5   9  10    1.57    2.50
   5  -9 -10   -1.25    3.54
  -5   9 -11    4.06    2.18
   5  -9 -11   -0.89    3.83
   5   9  11   -0.26    2.27
  -5  10  10    6.86    2.70
   5  10 -10    6.51    3.83
   5 -10  10    7.68    4.51
  -5  10   9   14.09    3.54
   5  10  -9    9.99    4.59
   5 -10   9    5.33    3.67
  -5  10   8    7.29    2.65
   5  10  -8    7.05    4.08
   5 -10   8   12.17    5.44
  -5  10   7    3.31    2.29
   5  10  -7    3.65    3.54
   5 -10   7    5.52    3.50
  -5  10   6    6.19    2.90
   5  10  -6   12.05    5.18
   5 -10   6    8.66    4.50
  -5  10   5   25.35    4.36
   5  10  -5   23.15    6.34
  -5  10   4   19.97    4.01
   5  10  -4    7.93    4.12
  -5  10   3    0.24    1.49
   5  10  -3   -0.02    2.49
   5  10  -2   60.68    9.73
  -5  10   2   56.85    6.22
  -5  10   1    2.22    2.22
   5  10  -1    0.35    2.30
  -5  10   0   -1.65    1.92
   5  10   0    3.81    3.09
  -5  10  -1    5.68    2.39
   5  10   1    5.83    3.97
   5 -10  -2   50.75    8.65
   5  10   2   67.60   10.02
  -5  10  -2   49.42    5.94
   5 -10  -3    5.15    4.42
  -5  10  -3    5.89    2.74
   5  10   3    0.05    3.30
   5 -10  -4   13.73    5.77
  -5  10  -4   16.37    3.88
   5  10   4   12.26    5.21
   5 -10  -5   14.81    6.28
  -5  10  -5   26.80    4.67
   5  10   5   25.02    6.50
   5 -10  -6   15.09    6.40
  -5  10  -6    8.62    2.92
   5  10   6    8.32    4.74
   5 -10  -6    7.82    4.51
   5 -10  -7   16.49    6.34
  -5  10  -7    4.56    2.45
   5  10   7    4.76    3.58
   5 -10  -7    5.98    4.00
  -5  10  -8   10.44    3.32
   5 -10  -8    9.95    4.96
   5  10   8    8.00    3.98
   5 -10  -8   18.18    5.92
  -5  10  -9    6.41    2.55
   5  10   9   11.61    4.43
   5 -10  -9    6.51    4.97
  -5  10 -10    5.98    2.64
   5  10  10    4.15    3.59
   5 -10 -10   -1.00    3.20
   5  11  -6   17.19    5.53
  -5  11   5    6.39    2.89
   5  11  -5    9.58    4.40
  -5  11   4    5.66    2.53
   5  11  -4    6.92    4.20
  -5  11   3    7.55    3.02
   5  11  -3   13.39    5.41
  -5  11   2    9.13    2.92
   5  11  -2    9.89    4.21
   5  11  -1   57.17    9.75
  -5  11   1   51.75    6.32
  -5  11   0   17.89    4.15
   5  11   0   21.51    6.95
   5  11   1   63.69   10.58
  -5  11  -1   62.12    6.94
  -5  11  -2   10.97    3.50
   5  11   2   15.07    5.30
  -5  11  -3    6.76    2.79
   5  11   3   13.09    5.45
  -5  11  -4    8.76    3.23
   5 -11  -4    2.30    3.55
   5  11   4    6.25    4.20
  -5  11  -5   14.20    3.79
   5 -11  -5    4.63    4.68
   5 -11  -6   13.84    6.03
   5 -11  -6   24.90    6.63
   5 -11  -7   -2.98    4.19
   5 -11  -7   -2.64    3.47
   6   0   0  365.30   17.42
   6   0  -1 1002.08   28.48
   6   0   1  969.99   28.36
   6   0  -2   41.51    6.25
   6   0   2   38.43    6.23
   6   0   2   40.65    5.98
   6   0   3  675.50   23.82
   6   0  -3  649.54   22.89
   6   0   3  653.41   23.36
  -6   0  -3  612.93   18.34
   6   0  -4   17.95    4.19
   6   0   4   18.07    4.30
   6   0   4   21.50    4.83
  -6   0  -4    9.06    2.43
   6   0  -5    2.88    2.60
   6   0   5    2.18    3.13
   6   0   5    4.04    3.10
   6   0   6   55.40    6.97
   6   0   6   67.03    8.18
   6   0  -6   69.90    7.59
   6   0   7  146.32   11.76
   6   0   7  139.10   10.11
  -6   0  -7  146.29   10.24
   6   0  -7  145.24   10.82
   6   0   7  139.48   10.83
   6   0  -8   -0.22    2.22
   6   0   8   -1.78    2.41
  -6   0   8   -4.04    3.51
   6   0   8   -1.44    1.98
  -6   0  -8    0.90    1.94
   6   0  -8   -2.25    2.36
   6   0   9    0.90    2.58
  -6   0   9    1.50    2.46
   6   0   9    1.21    2.30
  -6   0  -9   -0.89    2.29
   6   0  -9    2.68    2.40
  -6   0   9    0.71    2.07
  -6   0  -9    1.82    2.29
  -6   0  10   62.25    8.28
   6   0  10   59.10    7.46
  -6   0 -10   48.36    6.85
   6   0 -10   52.68    7.02
  -6   0  10   44.39    6.02
  -6   0 -10   42.82    5.96
  -6   0 -11   45.76    6.05
   6   0  11   56.75    7.69
  -6   0  11   49.58    7.58
  -6   0  11   53.28    6.34
  -6   0 -11   40.87    6.31
   6   0 -11   47.10    6.82
  -6   0  12    7.32    3.43
   6   0  12    9.13    3.57
  -6   0 -12   13.51    4.48
   6   0 -12    7.51    3.23
  -6   0  13   15.48    4.96
   6   0  13   10.99    4.26
  -6   0 -13   13.95    4.15
   6   0 -13    7.86    3.79
  -6   0  14    4.61    3.55
   6   0  14   -0.27    3.05
  -6   0 -14    4.10    3.12
   6   0 -14    2.08    2.66
  -6   0  15   40.44    7.72
   6   0  15   25.92    6.14
  -6   0 -15   17.63    4.82
   6   0 -15   33.47    6.90
  -6   0  16    4.79    3.30
   6   0  16   16.57    5.49
  -6   0 -16    9.39    4.25
   6   0 -16    9.76    4.25
   6   0  17    1.52    3.46
   6   0 -17    0.23    2.43
   6  -1  17    1.62    3.40
   6   1 -17    5.55    3.88
  -6   1  16    5.73    4.22
   6  -1  16    4.04    3.55
  -6  -1 -16    3.97    3.57
   6   1 -16   -0.77    2.12
  -6   1  15    6.77    3.41
   6  -1  15    4.14    3.55
  -6  -1 -15    5.18    3.38
   6   1 -15    3.14    2.78
  -6   1  14   -2.13    3.34
   6  -1  14    4.87    3.52
  -6  -1 -14    0.32    1.84
   6   1 -14    3.53    2.84
   6  -1  13   13.64    4.07
  -6   1  13   18.52    5.33
  -6  -1 -13   10.99    3.85
   6   1 -13   15.21    4.49
   6  -1  12   10.33    3.50
  -6   1  12   15.34    4.98
  -6  -1 -12    7.31    3.12
   6   1 -12    9.06    3.49
   6   1 -11   15.41    3.82
  -6   1  11   15.87    3.57
  -6   1  11   19.95    5.20
   6  -1  11   16.79    4.44
  -6  -1 -11   11.68    3.78
   6   1 -11   16.37    4.05
  -6   1  10  100.30    9.82
   6  -1  10   98.43    9.23
  -6   1  10   91.39    8.20
  -6  -1 -10   93.50    8.95
   6   1 -10   85.42    8.45
   6   1 -10  104.61    9.26
  -6   1   9  112.57   10.10
   6  -1   9  101.81    8.90
  -6   1   9  106.73    8.87
  -6  -1  -9  109.82    9.19
   6   1  -9  112.55    9.22
   6   1  -9  112.54    9.79
   6  -1   8  101.89    8.47
  -6   1   8   87.51    8.34
  -6  -1  -8   98.75    8.42
   6   1  -8  113.89    8.88
   6   1  -8  109.09    9.65
  -6   1   8   88.38    8.69
   6  -1   7   61.10    7.94
   6  -1   7   54.16    6.25
  -6   1   7   50.51    6.60
  -6  -1  -7   48.80    5.78
   6   1  -7   58.41    6.01
  -6   1   7   44.90    6.24
   6   1  -7   56.19    7.07
   6   1  -6   15.63    4.16
  -6   1   6   10.47    3.39
   6  -1   6   13.39    4.16
  -6  -1  -6    8.76    2.80
   6  -1   5  108.68    9.87
  -6  -1  -5   99.89    7.43
  -6   1   5   93.34    8.65
   6   1  -5   98.30    9.36
   6  -1   4  331.78   16.96
  -6   1   4  340.25   16.58
   6  -1   4  322.77   16.50
   6   1  -4  334.44   16.64
   6  -1   3   54.67    7.05
   6  -1   3   65.14    7.50
   6   1  -3   60.35    7.19
   6  -1   2   22.17    4.73
   6   1  -2   23.71    4.72
   6  -1   2   35.39    5.62
   6  -1   1  419.89   18.62
   6   1  -1  450.14   19.38
   6  -1   0  530.90   20.76
   6   1   0  546.28   21.18
   6  -1  -1  438.08   18.94
   6   1   1  441.56   19.14
   6  -1  -2   48.07    6.78
  -6   1  -2   31.26    4.01
   6   1   2   30.45    5.59
   6   1   2   36.86    5.69
   6  -1  -3   49.37    6.69
   6   1   3   53.37    7.06
   6   1   3   65.28    7.80
  -6   1  -3   56.06    4.76
   6   1   4  327.94   17.01
  -6   1  -4  297.10   15.32
   6   1   4  311.32   16.29
  -6   1  -4  354.34   10.26
   6   1   5   97.18    9.58
  -6   1  -5  109.25    9.47
   6   1   5  109.53    9.91
   6  -1  -5  105.81   10.75
  -6   1  -5  113.40    4.86
   6   1   6   11.17    3.61
  -6   1  -6    7.30    2.90
   6   1   6    9.95    3.50
   6  -1  -6    5.54    3.21
   6   1   7   47.30    6.44
   6   1   7   49.05    7.13
  -6   1  -7   53.41    6.70
   6   1   7   47.29    6.33
   6  -1  -7   53.78    8.79
   6   1   8   80.76    9.14
   6   1   8  105.21    9.41
  -6   1  -8   94.56    8.64
  -6   1  -8  103.69    9.54
   6  -1  -8   98.25    8.84
   6   1   8  103.22    9.52
   6  -1  -8   83.38   11.01
  -6  -1   9  111.68   10.91
   6   1   9  116.06   10.43
  -6   1  -9  122.85    9.59
  -6   1  -9  132.71   11.05
   6  -1  -9  127.93   10.53
   6   1   9  106.20    9.69
   6  -1  -9  119.73   13.91
  -6  -1  10   82.43    9.82
   6   1  10   78.18    8.84
  -6   1 -10   95.54    8.51
  -6   1 -10   92.11    9.54
   6  -1 -10   95.77    9.74
   6   1  10   87.11    8.77
   6  -1 -10   94.98   12.98
   6   1  11   17.27    4.25
  -6   1 -11   11.25    3.15
  -6  -1  11   13.62    4.58
   6   1  11   13.24    4.12
   6  -1 -11   13.99    4.20
   6  -1 -11   22.25    7.69
  -6  -1  12    5.30    3.80
   6   1  12   11.94    3.98
  -6   1 -12    7.94    3.47
   6  -1 -12   12.50    4.35
   6  -1 -12    9.35    5.65
  -6  -1  13   16.98    5.34
   6   1  13   25.14    6.09
  -6   1 -13   12.84    4.69
   6  -1 -13   21.69    5.54
   6  -1 -13    3.15    3.76
  -6  -1  14   -0.11    2.97
   6   1  14    3.24    3.02
  -6   1 -14    2.19    2.89
   6  -1 -14    0.68    2.44
   6  -1 -14    0.48    4.18
  -6  -1  15    4.92    3.42
   6   1  15    4.60    3.88
  -6   1 -15    1.49    2.50
   6  -1 -15    9.69    4.01
   6  -1 -15    1.70    4.29
  -6  -1  16    1.97    2.82
   6   1  16    1.24    3.53
  -6   1 -16    4.60    3.41
   6  -1 -16    6.37    3.88
   6  -1 -17   -4.22    3.26
   6  -2  17    1.01    2.69
   6   2 -17    2.00    2.38
  -6   2  16    2.56    2.87
   6  -2  16    3.85    3.36
  -6  -2 -16    2.93    2.97
   6   2 -16   -0.25    2.35
  -6   2  15   11.60    4.04
   6  -2  15   12.44    4.54
  -6  -2 -15    5.08    3.30
   6   2 -15    8.71    3.79
  -6   2  14   28.77    6.11
   6  -2  14   26.08    5.69
  -6  -2 -14   21.68    5.04
   6   2 -14   23.47    5.24
  -6   2  13   12.26    3.85
   6  -2  13    6.85    3.45
  -6  -2 -13   10.60    3.63
   6   2 -13   19.43    4.80
  -6   2  12   41.84    6.82
   6  -2  12   49.56    6.92
  -6  -2 -12   57.63    7.28
   6   2 -12   44.72    6.54
   6   2 -11   25.44    4.96
  -6   2  11   25.41    5.13
   6  -2  11   29.17    5.36
  -6   2  11   22.36    3.98
  -6  -2 -11   25.03    4.86
   6   2 -11   23.88    4.68
  -6   2  10   98.82    9.37
   6  -2  10  100.82    8.94
  -6   2  10   99.92    8.17
  -6  -2 -10  104.09    8.96
   6   2 -10   94.71    8.62
   6   2 -10  107.94    9.83
   6   2  -9    9.95    3.39
  -6   2   9   11.28    3.68
   6  -2   9   10.59    2.96
  -6  -2  -9    9.17    3.00
   6   2  -9   11.54    3.30
  -6   2   9   11.79    3.38
  -6   2   8   52.59    6.43
   6  -2   8   59.36    7.88
   6  -2   8   72.90    7.00
  -6   2   8   70.70    7.12
  -6  -2  -8   53.93    6.10
   6   2  -8   67.81    6.48
   6   2  -8   55.87    7.14
  -6   2   7  331.14   15.34
   6  -2   7  324.47   17.32
   6  -2   7  335.94   14.26
  -6   2   7  340.65   15.63
  -6  -2  -7  329.89   13.77
   6   2  -7  342.66   13.60
   6   2  -7  327.75   16.72
  -6   2   6  343.31   15.14
   6  -2   6  373.05   18.33
  -6   2   6  377.10   16.74
  -6  -2  -6  357.12   13.70
   6   2  -6  346.55   17.33
   6   2  -5   51.04    6.99
   6  -2   5   56.34    7.30
  -6  -2  -5   48.05    5.02
  -6   2   5   50.62    6.50
   6   2  -4   -0.39    2.12
   6  -2   4    2.78    2.46
  -6  -2  -4    1.38    1.34
  -6   2   4   -1.85    2.88
   6  -2   3   67.56    7.67
  -6   2   3   66.85    7.44
  -6  -2  -3   71.23    5.34
   6   2  -3   70.68    8.03
  -6   2   2   81.49    8.16
   6   2  -2   91.89    9.03
  -6   2   1   57.05    7.08
   6   2  -1   58.02    7.29
  -6   2   0  459.90   18.94
  -6  -2   0  501.43   12.57
   6   2   0  498.94   20.71
   6   2   1   47.74    6.70
  -6   2  -1   54.92    6.80
  -6  -2   1   59.42    4.25
  -6   2  -1   58.49    5.30
  -6   2  -2   91.33    8.50
  -6  -2   2   86.91    5.00
   6   2   2   73.20    8.15
   6  -2  -2   96.09    9.11
  -6   2  -2   80.16    5.39
   6   2   3   54.92    7.01
  -6   2  -3   63.49    7.28
  -6  -2   3   64.90    4.61
   6   2   3   60.48    7.58
   6  -2  -3   65.56    7.96
  -6   2  -3   69.98    4.15
   6   2   4    2.32    2.64
   6   2   4    5.83    2.87
  -6   2  -4    1.55    2.42
   6  -2  -4    6.59    3.70
   6  -2  -5   57.04    8.53
   6   2   5   50.23    7.10
   6   2   5   53.79    7.45
  -6   2  -5   42.57    5.94
   6   2   6  369.00   18.76
  -6   2  -6  363.87   16.50
   6   2   6  346.86   17.61
   6  -2  -6  351.04   21.07
   6   2   7  336.13   18.34
  -6   2  -7  319.55   15.45
   6   2   7  375.60   18.26
   6  -2  -7  355.40   21.76
   6  -2  -8   68.95   10.24
   6   2   8   65.87    8.08
   6   2   8   61.24    8.33
  -6   2  -8   59.57    6.94
   6   2   8   68.03    7.93
   6  -2  -9    5.07    4.27
   6   2   9   10.03    3.37
   6   2   9    5.55    3.33
  -6   2  -9   12.43    4.26
   6  -2  -9    9.99    3.32
  -6   2  -9   17.26    4.05
  -6  -2  10  101.30   11.07
  -6   2 -10  109.50    8.76
   6   2  10  105.47   10.64
  -6   2 -10   93.05    9.80
   6  -2 -10   96.00   10.23
   6   2  10  112.35   10.16
   6  -2 -10   93.26   12.88
   6  -2 -11   18.54    7.18
   6   2  11   22.70    4.75
  -6  -2  11   16.37    5.37
   6   2  11   26.77    5.76
  -6   2 -11   25.07    4.52
  -6   2 -11   22.91    5.32
   6  -2 -11   16.97    4.78
   6  -2 -12   46.21   10.11
  -6  -2  12   37.49    7.19
   6   2  12   44.42    7.51
  -6   2 -12   46.40    7.53
   6  -2 -12   55.43    8.21
   6  -2 -13   13.96    6.24
  -6  -2  13   10.45    4.59
   6   2  13   12.05    4.91
  -6   2 -13    8.46    4.10
   6  -2 -13   11.45    4.25
   6   2  14   33.15    7.00
  -6  -2  14   29.73    7.16
  -6   2 -14   25.60    5.87
   6  -2 -14   21.87    5.79
   6  -2 -14   34.16    9.37
   6   2  15    4.33    3.42
  -6   2 -15   11.75    4.73
   6  -2 -15    4.25    3.51
   6  -2 -15    0.70    4.66
   6   2  16    5.55    4.56
   6  -2 -16    0.62    3.37
  -6   3  16    8.29    3.76
   6  -3  16    4.72    3.32
  -6  -3 -16   -1.39    2.45
  -6   3  15   10.82    4.45
   6  -3  15    7.63    3.91
  -6  -3 -15    5.41    3.25
  -6   3  14    7.39    3.54
   6  -3  14   13.49    4.46
  -6  -3 -14    6.55    3.16
  -6   3  13    8.89    3.46
   6  -3  13   20.94    4.93
  -6  -3 -13   21.06    4.78
   6   3 -13   11.62    3.85
  -6   3  12   21.34    4.73
   6  -3  12   19.71    4.50
  -6  -3 -12   22.40    4.50
   6   3 -12   30.97    5.32
   6   3 -11    0.01    1.77
  -6   3  11   -1.04    2.06
   6  -3  11    1.33    1.80
  -6  -3 -11    2.78    2.13
  -6   3  11   -0.70    2.70
   6   3 -11    3.37    2.25
   6   3 -10    7.63    3.11
  -6  -3 -10   12.06    3.42
  -6   3  10    4.48    1.94
  -6   3  10    6.38    2.78
   6  -3  10    7.19    2.91
  -6  -3 -10    8.28    2.91
   6   3 -10    7.58    2.91
  -6   3   9   82.39    7.87
  -6   3   9   81.05    7.24
   6  -3   9   74.29    7.14
  -6  -3  -9   88.26    7.71
   6   3  -9   83.76    7.36
   6   3  -9   79.14    8.64
  -6   3   8  186.58   11.26
  -6   3   8  186.85   11.33
   6  -3   8  168.51   12.84
   6  -3   8  176.74   10.46
  -6  -3  -8  173.00   10.07
   6   3  -8  199.57   10.52
   6   3  -8  173.11   12.63
   6  -3   7   83.25    6.80
  -6   3   7   88.83    7.48
   6  -3   7   93.62    9.52
  -6   3   7   81.54    7.66
  -6  -3  -7   88.93    6.81
   6   3  -7   92.28    6.66
   6   3  -7   95.88    9.39
  -6   3   6  197.76   10.72
   6  -3   6  211.40   14.04
  -6   3   6  211.98   12.26
  -6  -3  -6  195.59    9.57
   6   3  -6  189.80   13.37
  -6   3   5   55.48    5.59
   6   3  -5   52.65    7.48
   6  -3   5   54.65    7.30
  -6   3   5   55.14    6.62
  -6  -3  -5   43.28    4.28
  -6   3   4  161.89    8.95
   6  -3   4  182.29   12.53
  -6   3   4  162.53   11.00
  -6  -3  -4  166.22    7.73
   6   3  -4  158.49   12.25
   6  -3   3  167.08   11.87
  -6   3   3  146.76   10.59
  -6  -3  -3  146.89    6.69
   6   3  -3  141.05   11.57
  -6   3   2  142.78   10.34
  -6  -3  -2  146.20    6.09
   6   3  -2  140.63   11.43
  -6   3   1   20.83    4.57
   6   3  -1    7.94    3.34
  -6  -3  -1   14.64    1.92
  -6   3   0   -1.07    2.37
   6   3   0    0.73    2.57
  -6   3   0    1.85    0.94
  -6  -3   0    1.08    0.57
   6  -3   0    3.80    2.24
  -6   3  -1   12.36    2.42
  -6   3  -1   15.93    4.15
   6   3   1    9.18    3.33
  -6   3  -1   15.04    2.27
  -6  -3   1   13.63    1.57
   6  -3  -1   11.04    3.27
  -6   3  -2  137.41    6.53
  -6  -3   2  143.66    5.08
   6   3   2  141.52   11.55
   6  -3  -2  142.90   11.16
  -6   3  -2  150.29   10.66
   6   3   3  162.38   12.01
  -6   3  -3  151.23   10.76
  -6  -3   3  133.53    5.34
   6   3   3  153.69   12.14
   6  -3  -3  161.98   12.52
   6   3   4  168.60   12.31
  -6   3  -4  172.43   11.30
   6   3   4  177.72   12.95
   6  -3  -4  173.38   13.60
   6  -3  -5   39.56    7.15
   6   3   5   49.28    6.94
  -6   3  -5   51.14    6.37
   6   3   5   56.70    7.78
   6   3   6  217.09   14.54
  -6   3  -6  204.56   12.12
   6   3   6  199.35   13.91
   6  -3  -6  183.71   15.23
   6   3   7   96.75   10.02
  -6   3  -7   84.82    7.99
   6   3   7   86.38    9.29
   6  -3  -7   85.74   10.92
  -6   3  -8  208.01   11.96
   6   3   8  200.07   14.53
   6   3   8  180.94   13.51
   6   3   8  177.57   13.03
   6  -3  -8  172.52   16.08
  -6   3  -9   69.29    6.98
   6   3   9   93.24   10.22
   6   3   9   84.18    9.46
   6   3   9   89.62    9.39
   6  -3  -9   81.81   11.75
   6  -3 -10    4.40    4.73
   6   3  10    1.80    1.90
  -6   3 -10    4.10    2.28
   6   3  10    8.14    3.48
  -6   3 -10    8.58    3.77
   6  -3 -10    0.90    2.82
   6  -3 -11   -2.58    3.42
   6   3  11   -1.16    2.31
  -6   3 -11    2.71    1.92
  -6  -3  11   -2.04    3.49
   6   3  11   -0.41    3.02
  -6   3 -11    4.27    3.45
   6  -3 -11   -1.74    3.43
   6  -3 -12   27.44    7.99
  -6  -3  12   23.60    6.32
   6   3  12   28.57    6.40
  -6   3 -12   20.77    5.42
   6  -3 -12   23.62    5.77
   6  -3 -13   16.14    6.78
  -6  -3  13   21.57    5.83
   6   3  13   27.19    6.45
  -6   3 -13   16.30    4.99
   6  -3 -13   16.83    5.36
   6  -3 -14    7.00    6.28
  -6  -3  14   12.79    4.95
   6   3  14    3.75    3.87
  -6   3 -14    9.16    4.60
   6  -3 -14   11.73    4.75
   6  -3 -15    7.79    6.48
  -6  -3  15   14.93    5.54
   6   3  15    6.07    3.83
  -6   3 -15    7.94    4.15
   6  -3 -15   11.43    4.74
   6  -3 -16    5.12    4.11
  -6   4  16    6.38    3.57
  -6  -4 -16    1.65    2.62
  -6   4  15   12.34    3.90
  -6  -4 -15   10.02    3.82
  -6   4  14    2.70    2.59
  -6  -4 -14    2.12    2.73
  -6   4  13   18.61    4.43
  -6  -4 -13   27.47    5.35
  -6   4  12   34.82    5.61
   6  -4  12   26.68    5.06
  -6  -4 -12   28.97    5.52
   6   4 -11   24.85    5.09
  -6  -4 -11   30.15    5.34
  -6   4  11   29.44    5.12
   6  -4  11   28.70    4.98
  -6  -4 -11   28.55    4.17
  -6  -4 -11   29.59    5.15
  -6   4  11   31.64    4.44
   6   4 -10   33.77    5.98
  -6   4  10   30.79    4.92
   6  -4  10   32.85    4.85
  -6  -4 -10   30.84    4.35
  -6  -4 -10   35.07    5.15
  -6   4  10   32.41    4.61
  -6   4   9   56.35    6.01
  -6   4   9   67.23    6.79
   6  -4   9   64.12    8.27
   6  -4   9   50.86    5.66
  -6  -4  -9   65.15    6.39
   6   4  -9   60.77    8.07
  -6   4   8    9.45    2.75
   6   4  -8   12.01    4.26
  -6   4   8   13.21    3.33
   6  -4   8   12.46    4.12
   6  -4   8   10.81    2.45
  -6  -4  -8   14.36    2.98
  -6   4   7  117.63    8.04
  -6   4   7  119.21    8.93
   6  -4   7  121.71   10.77
   6  -4   7  113.16    7.45
  -6  -4  -7  112.54    7.41
   6   4  -7  105.44   10.35
  -6   4   6   37.93    4.62
   6   4  -6   36.97    6.38
   6  -4   6   35.71    6.11
  -6   4   6   36.78    5.09
  -6  -4  -6   37.04    4.05
   6   4  -5    9.76    3.84
   6  -4   5   17.05    4.26
  -6   4   5    8.71    2.36
  -6   4   5    2.71    2.47
   6  -4   5    9.99    3.56
  -6  -4  -5   10.95    2.27
  -6   4   4  118.65    6.84
   6  -4   4  115.52    9.97
  -6   4   4  120.36    9.20
   6  -4   4  102.79   10.23
  -6  -4  -4  114.08    5.72
   6   4  -4  101.40   10.54
  -6   4   3   80.13    5.34
   6  -4   3   76.93    8.09
  -6   4   3   86.94    8.10
   6   4  -3   67.61    8.52
   6  -4   3   74.54    8.88
  -6  -4  -3   79.99    4.21
  -6   4   2  164.30    7.21
  -6   4   2  181.42   11.52
   6  -4   2  147.81   12.28
  -6  -4  -2  179.01    4.97
   6   4  -2  162.49   12.89
   6  -4   2  153.98    8.06
   6   4  -1   60.65    8.09
  -6   4   1   70.58    7.31
   6  -4   1   56.05    7.53
   6  -4   1   55.63    5.59
   6  -4   0   18.39    3.86
   6   4   0   11.52    3.74
   6  -4   0   18.85    4.48
  -6   4   0   25.58    4.99
   6   4   1   52.45    7.62
  -6   4  -1   72.66    7.57
   6  -4  -1   65.26    8.07
   6  -4  -1   74.68    7.81
  -6   4  -2  161.91   10.93
   6  -4  -2  147.02   12.27
   6   4   2  172.52   13.42
   6  -4  -2  180.10   12.51
   6   4   3   82.08    8.62
  -6   4  -3   84.61    8.01
   6  -4  -3   74.00    8.78
   6   4   3   73.03    8.82
   6  -4  -3   81.03    9.24
   6   4   4  125.88   10.78
  -6   4  -4  110.81    8.95
   6  -4  -4  121.27   11.11
   6   4   4  110.90   10.92
   6  -4  -4  128.13   11.77
   6  -4  -5    8.18    4.10
   6   4   5    3.90    2.81
   6   4   5   13.24    4.34
  -6   4  -5    7.09    2.91
   6  -4  -5    6.20    3.27
   6  -4  -6   49.80    8.79
   6   4   6   33.93    6.25
   6   4   6   45.60    7.05
  -6   4  -6   40.35    5.29
  -6   4  -7  109.08    8.67
   6   4   7  129.22   11.66
   6   4   7  105.50   10.55
   6  -4  -7  115.62   12.94
   6  -4  -8   12.49    5.45
  -6   4  -8   12.77    3.19
   6   4   8   14.27    4.58
   6   4   8    4.03    3.31
   6  -4  -9   70.89   11.44
  -6   4  -9   59.97    6.30
   6   4   9   59.29    8.25
   6   4   9   76.90    9.19
   6  -4 -10   39.89    8.94
   6   4  10   34.51    6.12
   6   4  10   29.98    6.34
  -6  -4  10   30.65    4.23
  -6   4 -10   23.36    5.53
  -6   4 -10   27.79    4.40
   6  -4 -11   36.36    9.07
   6   4  11   16.46    4.38
  -6  -4  11   15.03    4.65
   6   4  11   19.43    5.05
  -6  -4  11   24.91    3.75
  -6   4 -11   30.29    6.52
  -6   4 -11   31.08    4.46
   6  -4 -12   35.38    9.01
  -6  -4  12   32.54    7.35
   6   4  12   25.34    6.16
  -6   4 -12   27.75    6.40
   6  -4 -12   29.40    6.67
   6  -4 -13   30.71    8.69
  -6  -4  13   22.94    5.97
   6   4  13   28.27    6.92
  -6   4 -13   31.84    7.14
   6  -4 -13   24.25    6.02
   6  -4 -14    0.11    4.53
  -6  -4  14   -0.96    3.97
   6   4  14    0.48    3.11
  -6   4 -14    1.10    3.07
   6  -4 -14    6.42    4.64
   6  -4 -15    7.12    4.23
  -6  -5 -12   11.04    4.03
   6   5 -11    7.72    3.67
  -6  -5 -11    4.36    2.27
  -6   5  11    3.75    2.10
  -6   5  10   53.58    5.59
   6   5 -10   57.44    8.07
   6  -5  10   43.35    7.07
  -6  -5 -10   49.21    5.68
   6   5  -9   43.13    7.32
   6  -5   9   37.32    6.59
  -6   5   9   36.88    4.79
  -6  -5  -9   33.95    4.73
  -6   5   9   27.96    4.32
   6   5  -8   19.47    5.36
   6  -5   8   24.19    5.23
  -6   5   8   18.26    3.20
   6  -5   8    8.99    3.84
  -6  -5  -8   15.49    3.31
  -6   5   8   16.39    3.41
   6   5  -7   26.54    6.00
   6  -5   7   18.34    4.43
   6  -5   7   34.00    6.31
  -6  -5  -7   24.24    4.05
  -6   5   7   22.87    4.15
  -6   5   6   27.30    4.49
   6   5  -6   22.92    5.23
   6  -5   6   32.64    5.75
   6  -5   6   22.40    5.23
  -6  -5  -6   25.16    4.28
  -6   5   5   42.06    5.49
   6   5  -5   48.48    7.61
   6  -5   5   41.79    6.15
   6  -5   5   46.42    7.27
  -6   5   4  106.25    8.43
   6  -5   4  104.96    9.76
   6  -5   4   98.11   10.57
   6   5  -4  118.98   11.52
  -6   5   3   64.63    6.91
   6  -5   3   60.54    8.15
   6   5  -3   71.92    9.25
  -6   5   2  108.23    8.67
   6  -5   2  105.70   10.81
   6   5  -2  121.47   11.63
   6  -5   2  119.66    7.73
  -6   5   1   82.86    7.78
   6  -5   1   82.50    9.87
   6   5  -1   71.56    8.96
   6  -5   1   76.59    7.00
  -6   5   0  541.51   19.47
   6  -5   0  545.25   23.86
   6   5   0  524.48   23.46
   6  -5   0  519.50   19.53
  -6   5  -1   69.95    7.21
   6  -5  -1   80.86    9.73
   6   5   1   67.89    8.64
   6  -5  -1   66.25    7.59
  -6   5  -2  110.81    8.92
   6  -5  -2  111.80   11.02
   6   5   2  109.96   10.87
   6  -5  -2  108.29   10.17
   6  -5  -3   61.07    8.03
  -6   5  -3   64.48    6.90
   6  -5  -3   62.57    8.37
   6   5   3   73.28    9.12
  -6   5  -4  102.00    8.45
   6   5   4  103.32   10.02
   6  -5  -4   88.33   10.05
   6   5   4  114.88   11.37
   6  -5  -4  114.31   11.48
   6  -5  -5   31.06    6.72
  -6   5  -5   34.39    5.32
   6   5   5   39.00    6.85
   6   5   5   37.00    6.33
   6  -5  -5   42.30    7.13
  -6   5  -6   28.70    4.67
   6  -5  -6   32.95    7.04
   6   5   6   33.80    6.78
   6   5   6   29.94    5.66
   6  -5  -6   28.35    6.05
   6  -5  -7   22.27    6.24
   6   5   7   27.58    5.71
   6   5   7   28.07    5.82
   6  -5  -7   25.35    5.57
  -6  -5   7   18.45    3.49
  -6   5  -7   21.61    4.03
   6  -5  -8    8.02    4.35
   6   5   8   15.91    4.66
   6   5   8   17.16    4.90
   6  -5  -8   10.17    3.69
  -6  -5   8   11.51    2.71
  -6   5  -8   15.19    3.46
   6  -5  -9   32.05    8.11
   6   5   9   35.70    6.61
   6   5   9   27.08    5.95
  -6  -5   9   32.73    4.52
  -6   5  -9   28.03    4.40
   6  -5 -10   51.12   10.64
  -6   5 -10   46.23    5.45
   6   5  10   51.20    7.69
   6   5  10   50.01    8.07
  -6  -5  10   49.91    5.49
   6  -5 -11   10.16    5.63
   6   5  11    5.51    3.26
   6   5  11    8.12    4.04
   6   5  11    3.23    3.09
  -6   5 -11    3.51    3.47
  -6  -5  11    4.25    1.96
  -6   5 -11    3.66    1.98
   6  -5 -12    3.18    4.50
  -6  -5  12   -2.86    5.05
   6   5  12   -0.80    3.62
  -6   5 -12   -2.82    3.03
   6  -5 -13    7.93    6.02
  -6  -5  13   15.11    5.61
   6   5  13    7.11    3.71
  -6   5 -13    6.69    3.55
   6  -5 -14    9.68    5.41
  -6  -5  14    9.09    4.92
   6   5  14    3.78    2.90
  -6   5 -14   12.62    4.98
   6  -5 -14    9.60    4.04
  -6  -6 -12   17.27    4.94
   6   6 -11    3.32    2.82
   6  -6  11    9.11    4.02
  -6   6  11   10.00    2.59
  -6  -6 -11    5.90    2.18
   6   6 -10   13.56    4.84
   6  -6  10   17.86    4.60
   6  -6  10   12.73    4.35
  -6   6  10   21.56    3.73
  -6  -6 -10   18.17    3.47
   6   6  -9   18.70    5.29
   6  -6   9   17.16    4.68
   6  -6   9   12.85    4.40
  -6   6   9   22.71    3.86
  -6  -6  -9   15.74    3.44
   6   6  -8   17.25    5.42
   6  -6   8   29.39    5.64
   6  -6   8   18.01    5.00
  -6  -6  -8   27.24    4.50
  -6   6   8   26.14    4.24
   6   6  -7    3.04    2.84
   6  -6   7    2.69    2.33
   6  -6   7    2.11    2.47
  -6  -6  -7    6.11    2.19
  -6   6   7    4.88    2.28
   6   6  -6   14.52    4.65
   6  -6   6   31.57    5.57
   6  -6   6   13.77    4.56
  -6  -6  -6   21.46    3.93
  -6   6   6   24.34    4.11
  -6   6   5   98.62    8.11
   6  -6   5   89.99    8.91
   6  -6   5   72.40    9.53
  -6  -6  -5   95.53    7.82
   6   6  -5   90.17   10.45
  -6   6   4   50.25    5.93
   6   6  -4   46.26    7.44
   6  -6   4   47.72    7.72
  -6  -6  -4   48.40    5.65
  -6   6   3   43.88    5.62
   6   6  -3   35.42    6.76
   6  -6   3   46.13    7.63
  -6  -6  -3   37.83    5.18
   6   6  -2    2.86    3.16
   6  -6   2    2.00    2.27
  -6  -6  -2    5.58    2.14
  -6   6   2    5.79    2.51
  -6   6   1  133.30    9.56
   6  -6   1  135.05   12.40
  -6  -6  -1  128.10    9.17
   6   6  -1  104.97   11.04
   6  -6   1  152.25   10.31
   6  -6   0    3.12    2.79
   6   6   0    5.90    3.20
   6  -6   0   -0.58    2.91
  -6  -6   0   -3.90    3.06
  -6   6   0    0.84    1.89
  -6   6  -1  132.36    9.63
   6  -6  -1  134.99   12.34
  -6  -6   1  138.34    9.57
   6   6   1  139.98   12.70
   6  -6  -1  133.16   11.21
   6  -6  -2    8.06    3.18
   6   6   2    5.65    3.38
   6  -6  -2    6.23    3.08
  -6  -6   2    5.04    2.00
  -6   6  -2    5.59    2.78
   6  -6  -3   44.11    7.30
   6   6   3   47.39    7.55
   6  -6  -3   42.70    7.25
  -6  -6   3   38.86    5.25
  -6   6  -3   38.67    5.28
   6  -6  -4   55.79    8.80
  -6   6  -4   51.06    6.22
   6   6   4   47.42    7.69
   6  -6  -4   41.08    7.02
  -6  -6   4   44.19    5.52
  -6   6  -5  102.39    8.33
   6   6   5   97.87    9.92
   6  -6  -5   91.09   10.48
  -6  -6   5   97.81    7.96
   6   6   5   90.47   10.57
   6  -6  -5  104.03   12.18
   6  -6  -6   20.49    6.22
   6   6   6   19.17    4.74
   6   6   6   15.46    5.17
   6  -6  -6    9.97    3.80
  -6  -6   6   23.58    4.10
  -6   6  -6   25.94    4.52
   6  -6  -7    9.12    4.62
   6   6   7    3.21    2.71
   6  -6  -7   10.06    4.19
  -6  -6   7    4.41    1.94
  -6   6  -7    9.10    2.97
   6  -6  -8   19.35    5.91
   6   6   8   23.48    5.83
   6   6   8   23.42    5.44
   6  -6  -8   19.54    4.97
  -6  -6   8   19.68    3.68
  -6   6  -8   24.58    4.22
   6  -6  -9   20.26    7.26
   6   6   9   16.58    4.92
   6   6   9   10.48    4.19
   6  -6  -9   11.70    4.58
  -6  -6   9   12.94    3.19
  -6   6  -9   16.89    3.45
   6  -6 -10   14.02    6.06
   6   6  10   18.79    5.17
   6   6  10   14.22    4.69
   6  -6 -10   15.79    4.54
  -6   6 -10   22.93    3.98
  -6  -6  10   19.44    3.41
   6  -6 -11    2.17    4.90
   6   6  11    4.64    3.30
   6   6  11    6.95    3.92
  -6   6 -11    8.97    2.66
  -6   6 -11    4.33    3.24
  -6  -6  11   10.21    2.57
   6  -6 -12   21.19    7.73
  -6  -6  12   12.66    5.17
   6   6  12   19.61    5.69
  -6   6 -12   12.27    5.06
   6  -6 -13    6.08    4.74
  -6  -6  13   16.46    6.33
   6   6  13    7.88    4.47
  -6   6 -13   13.45    5.15
  -6  -7 -13   16.48    5.86
  -6  -7 -12   23.51    6.26
   6   7 -11   10.98    4.42
  -6   7  11   13.01    2.85
   6  -7  11    9.85    4.27
  -6  -7 -11   12.48    2.92
   6   7 -10   17.66    5.55
  -6   7  10    8.73    2.40
   6  -7  10   10.52    4.57
  -6  -7 -10   14.53    3.30
   6   7  -9   20.66    6.09
   6  -7   9   10.65    3.80
   6  -7   9   18.22    4.71
  -6   7   9   19.53    3.52
  -6  -7  -9   20.77    3.67
   6   7  -8   18.36    5.08
   6  -7   8   25.35    5.03
   6  -7   8   17.49    5.04
  -6   7   8   22.53    3.98
  -6  -7  -8   18.23    3.48
   6   7  -7    2.53    2.91
   6  -7   7    3.70    3.56
  -6   7   7    6.67    3.04
  -6  -7  -7    5.40    2.36
   6  -7   7    2.70    2.46
   6  -7   6    5.56    2.74
   6   7  -6    1.21    2.85
   6  -7   6    2.94    3.10
  -6   7   6    4.29    2.48
  -6  -7  -6    4.27    2.10
   6   7  -5   32.57    6.83
   6  -7   5   33.34    6.96
  -6  -7  -5   23.55    4.30
  -6   7   5   21.38    4.14
   6   7  -4   27.05    5.98
   6  -7   4   30.14    6.41
  -6  -7  -4   25.22    4.35
  -6   7   4   29.32    4.80
  -6   7   3   46.76    5.91
   6   7  -3   36.44    7.00
   6  -7   3   47.75    7.97
  -6  -7  -3   48.13    5.77
  -6   7   2   41.98    5.72
   6   7  -2   41.56    7.38
   6  -7   2   40.46    7.46
  -6  -7  -2   48.47    5.94
   6   7  -1   13.10    4.59
   6  -7   1   17.18    4.99
  -6  -7  -1   21.72    4.38
  -6   7   1   12.34    3.36
  -6   7   0   95.87    8.13
   6  -7   0   81.95   10.35
  -6  -7   0   91.77    8.12
   6   7   0   72.76    9.57
   6  -7   0   97.73    9.52
   6  -7  -1   14.57    4.34
   6   7   1   21.41    5.55
   6  -7  -1   29.28    6.52
  -6  -7   1   19.23    4.09
  -6   7  -1   14.36    3.53
  -6   7  -2   47.19    5.80
   6  -7  -2   42.55    7.26
   6   7   2   43.55    7.72
   6  -7  -2   49.18    8.05
  -6  -7   2   41.08    5.58
  -6   7  -3   54.06    6.36
   6  -7  -3   54.19    8.36
   6   7   3   37.60    7.26
   6  -7  -3   38.10    7.17
  -6  -7   3   42.73    5.51
   6  -7  -4   29.53    6.62
   6   7   4   25.92    6.15
   6  -7  -4   25.41    5.85
  -6  -7   4   22.80    4.10
  -6   7  -4   31.40    4.98
   6  -7  -5   26.49    6.58
   6   7   5   31.68    5.90
   6   7   5   28.63    6.22
   6  -7  -5   19.76    5.44
  -6  -7   5   24.99    4.25
  -6   7  -5   32.66    4.95
   6  -7  -6    0.10    3.69
   6   7   6    0.96    2.51
   6   7   6    8.85    3.62
   6  -7  -6    2.34    3.43
  -6   7  -6    7.43    2.77
  -6  -7   6    4.92    2.47
   6  -7  -7    6.74    4.32
   6   7   7    1.88    2.69
   6   7   7    7.60    4.07
   6  -7  -7   -0.26    3.37
  -6   7  -7    6.15    2.88
  -6  -7   7    4.60    2.31
   6  -7  -8   17.33    6.66
   6   7   8   14.14    4.62
   6   7   8   17.50    4.86
   6  -7  -8   26.54    6.18
  -6   7  -8   20.79    3.86
  -6  -7   8   14.85    3.31
   6  -7  -9   25.31    8.16
   6   7   9   20.76    5.57
   6   7   9   28.05    6.35
   6  -7  -9   16.40    4.63
  -6   7  -9   26.06    4.31
  -6  -7   9   24.74    3.94
   6  -7 -10   10.50    6.74
   6   7  10   11.84    4.58
   6   7  10   13.09    4.89
  -6   7 -10    8.27    2.59
   6  -7 -10   10.90    4.96
  -6  -7  10    9.99    2.72
   6  -7 -11   15.01    6.20
   6   7  11   10.75    4.05
   6   7  11   11.39    4.82
  -6   7 -11   11.23    2.76
   6  -7 -11   11.65    4.38
  -6  -7  11   13.43    3.05
   6  -7 -12   13.61    7.10
  -6  -7  12   21.44    6.26
   6   7  12   16.36    5.25
  -6   7 -12   17.39    5.50
   6   7  13    9.72    4.83
   6   7  14    0.76    2.53
  -6  -8 -13    5.22    4.06
  -6  -8 -12    1.80    3.49
   6  -8  11    5.00    3.46
   6   8 -10    3.08    2.69
  -6   8  10    2.99    1.97
   6  -8  10    1.25    3.33
  -6  -8 -10    8.82    2.74
   6   8  -9   17.61    5.66
  -6   8   9   12.00    3.06
   6  -8   9   11.15    4.28
  -6  -8  -9   14.98    3.30
   6   8  -8    6.37    3.60
  -6   8   8    6.60    2.36
   6  -8   8    4.85    3.53
  -6  -8  -8   10.54    3.07
   6   8  -7   16.30    5.65
  -6   8   7   21.48    4.03
   6  -8   7   13.03    4.34
  -6  -8  -7   13.81    3.29
   6   8  -6   10.20    4.40
   6  -8   6    3.14    3.61
  -6   8   6    2.60    2.29
  -6  -8  -6    0.42    1.74
   6   8  -5   23.51    6.22
   6  -8   5   31.77    7.01
  -6   8   5   21.78    4.11
  -6  -8  -5   16.29    3.54
   6   8  -4    5.82    4.02
   6  -8   4   10.61    4.30
  -6   8   4   12.11    3.25
  -6  -8  -4   12.18    3.26
   6   8  -3   60.42    9.12
   6  -8   3   50.83    8.37
  -6  -8  -3   65.65    6.62
  -6   8   3   59.67    6.35
   6   8  -2   35.62    7.34
   6  -8   2   31.14    7.14
  -6   8   2   37.70    5.39
  -6  -8  -2   33.43    4.82
   6   8  -1    3.31    3.47
   6  -8   1    4.36    3.32
  -6   8   1    3.55    2.38
  -6  -8  -1    3.90    2.35
   6   8   0    0.76    2.79
   6  -8   0    6.47    4.29
  -6   8   0    6.46    3.14
  -6  -8   0    1.25    1.63
   6  -8  -1    4.82    3.77
   6   8   1    1.57    3.50
   6  -8  -1   -3.74    4.21
  -6   8  -1    6.09    2.61
  -6  -8   1    3.98    2.21
   6  -8  -2   41.86    7.56
   6   8   2   27.77    6.58
   6  -8  -2   35.03    7.38
  -6   8  -2   36.73    5.30
  -6  -8   2   34.86    4.95
   6  -8  -3   59.66    9.25
   6   8   3   51.04    8.67
   6  -8  -3   63.23    9.35
  -6  -8   3   65.60    6.58
  -6   8  -3   47.50    5.74
   6  -8  -4    6.84    3.87
   6   8   4   16.10    5.26
   6  -8  -4   14.69    5.00
  -6   8  -4   15.24    3.73
  -6  -8   4    8.08    2.81
   6  -8  -5   14.44    5.73
   6   8   5    8.80    3.90
   6  -8  -5   17.53    5.68
  -6   8  -5   21.46    4.04
  -6  -8   5   15.33    3.62
   6   8   6    3.23    2.77
   6   8   6   -0.54    3.04
   6  -8  -6    1.51    2.81
  -6   8  -6    0.34    1.95
  -6  -8   6    4.41    2.42
   6  -8  -7   20.66    6.87
   6   8   7   17.35    4.90
   6   8   7   21.41    5.86
  -6   8  -7   19.52    3.82
   6  -8  -7   15.86    5.10
  -6  -8   7   23.53    4.14
   6  -8  -8    9.65    5.42
   6   8   8    7.67    3.35
   6   8   8   17.74    5.68
  -6   8  -8    6.14    2.54
   6  -8  -8    9.70    4.60
  -6  -8   8    6.94    2.43
   6  -8  -9    9.42    5.76
   6   8   9    9.61    4.14
   6   8   9    6.58    3.51
  -6   8  -9   14.43    3.37
   6  -8  -9   13.53    4.72
  -6  -8   9   10.86    2.85
   6  -8 -10    7.35    6.10
   6   8  10    3.88    3.09
   6   8  10    6.10    4.04
  -6   8 -10    5.50    2.57
   6  -8 -10    5.78    3.78
  -6  -8  10   12.12    3.09
   6  -8 -11   10.64    6.41
  -6   8 -11   10.23    3.07
   6   8  11    8.42    4.35
  -6   9  10    8.38    2.60
   6   9 -10    4.08    3.38
   6  -9  10    3.60    2.76
  -6   9   9    2.88    2.38
   6   9  -9    5.61    4.33
   6  -9   9   -1.21    2.35
  -6   9   8    7.32    2.51
   6   9  -8    3.17    3.02
   6  -9   8    3.11    3.32
  -6   9   7   14.32    3.42
   6   9  -7    9.43    4.91
   6  -9   7   14.52    4.67
  -6  -9  -7   18.01    3.57
   6   9  -6   16.12    5.48
  -6   9   6   24.06    4.45
   6  -9   6    9.78    4.34
  -6  -9  -6   15.70    3.53
   6   9  -5    2.51    3.37
  -6   9   5    3.58    2.44
   6  -9   5    4.82    3.68
  -6  -9  -5    2.14    2.02
   6   9  -4   15.11    5.27
  -6   9   4   10.19    3.16
   6  -9   4    6.86    3.94
  -6  -9  -4   13.23    3.62
   6   9  -3    3.25    3.05
  -6   9   3    4.98    2.50
   6  -9   3   -1.97    3.32
  -6  -9  -3    6.84    2.93
   6   9  -2   32.78    7.12
  -6   9   2   30.67    4.83
   6  -9   2   33.33    7.29
  -6  -9  -2   35.14    5.15
   6   9  -1    7.68    4.33
  -6   9   1    2.52    2.51
   6  -9   1    4.70    4.00
  -6  -9  -1    7.48    2.69
   6   9   0    9.33    4.04
  -6   9   0    9.80    2.99
   6  -9   0    5.85    3.74
  -6  -9   0   10.67    3.21
   6   9   1   -1.66    3.22
  -6   9  -1   -1.35    2.28
  -6  -9   1    1.79    2.00
   6   9   2   35.93    7.71
  -6   9  -2   32.92    5.02
   6  -9  -2   25.91    6.55
  -6  -9   2   25.36    4.47
   6  -9  -3    7.71    4.29
   6   9   3    3.85    3.46
  -6   9  -3    5.89    2.51
   6  -9  -3   -4.60    3.57
  -6  -9   3    6.00    2.80
   6  -9  -4   14.13    5.47
   6   9   4   10.54    4.36
  -6   9  -4   10.07    3.21
   6  -9  -4    8.42    4.15
  -6  -9   4   12.84    3.29
   6  -9  -5    1.72    3.49
   6   9   5    2.08    2.69
  -6   9  -5    1.58    2.33
   6  -9  -5   -1.12    3.33
  -6  -9   5    3.45    2.45
   6  -9  -6   23.13    6.67
   6   9   6   13.81    4.85
  -6   9  -6   16.56    3.52
   6  -9  -6   20.26    6.03
  -6  -9   6   21.44    3.94
   6  -9  -7   14.96    6.40
  -6   9  -7   23.01    4.38
   6   9   7   21.27    6.25
   6  -9  -7   17.73    5.66
  -6  -9   7   22.48    4.16
   6  -9  -8    3.63    3.86
  -6   9  -8    4.11    2.30
   6   9   8   -2.02    3.82
   6  -9  -8    4.86    4.02
   6  -9  -9    8.84    6.47
  -6   9  -9    4.02    2.05
   6   9   9    3.22    3.33
   6  -9  -9   -2.32    3.19
   6  -9 -10   19.39    9.06
  -6   9 -10    5.99    2.44
   6   9  10   16.51    5.45
   6  -9 -10    8.39    4.76
   6  10  -9    3.98    3.49
  -6  10   8   12.82    3.63
   6  10  -8    5.48    4.02
   6 -10   8   14.22    5.37
  -6  10   7    4.24    2.26
   6  10  -7    2.47    3.56
   6 -10   7   -0.62    2.60
  -6  10   6   19.88    4.05
   6  10  -6   25.04    6.87
   6 -10   6   18.38    6.15
  -6  10   5   10.76    3.08
   6  10  -5    6.44    4.25
   6 -10   5    5.98    4.28
  -6  10   4   10.07    3.45
   6  10  -4    8.46    4.52
   6 -10   4   12.23    4.89
  -6  10   3   -0.54    2.00
   6  10  -3    1.71    2.65
   6 -10   3    2.13    3.70
  -6  10   2    7.02    2.84
   6  10  -2   15.71    5.94
   6 -10   2   12.42    5.30
  -6 -10  -2   13.43    3.38
  -6  10   1   20.01    4.02
   6  10  -1   17.97    5.80
   6 -10   1   20.74    6.48
  -6 -10  -1   21.26    4.22
  -6  10   0   19.66    4.10
   6  10   0   11.63    4.64
   6 -10   0   10.87    5.17
  -6 -10   0   23.84    4.41
  -6  10  -1   14.85    3.54
   6  10   1   25.18    6.60
   6 -10  -1   11.86    5.07
  -6 -10   1   27.24    4.69
  -6  10  -2    5.87    2.83
   6  10   2    5.38    4.19
   6 -10  -2    2.14    3.18
  -6 -10   2   11.25    3.16
  -6  10  -3    6.17    2.82
   6  10   3    3.02    3.19
   6 -10  -3    7.96    4.80
  -6  10  -4   10.58    3.27
   6  10   4    7.02    4.18
   6 -10  -4    1.94    2.87
   6 -10  -5   13.37    6.28
  -6  10  -5    3.12    2.36
   6  10   5   13.67    5.27
   6 -10  -5    1.67    3.40
   6 -10  -6   14.50    6.42
  -6  10  -6   19.66    4.20
   6  10   6   18.70    5.90
   6 -10  -6   14.31    5.67
   6 -10  -7    2.75    4.59
  -6  10  -7    9.73    3.37
   6  10   7    4.85    4.22
   6 -10  -7    4.21    3.64
   6 -10  -8    9.35    5.83
  -6  10  -8   13.35    3.43
   6 -10  -8    3.67    2.99
   6 -10  -9    1.95    3.17
   6 -10 -10    6.83    4.74
   7   0   0   -1.27    2.79
   7   0  -1  197.57   14.08
   7   0   1  175.58   13.38
   7   0  -2  676.46   25.60
   7   0   2  661.87   25.63
   7   0  -3    1.02    2.40
   7   0   3   -5.02    3.78
   7   0   3   -2.12    2.73
   7   0  -4   15.28    4.62
   7   0   4   12.86    4.37
   7   0   4   12.37    4.41
   7   0   5  552.89   24.19
   7   0  -5  513.95   22.32
   7   0   5  527.89   22.82
   7   0   6   87.35    9.97
   7   0  -6   84.76    9.25
   7   0   6   86.60    9.52
   7   0   7  165.42   13.66
  -7   0  -7  162.21   11.46
   7   0  -7  161.57   12.61
   7   0   7  174.56   13.36
   7   0   8   11.23    3.96
   7   0   8    6.71    3.73
  -7   0  -8    4.11    2.46
  -7   0   9   24.56    5.59
   7   0   9   29.56    6.50
   7   0   9   31.89    5.72
  -7   0  -9   29.08    5.59
  -7   0   9   30.72    5.60
  -7   0  -9   27.91    5.32
  -7   0  10   28.33    6.03
   7   0  10   34.22    7.00
   7   0  10   26.30    5.19
  -7   0 -10   29.43    5.45
  -7   0  10   43.17    6.48
  -7   0 -10   31.18    5.71
   7   0 -10   33.95    5.85
  -7   0  11   50.40    6.96
  -7   0 -11   52.12    7.05
   7   0  11   49.49    7.41
  -7   0  11   56.30    8.37
   7   0 -11   69.34    8.47
  -7   0 -11   51.99    7.43
  -7   0  12   10.10    4.06
   7   0  12    6.02    3.64
  -7   0 -12    8.32    3.47
   7   0 -12    6.50    3.21
  -7   0  13    4.29    3.44
   7   0  13    9.32    3.74
  -7   0 -13    8.80    3.86
   7   0 -13    6.28    3.40
  -7   0  14   22.75    5.93
   7   0  14   25.57    6.26
  -7   0 -14   18.22    5.21
   7   0 -14   16.42    5.01
  -7   0  15   -0.42    2.78
   7   0  15    5.22    3.42
  -7   0 -15    1.59    2.06
   7   0 -15    3.95    2.91
   7   0  16    1.73    3.45
   7   0 -16    7.77    4.32
   7  -1  16    0.35    3.37
  -7  -1 -16   -1.53    2.85
  -7   1  15   -3.07    3.59
   7  -1  15    3.67    3.29
  -7  -1 -15    2.08    2.41
   7   1 -15    4.62    3.18
   7  -1  14   10.93    4.27
  -7  -1 -14    2.84    2.64
   7   1 -14    4.51    2.78
  -7   1  13    9.35    4.26
   7  -1  13   12.01    3.81
  -7  -1 -13    5.84    3.32
   7   1 -13    9.98    4.15
  -7   1  12    8.42    3.52
   7  -1  12    5.18    2.89
  -7  -1 -12    8.04    3.20
   7   1 -12    5.55    3.13
  -7   1  11   23.34    4.73
  -7   1  11   28.82    6.07
   7  -1  11   19.51    4.84
  -7  -1 -11   28.20    5.31
   7   1 -11   13.27    4.11
  -7   1  10   47.27    7.34
   7  -1  10   55.26    8.50
   7  -1  10   50.94    7.00
  -7   1  10   50.37    6.80
   7   1 -10   51.11    6.72
  -7  -1 -10   43.16    6.29
   7   1 -10   51.15    7.40
  -7   1   9   70.53    8.51
   7  -1   9   73.64    9.53
   7  -1   9   75.25    8.22
  -7   1   9   86.47    8.91
  -7  -1  -9   71.66    7.81
   7   1  -9   68.89    8.43
  -7   1   8   54.44    7.43
   7  -1   8   50.37    7.97
  -7   1   8   60.52    7.71
  -7  -1  -8   54.84    6.54
   7   1  -8   58.09    7.79
   7  -1   7  111.46   11.28
  -7   1   7  112.23   10.20
  -7  -1  -7  102.43    8.70
   7   1  -7  122.33   11.30
   7   1  -6   19.19    4.86
   7  -1   6   23.52    5.56
  -7  -1  -6   14.63    3.49
  -7   1   6   19.14    4.56
   7   1  -5   46.03    7.13
   7  -1   5   34.89    6.35
  -7  -1  -5   39.71    5.10
  -7   1   5   38.30    6.45
   7   1  -4   26.85    5.70
   7  -1   4   24.33    5.31
  -7   1   4   17.11    4.39
   7  -1   3  173.64   13.23
  -7   1   3  186.06   13.55
   7  -1   3  184.38   13.74
   7   1  -3  181.07   13.56
  -7   1   2  204.64   14.10
   7  -1   2  230.59   15.03
   7   1  -2  221.50   14.93
   7  -1   1  414.10   20.18
   7   1  -1  443.34   21.18
   7  -1   0  124.64   11.27
   7   1   0  122.37   11.31
   7  -1  -1  406.68   19.88
   7   1   1  405.01   20.37
  -7   1  -2  203.84   13.95
   7  -1  -2  235.12   15.13
   7   1   2  227.95   15.30
   7   1   3  167.11   13.20
  -7   1  -3  165.72   12.57
   7   1   3  177.84   13.51
   7   1   4   34.31    6.46
   7   1   4   30.61    6.00
  -7   1  -4   28.20    5.59
   7   1   5   47.83    7.42
   7   1   5   37.30    6.34
  -7   1  -5   26.68    5.29
  -7   1  -6   11.29    2.91
   7   1   6   27.75    5.67
   7   1   6   31.61    6.33
   7   1   7  105.18   11.08
  -7   1  -7  118.65   10.37
   7   1   7  123.78   11.50
   7   1   8   52.86    7.57
   7   1   8   59.60    8.47
  -7   1  -8   60.51    7.53
  -7   1  -8   49.44    7.04
   7   1   9   72.57    9.70
   7   1   9   81.25    9.32
  -7   1  -9   80.39    8.59
  -7   1  -9   65.26    8.30
   7   1   9   74.68    8.92
   7   1  10   45.64    7.14
  -7  -1  10   42.93    7.45
   7   1  10   42.71    7.84
   7   1  10   35.71    6.44
  -7   1 -10   45.49    6.57
  -7   1 -10   47.61    7.29
   7  -1 -10   41.34    9.05
   7   1  11   29.51    5.84
  -7  -1  11   24.31    5.95
  -7   1 -11   22.20    4.60
   7   1  11   22.51    6.45
   7   1  11   22.72    5.64
  -7   1 -11   18.45    4.94
   7  -1 -11   21.86    5.29
   7  -1 -11    8.70    5.37
  -7  -1  12    9.30    4.80
   7   1  12    2.25    2.52
  -7   1 -12    8.92    3.70
   7  -1 -12    5.60    3.42
   7  -1 -12    2.79    4.01
  -7  -1  13   15.15    5.85
   7   1  13   11.35    4.23
  -7   1 -13   10.65    4.22
   7  -1 -13    7.55    4.09
   7  -1 -13    9.73    5.40
  -7  -1  14   10.16    5.15
   7   1  14    4.66    3.76
  -7   1 -14    9.87    4.27
   7  -1 -14    4.69    3.29
  -7  -1  15    3.09    3.90
   7   1  15    4.26    3.57
  -7   1 -15    1.84    2.49
   7  -1 -15    6.59    4.09
   7  -1 -16    3.98    3.42
   7  -2  16    0.13    2.86
  -7  -2 -16    0.86    1.94
  -7   2  15   -1.45    3.20
   7  -2  15    3.89    3.57
  -7  -2 -15    2.20    2.11
  -7   2  14    3.84    3.15
   7  -2  14    4.96    2.93
  -7  -2 -14    2.78    2.26
  -7   2  13   -0.77    2.67
   7  -2  13   -1.67    2.64
  -7  -2 -13    4.18    2.93
  -7   2  12   16.32    4.70
   7  -2  12   10.07    3.68
  -7  -2 -12   13.83    4.00
   7   2 -11   13.60    4.25
  -7   2  11    5.20    3.06
   7  -2  11   11.79    4.66
   7  -2  11   10.53    3.65
  -7   2  11   22.17    4.43
  -7  -2 -11   10.86    3.49
   7   2 -11   13.41    3.79
   7   2 -10   15.30    4.32
  -7   2  10   13.88    4.06
   7  -2  10   14.64    4.91
   7  -2  10   13.37    3.71
  -7  -2 -10   19.04    4.40
   7   2 -10   17.52    3.95
  -7   2  10   18.14    3.89
  -7   2   9   37.31    5.67
   7   2  -9   36.89    6.56
  -7   2   9   34.85    5.81
   7  -2   9   32.06    6.75
   7  -2   9   32.30    5.21
  -7  -2  -9   35.31    5.46
   7   2  -8   24.89    5.56
  -7   2   8   29.78    5.43
  -7   2   8   26.04    5.05
   7  -2   8   22.46    5.67
  -7  -2  -8   24.57    4.42
  -7   2   7   85.67    8.48
   7  -2   7  110.85   11.39
  -7   2   7   94.25    9.28
  -7  -2  -7   96.92    8.00
   7   2  -7  116.55   11.02
  -7   2   6  137.89   10.42
   7  -2   6  152.76   13.01
  -7   2   6  160.08   12.16
  -7  -2  -6  156.56    9.68
   7   2  -6  159.05   12.73
   7  -2   5  133.14   11.86
  -7   2   5  131.07   10.97
  -7  -2  -5  136.66    8.67
   7   2  -5  132.41   11.65
   7  -2   4   99.58   10.40
  -7   2   4  102.23    9.71
  -7  -2  -4   90.14    6.79
   7   2  -4   92.89    9.92
   7  -2   3   85.60    9.32
  -7   2   3   79.99    8.75
   7   2  -3   86.01    9.70
  -7   2   2   89.71    9.22
   7   2  -2   86.92    9.74
   7   2  -1   53.15    7.79
  -7   2   1   58.38    7.59
  -7   2   0  106.44   10.21
   7   2   0  107.88   10.79
   7   2   1   48.37    7.34
  -7   2  -1   47.38    7.05
  -7   2  -2   92.69    9.26
   7   2   2   93.99   10.11
   7   2   3   88.56    9.62
  -7   2  -3   87.06    9.13
   7   2   3   97.84   10.30
   7   2   4  103.46   10.50
  -7   2  -4   95.71    9.64
   7   2   4  106.61   10.70
   7   2   5  141.15   12.41
  -7   2  -5  130.95   10.88
   7   2   5  148.98   12.55
   7  -2  -5  136.54   13.19
   7   2   6  156.97   13.52
  -7   2  -6  144.21   11.42
   7   2   6  147.91   12.67
   7  -2  -6  156.70   14.75
   7   2   7  102.69   11.04
  -7   2  -7  106.22    9.86
   7   2   7  111.13   10.98
   7  -2  -7  104.31   12.65
   7   2   8   31.83    6.40
   7   2   8   31.34    6.92
  -7   2  -8   25.42    4.99
   7  -2  -8   26.64    7.34
  -7   2  -9   34.98    5.66
   7   2   9   31.92    6.26
   7   2   9   44.32    7.75
  -7   2  -9   38.40    6.72
   7  -2  -9   21.70    6.71
   7   2  10    9.93    3.82
   7   2  10   16.73    5.51
   7   2  10   15.91    4.64
  -7   2 -10   19.65    5.17
  -7   2 -10   19.61    4.45
   7  -2 -10   10.51    4.91
   7   2  11   10.59    3.91
  -7  -2  11   13.18    4.96
   7   2  11    7.60    3.50
   7   2  11    3.85    2.82
  -7   2 -11   12.52    4.46
  -7   2 -11    9.94    3.44
   7  -2 -11   13.68    5.97
  -7  -2  12    7.51    3.94
   7   2  12   11.15    3.94
  -7   2 -12   13.32    4.70
   7  -2 -12   12.53    4.14
   7  -2 -12    7.74    5.10
  -7  -2  13   -0.69    2.96
   7   2  13   -0.20    3.47
  -7   2 -13    2.23    3.11
   7  -2 -13   -0.84    2.56
   7  -2 -13   -1.00    4.77
  -7  -2  14    4.84    3.35
   7   2  14    7.08    4.02
  -7   2 -14    6.20    3.68
   7  -2 -14   12.30    4.64
   7  -2 -14   16.56    7.83
   7   2  15    3.29    3.85
   7  -2 -15    6.22    4.25
  -7   3  16   -0.76    2.05
  -7   3  15    0.13    2.43
  -7  -3 -15   -0.34    2.20
  -7   3  14    8.16    3.70
  -7  -3 -14    1.98    2.13
  -7   3  13    2.62    2.56
  -7  -3 -13    1.61    2.45
  -7   3  12   -1.43    2.53
   7  -3  12   -1.04    2.37
  -7  -3 -12    1.46    1.74
   7   3 -11   19.31    5.13
  -7   3  11   14.04    3.49
  -7   3  11   20.10    4.59
   7  -3  11   23.18    6.14
   7  -3  11   15.25    4.05
  -7  -3 -11   18.54    4.18
   7   3 -10    5.84    3.28
  -7   3  10    4.76    3.20
   7  -3  10    6.56    3.39
   7  -3  10    1.17    1.81
  -7   3  10   -0.57    2.28
  -7  -3 -10    1.11    1.60
   7   3  -9   34.91    6.34
  -7   3   9   32.85    5.37
   7  -3   9   29.88    6.59
   7  -3   9   29.07    4.88
  -7   3   9   28.80    5.06
  -7  -3  -9   31.82    4.79
   7   3  -8    3.97    2.57
  -7   3   8    5.67    2.67
   7  -3   8    4.91    3.01
  -7  -3  -8    3.04    1.64
  -7   3   8   12.03    3.72
   7   3  -7   45.78    7.17
  -7   3   7   41.13    5.50
   7  -3   7   39.71    7.03
  -7  -3  -7   40.38    4.91
  -7   3   7   43.75    6.29
   7   3  -6   56.67    8.14
  -7   3   6   46.82    5.71
   7  -3   6   54.21    7.92
  -7   3   6   58.62    7.38
  -7  -3  -6   42.09    4.83
  -7   3   5   62.10    6.36
   7  -3   5   69.54    8.81
  -7   3   5   65.19    7.59
  -7  -3  -5   61.33    5.41
   7   3  -5   73.08    9.02
  -7   3   4   29.82    5.70
   7   3  -4   38.96    7.12
   7  -3   4   29.18    5.77
  -7  -3  -4   36.38    3.99
  -7   3   3  235.76   14.45
  -7  -3  -3  249.92    9.47
   7   3  -3  244.94   16.34
   7   3  -2   25.33    5.69
  -7   3   2   24.37    5.39
  -7  -3  -2   25.25    2.93
  -7   3   1   94.96    9.48
  -7  -3  -1   84.09    4.95
   7   3  -1   70.31    9.04
   7   3   0   42.21    7.12
  -7   3   0   42.45    6.30
  -7   3  -1   88.04    9.08
   7   3   1   97.16   10.45
   7   3   2   15.00    4.53
  -7   3  -2   28.24    5.47
   7  -3  -2   21.53    4.97
  -7   3  -3  224.93   14.21
   7   3   3  231.97   15.91
   7  -3  -3  245.80   16.14
  -7   3  -4   39.17    6.20
   7   3   4   34.01    6.41
   7   3   4   36.79    6.61
   7  -3  -4   34.47    6.83
   7   3   5   69.88    8.85
  -7   3  -5   70.49    7.94
   7   3   5   73.64    9.08
   7  -3  -5   70.34   10.05
   7  -3  -6   66.24    9.63
   7   3   6   53.68    7.84
   7   3   6   58.95    8.42
  -7   3  -6   50.23    6.83
   7  -3  -7   55.28    9.58
   7   3   7   44.84    7.17
   7   3   7   59.25    8.70
  -7   3  -7   52.12    6.86
   7  -3  -8   11.76    5.87
   7   3   8    9.62    3.65
   7   3   8    1.37    2.92
  -7   3  -8    8.79    3.15
   7  -3  -9   34.68    8.40
   7   3   9   36.52    6.78
   7   3   9   34.20    6.86
  -7   3  -9   29.12    5.01
   7  -3 -10   -3.49    4.66
   7   3  10    2.82    2.81
   7   3  10    3.90    2.82
  -7   3 -10    0.34    2.76
  -7   3 -10    4.82    3.16
   7  -3 -11   15.52    6.09
   7   3  11   28.86    5.98
  -7   3 -11   24.43    4.38
  -7  -3  11   22.79    5.91
   7   3  11   24.41    6.02
   7   3  11   13.51    4.19
  -7   3 -11   16.30    5.09
   7  -3 -12    8.33    6.64
  -7  -3  12   -4.09    4.10
   7   3  12    3.77    3.77
   7   3  12   -1.72    4.04
  -7   3 -12    4.56    3.02
   7  -3 -13   -0.01    3.46
  -7  -3  13    3.58    4.81
   7   3  13    4.70    3.60
  -7   3 -13   -2.26    2.25
  -7  -3  14    5.18    4.20
   7   3  14   -3.45    3.84
  -7   3 -14    2.32    3.42
   7  -3 -14    4.50    3.35
   7  -3 -14   -6.56    5.54
   7  -3 -15   -4.89    4.02
   7  -4  12    4.03    3.59
   7   4 -11    3.94    2.89
  -7  -4 -11    0.50    1.84
  -7   4  11    0.35    1.94
  -7   4  10    8.09    2.95
   7   4 -10   25.22    5.43
  -7   4  10   21.29    4.30
   7  -4  10   12.28    4.74
   7   4  -9   19.91    5.40
  -7   4   9    3.78    2.10
   7  -4   9   14.62    4.77
  -7   4   9    7.62    2.91
   7   4  -8    1.45    2.62
  -7   4   8   -0.21    2.66
   7  -4   8   -1.27    2.31
  -7   4   8    0.11    1.71
   7   4  -7   40.41    7.05
  -7   4   7   42.44    5.18
   7  -4   7   36.36    6.59
  -7   4   7   32.83    5.24
  -7   4   6   46.67    5.29
   7   4  -6   50.57    7.87
   7  -4   6   58.86    8.15
  -7   4   6   46.94    6.55
   7   4  -5   19.48    5.13
   7  -4   5   24.48    5.70
  -7   4   5   22.03    3.73
  -7   4   5   29.07    5.35
   7   4  -4   30.39    6.40
   7  -4   4   20.57    5.00
  -7   4   4   18.53    3.12
  -7   4   4   17.28    4.22
  -7   4   3  101.03    9.41
   7   4  -3  120.74   11.92
  -7   4   2  175.80   12.24
   7   4  -2  185.58   14.74
   7   4  -1   17.67    5.10
  -7   4   1   21.04    4.76
  -7   4   0  113.80    9.99
   7   4   0  108.70   11.49
   7  -4   0  120.91    9.68
   7   4   1   18.66    5.71
  -7   4  -1   31.24    5.62
   7  -4  -1   21.66    4.54
  -7   4  -2  182.53   12.54
   7   4   2  206.56   15.57
   7  -4  -2  177.38   13.37
  -7   4  -3  103.71    9.54
   7   4   3  108.41   11.46
   7  -4  -3   99.76   10.63
   7  -4  -4   26.06    6.13
   7   4   4   12.11    4.55
   7   4   4   16.30    4.64
  -7   4  -4   13.68    4.08
   7  -4  -5   29.39    6.95
   7   4   5   11.88    4.30
   7   4   5   22.37    5.36
  -7   4  -5   25.46    5.06
   7  -4  -6   58.65    9.44
   7   4   6   49.66    7.95
   7   4   6   41.23    7.02
  -7   4  -6   48.45    6.63
   7  -4  -7   33.60    7.87
   7   4   7   37.15    6.88
   7   4   7   40.95    7.38
  -7   4  -7   31.18    5.13
   7  -4  -8    2.66    3.57
   7   4   8    0.37    2.71
  -7   4  -8    0.20    2.72
   7   4   8   -0.26    2.36
   7  -4  -9   12.04    5.10
   7   4   9    7.56    3.58
  -7   4  -9    5.07    2.69
   7   4   9   13.58    4.89
   7  -4 -10   29.96    8.53
  -7   4 -10   15.02    3.77
   7   4  10   16.66    4.84
   7   4  10   20.61    5.90
   7  -4 -11    1.56    4.32
   7   4  11    8.12    3.61
   7   4  11    7.37    3.91
  -7  -4  11    1.64    1.91
  -7   4 -11    6.13    3.86
  -7   4 -11    5.93    2.59
   7  -4 -12    4.34    3.86
  -7  -4  12    5.59    4.67
   7   4  12    7.92    4.06
   7   4  12    0.33    3.53
  -7   4 -12    3.37    3.12
   7  -4 -13    3.24    5.61
  -7  -4  13   -1.67    3.63
   7   4  13    8.28    4.70
   7   4  13   -3.28    4.13
  -7   4 -13    6.53    3.66
   7  -5  13    0.78    2.67
   7  -5  12    3.07    3.44
  -7   5  11   49.71    5.85
   7   5 -11   49.51    7.98
   7  -5  11   48.40    8.27
  -7  -5 -11   37.83    5.23
   7   5 -10    8.59    3.64
   7  -5  10    6.40    3.35
  -7  -5 -10    2.94    2.27
  -7   5  10    8.28    2.60
   7   5  -9   37.80    7.09
   7  -5   9   45.29    7.60
  -7  -5  -9   36.87    5.38
  -7   5   9   37.76    5.36
   7   5  -8   -0.82    2.50
   7  -5   8    2.08    2.70
  -7  -5  -8   -2.58    2.72
  -7   5   8    1.94    1.77
  -7   5   7   46.17    6.14
   7   5  -7   53.00    8.48
   7  -5   7   52.65    7.95
  -7   5   6    1.92    2.14
   7   5  -6    0.62    2.68
   7  -5   6    1.58    2.25
  -7   5   5   33.00    5.44
   7   5  -5   30.12    6.46
   7  -5   5   38.65    6.45
  -7   5   4   32.97    5.29
   7   5  -4   30.92    6.57
   7  -5   4   26.69    6.12
   7   5  -3   47.04    7.92
  -7   5   3   45.74    6.25
   7  -5   3   38.70    7.39
   7   5  -2   15.04    5.11
  -7   5   2   10.05    3.22
   7  -5   2    5.87    3.65
   7   5  -1   35.24    7.07
  -7   5   1   43.72    6.42
   7  -5   1   36.29    7.08
  -7   5   0  200.31   12.87
   7  -5   0  203.82   15.93
   7   5   0  210.18   16.33
   7  -5   0  218.66   13.12
   7  -5  -1   45.54    6.44
   7   5   1   40.55    7.51
  -7   5  -1   30.62    5.53
   7  -5  -1   37.39    7.12
   7  -5  -2   13.64    4.12
   7   5   2   13.82    4.59
  -7   5  -2   17.03    4.27
   7  -5  -2   12.79    4.90
   7  -5  -3   60.28    8.61
   7   5   3   45.65    8.03
  -7   5  -3   39.30    6.04
   7  -5  -3   34.98    7.01
   7  -5  -4   24.75    6.19
  -7   5  -4   30.72    5.29
   7   5   4   27.69    6.32
   7  -5  -4   36.25    7.04
   7  -5  -5   43.57    7.94
  -7   5  -5   42.25    5.94
   7   5   5   27.14    6.29
   7   5   5   38.02    6.96
   7  -5  -6    6.03    5.01
  -7   5  -6    6.15    2.72
   7   5   6    8.23    3.80
   7   5   6    7.69    4.07
   7  -5  -7   33.93    7.22
  -7   5  -7   47.19    6.23
   7   5   7   50.46    8.29
   7   5   7   51.07    8.10
   7  -5  -8   -0.43    3.81
   7   5   8    1.35    2.48
   7   5   8    0.40    2.94
  -7  -5   8   -0.89    2.49
  -7   5  -8    1.01    2.12
   7  -5  -9   36.01    8.83
   7   5   9   36.56    7.18
   7   5   9   34.14    7.03
  -7  -5   9   30.33    4.80
  -7   5  -9   30.48    4.97
   7  -5 -10   10.15    5.65
   7   5  10    0.86    2.69
   7   5  10    2.28    3.32
  -7  -5  10    1.25    1.99
  -7   5 -10    2.40    2.22
   7  -5 -11   41.56    9.91
  -7   5 -11   56.06    6.27
   7   5  11   40.90    7.46
   7   5  11   44.09    8.26
  -7   5 -11   39.60    7.77
  -7  -5  11   39.86    5.27
   7  -5 -12    1.04    4.42
  -7  -5  12   18.26    6.77
   7   5  12   12.85    4.95
  -7   5 -12    6.08    4.16
   7  -5 -13   10.20    6.71
   7   5  13    3.42    4.56
   7  -6  14    7.60    4.10
   7  -6  13    3.58    3.01
   7  -6  12   18.00    5.64
   7   6 -11   17.07    5.23
   7  -6  11   13.92    5.02
  -7   6  11   10.43    3.01
  -7  -6 -11   13.44    3.36
   7   6 -10   14.39    5.06
   7  -6  10   17.45    4.83
  -7  -6 -10   12.38    3.35
  -7   6  10   16.02    3.67
   7   6  -9   -2.07    3.17
   7  -6   9    7.44    3.02
  -7  -6  -9    5.18    2.38
  -7   6   9    5.18    2.63
   7   6  -8    7.56    4.58
   7  -6   8    1.16    2.36
  -7  -6  -8    3.63    2.23
  -7   6   8    5.15    2.91
   7   6  -7    7.61    2.82
   7  -6   7   20.49    5.22
   7  -6   7   26.02    6.41
  -7  -6  -7   16.85    3.96
  -7   6   7   18.17    4.11
  -7   6   6   52.44    6.45
   7   6  -6   58.95    9.29
   7  -6   6   49.48    7.51
   7  -6   6   65.83    9.65
  -7  -6  -6   54.72    6.39
   7   6  -5   18.24    6.04
   7  -6   5   15.84    5.66
  -7  -6  -5   14.21    3.61
  -7   6   5   17.63    3.89
   7   6  -4   35.90    7.54
   7  -6   4   38.63    7.63
  -7  -6  -4   39.04    5.36
  -7   6   4   38.05    5.83
  -7   6   3   69.33    7.58
   7   6  -3   64.30    9.66
   7  -6   3   65.53    9.30
  -7  -6  -3   66.01    7.23
   7   6  -2   18.12    5.62
   7  -6   2   19.60    5.63
  -7  -6  -2    7.18    2.53
  -7   6   2   17.54    4.30
  -7   6   1   18.82    4.34
   7   6  -1   33.82    7.18
   7  -6   1   30.60    6.59
  -7  -6  -1   22.41    4.62
  -7   6   0   35.42    5.80
   7   6   0   47.36    8.53
   7  -6   0   39.74    7.59
  -7  -6   0   38.73    5.59
  -7   6  -1   26.88    5.14
   7  -6  -1   22.60    5.03
   7   6   1   29.34    6.90
   7  -6  -1   30.20    6.71
  -7  -6   1   31.90    5.15
  -7   6  -2   15.50    4.01
   7  -6  -2   14.03    4.74
   7   6   2   30.06    7.11
   7  -6  -2   19.70    6.05
  -7  -6   2   16.96    4.14
  -7   6  -3   74.54    7.93
   7  -6  -3   56.92    8.82
  -7  -6   3   70.92    7.47
   7   6   3   82.41   10.89
   7  -6  -3   78.73   10.05
   7  -6  -4   36.17    7.10
   7   6   4   39.24    7.74
   7  -6  -4   46.65    8.07
  -7  -6   4   31.22    5.05
  -7   6  -4   28.96    5.05
   7  -6  -5   17.70    5.59
   7   6   5    8.69    4.06
   7  -6  -5   10.80    4.17
  -7  -6   5   13.20    3.53
  -7   6  -5   10.81    3.62
   7  -6  -6   50.26    9.24
  -7   6  -6   61.11    6.98
   7   6   6   74.82    9.72
   7   6   6   52.69    8.92
   7  -6  -6   62.37    9.58
  -7  -6   6   48.37    6.07
   7  -6  -7   13.76    5.76
   7   6   7   15.64    5.24
   7  -6  -7   10.86    4.83
  -7  -6   7   15.51    3.59
  -7   6  -7   19.39    4.20
   7  -6  -8    0.61    3.94
   7   6   8    8.84    4.06
   7   6   8    2.95    2.84
  -7  -6   8    4.22    2.27
  -7   6  -8   10.37    3.50
   7  -6  -9   11.22    5.76
   7   6   9    8.47    4.54
   7   6   9    7.34    3.54
  -7  -6   9    4.15    2.45
  -7   6  -9    5.32    2.72
   7  -6 -10   16.69    6.60
   7   6  10   12.25    4.93
   7   6  10   18.26    5.58
  -7  -6  10   13.62    3.31
  -7   6 -10   12.82    3.57
   7  -6 -11    4.75    5.65
   7   6  11   20.81    5.83
   7   6  11   17.00    5.63
  -7   6 -11   15.47    3.59
   7  -6 -12   13.35    7.00
   7   6  12   17.08    6.12
   7   6  13    8.38    4.43
  -7  -7 -11    2.74    2.30
   7   7 -10    3.89    2.80
  -7  -7 -10    0.71    1.71
  -7   7   9   51.17    6.07
   7  -7   9   39.18    7.92
  -7  -7  -9   57.91    6.40
   7   7  -9   66.89   10.32
   7   7  -8   12.88    5.23
   7  -7   8   17.59    5.81
  -7   7   8   13.99    3.53
  -7  -7  -8   15.25    3.45
   7   7  -7   39.85    8.31
   7  -7   7   28.76    6.94
  -7  -7  -7   28.76    4.86
  -7   7   7   38.10    5.57
   7   7  -6    0.15    3.20
   7  -7   6    4.59    3.57
  -7  -7  -6    4.68    2.75
  -7   7   6    2.19    2.27
   7   7  -5   34.05    7.35
   7  -7   5   29.29    6.99
  -7  -7  -5   28.37    4.87
  -7   7   5   40.12    5.84
   7   7  -4   29.07    7.39
   7  -7   4   23.10    6.25
  -7  -7  -4   32.04    5.31
  -7   7   4   37.14    5.71
  -7   7   3   74.69    7.68
   7  -7   3   68.09   10.00
  -7  -7  -3   84.68    8.23
   7   7  -3   77.42   10.77
   7   7  -2   46.18    8.60
   7  -7   2   53.44    9.06
  -7  -7  -2   38.68    5.63
  -7   7   2   42.52    6.09
   7   7  -1   25.99    6.31
   7  -7   1   43.52    8.23
  -7  -7  -1   27.52    4.77
  -7   7   1   36.87    5.70
   7   7   0    8.01    4.13
   7  -7   0   -1.17    3.42
  -7  -7   0    2.62    2.34
  -7   7   0    2.92    2.82
   7   7   1   40.12    8.10
   7  -7  -1   34.39    7.34
  -7  -7   1   41.30    5.78
  -7   7  -1   37.84    5.81
   7   7   2   49.38    8.74
   7  -7  -2   52.17    9.16
  -7  -7   2   36.21    5.53
  -7   7  -2   39.87    5.90
  -7   7  -3   74.97    7.77
   7   7   3   66.19   10.01
   7  -7  -3   82.65   11.21
  -7  -7   3   66.87    7.39
   7  -7  -3   73.00    9.94
   7  -7  -4   27.71    7.20
   7   7   4   26.41    6.88
   7  -7  -4   28.58    6.84
  -7  -7   4   29.77    4.98
  -7   7  -4   34.83    5.67
   7  -7  -5   24.64    6.83
   7   7   5   33.81    7.94
   7  -7  -5   19.21    5.12
  -7  -7   5   31.40    5.41
  -7   7  -5   29.74    5.14
   7  -7  -6    5.60    4.45
   7   7   6    4.08    2.93
   7   7   6    4.70    3.40
   7  -7  -6    3.47    3.59
  -7  -7   6    1.75    2.13
  -7   7  -6    3.26    2.67
   7  -7  -7   32.68    8.14
   7   7   7   32.87    7.55
   7   7   7   34.08    6.87
   7  -7  -7   32.62    7.54
  -7  -7   7   31.33    5.06
  -7   7  -7   39.37    5.68
   7  -7  -8    0.77    3.82
   7   7   8   15.09    5.64
   7   7   8   18.88    5.41
   7  -7  -8   19.24    6.20
  -7   7  -8   18.98    4.03
  -7  -7   8   11.48    3.11
  -7   7  -9   51.75    6.26
   7  -7  -9   43.73    9.81
   7   7   9   51.20    8.99
   7   7   9   56.57    9.15
   7  -7  -9   49.41    8.83
  -7  -7   9   56.18    6.29
   7  -7 -10    3.83    5.31
   7   7  10    3.85    3.08
   7   7  10    0.79    2.89
  -7   7 -10   11.58    3.37
  -7  -7  10    5.61    2.61
   7   7  11    3.10    2.55
   7   7  11    6.97    4.17
  -7   7 -11   -3.73    2.22
   7   7  12    6.07    4.16
   7   8 -10   21.04    6.60
  -7   8  10   25.46    4.43
   7  -8  10   25.21    6.88
  -7  -8 -10   24.80    4.25
   7   8  -9   17.77    6.10
  -7   8   9    9.87    2.92
   7  -8   9   14.36    5.60
  -7  -8  -9   12.87    3.69
   7   8  -8   10.20    3.96
  -7   8   8   21.31    4.09
   7  -8   8   11.60    5.26
  -7  -8  -8   18.64    3.88
   7   8  -7   -2.48    3.80
   7  -8   7    1.56    2.71
  -7   8   7    2.26    2.09
  -7  -8  -7    7.19    3.04
   7   8  -6   26.79    7.13
   7  -8   6   29.87    7.11
  -7   8   6   34.56    5.46
  -7  -8  -6   34.16    5.32
   7   8  -5   15.27    5.14
   7  -8   5   26.49    6.77
  -7   8   5   25.43    4.75
  -7  -8  -5   32.41    5.21
  -7   8   4   43.35    5.95
   7   8  -4   38.16    7.97
   7  -8   4   35.25    7.76
  -7  -8  -4   40.75    5.68
   7   8  -3   31.06    7.25
   7  -8   3   30.65    7.73
  -7   8   3   33.84    5.42
  -7  -8  -3   34.67    5.21
   7   8  -2   38.50    8.39
   7  -8   2   31.15    7.20
  -7   8   2   29.29    5.06
  -7  -8  -2   33.34    5.37
  -7   8   1   63.40    7.27
   7   8  -1   54.06    9.30
   7  -8   1   55.02    9.56
  -7  -8  -1   52.86    6.69
   7   8   0    6.02    2.97
   7  -8   0    3.16    3.60
  -7  -8   0    6.58    2.74
  -7   8   0   12.89    3.79
  -7   8  -1   54.05    6.70
   7   8   1   56.01    9.38
   7  -8  -1   60.81    9.82
  -7  -8   1   59.15    6.99
   7   8   2   38.71    8.43
   7  -8  -2   25.72    6.66
  -7   8  -2   40.61    5.95
  -7  -8   2   36.43    5.61
   7   8   3   36.44    7.87
   7  -8  -3   17.35    5.64
  -7   8  -3   42.05    6.00
  -7  -8   3   38.04    5.50
  -7   8  -4   49.44    6.57
   7  -8  -4   34.70    7.80
   7   8   4   34.58    7.48
   7  -8  -4   33.15    7.61
  -7  -8   4   47.16    6.08
   7  -8  -5   28.12    7.53
   7   8   5   25.48    6.81
   7  -8  -5   26.85    7.24
  -7   8  -5   25.06    4.81
  -7  -8   5   23.96    4.53
   7  -8  -6   31.13    7.94
   7   8   6   32.54    7.36
   7  -8  -6   31.64    7.09
  -7   8  -6   29.74    5.15
  -7  -8   6   30.94    5.02
   7  -8  -7   -2.97    4.29
   7   8   7    6.53    4.16
   7  -8  -7   -0.46    2.91
  -7   8  -7    4.99    2.75
  -7  -8   7    2.15    2.29
   7  -8  -8   21.65    7.65
   7   8   8   10.42    4.55
   7   8   8   28.54    7.15
   7  -8  -8   19.35    6.06
  -7   8  -8   11.46    3.18
  -7  -8   8   18.53    3.87
   7  -8  -9   -2.65    5.10
   7   8   9   12.54    5.70
   7   8   9   11.10    5.04
  -7   8  -9   12.21    3.33
   7  -8  -9   12.45    4.94
  -7  -8   9   12.91    3.29
   7  -8 -10   21.08    7.63
   7   8  10   37.58    8.41
  -7   8 -10   23.96    4.36
   7  -8 -10    8.55    4.43
  -7  -8  10   25.87    4.30
   7   9 -10    6.01    4.10
   7   9  -9   -0.02    2.94
  -7   9   9    1.38    1.90
  -7  -9  -9    4.11    2.26
   7   9  -8   13.20    5.54
  -7   9   8    9.11    2.83
   7  -9   8    6.45    4.22
  -7  -9  -8   16.81    3.91
   7   9  -7   -1.57    3.74
  -7   9   7    5.91    2.74
   7  -9   7    4.50    3.76
  -7  -9  -7   11.51    3.52
   7   9  -6   11.66    5.34
  -7   9   6    6.10    2.77
   7  -9   6    7.12    4.76
  -7  -9  -6    6.11    2.57
   7   9  -5    3.20    3.98
  -7   9   5    0.41    1.98
  -7  -9  -5    7.27    2.97
   7   9  -4   18.52    6.35
  -7   9   4   20.67    4.34
   7  -9   4   27.29    6.99
  -7  -9  -4   25.00    4.70
   7   9  -3    1.15    3.10
   7  -9   3   -1.18    4.05
  -7   9   3   -0.93    2.53
  -7  -9  -3    4.63    2.48
   7   9  -2   16.96    6.23
   7  -9   2   25.80    7.16
  -7   9   2   16.98    3.88
  -7  -9  -2   27.17    4.88
   7   9  -1   -2.45    3.83
   7  -9   1    3.50    3.40
  -7   9   1    0.87    2.51
  -7  -9  -1    1.89    2.37
   7   9   0    5.92    3.70
   7  -9   0    4.48    5.27
  -7   9   0    7.19    3.16
  -7  -9   0    1.10    1.97
   7   9   1   -0.45    3.38
   7  -9  -1    0.79    2.87
  -7   9  -1    0.01    2.16
  -7  -9   1    4.77    2.55
   7   9   2   18.52    6.44
   7  -9  -2   22.92    6.65
  -7   9  -2   19.76    4.12
  -7  -9   2   25.68    4.85
   7   9   3    0.62    3.58
   7  -9  -3   -3.74    4.27
  -7   9  -3   -3.63    2.42
  -7  -9   3    7.18    2.72
   7   9   4   31.46    8.09
   7  -9  -4   23.87    6.24
  -7   9  -4   28.06    4.87
  -7  -9   4   29.79    5.02
   7   9   5    2.63    3.08
  -7   9  -5    2.21    2.41
   7  -9  -5    4.38    4.19
  -7  -9   5    6.15    2.65
   7  -9  -6   -0.55    4.77
   7   9   6    3.32    3.01
  -7   9  -6    4.21    2.39
   7  -9  -6    0.64    3.10
  -7  -9   6   12.32    3.33
   7  -9  -7    4.46    4.91
   7   9   7   -0.59    3.03
  -7   9  -7    3.39    2.54
   7  -9  -7    2.81    3.62
  -7  -9   7   10.58    3.39
   7  -9  -8    8.51    5.61
   7   9   8   10.91    4.96
  -7   9  -8   15.19    3.66
   7  -9  -8   14.85    5.51
  -7  -9   8   18.40    3.97
   7  -9  -9    0.09    3.89
  -7   9  -9    3.06    2.09
   7  -9  -9    1.99    3.57
  -7  -9   9   -0.75    1.51
   7  -9 -10    0.52    3.97
   8   0   0  268.00   17.80
   8   0  -1   25.69    5.94
   8   0   1   21.89    6.23
   8   0  -2    3.49    3.91
   8   0   2    7.69    4.29
   8   0  -3  131.85   12.42
   8   0   3  128.96   12.46
   8   0  -4   40.18    6.89
   8   0   4   48.54    8.07
   8   0   4   40.80    7.41
   8   0   5   80.71   10.08
   8   0  -5   78.65    9.53
   8   0   5   86.76   10.25
   8   0   6   89.84   10.81
   8   0  -6  101.45   10.82
   8   0   6   93.29   10.76
   8   0  -7   17.07    4.85
   8   0   7   12.01    4.46
   8   0   7   13.03    4.55
  -8   0  -7   10.49    3.40
   8   0   8   -5.67    4.11
  -8   0   8   -5.31    4.09
  -8   0  -8   -1.95    3.16
  -8   0  -8   -2.35    2.44
  -8   0   9   31.62    6.21
  -8   0  -9   28.82    5.89
  -8   0   9   31.44    6.49
   8   0   9   32.09    6.98
  -8   0  -9   32.36    6.04
  -8   0  10   -2.18    2.83
   8   0  10   -4.74    3.94
  -8   0  10   -0.31    2.57
  -8   0 -10    1.12    2.69
  -8   0  11   13.67    4.30
  -8   0 -11   14.69    4.14
  -8   0  11   17.67    5.14
   8   0  11   20.02    6.08
  -8   0 -11   26.45    5.77
  -8   0  12    8.35    4.10
   8   0  12   -2.89    2.68
   8   0  12    1.12    2.30
  -8   0 -12   10.69    4.16
  -8   0  13   -1.39    3.04
   8   0  13   -0.37    2.94
   8   0  13   -3.86    3.71
  -8   0 -13    3.84    2.88
  -8   0  14    6.17    3.93
   8   0  14    2.99    3.41
  -8   0 -14   -0.57    2.59
   8   0 -14    4.79    3.52
   8   0  15   -5.87    4.15
   8  -1  15   -3.89    3.65
  -8  -1 -15    2.86    3.12
  -8   1  14    4.73    3.21
  -8  -1 -14    9.57    4.16
  -8   1  13    2.76    3.18
   8  -1  13    2.40    2.96
   8  -1  13    0.13    2.57
  -8  -1 -13    2.43    2.31
  -8   1  12    7.85    3.84
   8  -1  12    4.32    2.47
   8  -1  12    2.29    2.63
  -8  -1 -12    2.13    2.94
  -8  -1 -11   11.23    4.09
  -8   1  11   26.04    6.02
  -8   1  11   10.34    3.50
   8  -1  11   19.10    6.18
  -8  -1 -11   20.01    4.97
   8   1 -10   12.95    4.47
  -8   1  10   18.84    5.22
   8  -1  10    3.17    2.84
  -8   1  10   14.98    4.38
  -8  -1 -10    7.51    2.97
   8   1  -9   44.29    7.31
  -8   1   9   32.99    6.25
   8  -1   9   43.13    8.17
  -8  -1  -9   40.48    6.24
  -8   1   9   46.68    7.35
  -8   1   8   71.76    8.94
   8  -1   8   77.62   10.37
  -8   1   8   75.44    9.30
  -8  -1  -8   80.95    8.53
   8   1  -8   81.13    9.88
   8   1  -7    6.71    3.50
   8  -1   7    5.36    3.97
  -8   1   7   12.97    4.30
  -8  -1  -7    7.75    2.80
   8   1  -6   30.39    6.46
   8  -1   6   29.28    6.47
  -8  -1  -6   29.11    4.90
  -8   1   6   34.80    6.32
   8   1  -5   18.48    5.29
  -8   1   5   19.85    4.97
   8  -1   5   23.76    5.87
  -8  -1  -5   20.90    4.10
   8   1  -4    2.90    3.01
   8  -1   4    0.28    3.01
  -8   1   4    3.03    3.41
   8   1  -3   16.39    5.10
  -8   1   3   10.72    3.82
   8   1  -2   60.05    8.64
  -8   1   2   55.42    8.46
   8   1  -1   38.31    7.52
  -8   1   1   35.91    6.56
   8   1   0    5.68    3.49
  -8   1   0    1.83    3.15
   8   1   1   38.30    7.04
  -8   1  -1   42.96    7.10
   8   1   2   58.18    8.68
  -8   1  -2   45.99    7.52
   8   1   3   16.25    4.81
  -8   1  -3   12.91    4.14
   8   1   4    4.44    3.69
   8   1   4    4.12    2.97
  -8   1  -4    8.77    3.34
   8   1   5   21.01    5.65
  -8   1  -5   11.15    4.06
   8   1   5   16.44    5.05
   8   1   6   21.82    5.51
   8   1   6   26.16    6.09
  -8   1  -6   29.11    5.87
   8   1   7   16.30    4.73
   8   1   7   13.98    4.96
  -8   1  -7    6.67    3.35
   8   1   8   91.83   11.43
  -8   1  -8   71.36    8.75
  -8   1  -8   80.74    9.26
   8   1   8   84.62   10.29
   8   1   9   41.92    7.45
   8   1   9   45.63    8.31
  -8   1  -9   30.38    6.00
  -8   1  -9   38.75    6.69
   8   1  10   17.69    5.08
  -8  -1  10    9.88    4.40
   8   1  10   24.17    6.81
  -8   1 -10   23.26    5.41
  -8   1 -10   20.23    5.33
  -8  -1  11    8.43    3.60
  -8  -1  11   18.06    5.36
   8   1  11   15.74    5.54
  -8   1 -11   19.88    4.71
  -8   1 -11   22.32    5.53
  -8  -1  12    8.41    4.57
   8   1  12    6.22    4.10
  -8   1 -12    7.50    3.85
  -8  -1  13    0.38    3.77
   8   1  13   -0.73    2.93
  -8   1 -13    3.72    3.28
   8   1  14   -0.81    3.42
  -8   1 -14    3.27    2.74
  -8   2  14   -1.53    3.23
  -8   2  13    5.88    3.41
   8  -2  13   13.44    5.26
  -8  -2 -13   13.50    4.28
  -8   2  12    7.73    3.52
   8  -2  12    7.25    4.83
  -8  -2 -12    5.41    2.87
   8   2 -11   13.21    4.58
  -8   2  11    9.85    3.92
   8  -2  11    6.52    3.67
  -8  -2 -11   11.47    3.91
  -8   2  11   14.03    4.14
   8   2 -10   19.12    5.24
  -8   2  10   20.54    5.00
   8  -2  10   18.38    5.61
  -8  -2 -10   15.01    3.92
  -8   2  10   21.48    4.90
   8   2  -9   40.16    7.02
  -8   2   9   27.87    5.59
  -8   2   9   35.58    6.33
   8  -2   9   29.61    6.67
  -8  -2  -9   37.31    5.69
   8   2  -8   26.82    6.07
  -8   2   8   32.27    5.77
   8  -2   8   26.43    6.50
  -8   2   8   20.94    5.02
  -8  -2  -8   27.93    4.72
   8   2  -7   19.24    5.22
  -8   2   7   23.55    5.06
   8  -2   7   22.74    5.80
  -8   2   7   18.87    4.73
  -8  -2  -7   23.27    4.28
   8  -2   6  129.18   12.83
  -8   2   6  117.43   11.36
  -8  -2  -6  128.45    9.24
   8   2  -6  111.60   11.82
   8   2  -5   60.64    8.82
   8  -2   5   65.66    9.25
  -8   2   5   78.89    9.55
  -8  -2  -5   61.57    6.36
   8   2  -4   53.86    8.46
  -8  -2  -4   56.52    5.72
  -8   2   4   56.02    8.08
  -8   2   3   88.15   10.24
   8   2  -3   85.95   10.40
  -8   2   2   22.41    5.60
   8   2  -2   17.45    5.13
   8   2  -1   48.31    8.04
  -8   2   1   50.88    7.74
   8   2   0    3.03    2.81
  -8   2   0    2.44    3.26
   8   2   1   45.67    7.66
  -8   2  -1   57.36    8.42
   8   2   2   15.38    4.97
  -8   2  -2   14.16    4.70
  -8   2  -3   88.09    9.94
   8   2   3   89.14   10.61
   8   2   4   56.39    8.37
  -8   2  -4   42.28    6.84
   8   2   5   68.48    9.34
   8   2   5   75.87    9.87
  -8   2  -5   71.96    8.78
   8   2   6  112.33   12.27
  -8   2  -6  118.13   11.19
   8   2   6  125.19   12.50
   8   2   7   23.94    5.90
   8   2   7   23.40    5.93
  -8   2  -7   16.46    4.82
   8   2   8   18.63    5.36
   8   2   8   29.52    6.73
  -8   2  -8   14.28    4.31
   8   2   9   38.10    7.31
  -8   2  -9   35.56    6.31
   8   2   9   41.88    7.89
  -8   2  -9   31.22    6.54
   8   2  10   20.90    5.20
   8   2  10   24.30    6.59
  -8   2 -10   13.31    4.42
  -8   2 -10   23.23    5.24
   8  -2 -10   16.64    6.11
   8   2  11    4.44    3.20
  -8  -2  11    0.97    3.80
   8   2  11    4.32    3.85
  -8   2 -11    1.49    2.77
  -8   2 -11   11.10    3.82
   8  -2 -11    8.90    5.94
  -8  -2  12   -3.19    3.57
   8   2  12    5.83    4.07
   8  -2 -12   -3.31    4.96
  -8  -2  13   14.18    5.58
  -8   2 -13   15.04    5.28
   8  -2 -13    2.19    3.31
   8  -3  13    0.48    2.47
   8  -3  12   18.42    6.08
   8   3 -11   16.49    4.80
   8  -3  11   14.02    4.91
  -8   3  11    6.37    3.04
   8   3 -10   16.82    5.15
  -8   3  10   15.88    4.40
   8  -3  10   19.65    5.93
  -8   3  10   18.49    4.02
   8   3  -9   24.60    5.93
   8  -3   9   28.86    6.60
  -8   3   9   24.69    5.04
  -8   3   9   23.52    5.11
   8   3  -8   26.68    6.15
   8  -3   8   25.64    6.56
  -8   3   8   29.91    5.36
  -8   3   8   31.71    5.86
   8   3  -7   40.25    7.49
   8  -3   7   27.62    6.42
  -8   3   7   33.15    5.36
  -8   3   7   27.87    5.47
   8   3  -6   44.30    7.69
  -8   3   6   54.54    6.49
   8  -3   6   70.15    9.77
  -8   3   6   59.25    8.00
  -8   3   5   46.42    7.24
   8   3  -5   34.00    6.88
   8  -3   5   44.24    7.62
  -8   3   5   38.43    5.52
   8   3  -4    6.42    3.83
  -8   3   4    2.65    3.56
   8   3  -3   56.64    8.67
  -8   3   3   67.32    8.53
   8   3  -2   36.12    7.24
  -8   3   2   25.89    5.61
  -8   3   1   94.18   10.04
   8   3  -1   93.61   10.90
   8   3   0   10.78    4.05
  -8   3   0    9.12    3.43
  -8   3  -1   91.03    9.86
   8   3   1   83.91   10.51
   8   3   2   32.18    6.56
  -8   3  -2   25.51    5.52
  -8   3  -3   61.96    8.13
   8   3   3   69.00    9.49
   8   3   4    8.73    4.58
  -8   3  -4   -3.70    3.65
  -8   3  -5   49.53    7.45
   8   3   5   35.17    7.02
   8   3   5   48.58    8.14
   8  -3  -5   35.09    7.13
   8   3   6   55.78    8.68
   8   3   6   60.78    9.23
  -8   3  -6   59.88    8.04
   8  -3  -6   59.54    9.79
   8   3   7   30.48    6.63
   8   3   7   40.44    7.75
  -8   3  -7   33.82    5.93
   8  -3  -7   32.10    8.01
   8   3   8   20.85    5.59
   8   3   8   25.11    6.38
  -8   3  -8   20.41    4.86
   8  -3  -8   30.12    7.81
   8   3   9   24.89    5.86
   8   3   9   20.06    5.91
  -8   3  -9   24.06    5.25
   8  -3  -9   19.18    6.30
   8   3  10   10.52    4.28
   8   3  10   16.10    5.71
  -8   3 -10   23.69    5.19
  -8   3 -10   13.68    4.62
   8  -3 -10   19.60    7.63
   8   3  11    5.03    3.32
  -8  -3  11   17.12    5.81
   8   3  11   19.61    6.43
  -8   3 -11   11.63    3.61
  -8   3 -11    6.13    3.95
   8  -3 -11   12.61    6.31
  -8  -3  12   17.39    6.42
   8   3  12   12.82    5.06
  -8   3 -12   17.57    5.76
   8  -3 -12   10.87    5.91
  -8   3 -13    5.44    3.31
   8  -4  12   14.42    5.54
  -8   4  11   -0.05    2.03
   8   4 -11    4.09    3.43
   8  -4  11    6.10    3.81
   8   4 -10   34.77    6.99
  -8   4  10   32.14    5.56
   8  -4  10   32.57    7.54
   8   4  -9    1.94    2.11
  -8   4   9   -1.00    2.45
   8  -4   9    6.99    4.37
   8   4  -8   48.33    8.09
   8  -4   8   34.99    7.28
  -8   4   8   29.15    5.38
   8   4  -7   71.72    9.84
   8  -4   7   86.19   10.75
  -8   4   7   62.80    7.72
   8   4  -6   20.24    5.78
   8  -4   6   20.96    5.30
  -8   4   6   21.03    4.93
   8   4  -5   34.59    7.12
   8  -4   5   35.42    6.86
  -8   4   5   32.80    6.28
  -8   4   4   87.79    9.41
   8   4  -4   81.45   10.51
   8   4  -3    2.10    2.86
  -8   4   3    4.75    3.33
  -8   4   2  124.56   11.14
   8   4  -2  105.90   12.01
   8   4  -1   34.50    7.26
  -8   4   1   33.71    6.25
   8   4   0   47.15    8.20
  -8   4   0   35.25    6.33
   8   4   1   25.82    6.19
  -8   4  -1   32.53    6.08
  -8   4  -2  128.34   11.38
   8   4   2  126.15   13.11
   8  -4  -2  113.39   11.23
   8   4   3    1.82    3.15
  -8   4  -3    5.03    3.25
   8  -4  -3    2.58    3.21
  -8   4  -4   86.53    9.42
   8   4   4   77.36   10.25
   8  -4  -4   82.76   10.67
   8   4   5   20.60    5.73
   8   4   5   35.05    6.97
  -8   4  -5   43.62    6.98
   8  -4  -5   39.68    7.84
   8   4   6   18.66    5.70
   8   4   6   14.89    5.03
   8  -4  -6   16.16    5.78
   8   4   7   87.29   11.14
  -8   4  -7   62.62    7.91
   8   4   7   71.16    9.90
   8  -4  -7   86.54   12.24
   8  -4  -8   27.56    7.55
   8   4   8   29.18    6.79
   8   4   8   44.21    8.30
  -8   4  -8   30.29    5.72
   8  -4  -9    2.54    3.93
   8   4   9    2.32    3.34
  -8   4  -9    0.90    2.27
   8   4   9    1.28    2.96
   8  -4 -10   39.52    9.51
   8   4  10   43.50    7.87
  -8   4 -10   28.30    5.23
   8   4  10   36.86    7.65
   8  -4 -11    9.58    6.36
  -8   4 -11    0.44    1.95
   8   4  11   -1.88    3.00
   8   4  11    6.35    4.09
  -8   4 -11    3.70    2.90
   8   4  12   14.09    5.58
  -8   4 -12   15.36    5.52
   8  -4 -12    7.00    6.05
   8  -5  12   17.26    5.76
   8  -5  11   13.75    5.11
  -8  -5 -11   12.58    3.33
   8   5 -10   11.35    4.58
   8  -5  10   10.94    4.75
  -8  -5 -10   12.60    3.80
  -8   5  10   15.24    3.91
   8   5  -9    6.85    4.15
   8  -5   9   10.07    4.64
  -8  -5  -9   -0.49    2.58
  -8   5   9    6.09    2.78
  -8   5   8   28.94    5.26
   8   5  -8   25.64    6.44
   8  -5   8   43.17    7.93
  -8   5   7   -0.89    2.77
   8   5  -7    1.44    2.98
   8  -5   7   -2.86    3.72
   8   5  -6    0.68    2.46
  -8   5   6    5.32    2.80
   8  -5   6    2.28    2.79
   8   5  -5   18.20    5.66
  -8   5   5   13.96    4.12
   8   5  -4   49.77    8.60
  -8   5   4   50.89    6.96
   8   5  -3   31.98    7.43
  -8   5   3   20.54    4.61
   8   5  -2   20.59    5.44
  -8   5   2   18.56    4.80
  -8   5   1   79.98    8.84
   8   5  -1   86.40   11.19
   8   5   0   -1.00    2.77
  -8   5   0    0.44    3.02
  -8   5  -1   78.45    8.69
   8   5   1   84.15   11.11
   8   5   2   24.39    6.25
  -8   5  -2   18.35    4.75
   8  -5  -3   28.51    6.41
   8   5   3   30.36    6.81
  -8   5  -3   25.09    5.08
   8  -5  -4   55.46    9.11
   8   5   4   50.42    8.84
  -8   5  -4   47.51    6.90
   8   5   5   11.98    4.19
  -8   5  -5    4.37    2.77
   8  -5  -6   11.08    5.60
   8   5   6    3.05    3.45
  -8   5  -6    0.43    3.08
   8   5   6   -0.57    3.42
   8  -5  -7   -1.35    3.55
  -8   5  -7   -1.31    2.87
   8   5   7    2.47    3.43
   8  -5  -8   35.22    8.61
  -8   5  -8   41.16    6.37
   8   5   8   32.30    7.03
   8   5   8   38.73    7.72
   8  -5  -9   11.28    6.48
   8   5   9    7.59    4.16
   8   5   9    3.19    3.42
  -8  -5   9   -1.78    2.53
  -8   5  -9    5.50    2.81
   8  -5 -10   19.80    7.58
   8   5  10    7.34    3.79
   8   5  10    7.32    4.47
  -8  -5  10    6.26    2.62
  -8   5 -10   15.39    4.10
   8  -5 -11   18.96    7.37
   8   5  11   21.07    5.75
   8   5  11   15.57    5.72
  -8   5 -11   22.66    6.33
  -8   5 -11   23.12    4.64
   8  -6  12    6.46    3.98
   8  -6  11    7.89    3.93
  -8  -6 -11   10.21    3.34
   8   6 -10    7.67    4.28
   8  -6  10    5.18    4.00
  -8  -6 -10   10.78    3.38
  -8   6  10    5.49    2.70
   8   6  -9    2.15    2.89
   8  -6   9    2.56    2.88
  -8  -6  -9    3.37    2.24
  -8   6   9    4.78    3.06
   8   6  -8    4.16    3.62
   8  -6   8    4.04    2.91
  -8  -6  -8    3.28    2.20
  -8   6   8    7.40    3.05
   8   6  -7   11.29    4.89
   8  -6   7    8.21    3.58
  -8  -6  -7    7.44    2.81
  -8   6   7    5.38    2.93
   8   6  -6    8.47    4.12
  -8  -6  -6    6.88    2.53
  -8   6   6    5.75    2.97
   8   6  -5   -0.38    3.85
  -8  -6  -5    0.82    2.42
  -8   6   5    1.32    2.60
  -8   6   4   21.71    5.00
   8   6  -4   14.46    5.39
  -8  -6  -4   17.67    4.17
  -8   6   3    1.61    2.58
   8   6  -3   11.45    5.10
  -8   6   2    7.88    3.46
   8   6  -2    7.61    4.21
   8  -6   2   10.97    3.69
  -8   6   1    3.45    2.43
   8   6  -1    7.41    4.69
   8  -6   1    4.11    3.81
  -8   6   0   20.82    4.70
   8   6   0   33.50    7.26
   8  -6   0   17.48    5.68
  -8   6  -1    5.70    2.84
   8   6   1    8.74    4.34
   8  -6  -1    5.04    3.99
  -8   6  -2    9.20    3.34
   8   6   2    5.58    3.92
   8  -6  -2    6.95    3.85
  -8   6  -3    6.11    3.07
   8   6   3   11.06    4.46
   8  -6  -4   29.73    6.79
  -8   6  -4   26.30    5.32
   8   6   4   25.22    6.49
   8  -6  -5   -1.51    3.28
   8   6   5    5.62    3.52
  -8  -6   5   -2.73    3.38
  -8   6  -5    3.76    2.64
   8  -6  -6    7.19    4.32
   8   6   6    2.86    3.78
  -8  -6   6    3.28    2.20
  -8   6  -6   10.03    3.65
   8  -6  -7   12.23    5.66
   8   6   7    7.67    3.93
   8   6   7   12.76    4.90
  -8  -6   7    6.65    2.78
  -8   6  -7    9.01    3.22
   8  -6  -8    2.89    3.42
   8   6   8    5.48    3.79
   8   6   8    6.23    4.15
  -8  -6   8    6.15    2.74
  -8   6  -8    7.51    3.16
   8  -6  -9    6.31    4.88
   8   6   9    1.53    3.68
   8   6   9   -1.44    3.33
  -8  -6   9    3.80    2.39
  -8   6  -9   -0.75    1.95
   8  -6 -10    4.48    5.05
   8   6  10    4.68    3.81
   8   6  10    6.14    4.14
  -8  -6  10    5.23    2.74
  -8   6 -10   11.93    3.70
   8  -6 -11   21.18    8.76
   8   6  11    8.25    4.40
   8   7 -10    5.34    3.64
  -8   7  10    8.55    3.06
  -8  -7 -10    7.04    2.74
   8   7  -9    6.97    4.31
  -8  -7  -9    8.06    3.11
  -8   7   9   16.92    4.04
   8   7  -8    3.44    3.56
  -8  -7  -8    5.05    2.71
  -8   7   8    3.56    2.39
   8   7  -7    2.96    3.10
  -8  -7  -7    8.42    3.57
  -8   7   7   12.43    3.57
   8   7  -6   -6.59    4.79
   8  -7   6   -1.63    3.65
  -8  -7  -6   -3.48    3.17
  -8   7   6    5.25    3.21
   8   7  -5   12.31    5.45
   8  -7   5   10.25    4.85
  -8  -7  -5   15.50    4.13
  -8   7   5   11.84    3.81
   8   7  -4   14.23    6.37
   8  -7   4   10.89    4.29
  -8  -7  -4    5.96    3.00
  -8   7   4   10.00    3.59
   8   7  -3   18.94    5.79
   8  -7   3    8.80    4.33
  -8  -7  -3   12.77    3.55
  -8   7   3   12.23    3.84
   8   7  -2   -4.16    3.74
   8  -7   2   -2.84    3.62
  -8  -7  -2   -2.87    2.85
  -8   7   2    2.20    2.60
   8   7  -1   39.06    8.27
   8  -7   1   31.16    7.26
  -8  -7  -1   33.60    5.49
  -8   7   1   43.34    6.60
   8   7   0   27.04    7.34
   8  -7   0   16.47    6.00
  -8  -7   0   14.19    3.80
  -8   7   0   15.03    4.32
   8   7   1   31.73    7.43
   8  -7  -1   39.07    8.26
  -8  -7   1   33.03    5.59
  -8   7  -1   31.67    5.84
   8   7   2    0.21    3.60
   8  -7  -2    1.20    3.14
  -8  -7   2   -1.02    2.47
  -8   7  -2    0.91    2.35
   8   7   3   13.97    5.51
   8  -7  -3   11.01    5.20
  -8  -7   3   12.53    3.62
  -8   7  -3   14.34    3.97
   8   7   4    7.42    3.99
   8  -7  -4    2.93    3.58
  -8  -7   4    6.12    3.01
  -8   7  -4    9.33    3.57
   8   7   5   13.89    5.97
   8  -7  -5   21.09    6.00
  -8  -7   5   13.46    3.63
  -8   7  -5   24.70    5.17
   8  -7  -6    8.84    5.78
   8   7   6   -4.27    3.65
   8  -7  -6   -5.08    4.55
  -8  -7   6    3.26    2.49
  -8   7  -6    5.02    3.00
   8  -7  -7    0.01    3.57
   8   7   7    5.66    3.43
  -8  -7   7   -0.79    2.55
  -8   7  -7    8.46    3.29
   8  -7  -8   -2.23    3.94
   8   7   8   -3.00    3.23
   8   7   8    2.21    2.36
  -8  -7   8    5.68    3.05
  -8   7  -8    2.04    2.24
   8  -7  -9   12.30    6.06
   8   7   9   12.18    5.45
   8   7   9    3.60    3.64
  -8  -7   9    5.85    2.78
  -8   7  -9   14.56    3.88
   8  -7 -10    8.37    5.08
   8   7  10   -0.15    2.72
   8   7  10   13.30    5.91
  -8   7 -10   12.76    3.52
  -8  -7  10    8.53    2.89
   8   8  -9    0.01    2.79
  -8  -8  -9    5.67    2.65
   8   8  -8    1.33    2.74
  -8   8   8    6.31    2.65
  -8  -8  -8    8.75    3.43
   8   8  -7    0.23    3.51
   8  -8   7   -1.94    3.95
  -8   8   7    4.10    2.79
  -8  -8  -7    3.62    2.79
   8   8  -6   19.18    6.95
   8  -8   6   12.60    5.64
  -8   8   6   22.25    4.69
  -8  -8  -6   18.76    4.34
   8   8  -5   11.22    5.51
   8  -8   5   24.06    7.45
  -8   8   5   23.25    4.95
  -8  -8  -5   22.69    4.69
   8   8  -4    3.12    3.24
   8  -8   4    5.80    4.55
  -8  -8  -4    5.57    3.11
  -8   8   4    0.70    2.15
   8   8  -3    2.26    4.39
   8  -8   3    5.78    3.99
  -8  -8  -3    3.77    2.48
  -8   8   3   12.37    4.00
  -8   8   2   78.04    8.28
   8   8  -2   68.64   11.35
   8  -8   2   69.57   11.14
  -8  -8  -2   74.79    8.34
   8   8  -1   15.25    6.21
   8  -8   1   10.57    5.89
  -8  -8  -1    9.93    3.58
  -8   8   1   15.06    4.10
   8   8   0    0.79    4.08
   8  -8   0   -2.04    3.69
  -8  -8   0    2.70    2.65
  -8   8   0    1.96    2.52
   8   8   1   12.32    6.27
   8  -8  -1    8.13    4.79
  -8  -8   1    9.53    3.44
  -8   8  -1   16.01    4.39
  -8   8  -2   67.77    7.86
   8   8   2   82.25   12.78
   8  -8  -2   58.02   10.36
  -8  -8   2   71.74    8.30
   8   8   3    3.28    3.84
   8  -8  -3    5.49    4.03
  -8  -8   3    0.32    1.94
  -8   8  -3    9.03    3.56
   8   8   4    0.57    3.59
   8  -8  -4    1.36    3.63
  -8  -8   4    3.07    2.61
  -8   8  -4    3.65    2.84
   8   8   5   16.64    6.35
   8  -8  -5   14.55    5.94
  -8  -8   5   17.32    4.26
  -8   8  -5   20.82    4.72
   8   8   6   17.52    6.51
   8  -8  -6    3.75    3.87
  -8   8  -6   23.18    4.88
  -8  -8   6   16.68    4.15
   8   8   7    1.54    3.15
   8  -8  -7    2.05    3.94
  -8   8  -7    4.33    2.81
  -8  -8   7    2.04    2.31
   8  -8  -8    4.19    4.35
  -8   8  -8   12.25    3.84
  -8  -8   8   11.22    3.55
   8  -8  -9    9.38    5.74
   9   0   0    4.88    4.50
   9   0  -1   88.49   11.19
   9   0   1   92.02   11.28
   9   0  -2   14.98    5.28
   9   0   2   10.01    4.63
   9   0  -3    4.04    3.87
   9   0   3    8.18    4.72
   9   0  -4  130.63   13.28
   9   0   4  120.61   12.94
   9   0  -5   19.92    5.80
   9   0   5   13.59    5.15
  -9   0   6   -1.06    3.85
   9   0   6    7.91    4.58
  -9   0  -6   -0.39    3.59
  -9   0  -7   -1.26    2.66
   9   0   7    3.18    3.13
  -9   0  -7    1.10    2.53
  -9   0   7   -6.14    4.71
   9   0   8  263.09   20.20
  -9   0  -8  240.16   15.87
  -9   0   8  275.42   19.07
  -9   0  -8  257.04   17.67
  -9   0   9    8.52    4.46
   9   0   9   14.78    6.06
  -9   0  -9   10.03    3.70
  -9   0   9   12.28    4.29
  -9   0  -9    5.52    3.44
  -9   0  10    1.23    2.29
  -9   0  10   -1.43    2.86
   9   0  10    4.36    3.96
  -9   0 -10    1.97    2.29
  -9   0 -10    8.86    3.88
  -9   0  11   13.87    4.79
   9   0  11   19.28    6.41
  -9   0 -11   21.17    5.40
  -9   0 -11   15.13    5.09
  -9   0  12    4.31    3.68
  -9   0 -12    3.74    3.16
  -9   0 -13   15.08    5.28
  -9   1  13    4.85    3.65
  -9   1  12    5.04    3.12
  -9  -1 -11    4.94    3.49
  -9   1  11   11.16    4.21
  -9   1  10    8.60    3.98
   9  -1  10    9.01    4.96
  -9   1  10    2.96    2.96
  -9  -1 -10   -2.48    3.45
   9   1  -9   38.69    7.59
  -9   1   9   21.27    5.67
   9  -1   9   31.56    7.58
  -9   1   9   28.95    6.44
   9   1  -8    2.36    3.67
  -9   1   8    2.77    3.05
   9  -1   8   -1.02    2.89
  -9   1   8    2.68    3.13
   9   1  -7   38.09    7.44
  -9   1   7   25.01    6.50
   9  -1   7   35.35    7.67
   9   1  -6   47.90    8.21
   9  -1   6   41.94    8.21
  -9   1   6   54.22    8.72
   9   1  -5   40.80    7.67
  -9   1   5   36.22    7.07
   9   1  -4    1.97    3.28
  -9   1   4    6.75    4.33
   9   1  -3   25.51    6.46
  -9   1   3   25.17    5.95
   9   1  -2   20.59    5.65
  -9   1   2   13.42    4.95
   9   1  -1   68.11    9.89
  -9   1   1   57.91    8.74
   9   1   0   46.59    8.48
  -9   1   0   38.56    7.42
   9   1   1   51.90    8.86
  -9   1  -1   52.90    8.35
   9   1   2   26.41    6.67
  -9   1  -2   13.58    5.69
   9   1   3   37.72    7.34
  -9   1  -3   31.07    6.71
   9   1   4    0.42    3.35
  -9   1  -4   -1.52    3.69
   9   1   5   38.98    7.64
  -9   1  -5   36.00    6.86
   9   1   6   64.62    9.71
   9   1   6   54.41    9.47
  -9   1  -6   40.70    7.26
   9   1   7   35.36    7.49
  -9   1  -7   21.57    5.87
   9   1   7   27.52    6.65
   9   1   8    5.17    3.81
   9   1   8    0.11    3.35
  -9   1  -8    1.27    2.64
  -9   1  -8   -3.60    2.92
   9   1   9   32.19    6.99
   9   1   9   40.96    8.93
  -9   1  -9   25.01    5.64
  -9   1  -9   34.30    6.83
  -9  -1  10    0.40    3.34
   9   1  10    2.99    3.06
  -9   1 -10    4.96    3.23
  -9  -1  10    3.75    3.18
  -9   1 -10    3.60    2.84
  -9   1 -11   11.61    4.22
  -9  -1  11    6.37    3.16
  -9   1 -11   11.50    4.51
  -9  -1  12   -3.91    3.48
  -9   1 -12   -2.79    3.35
  -9   1 -13   -0.97    2.50
   9  -2  11    2.15    3.35
   9   2 -10    1.17    2.79
   9  -2  10    2.15    3.61
  -9   2  10    6.27    3.72
  -9   2   9    2.82    2.87
   9   2  -9    4.77    3.66
   9  -2   9    3.41    3.64
   9   2  -8   -0.57    3.30
  -9   2   8   -3.02    3.67
   9  -2   8    2.96    2.95
  -9   2   8    1.33    2.33
   9   2  -7    9.48    4.17
   9  -2   7   16.31    5.39
  -9   2   7   12.94    4.16
  -9   2   7   15.91    5.03
   9   2  -6   12.30    4.94
   9  -2   6   14.88    5.51
  -9   2   6   16.20    4.95
   9   2  -5   -1.48    2.97
  -9   2   5   -4.28    3.55
   9   2  -4   47.77    8.27
  -9   2   4   45.70    7.88
   9   2  -3   14.03    5.01
  -9   2   3    8.74    4.43
   9   2  -2   70.64   10.11
  -9   2   2   77.35   10.10
  -9   2   1   71.04    9.61
   9   2  -1   77.28   10.67
  -9   2   0    1.39    3.73
   9   2   0   10.31    5.32
  -9   2  -1   66.51    9.37
   9   2   1   80.19   11.00
   9   2   2   73.31   10.38
  -9   2  -2   65.95    9.07
   9   2   3   11.15    5.43
  -9   2  -3    2.40    2.93
   9   2   4   53.34    9.19
  -9   2  -4   41.67    7.44
   9   2   5    7.25    4.51
  -9   2  -5    1.76    2.51
   9   2   6   17.55    5.62
   9   2   6   24.62    6.48
  -9   2  -6   17.02    5.11
   9   2   7   15.21    5.88
   9   2   7    9.26    4.49
  -9   2  -7    8.23    3.92
   9   2   8   -1.98    3.76
  -9   2  -8   -5.33    3.57
   9   2   8    0.87    3.06
   9   2   9    1.73    3.48
  -9   2  -9    1.71    2.64
   9   2   9   -1.08    3.72
  -9   2  -9    3.83    2.97
   9   2  10    4.12    3.02
   9   2  10   10.66    5.50
  -9   2 -10    2.89    2.83
  -9   2 -10    4.88    2.49
   9   2  11    7.31    4.21
  -9  -2  11    9.30    5.27
  -9   2 -11    4.19    3.26
  -9   2 -11    8.68    3.72
  -9   2 -12   12.10    4.83
   9   3 -10   -0.47    3.11
   9  -3  10    3.69    3.69
  -9   3  10    9.12    3.56
   9   3  -9   19.76    5.74
   9  -3   9   24.43    6.72
  -9   3   9   16.80    4.81
   9   3  -8   10.29    4.69
   9  -3   8   11.46    5.38
  -9   3   8   15.49    4.92
   9   3  -7   -1.54    2.76
   9  -3   7   -4.98    4.16
  -9   3   7    5.53    3.02
   9   3  -6    3.56    2.77
   9  -3   6   -0.37    2.62
  -9   3   6    1.32    2.60
  -9   3   5   40.74    7.48
   9   3  -5   44.66    8.14
  -9   3   4   11.46    4.09
   9   3  -4    6.84    3.77
   9   3  -3   15.28    5.43
  -9   3   3   20.02    5.36
   9   3  -2   10.05    4.41
  -9   3   2    4.67    3.05
   9   3  -1   11.89    5.21
  -9   3   1    9.17    4.28
   9   3   0   37.68    7.67
  -9   3   0   59.79    8.72
   9   3   1   16.25    5.51
  -9   3  -1    4.04    3.52
   9   3   2    2.79    3.76
  -9   3  -2   10.12    4.33
   9   3   3    9.35    4.30
  -9   3  -3   15.02    4.86
  -9   3  -4   12.44    4.76
   9   3   4   25.78    6.52
  -9   3  -5   43.14    7.45
   9   3   5   37.82    7.84
   9   3   6    5.56    3.88
   9   3   6   -1.94    3.89
  -9   3  -6    0.86    2.76
   9   3   7    0.17    3.03
   9   3   7   -0.18    2.80
  -9   3  -7   -3.21    2.85
   9   3   8   13.43    4.91
   9   3   8    2.08    3.15
  -9   3  -8   10.25    4.03
   9   3   9   15.34    5.37
   9   3   9   23.47    6.78
  -9   3  -9   20.20    5.16
   9   3  10    5.98    3.50
   9   3  10    0.58    3.71
  -9   3 -10    6.37    3.46
  -9   3 -10    2.80    2.96
   9   3  11   11.10    4.42
  -9   3 -11    8.20    4.08
   9   4 -10    5.48    4.02
  -9   4  10   -3.34    3.16
   9  -4  10    3.33    3.44
   9   4  -9    3.63    3.38
  -9   4   9    0.14    2.85
   9   4  -8   22.34    6.13
   9  -4   8   13.40    5.24
  -9   4   8   10.77    3.66
   9   4  -7    3.85    2.78
   9  -4   7    8.45    3.95
  -9   4   7    7.52    3.61
   9   4  -6   49.84    9.01
  -9   4   6   47.75    7.63
   9   4  -5   17.91    5.94
  -9   4   5   17.48    5.01
   9   4  -4   22.58    6.14
  -9   4   4   19.85    5.33
   9   4  -3   16.36    5.47
  -9   4   3   16.54    4.67
   9   4  -2   10.32    5.02
  -9   4   2   15.00    5.14
   9   4  -1   -1.04    3.43
  -9   4   1    6.63    3.84
   9   4   0   -0.52    2.82
  -9   4   0   -0.15    2.69
   9   4   1    0.02    2.65
  -9   4  -1   14.05    5.24
   9   4   2    6.45    4.77
  -9   4  -2   16.11    4.96
   9   4   3   18.78    5.87
  -9   4  -3   15.83    4.55
   9   4   4   21.73    5.95
  -9   4  -4   30.22    6.41
   9   4   5    9.80    4.68
  -9   4  -5    8.02    3.89
   9   4   6   49.42    8.74
  -9   4  -6   43.96    7.15
   9  -4  -6   56.06    9.67
   9   4   7    3.94    3.40
   9   4   7    5.23    4.28
  -9   4  -7    9.34    3.82
   9  -4  -7    8.09    4.88
   9   4   8   14.20    5.43
   9   4   8   21.81    6.68
  -9   4  -8   10.42    3.85
   9  -4  -8    6.28    4.30
   9   4   9    0.39    2.62
   9   4   9    4.46    4.06
  -9   4  -9   -1.96    2.99
   9  -4  -9    1.62    4.32
   9   4  10    0.36    2.80
  -9   4 -10    2.21    2.37
  -9   4 -10    5.14    4.10
   9  -4 -10    0.11    4.00
   9  -4 -11    9.66    5.75
   9   5 -10    4.96    4.59
   9  -5  10    4.95    3.18
  -9  -5 -10    7.57    3.24
  -9   5  10   -1.46    2.73
  -9   5   9    7.50    3.25
   9   5  -9   12.50    5.27
   9  -5   9    9.48    4.23
  -9   5   8   12.56    4.09
   9   5  -8   15.74    5.77
   9  -5   8    1.90    3.26
   9   5  -7   -0.31    2.89
  -9   5   7   -0.17    2.02
   9   5  -6    2.21    3.02
  -9   5   6    4.45    2.33
   9   5  -5    9.21    4.82
  -9   5   5    6.25    2.85
   9   5  -4   20.71    6.35
  -9   5   4   12.07    3.71
   9   5  -3    8.12    4.42
  -9   5   3    7.34    3.86
   9   5  -2    1.87    3.14
  -9   5   2    2.58    2.46
   9   5  -1    9.00    4.21
  -9   5   1   -4.32    4.20
   9   5   0   30.28    7.39
  -9   5   0   22.82    5.30
   9   5   1    5.96    4.11
  -9   5  -1    9.68    3.69
   9   5   2   -0.56    3.35
  -9   5  -2   -8.38    4.06
   9   5   3   12.05    5.80
  -9   5  -3   -2.24    4.04
   9   5   4   16.12    5.67
  -9   5  -4   10.79    3.26
   9   5   5    1.43    2.58
  -9   5  -5    1.25    3.32
   9   5   6    1.80    2.69
  -9   5  -6    4.88    3.37
   9   5   7    6.67    4.12
  -9   5  -7    4.01    2.38
   9   5   7    9.72    4.80
   9  -5  -7    6.76    4.87
  -9   5  -8    1.01    2.35
   9   5   8    3.73    3.74
   9   5   8   10.70    5.13
   9  -5  -8   11.52    5.99
  -9   5  -9    1.16    2.46
   9   5   9    7.74    4.10
   9   5   9    3.41    3.66
   9  -5  -9    2.20    4.04
   9   5  10   11.76    5.40
  -9  -5  10    2.01    1.82
  -9   5 -10    1.24    2.35
   9  -5 -10   12.07    6.65
   9   6 -10    5.89    3.74
   9  -6  10   10.16    4.37
  -9  -6 -10   12.65    4.07
  -9   6  10   14.89    4.02
   9   6  -9    3.71    3.57
   9  -6   9   18.68    6.62
  -9  -6  -9   10.52    3.72
  -9   6   9   12.05    3.76
   9   6  -8   13.35    5.05
  -9  -6  -8   12.23    3.88
  -9   6   8   10.34    3.93
   9   6  -7   10.61    5.14
  -9  -6  -7   10.52    3.26
  -9   6   7    6.56    3.31
   9   6  -6    6.38    4.54
  -9  -6  -6    2.48    2.40
  -9   6   6    1.29    2.21
  -9   6   5   -0.70    2.28
   9   6  -5    0.06    3.48
  -9   6   4    0.45    2.81
   9   6  -4    5.40    4.28
  -9   6   3   17.60    4.31
   9   6  -3   31.86    7.48
  -9   6   2    2.24    2.72
   9   6  -2    0.61    3.58
  -9   6   1    4.78    3.03
   9   6  -1   12.94    5.19
  -9   6   0   -0.12    2.45
   9   6   0    0.97    2.56
  -9   6  -1    9.47    3.42
   9   6   1    9.11    4.50
  -9   6  -2    0.35    2.83
   9   6   2    4.56    4.85
  -9   6  -3   24.36    5.24
   9   6   3   23.65    7.12
  -9   6  -4    3.61    2.49
   9   6   4    1.60    2.93
  -9   6  -5    1.66    2.10
   9   6   5    0.44    2.97
   9   6   6    9.07    4.37
  -9  -6   6   -0.50    3.25
  -9   6  -6    5.51    3.05
   9   6   7    8.22    4.16
  -9  -6   7    6.32    2.82
  -9   6  -7    7.73    3.42
   9  -6  -8   16.04    6.20
   9   6   8    8.99    4.45
   9   6   8    0.52    3.16
  -9  -6   8    7.56    2.82
  -9   6  -8   10.20    4.05
   9  -6  -9   16.32    7.28
   9   6   9    4.56    3.97
  -9  -6   9    8.63    3.30
  -9   6  -9   13.74    3.94
  -9  -6  10    6.52    3.10
  -9   6 -10   12.86    3.90
   9   7  -5   22.23    7.10
  -9  -7  -5   12.23    3.64
   9   7  -4    9.83    5.62
  -9  -7  -4   13.71    4.27
  -9   7   4   15.41    4.36
   9   7  -3   11.46    5.26
  -9  -7  -3    1.78    2.42
  -9   7   3   11.15    3.71
   9   7  -2   20.28    6.74
  -9  -7  -2   10.40    3.93
  -9   7   2   10.16    4.07
   9   7  -1   10.73    5.21
  -9  -7  -1   12.17    3.92
  -9   7   1   13.09    4.58
   9   7   0    1.55    3.12
  -9  -7   0   -1.02    2.29
  -9   7   0    1.42    2.63
   9   7   1   13.96    5.69
  -9  -7   1   12.51    3.81
  -9   7  -1   18.31    4.74
  -9  -7   2    3.23    2.65
  -9   7  -2   10.66    4.02
   9   7   3    8.77    4.88
  -9  -7   3   -1.97    3.46
  -9   7  -3    9.70    3.50
   9   7   4   21.49    6.90
  -9  -7   4   10.47    3.77
  -9   7  -4   13.69    4.35
  10   0   0   62.32   10.33
  10   0  -1    8.74    5.49
  10   0   1    9.03    5.15
  10   0  -2    9.15    5.11
  10   0   2   -0.83    3.29
 -10   0   2    1.64    2.85
 -10   0  -2    0.51    3.71
  10   0   3   15.23    5.84
 -10   0  -3    6.79    4.14
 -10   0   3    5.73    4.04
 -10   0  -4   34.33    7.15
 -10   0   4   36.88    7.69
 -10   0  -5   64.92    9.69
 -10   0   5   65.51   10.22
 -10   0   6    1.49    2.95
 -10   0  -6   -1.43    3.06
 -10   0   7   50.00    9.01
 -10   0  -7   37.91    7.39
  10   0   8    1.21    4.09
 -10   0  -8    5.59    3.32
 -10   0   9    7.70    4.54
 -10   0   9    5.17    3.20
 -10   0  -9   12.94    4.54
 -10   0  10   13.28    4.93
 -10   0 -10   17.14    5.70
 -10   0  10   14.73    5.06
 -10   0  11   -1.27    2.79
 -10  -1 -10   -3.78    3.78
 -10   1  10   -4.60    4.27
 -10   1   9    0.33    2.57
 -10  -1  -9   -0.24    2.75
  10  -1   8    1.95    2.97
 -10  -1  -8    3.31    3.29
 -10   1   8    9.07    4.64
  10   1  -7   31.62    7.30
  10  -1   7   19.89    6.77
 -10   1   7   28.73    6.86
  10   1  -6   -0.06    2.95
 -10   1   6   -3.59    3.74
  10   1  -5    5.01    3.61
 -10   1   5   -0.84    3.29
  10   1  -4   22.80    6.07
 -10   1   4   10.25    5.04
  10   1  -3   52.47    9.24
 -10   1   3   36.63    7.94
  10   1  -2   13.17    5.17
 -10   1   2   19.89    5.84
  10   1  -1   16.95    5.78
 -10   1   1   24.40    6.33
  10   1   0    2.88    3.52
 -10   1   0   -2.58    3.86
  10   1   1   26.24    6.79
 -10   1  -1   20.85    5.78
  10   1   2   19.69    6.24
 -10   1  -2   11.51    4.96
  10   1   3   31.30    7.44
 -10   1  -3   21.42    6.04
  10   1   4   17.40    6.30
 -10   1  -4   13.80    5.13
  10   1   5    3.03    3.97
 -10   1  -5    1.32    2.69
  10   1   6    2.98    3.38
 -10   1  -6    5.30    3.62
  10   1   7   33.77    7.77
  10   1   7   27.31    7.12
 -10   1  -7   24.04    5.59
 -10   1  -7   11.99    4.56
 -10  -1   8   -2.69    4.24
 -10   1  -8    3.72    3.32
 -10   1  -8    6.90    4.33
 -10   1  -9   -2.98    3.01
 -10   1  -9    5.87    3.66
 -10  -1   9   -2.88    3.55
 -10  -1  10   -3.05    4.22
 -10  -1  10    3.16    2.91
 -10   1 -10    5.97    3.91
 -10   1 -10    2.01    2.68
 -10   1 -11    8.09    3.69
  10   2 -10    5.98    3.71
 -10   2  10   11.13    4.09
  10   2  -9    7.93    3.89
 -10   2   9    3.21    3.05
  10   2  -8    2.16    3.24
 -10   2   8    5.52    3.82
  10  -2   8   -2.00    3.96
  10   2  -7   10.40    4.62
 -10   2   7   16.77    5.51
  10   2  -6   14.82    5.41
 -10   2   6    5.69    3.52
  10   2  -5    4.48    3.30
 -10   2   5    5.24    4.12
  10   2  -4   41.08    8.37
 -10   2   4   42.57    8.03
  10   2  -3    0.44    3.53
 -10   2   3    7.02    3.81
  10   2  -2   12.98    5.04
 -10   2   2   17.80    5.86
  10   2  -1   -3.80    3.26
 -10   2   1    1.52    3.17
  10   2   0   33.65    7.66
 -10   2   0   33.16    7.14
  10   2   1    1.72    3.14
 -10   2  -1    5.87    4.14
  10   2   2   13.79    5.29
 -10   2  -2   14.27    5.33
  10   2   3    3.52    3.64
 -10   2  -3   -1.48    2.97
  10   2   4   46.54    9.08
 -10   2  -4   28.56    6.73
  10   2   5   15.43    6.08
 -10   2  -5    6.00    3.85
  10   2   6   13.89    5.38
 -10   2  -6    6.07    4.18
  10   2   7   19.71    6.07
 -10   2  -7   23.86    6.27
  10   2   8   -1.84    2.93
 -10   2  -8    5.64    4.03
 -10   2  -9    1.57    2.82
  10   2   9   -4.38    3.53
 -10   2  -9    3.23    3.55
  10   2  10   11.82    5.39
 -10   2 -10   13.12    4.79
 -10   2 -10   12.93    4.84
  10   3 -10   -0.17    3.10
 -10   3  10    4.53    2.64
  10   3  -9    4.58    4.17
 -10   3   9    7.71    3.91
  10   3  -8    3.87    2.98
  10  -3   8    4.14    3.50
 -10   3   8    3.00    2.85
  10   3  -7   16.67    5.61
 -10   3   7   18.54    5.47
  10   3  -6    2.26    3.30
 -10   3   6   11.69    5.04
  10   3  -5   20.80    6.21
 -10   3   5   39.39    7.64
 -10   3   4   17.59    5.31
  10   3  -4   17.67    5.90
 -10   3   3   40.18    8.08
  10   3  -3   35.61    8.07
  10   3  -2   39.01    8.24
 -10   3   2   35.80    7.02
  10   3  -1   22.28    6.63
 -10   3   1   14.64    5.51
  10   3   0    4.22    4.25
 -10   3   0    3.96    3.75
  10   3   1   19.58    6.71
 -10   3  -1   17.80    5.83
  10   3   2   44.57    9.11
 -10   3  -2   36.81    7.44
 -10   3  -3   34.76    7.06
  10   3   3   25.34    6.77
 -10   3  -4    9.64    3.82
  10   3   4   18.17    6.45
  10   3   5   38.56    8.05
 -10   3  -5   30.44    6.55
  10   3   6    5.71    3.46
 -10   3  -6    7.20    4.22
  10   3   7   17.64    5.93
 -10   3  -7   22.28    5.78
  10   3   8    4.34    3.47
 -10   3  -8    2.89    3.51
  10   3   9   -0.87    2.86
 -10   3  -9    3.92    4.03
 -10   3  -9    5.64    3.25
  10   3  10    0.12    3.09
 -10   3 -10    2.05    2.24
  10   4  -9    7.54    5.32
  10   4  -8   14.16    5.65
 -10   4   8   14.01    4.46
  10   4  -7    1.16    3.04
 -10   4   7   -2.68    3.04
  10   4  -6   10.34    4.79
 -10   4   6   14.95    5.14
  10   4  -5   16.68    5.46
 -10   4   5   29.43    6.57
  10   4  -4    2.29    2.87
 -10   4   4   10.67    4.20
  10   4  -3   13.87    5.99
 -10   4   3   13.46    5.11
  10   4  -2    1.95    3.25
 -10   4   2    6.57    3.95
  10   4  -1   19.50    6.52
 -10   4   1   27.56    6.62
  10   4   0    3.93    4.03
 -10   4   0   19.64    5.84
  10   4   1   20.56    6.54
 -10   4  -1   27.30    6.29
  10   4   2   -2.26    3.38
 -10   4  -2    4.07    3.44
  10   4   3    6.20    3.79
 -10   4  -3    9.58    4.35
  10   4   4    9.16    5.01
 -10   4  -4    4.22    3.00
  10   4   5   18.81    6.54
 -10   4  -5   15.81    5.24
  10   4   6    3.03    3.20
 -10   4  -6    6.45    3.99
  10   4   7    1.98    3.06
 -10   4  -7   -2.13    3.28
  10   4   8   24.28    7.17
 -10   4  -8   10.00    4.02
  10   5  -5    8.89    4.65
  10   5  -4   14.93    5.90
  10   5  -3    0.29    3.65
 -10   5   3  -13.85    5.07
  10   5  -2   22.12    6.63
 -10   5   2   10.14    3.97
  10   5  -1    2.26    3.02
 -10   5   1   -4.14    3.73
  10   5   0    0.74    2.59
 -10   5   0   -4.36    4.40
  10   5   1   -0.76    2.91
 -10   5  -1   -5.82    4.29
  10   5   2   28.49    7.32
 -10   5  -2   20.60    5.57
  10   5   3    0.78    3.61
 -10   5  -3   -8.34    4.34
 -10   5  -4    8.51    3.44
 -11   0   0   -4.61    5.02
   0   0   0    0.00    0.00


TITL p20210826D1 in P2(1)2(1)2(1)
REM P2(1)2(1)2(1) (#19 in standard setting)
CELL 0.71073   8.807897  10.072374  15.190712  90.0000  90.0000  90.0000
ZERR    6.00   0.000246   0.000305   0.000387   0.0000   0.0000   0.0000
LATT -1
SYMM -x+1/2,-y, z+1/2
SYMM -x, y+1/2,-z+1/2
SYMM  x+1/2,-y+1/2,-z
SFAC C H N O
UNIT 66.00 60.00 6.00 6.00
TREF
HKLF 4
END
_computing_structure_solution     'SHELXT 2018/2 (Sheldrick, 2018)'
;
_shelx_hkl_checksum              32727
_olex2_date_sample_data_collection 2021-08-26
_olex2_submission_special_instructions 'No special instructions were received'
_oxdiff_exptl_absorpt_empirical_details
;
Empirical correction (ABSPACK) includes:
- Absorption correction using spherical harmonics
- Frame scaling
;
_oxdiff_exptl_absorpt_empirical_full_max 1.700
_oxdiff_exptl_absorpt_empirical_full_min 0.471
loop_
_space_group_symop_operation_xyz
'x, y, z'
'-x+1/2, -y, z+1/2'
'-x, y+1/2, -z+1/2'
'x+1/2, -y+1/2, -z'
loop_
_atom_site_label
_atom_site_type_symbol
_atom_site_fract_x
_atom_site_fract_y
_atom_site_fract_z
_atom_site_U_iso_or_equiv
_atom_site_adp_type
_atom_site_occupancy
_atom_site_site_symmetry_order
_atom_site_calc_flag
_atom_site_refinement_flags_posn
_atom_site_refinement_flags_adp
_atom_site_refinement_flags_occupancy
_atom_site_disorder_assembly
_atom_site_disorder_group
S1 S 0.1461(2) 0.7003(2) 0.65803(17) 0.0826(8) Uani 1 1 d D . . . .
C3 C 0.2732(3) 0.4641(3) 0.6740(3) 0.0396(12) Uani 1 1 d D U . . .
H3 H 0.343723 0.395392 0.672744 0.048 Uiso 1 1 calc R U . . .
O2 O 0.7367(5) 0.7926(5) 0.6011(3) 0.0607(12) Uani 1 1 d . . . . .
O1 O 0.6211(6) 0.5719(6) 0.7365(3) 0.0678(14) Uani 1 1 d . . . . .
N1 N 0.4739(6) 0.6336(5) 0.5249(3) 0.0463(12) Uani 1 1 d . . . . .
H1 H 0.430922 0.678713 0.483802 0.056 Uiso 1 1 calc R U . . .
C11 C 0.5694(7) 0.5281(5) 0.5118(4) 0.0429(12) Uani 1 1 d . . . . .
C10 C 0.6369(7) 0.4861(5) 0.5899(4) 0.0458(13) Uani 1 1 d . . . . .
C9 C 0.5820(7) 0.5702(6) 0.6601(3) 0.0448(13) Uani 1 1 d . . . . .
C5 C 0.4557(6) 0.6585(5) 0.6198(3) 0.0393(12) Uani 1 1 d . . . . .
C4 C 0.2990(5) 0.6046(3) 0.6528(3) 0.0429(12) Uani 1 1 d D U . . .
C12 C 0.6006(9) 0.4664(7) 0.4314(4) 0.0590(17) Uani 1 1 d . . . . .
H12 H 0.551095 0.490868 0.379784 0.071 Uiso 1 1 calc R U . . .
C7 C 0.6234(8) 0.8624(6) 0.6087(4) 0.0513(14) Uani 1 1 d . . . . .
C15 C 0.7428(8) 0.3817(7) 0.5881(6) 0.067(2) Uani 1 1 d . . . . .
H15 H 0.790475 0.353265 0.639399 0.080 Uiso 1 1 calc R U . . .
C2 C 0.1117(3) 0.4556(4) 0.6976(5) 0.078(2) Uani 1 1 d D . . . .
H2 H 0.065884 0.376911 0.715568 0.094 Uiso 1 1 calc R U . . .
C14 C 0.7740(9) 0.3225(7) 0.5079(8) 0.082(3) Uani 1 1 d . . . . .
H14 H 0.840746 0.251050 0.505818 0.098 Uiso 1 1 calc R U . . .
C6 C 0.4758(8) 0.8061(6) 0.6398(5) 0.0614(17) Uani 1 1 d . . . . .
H6A H 0.393501 0.854899 0.612427 0.074 Uiso 1 1 calc R U . . .
H6B H 0.468175 0.819167 0.702931 0.074 Uiso 1 1 calc R U . . .
C1 C 0.0286(6) 0.5816(4) 0.6904(6) 0.082(2) Uani 1 1 d D . . . .
H1A H -0.074222 0.592898 0.702218 0.099 Uiso 1 1 calc R U . . .
C13 C 0.7098(11) 0.3663(8) 0.4327(6) 0.075(2) Uani 1 1 d . . . . .
H13 H 0.739537 0.328256 0.379683 0.090 Uiso 1 1 calc R U . . .
C8 C 0.6266(12) 1.0056(8) 0.5871(7) 0.083(3) Uani 1 1 d . . . . .
H8A H 0.728782 1.038062 0.591798 0.125 Uiso 1 1 calc R U . . .
H8B H 0.562632 1.053098 0.627433 0.125 Uiso 1 1 calc R U . . .
H8C H 0.590516 1.018617 0.528105 0.125 Uiso 1 1 calc R U . . .
loop_
_atom_site_aniso_label
_atom_site_aniso_U_11
_atom_site_aniso_U_22
_atom_site_aniso_U_33
_atom_site_aniso_U_23
_atom_site_aniso_U_13
_atom_site_aniso_U_12
S1 0.0622(12) 0.0745(13) 0.1112(17) 0.0071(11) 0.0147(11) 0.0015(10)
C3 0.017(2) 0.040(2) 0.062(3) 0.010(2) -0.003(2) -0.0139(19)
O2 0.049(3) 0.055(2) 0.079(3) 0.006(2) 0.017(2) -0.006(2)
O1 0.059(3) 0.103(4) 0.041(2) 0.010(2) -0.0112(19) -0.011(3)
N1 0.055(3) 0.048(2) 0.036(2) 0.0033(19) -0.004(2) 0.008(2)
C11 0.041(3) 0.039(3) 0.049(3) 0.000(2) 0.004(2) -0.008(2)
C10 0.039(3) 0.041(3) 0.058(3) 0.005(2) 0.001(2) -0.003(2)
C9 0.038(3) 0.057(3) 0.039(3) 0.010(2) -0.005(2) -0.009(2)
C5 0.031(3) 0.047(3) 0.040(2) -0.002(2) 0.004(2) -0.006(2)
C4 0.043(3) 0.041(2) 0.045(3) 0.002(2) -0.001(2) -0.009(2)
C12 0.070(4) 0.054(4) 0.053(3) -0.008(3) 0.011(3) -0.009(3)
C7 0.054(4) 0.047(3) 0.053(3) -0.003(2) 0.009(3) -0.006(3)
C15 0.042(3) 0.053(4) 0.106(6) 0.019(4) -0.001(3) 0.001(3)
C2 0.050(4) 0.086(5) 0.099(6) 0.011(4) 0.008(4) -0.028(4)
C14 0.059(4) 0.046(4) 0.141(8) -0.012(4) 0.039(5) 0.003(3)
C6 0.050(4) 0.048(3) 0.086(5) -0.019(3) 0.018(3) -0.005(3)
C1 0.050(4) 0.117(7) 0.080(5) -0.012(5) 0.002(3) -0.006(4)
C13 0.096(6) 0.048(4) 0.082(5) -0.015(4) 0.031(4) -0.002(4)
C8 0.085(6) 0.060(4) 0.105(6) 0.019(4) 0.034(5) 0.003(4)
loop_
_atom_type_symbol
_atom_type_description
_atom_type_scat_dispersion_real
_atom_type_scat_dispersion_imag
_atom_type_scat_source
C C 0.0033 0.0016 'International Tables Vol C Tables 4.2.6.8 and 6.1.1.4'
H H 0.0000 0.0000 'International Tables Vol C Tables 4.2.6.8 and 6.1.1.4'
N N 0.0061 0.0033 'International Tables Vol C Tables 4.2.6.8 and 6.1.1.4'
O O 0.0106 0.0060 'International Tables Vol C Tables 4.2.6.8 and 6.1.1.4'
S S 0.1246 0.1234 'International Tables Vol C Tables 4.2.6.8 and 6.1.1.4'
loop_
_geom_angle_atom_site_label_1
_geom_angle_atom_site_label_2
_geom_angle_atom_site_label_3
_geom_angle
_geom_angle_site_symmetry_1
_geom_angle_site_symmetry_3
_geom_angle_publ_flag
C1 S1 C4 95.8(3) . . ?
C4 C3 H3 127.5 . . ?
C4 C3 C2 105.1(3) . . ?
C2 C3 H3 127.5 . . ?
C11 N1 H1 125.0 . . ?
C11 N1 C5 110.0(4) . . ?
C5 N1 H1 125.0 . . ?
N1 C11 C10 111.9(5) . . ?
N1 C11 C12 126.4(6) . . ?
C10 C11 C12 121.7(6) . . ?
C11 C10 C9 107.9(5) . . ?
C11 C10 C15 119.6(6) . . ?
C15 C10 C9 132.4(6) . . ?
O1 C9 C10 128.4(6) . . ?
O1 C9 C5 125.0(6) . . ?
C10 C9 C5 106.6(4) . . ?
N1 C5 C9 102.2(4) . . ?
N1 C5 C4 110.5(4) . . ?
N1 C5 C6 110.4(5) . . ?
C9 C5 C4 107.9(4) . . ?
C6 C5 C9 113.4(5) . . ?
C6 C5 C4 112.1(4) . . ?
C3 C4 S1 115.1(3) . . ?
C3 C4 C5 122.8(4) . . ?
C5 C4 S1 122.0(3) . . ?
C11 C12 H12 121.8 . . ?
C13 C12 C11 116.4(7) . . ?
C13 C12 H12 121.8 . . ?
O2 C7 C6 121.3(6) . . ?
O2 C7 C8 121.5(7) . . ?
C8 C7 C6 117.2(7) . . ?
C10 C15 H15 121.0 . . ?
C14 C15 C10 118.1(8) . . ?
C14 C15 H15 121.0 . . ?
C3 C2 H2 122.8 . . ?
C1 C2 C3 114.4(4) . . ?
C1 C2 H2 122.8 . . ?
C15 C14 H14 119.3 . . ?
C13 C14 C15 121.4(7) . . ?
C13 C14 H14 119.3 . . ?
C5 C6 H6A 108.7 . . ?
C5 C6 H6B 108.7 . . ?
C7 C6 C5 114.0(5) . . ?
C7 C6 H6A 108.7 . . ?
C7 C6 H6B 108.7 . . ?
H6A C6 H6B 107.6 . . ?
S1 C1 H1A 125.2 . . ?
C2 C1 S1 109.5(3) . . ?
C2 C1 H1A 125.2 . . ?
C12 C13 H13 118.7 . . ?
C14 C13 C12 122.6(7) . . ?
C14 C13 H13 118.7 . . ?
C7 C8 H8A 109.5 . . ?
C7 C8 H8B 109.5 . . ?
C7 C8 H8C 109.5 . . ?
H8A C8 H8B 109.5 . . ?
H8A C8 H8C 109.5 . . ?
H8B C8 H8C 109.5 . . ?
loop_
_geom_bond_atom_site_label_1
_geom_bond_atom_site_label_2
_geom_bond_distance
_geom_bond_site_symmetry_2
_geom_bond_publ_flag
S1 C4 1.659(4) . ?
S1 C1 1.657(4) . ?
C3 H3 0.9300 . ?
C3 C4 1.469(3) . ?
C3 C2 1.469(3) . ?
O2 C7 1.226(8) . ?
O1 C9 1.211(7) . ?
N1 H1 0.8600 . ?
N1 C11 1.370(8) . ?
N1 C5 1.471(7) . ?
C11 C10 1.393(9) . ?
C11 C12 1.397(9) . ?
C10 C9 1.445(9) . ?
C10 C15 1.405(9) . ?
C9 C5 1.550(8) . ?
C5 C4 1.565(6) . ?
C5 C6 1.527(8) . ?
C12 H12 0.9300 . ?
C12 C13 1.394(12) . ?
C7 C6 1.496(9) . ?
C7 C8 1.479(10) . ?
C15 H15 0.9300 . ?
C15 C14 1.384(13) . ?
C2 H2 0.9300 . ?
C2 C1 1.469(3) . ?
C14 H14 0.9300 . ?
C14 C13 1.349(15) . ?
C6 H6A 0.9700 . ?
C6 H6B 0.9700 . ?
C1 H1A 0.9300 . ?
C13 H13 0.9300 . ?
C8 H8A 0.9600 . ?
C8 H8B 0.9600 . ?
C8 H8C 0.9600 . ?
loop_
_geom_torsion_atom_site_label_1
_geom_torsion_atom_site_label_2
_geom_torsion_atom_site_label_3
_geom_torsion_atom_site_label_4
_geom_torsion
_geom_torsion_site_symmetry_1
_geom_torsion_site_symmetry_2
_geom_torsion_site_symmetry_3
_geom_torsion_site_symmetry_4
_geom_torsion_publ_flag
C3 C2 C1 S1 -0.8(9) . . . . ?
O2 C7 C6 C5 -27.3(10) . . . . ?
O1 C9 C5 N1 170.5(6) . . . . ?
O1 C9 C5 C4 -73.1(7) . . . . ?
O1 C9 C5 C6 51.7(8) . . . . ?
N1 C11 C10 C9 0.0(7) . . . . ?
N1 C11 C10 C15 -177.7(5) . . . . ?
N1 C11 C12 C13 175.7(6) . . . . ?
N1 C5 C4 S1 -93.6(5) . . . . ?
N1 C5 C4 C3 81.1(6) . . . . ?
N1 C5 C6 C7 -55.8(8) . . . . ?
C11 N1 C5 C9 11.5(6) . . . . ?
C11 N1 C5 C4 -103.0(5) . . . . ?
C11 N1 C5 C6 132.4(5) . . . . ?
C11 C10 C9 O1 -174.5(6) . . . . ?
C11 C10 C9 C5 7.3(6) . . . . ?
C11 C10 C15 C14 -1.1(9) . . . . ?
C11 C12 C13 C14 5.3(12) . . . . ?
C10 C11 C12 C13 -3.9(9) . . . . ?
C10 C9 C5 N1 -11.2(5) . . . . ?
C10 C9 C5 C4 105.3(5) . . . . ?
C10 C9 C5 C6 -130.0(5) . . . . ?
C10 C15 C14 C13 2.5(11) . . . . ?
C9 C10 C15 C14 -178.1(7) . . . . ?
C9 C5 C4 S1 155.5(4) . . . . ?
C9 C5 C4 C3 -29.8(7) . . . . ?
C9 C5 C6 C7 58.1(8) . . . . ?
C5 N1 C11 C10 -7.9(7) . . . . ?
C5 N1 C11 C12 172.6(6) . . . . ?
C4 S1 C1 C2 -0.5(6) . . . . ?
C4 C3 C2 C1 1.9(8) . . . . ?
C4 C5 C6 C7 -179.4(6) . . . . ?
C12 C11 C10 C9 179.6(6) . . . . ?
C12 C11 C10 C15 2.0(9) . . . . ?
C15 C10 C9 O1 2.8(11) . . . . ?
C15 C10 C9 C5 -175.5(6) . . . . ?
C15 C14 C13 C12 -4.8(13) . . . . ?
C2 C3 C4 S1 -2.3(6) . . . . ?
C2 C3 C4 C5 -177.2(5) . . . . ?
C6 C5 C4 S1 30.0(7) . . . . ?
C6 C5 C4 C3 -155.3(6) . . . . ?
C1 S1 C4 C3 1.7(5) . . . . ?
C1 S1 C4 C5 176.8(5) . . . . ?
C8 C7 C6 C5 152.5(7) . . . . ?
