#------------------------------------------------------------------------------
#$Date: 2021-10-03 22:07:39 +0300 (Sun, 03 Oct 2021) $
#$Revision: 269463 $
#$URL: file:///home/coder/svn-repositories/cod/cif/4/51/90/4519036.cif $
#------------------------------------------------------------------------------
#
# This file is available in the Crystallography Open Database (COD),
# http://www.crystallography.net/
#
# All data on this site have been placed in the public domain by the
# contributors.
#
data_4519036
loop_
_publ_author_name
'Zhang, Zong-Hui'
'Fang, Han'
'Xue, Dong-Xu'
'Bai, Junfeng'
_publ_section_title
;
 Tuning Open Metal Site-Free <b>ncb</b> Type of Metal-Organic Frameworks
 for Simultaneously High Gravimetric and Volumetric Methane Storage
 Working Capacities.
;
_journal_issue                   37
_journal_name_full               'ACS applied materials &amp; interfaces'
_journal_page_first              44956
_journal_page_last               44963
_journal_paper_doi               10.1021/acsami.1c13757
_journal_volume                  13
_journal_year                    2021
_chemical_formula_moiety         'C51.631 H35.905 Fe3 N6 O16'
_chemical_formula_sum            'C51 H30 Fe3 N6 O16'
_chemical_formula_weight         1150.36
_space_group_crystal_system      cubic
_space_group_IT_number           217
_space_group_name_Hall           'I -4 2 3'
_space_group_name_H-M_alt        'I -4 3 m'
_atom_sites_solution_hydrogens   geom
_audit_creation_date             2021-07-08
_audit_creation_method
;
Olex2 1.3
(compiled 2020.11.12 svn.r5f609507 for OlexSys, GUI svn.r6272)
;
_cell_angle_alpha                90
_cell_angle_beta                 90
_cell_angle_gamma                90
_cell_formula_units_Z            8
_cell_length_a                   29.8619(7)
_cell_length_b                   29.8619(7)
_cell_length_c                   29.8619(7)
_cell_measurement_reflns_used    9988
_cell_measurement_temperature    243(2)
_cell_measurement_theta_max      50.37
_cell_measurement_theta_min      5.54
_cell_volume                     26628.8(11)
_computing_cell_refinement       'SAINT v8.37A (Bruker, 2015)'
_computing_data_reduction        'SAINT v8.37A (Bruker, 2015)'
_computing_molecular_graphics    'Olex2 1.3 (Dolomanov et al., 2009)'
_computing_publication_material  'Olex2 1.3 (Dolomanov et al., 2009)'
_computing_structure_refinement  'XL  (Sheldrick, 2008)'
_computing_structure_solution    'olex2.solve 1.3 (Bourhis et al., 2015)'
_diffrn_ambient_temperature      243.0
_diffrn_measured_fraction_theta_full 0.994
_diffrn_measured_fraction_theta_max 0.994
_diffrn_measurement_device_type  'Bruker APEX-II CCD'
_diffrn_measurement_method       '\f and \w scans'
_diffrn_radiation_type           CuK\a
_diffrn_radiation_wavelength     1.54178
_diffrn_reflns_av_R_equivalents  0.0371
_diffrn_reflns_av_unetI/netI     0.0394
_diffrn_reflns_Laue_measured_fraction_full 0.994
_diffrn_reflns_Laue_measured_fraction_max 0.994
_diffrn_reflns_limit_h_max       25
_diffrn_reflns_limit_h_min       -29
_diffrn_reflns_limit_k_max       29
_diffrn_reflns_limit_k_min       -29
_diffrn_reflns_limit_l_max       13
_diffrn_reflns_limit_l_min       -25
_diffrn_reflns_number            17499
_diffrn_reflns_point_group_measured_fraction_full 0.933
_diffrn_reflns_point_group_measured_fraction_max 0.933
_diffrn_reflns_theta_full        50.367
_diffrn_reflns_theta_max         50.367
_diffrn_reflns_theta_min         4.187
_exptl_absorpt_coefficient_mu    2.839
_exptl_absorpt_correction_T_max  0.7500
_exptl_absorpt_correction_T_min  0.5291
_exptl_absorpt_correction_type   none
_exptl_absorpt_process_details
;
SADABS-2016/2 (Bruker,2016/2) was used for absorption correction.
wR2(int) was 0.0960 before and 0.0766 after correction.
The Ratio of minimum to maximum transmission is 0.7055.
The \l/2 correction factor is Not present.
;
_exptl_crystal_colour            black
_exptl_crystal_colour_primary    black
_exptl_crystal_density_diffrn    0.574
_exptl_crystal_description       polyhedron
_exptl_crystal_F_000             4672
_exptl_crystal_size_max          0.2
_exptl_crystal_size_mid          0.2
_exptl_crystal_size_min          0.2
_refine_diff_density_max         0.615
_refine_diff_density_min         -0.472
_refine_diff_density_rms         0.072
_refine_ls_abs_structure_details
;
 Flack x determined using 894 quotients [(I+)-(I-)]/[(I+)+(I-)]
 (Parsons, Flack and Wagner, Acta Cryst. B69 (2013) 249-259).
;
_refine_ls_abs_structure_Flack   0.252(15)
_refine_ls_extinction_method     none
_refine_ls_goodness_of_fit_ref   1.055
_refine_ls_hydrogen_treatment    constr
_refine_ls_matrix_type           full
_refine_ls_number_parameters     155
_refine_ls_number_reflns         2407
_refine_ls_number_restraints     219
_refine_ls_restrained_S_all      1.046
_refine_ls_R_factor_all          0.0757
_refine_ls_R_factor_gt           0.0718
_refine_ls_shift/su_max          0.000
_refine_ls_shift/su_mean         0.000
_refine_ls_structure_factor_coef Fsqd
_refine_ls_weighting_details
'w=1/[\s^2^(Fo^2^)+(0.0990P)^2^+212.4569P] where P=(Fo^2^+2Fc^2^)/3'
_refine_ls_weighting_scheme      calc
_refine_ls_wR_factor_gt          0.1986
_refine_ls_wR_factor_ref         0.2026
_reflns_Friedel_coverage         0.748
_reflns_Friedel_fraction_full    0.863
_reflns_Friedel_fraction_max     0.863
_reflns_number_gt                2269
_reflns_number_total             2407
_reflns_threshold_expression     'I > 2\s(I)'
_cod_data_source_file            am1c13757_si_002.cif
_cod_data_source_block           a
_cod_original_cell_volume        26628.8(19)
_cod_database_code               4519036
_shelx_shelxl_version_number     2014/7
_shelx_space_group_comment
;
The symmetry employed for this shelxl refinement is uniquely defined
by the following loop, which should always be used as a source of
symmetry information in preference to the above space-group names.
They are only intended as comments.
;
_shelx_estimated_absorpt_t_max   0.601
_shelx_estimated_absorpt_t_min   0.601
_olex2_refinement_description
;
1. Fixed Uiso
 At 1.2 times of:
  All C(H) groups, All N(H) groups
2. Restrained distances
 C7-C7_$1
 2.336 with sigma of 0.01
 C6-C6_$1
 2.34 with sigma of 0.01
 N1-C7 = C7-C6
 1.43 with sigma of 0.02
 C7-C6 = C6-C5
 1.43 with sigma of 0.02
 O3-C4
 1.43 with sigma of 0.02
 N2-C4
 1.43 with sigma of 0.02
 C4-C13
 1.43 with sigma of 0.02
 C7-C5
 2.477 with sigma of 0.04
 N1-C6
 2.477 with sigma of 0.04
 C4-C12 \\sim C4-C14
 with sigma of 0.02
3. Uiso/Uaniso restraints and constraints
N1 \\sim C7 \\sim C6 \\sim Fe1: within 2A with sigma of 0.04 and sigma for
terminal atoms of 0.08 within 2A
C10 \\sim C11 \\sim C14 \\sim C13 \\sim C12 \\sim C9: within 2A with sigma of
0.04 and sigma for terminal atoms of 0.08 within 2A
Uanis(O1) \\sim Ueq: with sigma of 0.001 and sigma for terminal atoms of 0.002
Uanis(C8) \\sim Ueq: with sigma of 0.001 and sigma for terminal atoms of 0.002
Uanis(N2) \\sim Ueq, Uanis(C1) \\sim Ueq, Uanis(C9) \\sim Ueq: with sigma of
0.001 and sigma for terminal atoms of 0.002
Uanis(C7) \\sim Ueq: with sigma of 0.01 and sigma for terminal atoms of 0.02
Uanis(C14) \\sim Ueq, Uanis(C11) \\sim Ueq, Uanis(C10) \\sim Ueq: with sigma of
0.01 and sigma for terminal atoms of 0.02
4. Rigid body (RIGU) restrains
 C1, C2, O2, Fe1
 with sigma for 1-2 distances of 0.004 and sigma for 1-3 distances of 0.004
 C12, C9, C10, C11, C14, C13, C4, O3, N2, C5
 with sigma for 1-2 distances of 0.004 and sigma for 1-3 distances of 0.004
 C6, C5, N2, C7, N1, Fe1
 with sigma for 1-2 distances of 0.004 and sigma for 1-3 distances of 0.004
5. Others
 Sof(C14)=Sof(C9)=0.5*FVAR(2)
 Sof(H14)=Sof(C11)=Sof(H11)=Sof(C10)=Sof(H9)=Sof(C12)=Sof(H12)=Sof(C13)=FVAR(1)
 Fixed Sof: O3(0.5) N2(0.5) H2(0.5) C4(0.5)
6.a Aromatic/amide H refined with riding coordinates:
 N2(H2), C3(H3), C6(H6), C7(H7), C14(H14), C11(H11), C9(H9), C12(H12)
6.b Fitted hexagon refined as free rotating group:
 C14(C11,C10,C9,C12,C13)
;
_smtbx_masks_void_probe_radius   1.2
_smtbx_masks_void_truncation_radius 1.2
_shelx_res_file
;
    a.res created by SHELXL-2014/7

TITL a_a.res in I-43m
REM Old TITL a in I-43m
REM SHELXT solution in I-43m
REM R1 0.179, Rweak 0.050, Alpha 0.007, Orientation as input
REM Flack x = 0.191 ( 0.008 ) from Parsons' quotients
REM Formula found by SHELXT: C36 N24 O16 Fe3
CELL 1.54178 29.8619 29.8619 29.8619 90 90 90
ZERR 8 0.0007 0.0007 0.0007 0 0 0
LATT -2
SYMM -X,-Y,+Z
SYMM -X,+Y,-Z
SYMM +X,-Y,-Z
SYMM +Z,+X,+Y
SYMM +Z,-X,-Y
SYMM -Z,-X,+Y
SYMM -Z,+X,-Y
SYMM +Y,+Z,+X
SYMM -Y,+Z,-X
SYMM +Y,-Z,-X
SYMM -Y,-Z,+X
SYMM +Y,+X,+Z
SYMM -Y,-X,+Z
SYMM +Y,-X,-Z
SYMM -Y,+X,-Z
SYMM +X,+Z,+Y
SYMM -X,+Z,-Y
SYMM -X,-Z,+Y
SYMM +X,-Z,-Y
SYMM +Z,+Y,+X
SYMM +Z,-Y,-X
SYMM -Z,+Y,-X
SYMM -Z,-Y,+X
SFAC C H Fe N O
UNIT 408 240 24 48 128
EQIV $1 +Z,+Y,+X
DFIX 2.336 0.01 C7 C7_$1
ISOR 0.001 0.002 O1
ISOR 0.001 0.002 C8
ISOR 0.001 0.002 N2 C1 C9
DFIX 2.34 0.01 C6 C6_$1
RIGU C1 C2 O2 Fe1
RIGU C12 C9 C10 C11 C14 C13 C4 O3 N2 C5
SADI C4 C12 C4 C14
DANG 2.477 C7 C5
DANG 2.477 N1 C6
DFIX 1.43 N1 C7 C7 C6
DFIX 1.43 C7 C6 C6 C5
DFIX 1.43 O3 C4
DFIX 1.43 N2 C4
DFIX 1.43 C4 C13
ISOR 0.01 0.02 C7
SIMU N1 C7 C6 Fe1
RIGU C6 C5 N2 C7 N1 Fe1
SIMU C10 C11 C14 C13 C12 C9
ISOR 0.01 0.02 C14 C11 C10

L.S. 20
PLAN  27
SIZE 0.2 0.2 0.2
TEMP -30.15
CONF
FREE C4 C14
FREE C4 C12
FREE C5 C4_$1
FREE C5 C4
BOND $H
list 4
MORE -1
ABIN
fmap 2
acta
REM <olex2.extras>
REM <HklSrc "%.\\a.hkl">
REM </olex2.extras>

WGHT    0.099000  212.456894
FVAR       0.20331   0.62104
FE1   3    0.333012    0.410785    0.333012    10.50000    0.02020    0.01722 =
         0.02020   -0.00238   -0.00331   -0.00238
O1    5    0.358187    0.358187    0.358187    10.16667    0.01128    0.01128 =
         0.01128    0.00024    0.00024    0.00024
O2    5    0.391820    0.443766    0.324405    11.00000    0.01680    0.04443 =
         0.06286    0.01553    0.00024   -0.00038
PART -1
O3    5    0.173591    0.565548    0.257921    10.50000    0.09200    0.16358 =
         0.32712    0.12058    0.08161    0.05446
PART 0
O4    5    0.334342    0.385365    0.266944    11.00000    0.08428    0.03321 =
         0.03704    0.00692   -0.03145   -0.01464
N1    4    0.303648    0.468590    0.303648    10.50000    0.05531    0.02304 =
         0.05531    0.00526   -0.02863    0.00526
PART -1
N2    4    0.237841    0.572694    0.232521    10.50000    0.05018    0.05039 =
         0.05061    0.00024   -0.00007    0.00014
AFIX  43
H2    2    0.253137    0.581012    0.209162    10.50000   -1.20000
AFIX   0
PART 0
C1    1    0.431323    0.431323    0.322284    10.50000    0.01799    0.01799 =
         0.01791    0.00058    0.00058   -0.00030
C2    1    0.466772    0.466772    0.322779    10.50000    0.01927    0.01927 =
         0.05104   -0.00357   -0.00357    0.00071
C3    1    0.455903    0.510932    0.323455    11.00000    0.02835    0.10124 =
         0.12171    0.02678    0.00683   -0.01996
AFIX  43
H3    2    0.425585    0.519386    0.323929    11.00000   -1.20000
AFIX   0
PART -1
C4    1    0.201875    0.600985    0.243820    10.50000    0.10292    0.12592 =
         0.13271    0.05126    0.05339    0.05983
PART 0
C5    1    0.252591    0.533992    0.252591    10.50000    0.12026    0.08585 =
         0.12026    0.03610    0.01020    0.03610
C6    1    0.242937    0.524005    0.298344    11.00000    0.14102    0.15485 =
         0.13368    0.06543    0.03600    0.08943
AFIX  43
H6    2    0.218940    0.538817    0.312330    11.00000   -1.20000
AFIX   0
C7    1    0.267932    0.492880    0.323268    11.00000    0.11686    0.09938 =
         0.12074    0.01728    0.00663    0.04483
AFIX  43
H7    2    0.260813    0.488085    0.353554    11.00000   -1.20000
AFIX   0
C8    1    0.354693    0.354693    0.251143    10.50000    0.01549    0.01549 =
         0.01557   -0.00053   -0.00053    0.00020
PART -1
AFIX  66
C14   1    0.207240    0.646898    0.176522    20.50000    0.08104    0.07089 =
         0.10466    0.00599    0.00406    0.00960
AFIX  43
H14   2    0.234789    0.633532    0.169222    21.00000   -1.20000
AFIX  65
C11   1    0.191250    0.682560    0.151239    21.00000    0.07909    0.07211 =
         0.10817    0.00489    0.01662    0.02269
AFIX  43
H11   2    0.207985    0.693310    0.126842    21.00000   -1.20000
AFIX  65
C10   1    0.150513    0.702325    0.162034    21.00000    0.08781    0.08064 =
         0.09396    0.02424    0.01822    0.03688
C9    1    0.125767    0.686429    0.198112    20.50000    0.06879    0.06877 =
         0.06895   -0.00008   -0.00012    0.00028
AFIX  43
H9    2    0.098218    0.699796    0.205412    21.00000   -1.20000
AFIX  65
C12   1    0.141756    0.650767    0.223395    21.00000    0.08634    0.10858 =
         0.12832    0.04752    0.02677    0.03093
AFIX  43
H12   2    0.125021    0.640017    0.247792    21.00000   -1.20000
AFIX  65
C13   1    0.182493    0.631002    0.212600    21.00000    0.08483    0.11041 =
         0.15068    0.04599    0.02597    0.03570
AFIX   0
HKLF 4

REM  a_a.res in I-43m
REM R1 =  0.0718 for    2269 Fo > 4sig(Fo)  and  0.0757 for all    2407 data
REM    155 parameters refined using    219 restraints

END

WGHT      0.0988    212.6942

REM Highest difference peak  0.615,  deepest hole -0.472,  1-sigma level  0.072
Q1    1   0.2704  0.4699  0.2704  10.50000  0.05    0.31
Q2    1   0.2624  0.7376  0.2624  10.16667  0.05    0.30
Q3    1   0.3172  0.3172  0.3172  10.16667  0.05    0.29
Q4    1   0.2925  0.2925  0.2925  10.16667  0.05    0.27
Q5    1   0.2404  0.6910  0.2404  10.50000  0.05    0.26
Q6    1   0.3131  0.4826  0.3131  10.50000  0.05    0.26
Q7    1   0.4616  0.4616  0.3838  10.50000  0.05    0.25
Q8    1   0.3154  0.3154  0.2731  10.50000  0.05    0.25
Q9    1   0.1252  0.6799  0.1776  11.00000  0.05    0.25
Q10   1   0.4211  0.4211  0.3089  10.50000  0.05    0.25
Q11   1   0.4445  0.4325  0.4325  10.50000  0.05    0.24
Q12   1   0.4036  0.5964  0.4036  10.16667  0.05    0.24
Q13   1   0.1812  0.7166  0.1812  10.50000  0.05    0.24
Q14   1   0.5000  0.5000  0.2067  10.25000  0.05    0.24
Q15   1   0.2206  0.5370  0.2683  11.00000  0.05    0.23
Q16   1   0.3376  0.4766  0.3110  11.00000  0.05    0.23
Q17   1   0.3559  0.4647  0.3079  11.00000  0.05    0.23
Q18   1   0.3886  0.5752  0.3163  11.00000  0.05    0.22
Q19   1   0.2966  0.5073  0.3632  11.00000  0.05    0.22
Q20   1   0.3782  0.4440  0.3782  10.50000  0.05    0.22
Q21   1   0.1986  0.7047  0.1906  11.00000  0.05    0.22
Q22   1   0.3727  0.4562  0.3065  11.00000  0.05    0.21
Q23   1   0.2969  0.3991  0.2486  11.00000  0.05    0.21
Q24   1   0.2384  0.4935  0.2384  10.50000  0.05    0.21
Q25   1   0.0608  0.5616  0.1605  11.00000  0.05    0.21
Q26   1   0.2458  0.6135  0.2458  10.50000  0.05    0.21
Q27   1   0.2887  0.5235  0.3740  11.00000  0.05    0.21
;
_shelx_res_checksum              45345
_shelx_hkl_file
;
   0   2  -2    4.70    2.60
   0   2   2    2.90    1.40
   2   2   0    2.90    2.90
   2   1  -3 4226.78  284.57
  -1   3   2 4195.28  284.27
  -2   3   1 4283.97  289.47
   0   3  -3 3077.29  211.48
   0   3   3 3037.50  210.88
   3   3   0 3252.37  211.58
   3   3  -2 2034.60  136.59
  -2   3   3 2052.79  135.69
   2   3  -3 2060.99  136.49
   3   2  -3 2119.19  136.49
  -2   3  -3 1763.72  136.39
   0   0  -4 2821.12  195.38
   0   4   0 2961.60  195.88
   2   0  -4  557.54   36.50
   0   4   2  509.15   36.60
   0   4  -2  516.95   37.30
   1   1  -4 2205.48  164.18
   1   4  -1 2142.49  164.48
  -1   4   1 2217.18  164.28
   1  -1  -4 2621.34  163.68
   1   4   1 2581.14  164.48
  -1   4  -1 2626.84  164.68
  -1   1  -4 2581.64  164.38
   3   1  -4  751.62   50.59
   4   3  -1  762.22   51.09
  -1   4   3  752.12   49.99
   1   4  -3  756.02   51.09
  -1   4  -3  675.93   50.89
   1   4   3  682.53   50.19
   2   4   0  514.25   36.10
  -2   4   0  497.75   36.00
   0   2  -4  525.05   36.00
   4   2  -2 2013.80  137.49
   2   4  -2 2036.90  137.59
  -2   4   2 2017.00  136.99
   2   2  -4 2013.30  137.29
  -3   4   1  773.22   50.79
   1   3  -4  759.92   50.99
   3   4  -1  768.12   51.19
  -3   4  -1  680.63   50.99
   3   4   1  702.23   50.99
  -1   3  -4  700.53   50.99
   4   3  -3 2450.65  162.88
   4  -3   3 2393.86  161.88
  -3   4   3 2274.27  161.98
   3  -4   3 2403.16  161.98
   3  -3   4 2291.27  161.88
   3   3  -4 2394.46  162.68
   3   4  -3 2375.56  162.88
  -3   4  -3 2531.95  162.98
  -3   3  -4 2409.76  162.88
   0   4   4 7303.47  492.85
  -2   4   4 9999.00  674.43
   0   5   1 1417.26   96.29
   1   0  -5 1423.76   95.79
   0   5  -1 1467.55   96.69
  -1   0  -5 1333.67   95.89
   0   5  -3  874.31   60.09
   0  -5   3  836.12   58.69
   0   5   3  861.51   58.99
   3   0  -5  860.81   58.89
   1   5   0 1373.86   96.59
   0   1  -5 1412.66   96.19
   0  -1  -5 1398.86   95.69
  -1   5   0 1465.35   96.69
   1  -5   2 2252.07  160.58
   2   1  -5 2258.17  160.88
  -1   5   2 2247.08  160.88
   1   5  -2 2293.27  161.48
   2  -1  -5 2502.85  160.38
   1   5   2 2466.35  161.08
  -2   1  -5 2437.86  161.18
  -1   5  -2 2522.05  161.58
   1  -5   4 1564.44  117.39
   5   4  -1 1564.94  118.49
   1   5  -4 1624.54  118.59
  -1   5   4 1542.65  117.29
   4   1  -5 1625.74  117.99
   5  -4   1 1602.64  117.39
   5  -4  -1 1946.81  117.49
  -1   5  -4 1991.60  118.89
  -1  -5   4 1891.71  117.39
   1   5   4 1945.91  117.69
   2   5  -1 2196.68  159.38
   2  -5   1 2222.48  158.58
   1   2  -5 2154.48  158.98
  -2   5   1 2192.68  158.98
  -1   2  -5 2506.05  159.18
   2  -5  -1 2530.85  158.68
  -2   5  -1 2442.36  159.48
   2   5   1 2491.45  159.28
  -2   5   3 6171.78  369.16
   3   2  -5 6029.10  369.56
   2   5   3 4703.43  369.16
  -2   5  -3 4944.31  369.76
   0   3  -5  860.81   58.59
   3  -5   0  801.42   57.59
   3   5   0  846.72   58.69
   0  -3   5  826.52   57.49
  -3   5   0  866.31   58.59
  -2   3  -5 4604.24  314.47
  -3   5  -2 4598.34  314.67
   3   5   2 4727.03  314.37
   4  -3   5  762.32   53.49
   5   4  -3  780.82   55.19
   5  -4   3  808.82   53.59
  -3   5   4  773.72   53.59
   3  -5   4  780.52   53.59
   3   5  -4  774.42   55.19
   4   3  -5  762.52   54.79
   1  -4   5 1565.54  119.59
  -4   5   1 1574.04  120.29
   1   4  -5 1548.45  120.49
   4  -5   1 1574.54  119.69
   4   5  -1 1603.14  120.79
   4   5   1 1987.00  120.89
  -1  -4   5 1973.20  119.69
  -1   4  -5 1884.61  120.79
   4  -5  -1 1943.21  119.79
  -4   5  -1 1978.60  120.89
   5   3  -4  835.62   56.39
   4  -5   3  791.32   55.09
   4   5  -3  766.62   56.59
   5  -3   4  786.72   54.89
   3  -4   5  796.02   54.99
   3   4  -5  829.72   56.39
  -3   4   5  790.52   54.49
  -4   5   3  793.52   55.39
   0   5  -5 6106.09  405.46
   0   5   5 5860.91  404.26
   5   5   0 5999.40  405.46
   5   2  -5 2845.72  201.78
   5   5  -2 3011.50  202.18
  -2   5   5 2988.10  200.68
   2  -5   5 2905.51  200.98
   2   5  -5 2976.50  202.08
   5  -2   5 3039.10  200.88
   5  -5   2 3012.40  200.98
   5   5  -4 6382.96  426.86
   5   4  -5 6377.06  426.76
   4   5  -5 6146.79  426.76
  -4   5   5 6299.07  425.56
   0   6   2  730.43   52.89
   2   0  -6  775.42   52.29
   0  -6   2  813.92   52.29
   0   6  -2  714.53   53.69
   0   6   4 1029.90   74.09
   6  -4   0 1120.49   73.89
   0  -6   4 1087.09   73.89
   0   6  -4 1088.19   75.59
   1   6  -1 4368.36  319.57
   1   1  -6 4565.44  319.07
  -1  -1  -6 4276.47  318.77
  -1   6   1 4564.64  319.37
  -1   6  -1 4841.62  319.77
  -1   1  -6 5172.58  319.37
   1   6   1 5061.29  319.57
   1  -1  -6 4905.61  318.57
   3   1  -6 4952.30  312.17
   1   6  -3 4922.81  312.87
  -1   6   3 5030.70  312.07
  -1   6  -3 4443.56  312.67
   6  -3  -1 4087.79  311.47
   1   6   3 4240.68  311.97
   1   6  -5  921.81   70.19
   1  -6   5  921.31   68.69
   6   5  -1  873.21   70.09
   6  -5   1  941.61   68.69
  -1   6   5  892.51   68.39
   6  -5  -1 1132.29   68.79
  -1   6  -5 1130.39   70.59
  -1  -6   5 1069.19   68.59
   1   6   5 1141.09   68.99
   2   6   0  744.33   53.79
   0  -2  -6  761.62   51.89
   2  -6   0  785.32   52.69
   0   2  -6  753.32   53.29
  -2   6   0  774.72   53.69
   2   6  -2 3198.38  235.48
   2   2  -6 3203.18  234.98
  -2   6   2 3237.98  234.98
  -2  -6   2 3725.73  234.58
   2   6   2 3650.43  235.28
  -2   2  -6 3662.83  235.38
  -2   6  -2 3593.94  235.68
   6  -4   2 1799.92  126.69
   6   4  -2 1987.30  128.19
  -2   6   4 1952.50  126.89
   2   6  -4 1941.11  128.19
   4  -2   6 1969.50  126.69
   2  -6   4 1969.60  126.89
   4   2  -6 1992.60  127.59
   2   6   4 1710.43  127.09
  -2  -6   4 1650.13  126.49
  -2   6  -4 1694.53  127.89
  -3   6   1 4901.31  312.47
   1   3  -6 5061.19  312.57
   3   6  -1 4694.33  312.77
  -3   6  -1 4396.06  312.57
  -1   3  -6 4202.68  312.37
   3   6   1 4423.26  312.57
   6  -3   3 2420.26  171.78
   3   3  -6 2300.97  172.68
   3  -6   3 2525.65  172.08
  -3   6   3 2359.16  172.28
   3   6  -3 2431.26  173.18
   3  -3   6 2371.56  171.88
  -3   3  -6 2830.32  173.18
  -3  -6   3 2635.74  171.78
  -3   6  -3 2799.52  173.38
   3   6   3 2716.33  172.78
   6  -5   3 3342.37  206.08
   6   5  -3 3066.49  207.38
   3   6  -5 3096.69  207.38
   5  -3   6 3132.99  205.98
   5   3  -6 3068.49  206.98
   3  -6   5 3169.38  206.08
  -3   6   5 3165.08  205.98
  -3   6  -5 2725.63  207.18
  -3  -6   5 2603.74  205.68
   0   4  -6 1103.29   75.89
   4  -6   0 1153.68   74.89
   0  -4   6 1073.09   74.69
   4   6   0 1048.00   76.09
  -4   6   0 1084.29   75.89
   2   4  -6 1969.30  126.19
  -4   6   2 1901.21  125.69
   2  -4   6 1899.51  124.99
   4   6  -2 1941.11  126.49
   4  -6   2 1933.01  125.09
   6  -2   4 1902.71  124.79
  -4   6  -2 1729.53  126.19
   4  -6  -2 1680.53  124.99
   4   6   2 1739.23  125.99
  -2   4  -6 1703.33  126.09
   4   6  -4 2913.41  193.88
   4  -4   6 2946.41  192.48
   4   4  -6 2923.11  193.58
   4  -6   4 2995.70  192.58
   6  -4   4 2984.70  192.48
   6   4  -4 2909.71  193.78
  -4   6   4 3069.69  192.88
  -4   4  -6 2609.34  193.68
  -4  -6   4 2521.45  192.08
  -4   6  -4 2538.95  193.68
   5  -6   1  940.21   69.79
   6  -1   5  939.31   69.49
   1   5  -6  934.31   71.19
   1  -5   6  966.80   69.79
  -5   6   1  930.81   70.79
   5   6  -1  908.61   71.19
  -1   5  -6 1090.09   71.39
  -1  -5   6 1121.99   69.69
  -5   6  -1 1131.99   71.59
   5  -6  -1 1123.79   69.99
   5   6   1 1122.89   71.49
   6   3  -5 3041.40  205.78
   6  -3   5 3149.58  204.58
   5  -6   3 3206.08  204.78
  -5   6   3 3138.09  205.28
   3   5  -6 3093.09  205.98
  -3   5   6 3086.59  204.08
   3  -5   6 3103.29  204.68
   5   6  -3 3096.19  206.18
  -5   6  -3 2664.03  205.88
  -3   5  -6 2632.04  205.78
   5   6  -5 3190.98  221.68
   6  -5   5 3338.47  220.18
  -5   5   6 3225.88  220.08
   5   5  -6 3267.67  221.58
  -5   6   5 3220.38  220.38
   5  -6   5 3333.07  220.28
   5  -5   6 3264.27  220.18
   6   5  -5 3164.08  221.58
   0  -6   6  664.33   46.50
   0   6  -6  683.73   48.70
   6  -6   0  685.43   46.70
   6   6   0  645.24   48.50
   6  -2   6  411.96   27.00
   6   6  -2  400.46   30.20
   2   6  -6  381.16   29.60
  -2   6   6  389.76   26.30
   2  -6   6  414.66   27.40
   6  -6   2  408.06   27.50
   6  -6  -2  344.57   27.40
  -2   6  -6  303.97   29.70
  -6   6  -2  319.27   30.10
   6   4  -6 2894.71  205.08
  -6   6   4 2996.70  204.38
   6  -6   4 3014.70  203.88
  -4   6   6 3105.89  203.68
   4  -6   6 3124.59  203.98
   4   6  -6 2914.31  205.28
   6   6  -4 3061.79  205.58
   6  -4   6 3117.29  203.88
  -6   6  -4 2970.40  205.58
  -4   6  -6 2881.61  205.48
   6   6  -6 7643.54  499.45
  -6   6   6 7601.04  497.95
  -6   6  -6 6858.81  499.35
   0   7   1   16.30    7.50
   1   0  -7   16.10    4.50
   0  -7  -1   17.20    5.50
   0  -7   1   16.40    5.30
   0   7  -1   13.90    7.70
  -1   0  -7   16.00    5.20
   7  -3   0  472.35   35.30
   3   0  -7  536.35   35.70
   0  -7   3  506.65   35.50
   0   7  -3  512.15   37.70
   0   7   3  506.75   36.40
   0   7   5 1757.72  120.19
   7  -5   0 1850.01  120.09
   0  -7   5 1745.33  119.99
   0   7  -5 1702.03  121.59
   0   1  -7   12.60    5.50
   0  -1  -7   16.20    3.90
   1   7   0   18.90    7.50
  -1   7   0   13.80    7.30
  -1  -7   0   14.90    4.70
   1  -7   0   20.50    6.00
   1  -7   2 1857.51  124.39
  -1   7   2 1899.61  125.09
  -1  -7  -2 1767.12  124.19
   2   1  -7 1867.11  124.69
   1   7  -2 1778.52  125.59
   1   7   2 1766.42  124.99
  -1   7  -2 1790.92  125.59
  -2   1  -7 1805.82  124.89
   7  -2  -1 1859.71  124.29
   2  -1  -7 1891.21  123.99
   1  -7  -2 1792.62  124.39
  -1  -7   2 1878.21  124.19
   7  -4   1 2827.32  191.28
  -1   7   4 2868.01  191.68
   1   7  -4 2848.01  192.88
   1  -7   4 2935.11  191.48
   4   1  -7 2870.21  191.88
   7  -4  -1 2537.25  191.18
  -1   7  -4 2866.61  192.88
   1   7   4 2857.51  191.88
  -1  -7   4 2818.32  191.28
   7  -6   1  609.34   41.20
   1   7  -6  618.84   43.70
   1  -7   6  619.54   41.20
  -1   7   6  596.64   40.70
  -1   7  -6  539.25   43.40
  -1  -7   6  560.94   41.00
   7  -6  -1  558.24   41.10
   1   2  -7 1811.52  123.09
  -2   7   1 1811.02  123.29
  -1  -2  -7 1723.63  122.19
   2  -7   1 1822.22  122.49
  -2  -7  -1 1800.52  122.29
   2   7  -1 1794.32  123.79
  -1   2  -7 1824.12  123.09
  -2  -7   1 1820.22  122.29
   2  -7  -1 1747.13  122.49
   2   7   1 1854.41  123.49
  -2   7  -1 1817.22  123.69
   2  -7   3 2234.68  145.99
   2   7  -3 2087.49  147.19
   7  -3   2 2134.59  145.69
   3   2  -7 2093.29  146.39
  -2   7   3 2193.98  146.39
   2   7  -5  314.47   25.20
   2  -7   5  299.07   22.30
  -2   7   5  289.37   21.90
   7  -5   2  293.17   22.10
   5   2  -7  296.77   23.60
  -3   7   0  508.15   37.10
   0   3  -7  521.55   36.70
   3   7   0  497.15   37.30
   3  -7   0  490.55   35.70
   2   3  -7 2203.08  147.49
   3   7  -2 2161.48  147.99
   7  -2   3 2170.38  146.39
  -3  -7  -2 2142.19  146.39
  -3   7   2 2121.79  147.29
   3  -7   2 2166.18  146.69
   4  -3   7  811.62   57.09
   3   7  -4  828.22   59.19
  -3   7   4  835.62   57.49
   7  -4   3  844.42   56.99
   3  -7   4  838.22   57.19
   4   3  -7  808.12   58.29
   6  -3   7 2022.20  142.99
   6   3  -7 1902.21  144.19
   3   7  -6 1998.40  144.89
  -3   7   6 1985.30  142.89
   7   6  -3 1983.70  144.79
   3  -7   6 2020.80  143.19
   7  -6   3 1980.10  143.09
  -3   7  -6 2417.86  145.29
   7  -6  -3 2419.96  143.39
  -3  -7   6 2335.87  142.99
   1   4  -7 2774.92  188.08
  -4   7   1 2858.21  188.08
   4   7  -1 2725.33  188.38
   4  -7   1 2799.02  187.18
   7  -1   4 2810.32  186.78
  -4   7  -1 2792.42  188.38
   4  -7  -1 2680.33  187.08
   4   7   1 2727.03  188.28
  -1   4  -7 2681.33  188.08
  -4   7   3  844.22   56.69
   4  -7   3  808.62   55.99
   3  -4   7  816.32   55.89
   3   4  -7  816.22   57.39
   7  -3   4  793.42   55.59
   4   7  -3  776.52   57.59
   4   7  -5  158.78   18.00
   5  -4   7  164.08   13.40
   7   5  -4  145.39   17.50
  -4   7   5  152.78   13.60
   5   4  -7  150.38   16.70
   7  -5   4  158.78   13.60
   4  -7   5  160.68   14.00
   0  -5   7 1748.63  118.69
   5   7   0 1725.43  120.19
   5  -7   0 1818.02  118.89
  -5   7   0 1761.92  120.09
   0   5  -7 1668.73  119.99
   7  -2   5  297.07   20.90
   5   7  -2  273.97   24.30
   2  -5   7  288.37   21.40
   5  -7   2  272.57   21.70
  -5   7   2  296.57   23.20
   2   5  -7  290.77   23.90
  -4   5   7  146.69   11.00
   7  -4   5  164.98   13.20
   4  -5   7  156.28   13.60
   7   4  -5  140.39   17.20
   5   7  -4  140.49   17.80
   5  -7   4  155.78   13.90
   4   5  -7  143.99   16.60
  -5   7   4  153.38   14.40
   7  -6   5  268.97   20.20
   5  -7   6  267.57   20.40
   7   6  -5  251.57   23.50
   6  -5   7  253.17   20.00
   6   5  -7  269.07   23.50
   5   7  -6  252.37   23.70
  -5   7   6  247.28   19.60
   1  -6   7  602.84   40.10
   6  -7   1  613.34   40.30
  -6   7   1  616.14   41.90
   1   6  -7  602.84   42.40
   6   7  -1  590.94   42.60
  -6   7  -1  527.05   42.20
  -1  -6   7  539.75   39.90
   6  -7  -1  558.44   40.30
   6   7   1  511.05   42.00
  -1   6  -7  543.25   42.20
   3   6  -7 1956.10  146.89
   3  -6   7 1961.10  145.39
   6  -7   3 2031.90  145.49
   6   7  -3 1955.00  146.99
   7  -3   6 2014.50  145.19
  -6   7   3 1991.30  146.19
  -3   6  -7 2456.95  147.49
  -6   7  -3 2469.05  147.69
   6  -7  -3 2441.76  145.69
   6   7  -5  257.77   23.90
   7  -5   6  250.07   19.70
   7   5  -6  245.98   23.00
   5  -6   7  258.27   19.80
   5   6  -7  242.58   23.10
   6  -7   5  258.37   20.20
  -5   6   7  257.37   18.60
  -6   7   5  257.87   20.40
  -7   7   0   16.00    9.00
   0  -7   7   10.20    5.60
   0   7  -7   12.60    8.90
   7  -7   0    9.00    5.80
   7  -7   2  370.06   25.90
  -7   7   2  358.26   27.80
   2   7  -7  367.66   29.10
   7   7  -2  345.37   29.20
  -2   7   7  336.67   24.20
   2  -7   7  366.76   25.90
  -2  -7   7  332.37   25.40
   7  -7  -2  346.47   25.80
  -7   7  -2  339.87   29.10
  -2   7  -7  325.77   29.00
   7   4  -7  964.50   70.19
  -7   7   4 1026.50   69.29
   7  -7   4 1013.00   68.49
  -4   7   7 1021.30   67.69
   4  -7   7  993.00   68.49
   4   7  -7 1023.20   70.69
   7   7  -4  997.20   70.79
   7  -4   7 1060.69   68.39
  -7   7  -4  816.32   70.59
   7   7  -6  843.42   61.69
  -7   6   7  830.72   58.89
   7   6  -7  861.91   61.49
  -7   7   6  814.02   59.19
   7  -7   6  856.71   58.99
  -6   7   7  870.81   58.69
   6  -7   7  834.62   58.99
   6   7  -7  860.81   61.69
   7  -6   7  856.91   58.99
   0   0  -8 8896.51  600.74
   8  -2   0 2550.74  174.98
   0   8   2 2677.73  176.18
   2   0  -8 2556.84  175.28
   0   8  -2 2655.93  176.78
   0  -8   2 2658.53  175.28
   0  -8  -2 2530.35  175.28
  -2   0  -8 2473.55  175.68
   4   0  -8  511.45   35.90
   0   8   4  502.95   36.30
   0   8  -4  478.15   37.80
   0  -8   4  512.15   35.60
   8  -4   0  512.75   35.50
   0   8  -6   57.49   11.20
   0   8   6   58.39    8.20
   8  -6   0   53.79    9.10
   0  -8   6   51.59    8.60
   1   8  -1 5308.37  345.17
  -1   8   1 5217.18  344.87
   1   1  -8 5316.57  344.37
  -1  -1  -8 5125.99  343.97
  -1   1  -8 4747.92  344.27
   1  -1  -8 4876.01  343.67
   1   8   1 4959.60  344.87
  -1   8  -1 5163.28  345.17
   1  -8  -3  629.84   43.50
  -1   8  -3  627.84   45.70
  -1  -8   3  650.73   43.30
  -3   1  -8  622.74   44.50
   8  -3  -1  593.14   43.00
   1   8   3  608.44   44.40
   1   8  -5  482.95   38.00
   1  -8   5  487.95   35.30
   5   1  -8  465.35   36.00
  -1   8   5  464.65   35.40
   8  -5   1  471.95   35.10
   8  -5  -1  516.95   35.20
  -1  -8   5  512.95   35.00
   1   8   5  533.95   35.80
  -1   8  -5  537.45   38.20
   1   8  -7 2217.98  160.18
   8  -7   1 2237.08  158.38
   1  -8   7 2170.48  158.28
  -1   8   7 2052.19  157.88
   8  -7  -1 2598.04  158.58
  -1   8  -7 2512.95  160.58
  -1  -8   7 2530.55  158.38
  -2   8   0 2630.94  179.58
   0   2  -8 2597.34  179.08
   2  -8   0 2711.93  178.58
   2   8   0 2605.64  179.68
  -2  -8   0 2661.13  178.28
   0  -2  -8 2588.74  177.98
   2  -8   2  480.15   33.50
   8  -2   2  457.45   32.60
   4   2  -8 1408.46  100.29
   8  -4   2 1422.66   99.39
  -2   8   4 1417.16   99.99
   2   8  -4 1339.97  101.29
   2  -8   4 1396.36   99.59
  -2  -8   4 1538.35   99.49
   2   8   4 1547.05  100.49
   8  -4  -2 1505.15   99.49
  -4   2  -8 1472.05  100.89
  -2   8  -4 1547.95  101.49
   6   2  -8  892.91   67.69
   2  -8   6  931.21   66.69
   2   8  -6  927.01   68.99
   8  -6   2  981.00   66.69
  -2   8   6  924.11   66.49
  -2  -8   6 1018.20   66.49
  -2   8  -6  976.60   68.89
   8  -6  -2 1079.39   66.69
  -1  -3  -8  202.18   16.00
  -3   8   1  223.28   19.40
   3   8  -1  212.88   20.20
  -3  -8  -1  231.98   16.50
   1   3  -8  217.58   19.00
   3  -8   1  227.98   17.60
   3   3  -8   19.30    7.20
   3   8  -3   11.50    8.90
  -3   8   3   20.00    6.60
  -3  -8  -3   23.70    5.00
   3  -8   3   33.20    6.60
   8  -3   3   25.00    4.80
  -3  -8   3   38.20    6.30
   3   8   3   39.30    7.90
  -3   3  -8   38.30    8.70
  -3   8  -3   37.20    9.20
   8  -5   3  545.95   39.10
  -3   8   5  569.04   39.40
   3  -8   5  551.64   39.40
   5   3  -8  561.74   40.70
   3   8  -5  550.04   42.10
   8   7  -3  241.68   23.90
   3   8  -7  242.28   24.00
   3  -8   7  250.07   19.50
   8  -7   3  239.68   19.50
  -3   8   7  240.38   17.80
   7   3  -8  240.28   21.80
   4   8   0  478.05   37.40
  -4  -8   0  506.55   34.50
   4  -8   0  521.95   35.40
  -4   8   0  492.85   37.00
   0   4  -8  476.15   36.70
  -4  -8  -2 1354.96   98.09
   4   8  -2 1368.76  100.19
   2   4  -8 1345.67   99.49
  -4   8   2 1360.76   99.39
   8  -2   4 1416.16   98.09
   4  -8   2 1396.36   98.59
  -4   8  -2 1517.25  100.29
   4   8   2 1522.55   99.99
  -2   4  -8 1464.75   99.89
  -4  -8   2 1558.44   98.09
   4  -8  -2 1565.44   98.69
   4  -4   8 2552.14  174.68
   8  -4   4 2554.14  174.58
   4  -8   4 2598.04  174.88
   4   4  -8 2380.26  175.68
  -4   8   4 2616.54  175.28
   4   8  -4 2527.95  176.48
  -4   4  -8 2600.64  176.18
  -4  -8   4 2608.94  174.38
  -4   8  -4 2737.43  176.68
  -4   8   6 1007.10   69.89
   4   8  -6  972.80   72.19
   6   4  -8  968.10   71.49
   4  -8   6 1027.60   70.09
   6  -4   8 1004.00   69.79
   8   6  -4  970.90   72.29
   8  -6   4 1009.80   69.89
  -6   4  -8 1091.89   72.49
  -4   8  -6 1086.39   72.69
  -4  -8   6 1009.90   69.49
   1   5  -8  468.25   37.40
   5  -8   1  498.05   35.70
   5   8  -1  465.45   38.10
  -5   8   1  460.45   37.20
   8  -1   5  462.75   34.80
  -5   8  -1  521.25   37.90
  -1   5  -8  530.85   37.70
  -5  -8   1  538.55   34.80
   5   8   1  520.75   37.90
   5  -8  -1  539.55   35.80
   3  -5   8  554.24   38.70
  -5  -8  -3  521.45   38.10
   3   5  -8  536.75   40.90
   5  -8   3  579.24   39.10
  -5   8   3  560.54   40.00
   5   8  -3  536.55   41.50
   8  -3   5  561.74   38.50
   5  -5   8 1216.68   83.19
   5   5  -8 1152.68   84.89
   5   8  -5 1218.78   85.49
   5  -8   5 1219.18   83.39
  -5   8   5 1215.28   83.59
   8  -5   5 1251.77   83.19
  -5   5  -8 1236.28   85.39
  -5   8  -5 1188.28   85.59
   7  -5   8  997.50   68.59
   8  -7   5  992.30   68.69
   7   5  -8  999.70   70.79
   5   8  -7 1005.80   71.29
  -8   7   5 1000.50   69.49
   5  -8   7  986.00   68.79
  -5   8   7 1002.30   68.29
   8   7  -5  954.10   71.29
   6  -8   0   64.99    9.90
  -6   8   0   58.49   10.00
   6   8   0   50.29   10.40
   0   6  -8   58.09   11.00
   6   8  -2  951.00   69.79
  -6   8   2  927.11   68.69
   6  -8   2  966.90   67.59
   8  -2   6  989.50   67.09
   2   6  -8  906.71   69.19
   2  -6   8  920.91   67.39
   6  -8  -2 1062.99   67.69
  -6   8  -2 1082.39   69.89
  -2   6  -8 1006.50   69.59
  -6  -8  -4  938.31   68.39
   8  -4   6 1026.80   68.99
   4  -6   8  989.60   69.19
   4   6  -8  968.30   71.09
  -6   8   4  974.30   69.89
   6  -8   4  982.30   69.19
   6   8  -4  995.70   71.59
  -4   6  -8 1052.29   71.59
  -6   8  -4 1085.09   71.89
   6  -8  -4 1021.00   69.39
   6   8  -6  390.26   33.20
   8  -6   6  402.36   28.90
  -6   6   8  394.96   27.70
   6   6  -8  390.46   32.10
  -6   8   6  399.86   29.00
   6  -8   6  402.86   29.30
   6  -6   8  354.56   28.80
   8   6  -6  403.06   32.60
   7  -8   1 2153.58  158.88
   7   8  -1 2162.68  160.58
  -7   8   1 2223.88  160.18
   1  -7   8 2120.09  158.68
   1   7  -8 2203.58  160.48
   7  -8  -1 2596.14  159.08
  -1   7  -8 2565.24  160.88
  -7   8  -1 2684.93  160.98
   3  -7   8  236.18   19.40
   7  -8   3  247.68   19.50
   7   8  -3  247.68   23.60
   3   7  -8  243.18   23.40
  -7   8   3  242.48   21.20
   8  -3   7  241.18   18.70
   8  -5   7  980.90   68.89
  -5   7   8 1011.10   67.89
   5  -7   8  964.40   69.19
   5   7  -8 1050.79   71.69
   7  -8   5  999.80   69.19
   7   8  -5  989.80   71.79
  -7   8   5  986.60   69.69
   8   5  -7 1010.20   71.39
   8   7  -7 3008.20  206.88
  -8   7   7 2798.62  204.88
   8  -7   7 3085.29  204.78
  -7   7   8 3049.50  204.48
   7   7  -8 3110.79  206.98
  -7   8   7 3107.99  204.88
   7  -8   7 2948.70  204.68
   7  -7   8 3111.09  204.78
   7   8  -7 3136.79  207.18
  -7   8  -7 2983.60  207.28
  -7   7  -8 2856.71  206.98
  -8   7  -7 2971.10  207.38
  -8   8   0  699.23   50.69
   0  -8   8  635.74   48.10
   0   8  -8  734.03   51.19
   8  -8   0  694.63   48.50
   8  -8   2 1584.54  109.19
  -8   8   2 1610.64  110.69
   2   8  -8 1637.24  111.59
   2  -8   8 1583.64  109.19
   8   8  -2 1570.84  111.59
   8   8  -4 3159.48  222.08
  -8   8   4 3259.47  220.88
   8  -8   4 3216.98  219.98
   4  -8   8 3144.99  219.98
   4   8  -8 3294.87  222.08
   8  -4   8 3374.26  219.88
   8  -6   8  962.50   66.89
   8   6  -8  981.40   69.59
  -8   8   6  959.00   67.59
   8  -8   6  974.70   66.99
  -6   8   8  922.71   66.09
   6  -8   8  954.40   66.99
   6   8  -8  959.20   69.89
   8   8  -6  957.70   70.09
  -8   6  -8  990.20   70.39
  -8   8  -6 1001.00   70.69
  -6   8  -8  940.41   70.09
   8   8  -8  242.38   26.90
  -8   8   8  261.67   20.50
   8  -8   8  258.77   21.70
  -1   0  -9 4273.17  296.27
   0  -9  -1 4545.04  296.17
   0  -9   1 4512.15  296.07
   0   9  -1 4342.97  297.47
   0   9   1 4306.97  297.17
   1   0  -9 4282.07  296.07
   0   9   3   99.09   12.50
   3   0  -9   85.79    9.70
   0   9  -3   76.89   12.50
   0  -9   3   95.29   10.40
   9  -3   0   97.59    8.90
   0  -9  -3   90.59   10.30
  -3   0  -9   74.49   11.20
   0   9  -5 1789.02  121.99
   0  -9   5 1754.82  119.89
   9  -5   0 1761.32  119.69
   0   9   5 1731.13  120.29
   0   9   7  109.79   10.60
   9  -7   0  102.39   11.70
   0  -9   7   98.49   11.70
   0   9  -7  102.59   17.80
   0   1  -9 4288.67  292.87
   0  -1  -9 4292.57  292.37
  -1  -9   0 4452.35  292.47
  -1   9   0 4248.08  293.77
   1   9   0 4341.17  293.77
  -1   9  -2 1170.58   82.59
   2  -1  -9 1182.68   80.19
   9  -6   1  540.65   42.80
   1  -9   6  582.84   43.00
  -1   9   6  563.14   42.90
   1   9  -6  565.94   45.90
   1   9   6  653.23   43.40
  -1   9  -6  670.73   46.30
   9  -6  -1  650.83   43.00
  -1  -9   6  656.63   42.90
  -9   8   1  482.35   38.60
   1   9  -8  510.15   39.90
   1  -9   8  494.05   35.90
   9  -8   1  505.15   35.90
   9  -8  -1  487.65   35.90
  -1   9  -8  497.15   39.80
  -1  -9   8  484.75   35.60
  -9   8  -1  509.15   39.30
   2   9   1 1088.39   78.39
  -1   2  -9 1100.99   77.69
   2  -9  -1 1145.09   77.09
   9  -1  -2 1062.39   76.39
  -2  -9   1 1183.28   76.79
   1  -2  -9 1164.58   76.09
  -2   9  -1 1105.39   78.69
   9  -3  -2   45.80    7.60
   2   9   3   45.60    8.40
  -3   2  -9   58.09    9.30
   2  -9  -3   43.00    7.30
  -2  -9   3   50.79    7.80
  -2   9  -3   56.89   11.20
   2  -9   7 1025.60   75.99
   2   9  -7 1057.39   78.79
  -2   9   7 1020.60   75.69
   9  -7   2 1010.10   75.99
   9  -7  -2 1267.37   76.29
  -2  -9   7 1244.78   75.99
   3  -9   0   91.79   10.40
  -3  -9   0   92.49    9.00
   3   9   0   83.59   14.40
  -3   9   0   81.39   13.70
   0   3  -9   76.49   12.40
  -3   9   2  146.69   15.40
   3   9  -2  132.29   17.80
  -3  -9  -2  147.49   12.40
   2   3  -9  132.69   15.00
   3  -9   2  157.08   13.90
   9  -2   3  146.19   11.90
   3   9  -4  600.24   44.40
  -3   9   4  626.34   42.20
   3  -9   4  615.84   41.60
  -3  -9  -4  590.74   41.00
   9  -4   3  629.94   41.10
   4   3  -9  585.04   42.60
  -3  -9   4  569.24   40.90
   9  -4  -3  543.85   41.00
   3   9   4  569.74   42.60
  -3   9  -4  563.14   43.80
  -4   3  -9  550.84   43.10
  -3   9   6  963.30   68.39
   3   9  -6 1051.99   71.39
   3  -9   6  887.21   68.39
   6   3  -9  979.30   69.79
   9  -6   3  962.30   68.29
   9  -6  -3 1034.30   68.49
  -3  -9   6 1016.50   68.09
  -3   9  -6 1028.00   71.29
  -6   3  -9 1000.40   70.69
  -9   8   3   29.20   10.40
   9  -8   3   39.10    7.60
   3  -9   8   39.40    8.20
   3   9  -8   47.90   12.30
  -3   9   8   37.20    5.20
  -3   9  -8   20.10   11.80
  -9   8  -3   33.80   12.70
   9  -8  -3   31.90    8.30
  -1  -4  -9  386.36   27.60
  -4  -9  -1  401.96   28.30
   9  -1   4  403.26   28.10
   4  -9   1  420.16   29.40
  -4   9   1  403.56   31.10
   4   9  -1  385.76   31.70
   1   4  -9  393.26   30.80
  -4  -9  -3  594.14   40.80
   4   9  -3  598.94   44.20
  -4   9   3  606.24   42.60
   9  -3   4  614.54   40.90
   4  -9   3  616.24   41.60
   3   4  -9  569.54   43.00
  -4  -9   3  571.44   40.70
  -4   9  -3  544.25   43.70
   4   9   3  562.94   43.00
  -3   4  -9  575.64   43.30
   4  -9  -3  590.74   41.60
   4   9  -5   50.79   12.00
  -4   9   5   58.19    8.40
   9  -5   4   50.29    9.00
   5   4  -9   51.69   10.20
   4  -9   5   55.39    9.90
  -5   4  -9   96.39   15.20
  -4   9  -5   98.59   16.00
   4  -9   7  457.15   33.90
   4   9  -7  461.75   37.70
  -4   9   7  447.16   32.90
   7   4  -9  448.66   36.00
   9  -7   4  458.75   33.60
   9  -7  -4  475.75   33.80
  -9   7  -4  488.65   38.30
  -7   4  -9  469.85   37.40
  -4   9  -7  457.75   37.80
  -5   9   0 1704.83  120.09
   5  -9   0 1796.52  118.69
  -5  -9   0 1750.52  117.99
   5   9   0 1729.53  120.39
   0   5  -9 1709.23  119.99
  -5  -9  -2 1056.99   72.19
   5  -9   2 1059.79   72.99
   2   5  -9 1015.10   74.39
   9  -2   5 1071.89   72.39
   5   9  -2 1086.29   75.29
  -5   9   2 1055.79   74.09
   9  -4   5   51.69    8.70
   5  -9   4   63.69    8.90
   5   9  -4   43.80   11.50
  -5   9   4   55.99    8.90
  -5  -9  -4   47.50    7.50
   4   5  -9   46.70   10.30
  -5   9  -4   98.89   16.70
  -4   5  -9   90.69   15.20
   5  -9   6 1349.66   90.09
   5   9  -6 1343.07   92.59
  -5   9   6 1335.47   90.09
   6   5  -9 1306.67   91.79
   6  -5   9 1326.27   89.89
  -6   5   9 1273.27   88.69
   9  -6   5 1368.86   89.89
  -5   9  -6 1199.08   92.29
  -6   5  -9 1268.67   92.29
   8  -5   9 1970.70  137.89
  -9   8   5 1961.50  138.99
  -5   9   8 1912.31  137.29
   9   8  -5 1973.90  140.69
   5   9  -8 2007.90  140.59
   8   5  -9 1898.01  139.89
   9  -8   5 1946.81  138.09
   5  -9   8 1902.31  138.09
  -9   8  -5 2277.27  141.39
  -8   5  -9 2258.57  141.19
   9  -8  -5 2054.99  138.19
  -5   9  -8 2141.09  140.99
   6   9  -1  556.44   45.20
  -6   9   1  561.84   44.40
   1   6  -9  545.35   44.70
   6  -9   1  554.54   42.60
  -6  -9  -1  559.94   41.50
  -1   6  -9  656.33   45.10
   6  -9  -1  659.93   42.90
  -6   9  -1  654.33   45.30
   6   9   1  639.24   45.20
  -6  -9   1  643.84   41.50
  -6   9   3  970.40   67.79
   3   6  -9  946.01   68.59
   3  -6   9  832.52   66.29
   6  -9   3  979.70   66.69
  -6  -9  -3  995.00   65.79
   9  -3   6  994.50   66.19
   6   9  -3  948.01   69.19
   6  -9  -3  938.41   66.59
  -6   9  -3 1047.00   69.39
  -6  -9   3  952.60   65.69
  -3   6  -9  984.10   68.79
   6  -9   5 1301.67   88.79
   5   6  -9 1333.27   90.69
   9  -5   6 1321.77   88.39
  -6   9   5 1296.17   89.19
   6   9  -5 1317.47   91.49
   5  -6   9 1271.87   88.59
  -5   6  -9 1226.08   90.89
  -6   9  -5 1238.38   91.29
  -7   6   9  220.58   16.90
   6  -9   7  218.78   19.70
  -6   9   7  218.78   18.40
   9  -7   6  232.58   19.30
   6   9  -7  238.18   25.20
   7  -6   9  218.58   19.10
   7   6  -9  242.68   23.60
   9   7  -6  231.78   24.60
   7   9   0  111.89   17.50
   7  -9   0   97.09   12.50
  -7   9   0  103.59   16.00
   0   7  -9  110.49   16.50
  -7   9   2 1037.00   80.29
   2  -7   9 1041.60   78.79
   7   9  -2 1012.10   81.09
   2   7  -9 1046.00   80.99
   7  -9   2 1031.40   78.99
  -2   7  -9 1295.77   81.59
   7  -9  -2 1270.37   79.19
  -7  -9   2 1253.37   77.99
  -7   9  -2 1333.07   81.69
   4   7  -9  443.66   36.20
  -7  -9  -4  422.26   31.50
   7  -9   4  457.95   33.30
  -7   9   4  432.76   34.20
   9  -4   7  460.25   32.50
   4  -7   9  437.56   33.00
   7   9  -4  470.85   37.00
  -4   7  -9  462.65   36.70
  -7   9  -4  477.35   37.00
   7  -9  -4  459.95   33.40
   7   9  -6  226.48   24.90
   9  -6   7  223.58   19.00
   6   7  -9  254.97   24.40
  -7   9   6  216.98   19.50
   7  -9   6  216.28   19.70
   6  -7   9  230.08   19.20
   7   9  -8 1607.24  108.59
  -9   8   7 1535.95  105.79
   9  -8   7 1500.95  105.29
   8  -7   9 1489.35  105.29
   8   7  -9 1557.04  108.09
  -7   9   8 1522.05  104.99
   9   8  -7 1592.04  108.39
  -8   7   9 1503.65  104.69
   7  -9   8 1500.75  105.49
   1   8  -9  512.55   38.80
   1  -8   9  475.35   34.90
  -8   9   1  489.05   37.90
   8   9  -1  488.75   38.90
   8  -9   1  453.55   35.20
  -8   9  -1  498.05   38.60
   8  -9  -1  486.75   35.30
  -1   8  -9  487.55   38.50
   3   8  -9   39.60   11.80
   8  -9   3   46.80    8.30
   8   9  -3   37.10   12.30
   3  -8   9   48.10    8.30
  -8   9   3   47.20   10.60
  -3   8  -9   23.60   11.20
  -8   9  -3   33.70   12.00
   8  -9  -3   20.60    7.80
   5   8  -9 1974.80  140.69
   5  -8   9 1933.71  138.39
   8  -9   5 1916.91  138.39
   8   9  -5 1917.51  140.79
   9  -5   8 1956.80  138.19
  -8   9   5 1957.50  139.19
  -8  -9  -5 1888.51  137.39
   8  -9  -5 2072.19  138.59
  -9   5  -8 2284.07  141.69
  -5   8  -9 2139.99  141.19
  -8   9  -5 2293.17  141.69
   9   7  -8 1558.04  106.29
   8  -9   7 1470.45  103.39
   9  -7   8 1491.95  103.19
   7  -8   9 1483.95  103.39
  -9   7   8 1479.75  103.39
  -7   8   9 1514.95  102.29
  -8   9   7 1487.85  103.59
   7   8  -9 1545.15  106.29
  -9   9   0  204.38   22.20
   0  -9   9  179.28   16.90
   0   9  -9  194.88   22.90
   9  -9   0  194.98   17.60
   9  -9   2 2288.07  165.88
  -9   9   2 2270.67  167.38
   2   9  -9 2321.07  168.18
   2  -9   9 2227.78  165.78
  -2   9  -9 2612.34  168.58
   9  -9  -2 2671.13  166.18
  -9   9  -2 2678.83  168.68
   9  -9   4 1309.77   87.19
  -9   9   4 1303.47   88.49
   4   9  -9 1362.86   90.39
   4  -9   9 1266.57   87.19
   9   9  -4 1259.47   90.09
  -4   9  -9 1219.08   90.09
  -9   9  -4 1185.88   90.09
   9  -9  -4 1180.78   87.09
  -9  -9  -6 1154.18   82.59
   9  -6   9 1242.58   83.89
   9   6  -9 1277.47   86.79
  -9   9   6 1203.68   84.69
   9  -9   6 1177.08   83.99
   6  -9   9 1194.28   83.99
   6   9  -9 1275.97   87.29
   9   9  -6 1191.98   87.29
   9   9  -8 1810.12  127.59
  -9   8   9 1769.22  123.89
   9   8  -9 1833.22  127.39
  -9   9   8 1741.83  124.29
   9  -9   8 1731.13  124.29
  -8   9   9 1782.22  123.59
   8  -9   9 1714.13  124.39
   8   9  -9 1838.22  127.59
   9  -8   9 1759.22  124.29
  -8   9  -9 1932.71  128.39
  -9   9  -8 1895.91  128.29
  -9   8  -9 1979.40  128.59
   0 -10   0 2027.50  132.09
   0   0 -10 1908.11  132.19
   0  10   0 1882.41  133.49
   0 -10  -2  198.48   16.40
   0 -10   2  200.58   16.60
   0  10  -2  195.38   20.30
   0  10   2  207.58   19.20
   2   0 -10  205.88   16.00
  10  -2   0  199.38   15.20
  -2   0 -10  194.08   17.10
  10  -4   0   64.99    8.90
   4   0 -10   79.69    9.60
  -4   0 -10   72.89   11.90
   0 -10  -4   58.59   10.30
   0 -10   4   77.09   10.30
   0  10  -4   98.69   13.90
   0  10   4   74.59   12.10
   0  10   6 1164.38   87.79
   0  10  -6 1346.67   90.39
  10  -6   0 1304.77   87.39
   0 -10   6 1286.27   87.49
  10  -8   0 1625.24  111.99
   0  10  -8 1669.63  114.99
 -10   8   0 1681.73  114.49
   0 -10   8 1570.94  111.89
  -1  -1 -10 1177.88   70.59
   1   1 -10 1170.88   70.99
  -1  10   1 1232.08   72.59
   1  10  -1 1219.48   73.09
   1  10   1  912.01   71.99
  -1   1 -10  884.01   70.89
   1  -1 -10  900.21   69.99
  -1 -10   1  946.71   70.39
  -1  10  -1  907.01   72.19
   1 -10  -1  912.61   70.49
   1 -10   3 2230.38  156.18
  -3  -1 -10 1993.50  156.28
  10  -3   1 2206.88  155.78
  -1  10   3 2167.48  156.98
  -1 -10  -3 2148.29  155.98
   3   1 -10 2135.89  156.38
   1  10  -3 2218.38  157.98
  -1 -10   3 2463.05  156.08
   1 -10  -3 2504.75  156.28
  -1  10  -3 2498.25  158.28
  -3   1 -10 2296.67  156.88
   1  10   3 2503.15  157.38
  10  -3  -1 2499.85  155.88
  10  -5  -1  102.59   10.90
  -5   1 -10   91.79   14.50
  -1  10  -5  101.39   17.30
   1  10   5   89.39   12.70
  -1 -10   5  100.49   11.20
  10  -7   1  310.47   23.60
  -1  10   7  300.07   23.00
   1  10  -7  309.47   28.50
   1 -10   7  299.47   23.80
   1  10  -9 1642.44  115.09
   1 -10   9 1583.44  112.09
  10  -9   1 1579.84  112.19
 -10   9   1 1660.73  114.39
 -10   9  -1 1695.13  114.89
  -1 -10   9 1543.15  111.99
  -1  10  -9 1766.02  115.49
  10  -9  -1 1632.74  112.19
   0   2 -10  193.28   17.40
  -2 -10   0  199.18   15.90
   2 -10   0  194.58   16.40
   2  10   0  197.48   19.70
   0  -2 -10  194.58   14.60
  -2  10   0  193.88   19.60
  -2 -10  -2 5068.19  320.77
   2  10  -2 4800.02  322.67
   2   2 -10 4611.14  321.47
  10  -2   2 4953.10  320.57
  -2  -2 -10 4756.42  320.87
  -2  10   2 5050.90  322.17
  -2  10  -2 4645.44  322.47
  10  -2  -2 4400.96  320.47
  -2   2 -10 4451.45  321.57
  -2 -10   2 4833.52  320.77
   2  10   2 4597.94  321.97
   2  10  -4    3.60   11.40
  -2 -10   4   33.50    6.10
  -4   2 -10   38.40    9.50
   2  10   4   34.90    8.10
  10  -4  -2   45.60    6.50
   2 -10  -4   30.40    7.10
  -2  10  -4   26.90   10.50
  -2  10   6  782.52   57.19
   2 -10   6  794.82   57.19
   2  10  -6  780.02   60.09
   6   2 -10  767.92   58.09
  10  -6   2  780.62   56.79
  -6   2 -10  857.51   59.39
  -2 -10   6  802.72   56.69
   2  10   6  864.11   57.89
  -2  10  -6  922.91   60.59
  10  -6  -2  841.52   56.99
   2  10  -8   46.10   13.20
   2 -10   8   40.30    8.50
  -2  10   8   51.29    7.10
  10  -8   2   51.59    8.30
  10  -1   3 2194.48  156.98
   1   3 -10 2122.39  158.28
  -3  10   1 2268.67  158.88
  -1  -3 -10 2168.28  156.88
   3 -10   1 2238.78  157.58
  -3 -10  -1 2232.88  157.28
   3  10  -1 2150.28  159.18
   3  10   1 2480.45  159.28
  -1   3 -10 2405.46  158.58
  -3  10  -1 2437.26  159.38
  -3 -10   1 2595.34  157.38
   3 -10  -1 2525.45  157.78
   3   3 -10   42.40    8.70
   3 -10   3   53.89    8.20
  -3 -10  -3   41.30    6.20
  10  -3   3   41.80    7.40
   3  10  -3   44.70   11.40
  -3  10   3   41.10    8.50
  -3   3 -10   80.69   13.10
  10  -5   3 1132.79   89.39
   3  10  -5 1117.29   91.99
   3 -10   5 1114.79   89.69
  -3 -10   5 1485.15   89.59
  -5   3 -10 1510.95   91.89
   3  10   5 1493.05   91.09
   3  10  -7  565.54   41.90
  -3  10   7  524.15   36.80
  10  -7   3  464.45   37.00
   7   3 -10  507.65   39.20
   3 -10   7  530.15   37.60
 -10   9   3 2589.34  172.88
   3  10  -9 2662.53  174.18
  10  -9   3 2482.35  171.18
   3 -10   9 2488.35  171.18
  -3  10  -9 2227.08  173.58
  10  -9  -3 2625.24  171.28
  -4 -10   0   65.79    8.20
  10   0   4   71.49    6.90
   4  10   0   62.79   11.30
   4 -10   0   61.09   10.80
  -4  10   0   90.09   12.40
   0   4 -10   65.89   10.30
   4  10  -2    5.40   10.10
  -4  10   2    1.20    7.70
  -2  -4 -10   10.10    4.20
   2   4 -10   15.90    8.30
   4 -10   2   11.30    6.70
  -4 -10  -2    6.70    4.70
  10  -2   4    6.70    4.30
   4  10   2   34.70    9.20
  -4  10  -2   39.80   11.50
  -4 -10  -4  941.51   69.19
   4 -10   4 1017.80   69.89
   4  10  -4 1006.90   72.59
   4   4 -10  959.60   70.99
  -4  10   4 1028.30   70.79
  10  -4   4  996.30   69.39
  -4  10  -4 1109.59   72.79
   4  10   4 1021.70   71.29
  -4   4 -10 1011.60   71.59
   4 -10  -4 1004.90   69.99
  -4 -10   4 1010.00   69.19
  10  -6   4  446.56   34.90
   4 -10   6  418.16   35.40
   6   4 -10  445.76   37.10
   4  10  -6  436.36   38.80
  -4  10   6  444.66   35.20
  10  -6  -4  547.15   35.30
  -4 -10   6  547.15   34.60
  -6   4 -10  522.25   38.60
  -4  10  -6  566.44   40.00
  10  -8   4  234.98   19.60
 -10   8   4  219.98   22.20
   4  10  -8  246.58   26.40
  -4  10   8  213.88   17.10
   4 -10   8  229.38   20.20
   5  10  -1  234.08   22.90
   1   5 -10  212.88   21.20
  -5  10   1  226.58   21.40
  -5 -10  -1  234.38   17.00
   5 -10   1  207.58   18.50
  10  -1   5  232.18   16.90
   5  10  -3 1139.29   84.89
   3   5 -10 1066.99   83.79
  -5 -10  -3 1140.19   81.69
  -5  10   3 1104.59   83.39
   5 -10   3 1083.89   82.29
  10  -3   5 1125.69   81.79
  -3   5 -10 1460.15   84.69
   5 -10  -3 1458.65   82.69
  -5 -10  -5 1375.96   95.59
  -5  10   5 1399.06   96.79
   5 -10   5 1388.76   96.29
   5   5 -10 1369.56   97.79
  10  -5   5 1417.36   95.89
   5  10  -5 1346.47   98.69
  -5   5 -10 1459.95   98.49
  -5  10  -5 1487.25   98.99
   5 -10  -5 1407.96   96.39
  -5 -10   5 1357.36   95.49
   5 -10   7  141.29   15.30
  10  -7   5  151.98   14.90
   7   5 -10  143.19   19.00
   5  10  -7  158.58   22.10
  -5  10   7  150.38   14.10
  10  -9   5 4578.54  310.37
   5 -10   9 4655.83  310.47
 -10   9   5 4579.04  311.57
   5  10  -9 4606.94  312.97
  -9   5 -10 4654.43  313.07
 -10   9  -5 4758.42  313.47
  10  -9  -5 4345.77  310.37
  -5  10  -9 4452.55  312.97
   0   6 -10 1248.78   90.19
  -6  10   0 1310.77   90.39
   6  10   0 1277.57   90.69
   6 -10   0 1277.47   88.59
  -6 -10   0 1315.27   87.59
   6  10  -2  783.62   59.79
  10  -2   6  784.82   56.29
   2   6 -10  780.22   59.09
  -6 -10  -2  787.32   56.09
  -6  10   2  766.92   58.59
   6 -10   2  767.72   57.19
  -6 -10   2  835.32   56.09
  -6  10  -2  893.91   59.89
   6  10   2  907.61   59.69
  -2   6 -10  855.71   59.49
   6 -10  -2  836.82   57.29
  10  -4   6  447.76   34.20
  -6  10   4  449.76   36.00
   4   6 -10  420.26   37.40
   6  10  -4  441.86   38.80
  -6 -10  -4  407.26   33.50
   6 -10   4  430.16   34.90
  -6  10  -4  562.94   39.20
  -6 -10   4  535.35   33.70
   6 -10  -4  556.94   35.50
  -4   6 -10  554.14   38.40
   6   6 -10 2248.38  153.88
   6  -6  10 2231.58  151.88
  -6  10   6 2274.47  152.38
   6  10  -6 2229.78  154.58
  10  -6   6 2184.38  151.68
   6 -10   6 2198.08  151.98
   8   6 -10  827.32   58.79
 -10   8   6  780.32   56.79
   6 -10   8  772.72   55.99
   6  10  -8  834.42   60.19
  -6  10   8  783.82   54.89
  -8   6  10  791.12   54.19
   8  -6  10  787.42   55.69
  10  -8   6  778.02   55.69
  10  -8  -6  718.83   55.89
 -10   8  -6  811.02   60.09
  -8   6 -10  799.52   60.19
  -6  10  -8  798.22   59.69
   7 -10  -1  177.98   16.90
  -7 -10   1  166.98   13.30
  -1   7 -10  197.38   21.00
   7  10   1  174.88   21.10
  -7  10  -1  178.38   20.90
  -7 -10  -3  513.95   36.10
   7 -10   3  514.45   37.90
   7  10  -3  548.35   41.50
  10  -3   7  515.85   36.90
   3   7 -10  506.55   40.70
  -7  10   3  522.45   39.50
   7  10  -5  135.49   22.30
   5  -7  10  146.79   15.20
  -7 -10  -5  154.58   12.60
   7 -10   5  143.19   15.30
  10  -5   7  159.98   14.40
   5   7 -10  140.99   20.00
  -7  10   5  147.09   16.30
   7   7 -10  217.88   24.30
   7  10  -7  200.98   25.70
   7 -10   7  215.08   19.10
   7  -7  10  201.98   19.10
  -7  10   7  213.68   18.40
  10  -7   7  195.38   18.50
 -10  -9  -7 1225.08   86.29
  10  -9   7 1288.27   87.59
  -7  10   9 1244.28   86.39
   7 -10   9 1242.88   87.59
   9   7 -10 1311.67   90.79
   9  -7  10 1272.67   87.49
 -10   9   7 1193.98   88.09
   7  10  -9 1289.87   91.49
  10   9  -7 1329.67   91.39
  -9   7  10 1254.57   86.49
  -8  10   0 1586.54  112.09
   0   8 -10 1654.63  112.49
   8  10   0 1607.84  112.49
   8 -10   0 1570.14  110.09
   8  10  -2   63.89   13.90
  -8  10   2   60.29   12.20
   2  -8  10   62.89    9.30
   2   8 -10   61.69   13.10
   8 -10   2   55.09    9.40
   4   8 -10  248.78   24.90
   8 -10   4  227.28   20.20
  -8 -10  -4  213.68   16.70
   4  -8  10  230.28   20.10
   8  10  -4  234.18   25.90
  -8  10   4  233.98   21.80
  10  -4   8  219.58   18.80
   8 -10   6  790.22   56.39
  10  -6   8  804.42   55.99
   6   8 -10  865.81   59.99
   6  -8  10  790.92   56.29
  -8  10   6  783.42   56.89
   8  10  -6  812.22   60.79
  -8 -10  -6  765.82   54.79
  -8  10  -6  846.52   60.99
  -6   8 -10  767.92   60.09
 -10   6  -8  835.62   61.49
   8 -10  -6  719.93   56.39
   8 -10   8  148.59   16.90
 -10   8   8  166.38   16.50
   8  10  -8  190.08   24.60
   8  -8  10  141.09   17.10
  -8  10   8  152.58   15.20
  10  -8   8  151.38   16.30
   8   8 -10  146.49   23.20
 -10   8  -8  173.08   26.50
  -8  10  -8  157.48   26.10
  -8   8 -10  166.48   22.50
   1  -9  10 1537.75  114.59
   9 -10   1 1625.94  114.79
   1   9 -10 1722.83  117.59
  -9  10   1 1740.83  116.99
  -9  10  -1 1749.53  117.49
  -1   9 -10 1747.13  117.69
   9 -10  -1 1611.64  114.79
   9  10  -3 2512.25  180.58
   9 -10   3 2536.65  177.98
   3  -9  10 2478.75  177.88
   3   9 -10 2603.04  180.58
  -9  10   3 2520.95  179.38
  -9  10  -3 2829.12  180.98
  -3   9 -10 2776.12  180.88
   9 -10  -3 2661.63  178.08
   5  -9  10 4476.85  311.57
   9  10  -5 4579.14  314.27
  10  -5   9 4725.63  311.47
   9 -10   5 4514.05  311.57
   5   9 -10 4655.93  314.07
  -9  10   5 4542.85  312.57
 -10   5  -9 4716.93  314.57
  -5   9 -10 4542.55  314.17
   9 -10  -5 4433.56  311.67
  -9  10  -5 4784.12  314.57
  10  -7   9 1273.87   88.89
  -9 -10  -7 1248.28   87.69
   7  -9  10 1266.47   89.19
   7   9 -10 1319.27   92.69
  -9  10   7 1296.37   89.49
   9 -10   7 1329.97   89.29
   9  10  -7 1301.47   92.99
 -10   7   9 1256.97   88.89
  10   9  -9 2009.00  141.69
 -10   9   9 1970.10  138.09
  10  -9   9 2023.00  138.29
  -9   9  10 2037.30  137.09
   9   9 -10 2054.69  141.69
  -9  10   9 2001.50  137.89
   9 -10   9 2029.50  138.39
   9  -9  10 2079.09  138.49
   9  10  -9 2106.29  142.19
  -9  10  -9 1959.00  142.49
  -9   9 -10 1973.80  142.49
 -10   9  -9 1961.20  142.69
 -10  10   0  190.08   22.90
   0 -10  10  175.28   17.50
   0  10 -10  192.98   24.40
  10 -10   0  167.38   17.50
  10 -10   2 5520.45  356.26
 -10  10   2 5545.35  358.06
   2  10 -10 5541.55  358.86
   2 -10  10 5412.56  356.16
  -2  10 -10 4881.31  358.36
  10 -10  -2 4769.52  356.06
 -10  10  -2 5132.19  358.46
   4 -10  10 1297.37   85.09
  10 -10   4 1298.17   85.09
 -10  10   4 1236.38   86.59
   4  10 -10 1278.67   88.69
 -10   4 -10 1196.18   88.69
  -4  10 -10 1173.78   88.69
  10 -10  -4 1106.49   84.99
 -10  10  -4 1209.38   88.89
  10  -6  10 2332.97  155.38
  10  10  -6 2321.87  158.98
 -10  10   6 2361.16  156.68
  10 -10   6 2251.87  155.58
   6 -10  10 2358.06  155.68
   6  10 -10 2416.96  159.08
  10 -10  -6 2044.50  155.58
  -6  10 -10 2135.99  158.78
 -10   6 -10 2305.47  159.08
 -10  10  -6 2234.58  159.18
 -10 -10  -8 1853.31  135.79
  10  -8  10 2003.20  137.09
 -10   8  10 1941.01  136.39
   8  10 -10 2018.30  140.79
 -10  10   8 2002.80  137.39
  10 -10   8 2044.40  137.29
   8 -10  10 1957.50  137.29
  10  10  -8 2098.19  141.09
  -8  10 -10 2062.49  141.59
 -10   8 -10 2020.60  141.49
 -10  10  -8 2017.10  141.49
  10  10 -10 4899.51  321.67
  10 -10  10 5050.49  318.27
 -10  10 -10 4097.19  321.47
  -1   0 -11 1573.64  115.29
   0 -11  -1 1713.73  115.09
   0 -11   1 1707.73  115.09
   0  11  -1 1740.43  117.19
   0  11   1 1689.53  116.79
   1   0 -11 1698.23  115.09
  11  -1   0 1681.13  114.39
   0 -11  -3   92.99   10.70
   0 -11   3   88.29   11.00
   0  11  -3   64.79   12.90
   0  11   3   74.39   13.60
   3   0 -11   75.79    9.60
  11  -3   0   77.89    8.90
  -3   0 -11   68.39   11.70
  -5   0 -11   23.20    8.40
   0 -11  -5   30.90    7.30
   0 -11   5   32.10    7.90
   0  11   5   32.50    8.40
   0  11  -5   27.90   12.80
  11  -5   0   30.60    6.60
   0  11   7  313.47   24.10
   0  11  -7  321.87   30.30
   0 -11   7  300.17   24.10
  11  -7   0  308.17   24.20
 -11   9   0 2537.75  172.48
   0  11  -9 2602.74  173.18
   0 -11   9 2339.37  169.78
  11  -9   0 2500.65  169.88
   1 -11   0 1756.72  116.89
   0  -1 -11 1705.23  116.49
  -1 -11   0 1715.83  116.69
   1  11   0 1747.23  118.79
  -1  11   0 1731.13  118.69
   0   1 -11 1610.74  117.09
   1 -11   2 2706.23  197.88
  -1  11   2 2533.55  198.98
  -2  -1 -11 2474.45  197.88
  11  -2   1 2648.44  197.38
   1  11  -2 2549.04  199.58
   2   1 -11 2563.24  198.08
  -1 -11  -2 2700.43  197.78
   1  11   2 3268.37  199.68
  11  -2  -1 3205.68  197.58
  -1  11  -2 3236.18  200.28
  -1 -11   2 3286.47  197.98
  -2   1 -11 3054.89  198.68
   1 -11  -2 3257.77  198.08
   2  -1 -11 3350.96  197.68
   1  11   6 1889.91  130.59
  -1  11  -6 1934.41  132.59
  -1 -11   6 1844.72  129.79
  11  -6  -1 1908.31  129.79
  -6   1 -11 1942.91  131.59
   1 -11   8 1101.99   75.59
  11  -8   1 1139.49   75.49
  -1  11   8 1117.49   74.99
   1  11  -8 1094.49   78.89
  -1 -11   8 1014.30   75.29
  11  -8  -1 1061.29   75.39
 -11  10   1  381.56   35.10
   1 -11  10  378.36   30.70
  11 -10   1  368.86   30.90
   1  11 -10  396.86   37.00
  -1  11 -10  445.96   36.90
  11 -10  -1  413.96   31.10
 -11  10  -1  450.75   36.40
   2  11  -1 2616.54  191.78
  -2  11   1 2602.44  191.48
  -1  -2 -11 2537.55  189.68
   2 -11   1 2548.25  190.08
  11  -1   2 2630.14  189.38
  -2 -11  -1 2643.54  189.88
   1   2 -11 2526.35  190.58
  -2  11  -1 3196.98  192.28
  -1   2 -11 2961.70  190.98
  11  -1  -2 3035.30  189.58
   2 -11  -1 3134.89  190.28
   2  11   1 3181.68  192.08
   2 -11   3 1408.56   87.59
  -2  11   3 1349.56   88.89
   3   2 -11 1261.87   87.99
  -3  -2 -11 1209.58   87.39
  11  -3   2 1317.17   86.89
   2  11  -3 1364.86   90.29
  -2 -11  -3 1296.07   87.19
  -2  11  -3 1282.07   89.99
   2  11   3 1277.67   88.89
  -2 -11   3 1230.08   87.09
  11  -3  -2 1234.88   86.89
   2 -11  -3 1102.29   87.19
  -3   2 -11 1205.68   88.39
  -2 -11  -5  560.54   41.50
   2 -11   5  564.34   41.90
   2  11  -5  560.54   45.00
   5   2 -11  546.65   42.60
  -2  11   5  559.44   42.60
  11  -5   2  576.04   41.20
  -5   2 -11  572.24   43.70
  -2 -11   5  618.54   41.50
   2  11   5  617.14   43.20
  -2  11  -5  638.64   45.90
  11  -5  -2  610.84   41.40
   2 -11  -5  592.64   41.90
  11  -7   2  197.08   17.30
  -2  11   7  195.68   16.90
   2  11  -7  196.98   24.10
   2 -11   7  204.38   17.90
  -2  11  -7  192.48   24.40
  -7   2 -11  179.78   22.10
  11  -7  -2  193.48   17.50
  -2 -11   7  196.88   17.10
  11  -9   2 1220.98   74.69
 -11   9   2 1210.28   77.49
   2 -11   9 1211.58   74.89
  11  -9  -2  938.01   74.49
  -2  11  -9  893.31   77.99
 -11   9  -2  928.91   77.89
  -3 -11   0   74.39    9.40
   0   3 -11   76.69   12.50
  11   0  -3   74.39    7.60
   3 -11   0   56.99    8.90
  -3  11   0   64.39   11.70
   3  11   0   92.09   13.40
  -2  -3 -11 1265.07   87.99
  -3  11   2 1353.16   90.09
   3  11  -2 1315.77   91.09
  11  -2   3 1348.27   87.79
   3 -11   2 1375.76   88.69
   2   3 -11 1302.17   89.49
  -3 -11  -2 1369.26   88.19
  -3  11  -2 1263.47   90.79
  -3 -11   2 1235.58   88.09
   3 -11  -2 1225.38   88.49
  11  -2  -3 1248.48   87.89
   3  11   2 1230.68   90.19
  -2   3 -11 1200.98   89.49
  -3 -11  -4  581.54   48.40
   4   3 -11  629.54   50.09
   3  11  -4  599.74   51.79
   3 -11   4  618.04   49.00
  11  -4   3  625.84   48.30
  -3  11   4  623.74   50.09
  -4   3 -11  766.62   51.19
  11  -4  -3  778.42   48.60
  -3  11  -4  776.52   52.69
   3  11   4  778.32   50.99
  -3 -11   4  785.92   48.70
   3 -11  -4  789.52   49.40
   3  11  -6  384.06   34.70
  11  -6   3  380.46   29.60
   6   3 -11  357.36   31.50
   3 -11   6  351.06   30.10
  -3  11   6  357.86   30.30
  -3  11  -6  466.45   35.30
  -3 -11   6  473.05   29.70
  -6   3 -11  470.95   33.60
   3  11  -8 3425.56  235.58
  11  -8   3 3286.27  232.58
  -3  11   8 3173.68  232.18
   3 -11   8 3204.58  232.68
 -11   8  -3 3755.92  235.88
  -8   3 -11 3731.73  235.28
  -3  11  -8 3539.75  235.48
  11  -8  -3 3532.95  232.68
  -3 -11   8 3213.98  232.38
   3  11 -10  892.51   63.39
   3 -11  10  835.22   58.29
  11 -10   3  845.02   58.29
 -11  10   3  846.42   60.89
  -3  11 -10  789.72   62.59
  11 -10  -3  746.53   58.29
 -11  10  -3  800.92   62.69
   4  11   1  136.09   18.20
  -1   4 -11   94.69   15.50
   4 -11  -1  121.39   13.70
  -4 -11   1  124.09   11.30
  -4  11  -1  139.29   18.20
   4  11  -3  606.94   52.69
   4 -11   3  616.34   49.70
  -4 -11  -3  648.24   49.00
   3   4 -11  589.94   50.89
  -4  11   3  660.53   51.19
  11  -3   4  628.24   48.90
  -4 -11   3  800.32   49.20
  11  -3  -4  816.52   49.30
   4  11   3  772.22   52.09
  -4  11  -3  773.72   52.89
   4 -11  -3  791.82   49.99
  -3   4 -11  758.42   51.79
   5   4 -11  450.35   36.70
  11  -5   4  465.15   34.20
  -4 -11  -5  426.76   34.00
   4  11  -5  485.35   39.60
   4 -11   5  435.46   34.80
  -4  11   5  475.95   35.80
  -5   4 -11  517.75   38.00
  11  -5  -4  488.75   34.50
  -4  11  -5  501.75   39.40
  -4 -11   5  487.15   34.00
   4  11   5  487.95   36.70
   4 -11  -5  501.95   35.30
  -4  11   7 3545.05  260.87
   7   4 -11 3539.65  262.07
  11  -7   4 3676.93  260.67
   4 -11   7 3361.26  260.77
  11  -7  -4 4215.08  260.97
  -7   4 -11 4300.07  263.47
  -4 -11   7 3873.81  260.57
  -4  11  -7 4279.67  263.97
   4 -11   9  907.91   63.59
  11  -9   4  931.01   63.49
 -11   9   4  959.10   65.69
   4  11  -9  993.20   68.09
  11  -9  -4  799.62   63.49
  -9   4 -11  870.31   67.19
  -4  11  -9  862.31   67.89
 -11   9  -4  915.11   67.89
  -5 -11   0   24.40    5.20
   5  11   0   33.30   11.60
  -5  11   0   21.90   10.80
   5 -11   0   21.70    7.70
   0   5 -11   12.10    8.80
  -5 -11  -2  566.54   40.10
  -5  11   2  558.84   43.00
  11  -2   5  550.24   40.00
  -2  -5 -11  527.95   39.60
   5 -11   2  530.95   41.20
   2   5 -11  541.35   43.00
   5  11  -2  547.85   44.60
  -5 -11   2  598.54   40.10
  -2   5 -11  628.44   43.60
   5 -11  -2  632.24   41.40
  -5  11  -2  621.14   44.40
   5  11   2  592.94   43.90
  -5 -11  -4  430.06   33.90
   5 -11   4  461.85   35.30
   4   5 -11  447.86   36.90
  -5  11   4  462.15   36.40
   5  11  -4  469.55   39.40
  11  -4   5  456.95   34.10
   5 -11  -4  506.35   35.30
   5  11   4  506.25   37.50
  -5 -11   4  486.15   33.80
  -5  11  -4  517.05   39.40
  -4   5 -11  533.65   38.30
  11  -6   5  528.15   40.90
   5  11  -6  565.24   45.70
   6   5 -11  529.35   43.60
  -5 -11  -6  511.95   40.50
   5 -11   6  506.85   41.60
  -5  11   6  524.55   41.80
  -5  11  -6  681.83   46.40
   5 -11  -6  614.04   42.00
  -5 -11   6  592.64   40.60
  11  -6  -5  637.14   41.50
  -6   5 -11  666.83   45.50
   8   5 -11  627.24   47.40
  11  -8   5  625.04   44.40
   5 -11   8  601.04   44.80
  -5  11   8  596.34   43.60
   5  11  -8  648.14   49.60
  11 -10   5  647.84   45.60
   5  11 -10  683.23   51.29
   5 -11  10  663.93   46.20
 -11  10   5  667.73   47.80
  11 -10  -5  564.54   45.80
 -10   5 -11  570.94   50.39
  -5  11 -10  593.94   51.19
 -11  10  -5  620.94   51.79
   1   6 -11 1383.66  108.99
  -6 -11  -1 1359.16  106.49
  -6  11   1 1365.36  108.89
   6 -11  -1 1868.51  107.79
  -6  11  -1 1871.21  110.09
   6 -11   3  353.26   30.40
  11  -3   6  360.16   29.00
  -6  11   3  345.87   31.90
  -6 -11  -3  375.56   28.60
   6  11  -3  371.16   34.20
   3   6 -11  364.26   32.90
  -3   6 -11  478.85   34.00
  -6  11  -3  483.85   35.00
   6 -11  -3  443.16   30.20
   6  11   3  481.05   33.70
   6 -11   5  518.75   41.80
  -6 -11  -5  524.25   40.40
   6  11  -5  559.74   46.40
  -6  11   5  539.25   42.60
   5   6 -11  539.45   44.20
  11  -5   6  557.34   41.10
  -5   6 -11  645.94   45.60
  -6 -11   5  626.24   40.50
   6 -11  -5  635.34   42.40
  -6  11  -5  644.74   46.50
  11  -7   6 2076.29  143.59
  -6  11   7 2124.69  143.99
   6 -11   7 2110.59  143.99
   7   6 -11 2125.69  145.99
   6  11  -7 2071.69  146.99
  -6  11  -7 2123.29  147.19
 -11   7  -6 2184.78  147.49
  11  -7  -6 2019.90  143.79
   6 -11   9  613.64   44.10
   6  11  -9  659.23   49.60
  11  -9   6  600.74   43.70
   9   6 -11  641.84   47.40
 -11   9   6  612.74   45.30
  -6  11   9  565.54   41.60
  -6  11  -9  584.54   49.30
  -9   6 -11  604.34   49.20
 -11   9  -6  567.94   49.50
  11  -9  -6  570.04   44.00
  -7 -11   0  304.07   22.00
  -7  11   0  319.77   27.90
   0   7 -11  310.17   28.10
   7 -11   0  291.97   24.60
   7  11   0  300.07   28.90
   7  11  -2  223.38   24.80
  -7 -11  -2  206.68   15.50
   2   7 -11  221.98   22.80
  -7  11   2  209.38   21.40
   7 -11   2  200.18   18.90
  -7  11  -2  183.68   23.10
  -2   7 -11  195.28   22.80
   7 -11  -2  203.98   18.80
  -7 -11   2  191.48   15.40
   7 -11   4 3594.84  260.47
  11  -4   7 3671.43  259.97
  -7 -11  -4 3575.74  259.57
   7  11  -4 3491.35  262.77
   4   7 -11 3631.44  262.17
  -7  11   4 3540.75  261.37
  -7 -11   4 4193.58  259.77
   7 -11  -4 4041.40  260.57
  -7  11  -4 4410.96  263.47
  -4   7 -11 4243.18  262.97
  -7 -11  -6 2091.39  141.79
  -7  11   6 2108.09  143.29
   7 -11   6 2064.39  142.69
   7  11  -6 2097.89  145.89
  11  -6   7 2082.19  142.29
   6   7 -11 2262.17  145.29
  -7  11  -6 2158.28  146.09
  -6   7 -11 1909.41  145.19
   7 -11  -6 2006.90  142.79
 -11   8   7 1121.19   90.59
  -7  11   8 1189.68   89.59
   7 -11   8 1188.28   89.99
  11  -8   7 1202.48   89.69
   7  11  -8 1242.18   93.99
  -8   7 -11 1468.65   94.59
  11  -8  -7 1429.36   90.39
  -7  11  -8 1432.56   94.79
 -11   8  -7 1485.25   94.89
  11 -10   7  158.98   18.50
   7  11 -10  179.58   24.20
 -11  10   7  162.08   19.30
   7 -11  10  153.68   19.70
 -10   7  11  181.98   14.10
  -7  11 -10  217.28   28.10
  11 -10  -7  180.08   19.80
 -10   7 -11  220.88   29.00
 -11  10  -7  206.48   28.20
   8  11  -1 1256.47   82.09
  -8 -11  -1 1128.19   77.19
  -8  11   1 1191.58   80.99
   1   8 -11 1222.68   81.59
   8 -11   1 1160.88   78.89
   8 -11  -1 1077.29   78.69
  -8  11  -1 1072.99   81.19
  -1   8 -11 1072.49   81.19
  -8 -11   1 1042.10   77.19
  -8 -11  -3 3239.28  230.58
   8 -11   3 3251.47  231.58
   8  11  -3 3244.28  234.08
  -8  11   3 3314.57  232.88
   3   8 -11 3406.46  233.88
  -3   8 -11 3580.04  234.18
   8 -11  -3 3381.16  231.68
  -8  11  -3 3874.41  234.68
  -8 -11  -5  617.44   42.30
   8 -11   5  586.64   43.90
   8  11  -5  596.44   48.70
  11  -5   8  624.84   43.40
  -8  11   5  600.74   45.20
   5  -8  11  594.74   44.00
   5   8 -11  623.74   47.80
  -8  11   7 1193.68   88.49
   7   8 -11 1199.28   91.29
   8  11  -7 1183.78   92.09
  -8 -11  -7 1199.28   87.09
   7  -8  11 1218.18   88.29
  11  -7   8 1202.38   87.99
   8 -11   7 1169.48   88.29
  -8  11  -7 1457.75   93.29
   8 -11  -7 1396.06   88.79
 -11   7  -8 1422.86   93.39
  -7   8 -11 1424.46   92.79
  -8  11   9 2035.50  131.09
   9  -8  11 2073.79  131.89
   8 -11   9 2038.20  131.99
   8  11  -9 2168.48  136.19
   9   8 -11 2025.70  135.09
 -11   9   8 2027.80  132.29
  11  -9   8 2059.09  131.79
  -8  11  -9 1686.63  135.49
  -9   8 -11 1656.13  135.29
 -11   9  -8 1676.83  135.69
  11  -9  -8 1630.24  131.69
   0   9 -11 2527.05  176.48
  -9  11   0 2649.73  176.28
   9 -11   0 2478.55  173.88
   2   9 -11 1297.17   83.99
  -9  11   2 1260.77   82.79
   9  11  -2 1273.37   84.29
   9 -11   2 1223.68   80.49
  -2   9 -11  942.91   82.89
  -9  11  -2  947.31   83.19
   4  -9  11  970.10   65.69
   9  11  -4  922.01   69.59
   4   9 -11 1029.40   69.49
  -9  11   4  957.60   67.29
   9 -11   4  956.00   65.69
  -4   9 -11  897.71   69.29
  -9  11  -4  889.11   69.49
   9 -11  -4  836.82   65.39
  11  -6   9  619.24   43.70
   6  -9  11  623.54   44.30
   9 -11   6  601.64   44.30
  -9 -11  -6  615.24   42.00
  -9  11   6  580.64   44.70
   9  11  -6  638.74   49.90
   6   9 -11  662.33   48.90
  -9  11  -6  577.24   49.20
   9 -11  -6  558.04   44.40
  -6   9 -11  567.84   49.40
 -11   6  -9  600.74   50.19
   8  -9  11 2067.49  134.29
  11  -8   9 2024.90  133.99
   8   9 -11 2071.19  137.69
  -9 -11  -8 2054.39  132.99
   9 -11   8 2071.59  134.29
 -11   8   9 2042.90  134.29
  -9  11   8 2071.99  134.29
   9  11  -8 2065.69  138.09
  -9  11  -8 1663.93  137.69
 -11   8  -9 1624.74  137.59
  -8   9 -11 1679.53  137.59
  10   9 -11 1838.82  127.29
  10  -9  11 1701.13  123.39
  11 -10   9 1749.92  123.49
   9 -11  10 1826.52  123.69
 -11  10   9 1697.63  123.29
   9  11 -10 1696.93  127.39
 -11  10  -9 1898.71  128.89
  -9  11 -10 1797.72  128.39
 -10   9 -11 1908.11  128.89
  11 -10  -9 1833.62  123.99
   1  10 -11  376.66   36.10
 -10  11   1  380.36   35.10
  10 -11   1  376.06   31.50
  -1  10 -11  439.96   37.00
 -10  11  -1  436.46   36.40
  10 -11  -1  432.56   31.50
   3  10 -11  877.81   62.79
  10 -11   3  809.22   58.19
   3 -10  11  851.31   58.09
 -10  11   3  849.41   60.49
  -3  10 -11  785.22   62.19
 -10  11  -3  792.62   62.29
  10 -11  -3  762.42   58.29
   5 -10  11  678.23   46.10
  10  11  -5  648.94   51.19
  10 -11   5  653.13   45.90
 -10  11   5  644.74   47.50
   5  10 -11  665.23   50.59
 -11   5 -10  611.04   51.79
  -5  10 -11  574.14   50.59
  10 -11  -5  546.35   45.80
 -10  11  -5  618.64   51.19
   7 -10  11  168.98   18.40
  11  -7  10  171.68   17.60
 -11   7  10  153.58   16.00
 -10 -11  -7  156.58   13.30
  10 -11   7  153.68   18.10
 -10  11   7  137.09   17.50
   7  10 -11  165.78   26.10
  10  11  -7  154.48   26.80
  -7  10 -11  227.28   28.80
  10 -11  -7  184.88   19.50
 -10  11  -7  240.48   28.90
 -11   7 -10  219.08   29.20
  11  -9  10 1762.12  123.09
  10 -11   9 1790.02  123.19
  10  11  -9 1770.52  127.49
   9 -10  11 1794.42  123.19
 -11   9  10 1597.84  122.19
 -10 -11  -9 1726.63  121.69
   9  10 -11 1781.72  127.09
 -10  11   9 1757.62  122.79
  -9  10 -11 1921.01  128.49
 -11   9 -10 1834.72  128.19
 -10  11  -9 1955.50  128.79
  10 -11  -9 1798.52  123.69
 -11  11   0 1167.18   83.39
   0  11 -11 1134.09   83.99
  11 -11   0 1146.99   80.29
  11 -11   2 1475.45  110.19
 -11  11   2 1561.14  112.69
   2  11 -11 1596.34  114.09
   2 -11  11 1515.95  110.29
  -2  11 -11 1690.53  114.29
  11 -11  -2 1667.43  110.49
 -11  11  -2 1716.23  114.09
  11 -11   6  513.35   37.20
 -11   6  11  462.15   35.30
   6  11 -11  483.85   42.80
 -11  11   6  473.35   38.40
   6 -11  11  499.45   37.30
  11 -11   8  831.12   59.19
   8  11 -11  812.42   64.59
 -11  11   8  793.82   58.89
  11  -8  11  882.11   58.99
   8 -11  11  842.62   59.29
  -8  11 -11  815.32   65.09
  11 -11  -8  801.82   59.49
 -11   8 -11  787.42   65.49
 -11  11  -8  814.72   65.89
  11 -10  11 1343.47   86.09
  11 -11  10 1383.56   86.19
  10  11 -11 1405.66   91.69
 -10  11 -11 1067.89   91.79
 -11  11 -10 1021.60   91.59
 -11  10 -11 1063.89   91.89
   0   0 -12 9297.07  624.74
   0  12   0 9193.88  626.24
   0  12  -2    6.40   11.20
   0  12   2   14.70    9.70
   2   0 -12   13.00    5.30
  12  -2   0   14.60    4.60
   0 -12  -2    4.40    6.50
   0 -12   2   12.00    7.10
  -2   0 -12    8.80    6.40
  -4   0 -12 1096.99   79.99
   0 -12   4 1150.18   79.29
   0  12  -4 1203.88   82.59
   0  12   4 1175.88   80.79
   0 -12  -4 1107.29   79.19
  12  -4   0 1156.08   78.79
   0 -12  -6  564.74   42.50
  -6   0 -12  593.14   44.20
   0  12   6  582.54   43.20
  12  -6   0  591.44   42.10
   0  12  -6  645.74   47.00
   0 -12   6  573.04   42.40
   0  12  -8  225.28   27.20
   0 -12   8  213.38   19.60
  12  -8   0  222.68   19.60
  12 -10   0  368.66   28.90
   0  12 -10  347.47   34.90
 -12  10   0  383.46   34.40
   0 -12  10  351.66   28.70
  -1  -1 -12 2082.39  124.99
   1   1 -12 1960.50  125.39
  -1 -12  -1 2110.39  125.09
  12  -1   1 2014.50  124.29
   1 -12   1 2106.89  125.29
   1  -1 -12 1618.84  124.39
   1 -12  -1 1570.84  124.79
  -1  12  -1 1599.24  126.89
   1  12   1 1587.04  126.59
  -1 -12   1 1637.14  124.79
  12  -3   1  960.80   65.19
   1 -12   3  976.70   65.99
   3   1 -12  925.51   65.99
  -1 -12  -3  932.31   65.79
  -3  -1 -12  898.31   66.09
   1  12  -3  982.20   69.29
  -1  12   3  961.70   67.59
   5   1 -12  524.05   38.50
  -1  12   5  527.55   39.40
   1 -12   5  522.95   38.30
   1  12  -5  545.35   43.00
  12  -5   1  550.34   37.60
  -1 -12  -5  509.45   38.10
  -5  -1 -12  488.45   39.10
  -1 -12   5  510.25   38.00
  -5   1 -12  524.25   40.00
   1 -12  -5  526.55   38.40
  -1  12  -5  558.04   42.30
  12  -5  -1  538.45   37.50
   1  12   5  519.15   39.60
   1  12  -7  592.44   48.30
   1 -12   7  535.85   43.50
  12  -7   1  561.44   43.10
  -1  12   7  529.45   43.30
  -1 -12   7  600.14   43.20
  12  -7  -1  649.43   43.30
  -7   1 -12  687.73   46.50
   1  12   7  624.74   43.90
  -1  12  -7  679.53   48.60
   1 -12   9  803.32   58.89
   1  12  -9  838.92   63.79
 -12   9   1  777.52   62.19
  12  -9   1  817.92   58.69
  12  -9  -1  822.02   58.69
 -12   9  -1  886.41   63.39
  -1  12  -9  887.61   63.89
  -1 -12   9  833.82   58.69
   1 -12  11  444.86   31.60
 -12  11   1  419.26   36.70
   1  12 -11  450.65   39.10
  12 -11   1  416.86   31.70
  -1  12 -11  356.46   37.60
  12 -11  -1  371.66   31.70
 -12  11  -1  345.57   37.20
  -2  12   0   10.00    9.90
   2  12   0    6.90   10.40
  -2 -12   0   12.70    6.60
  12   0  -2   11.80    3.90
   0  -2 -12    7.50    3.70
   0   2 -12    6.40    7.10
   2 -12   0    6.90    7.10
   2   2 -12   57.39    9.00
  -2  -2 -12   54.69    8.50
  -2 -12  -2   56.19    9.90
  12  -2   2   49.20    7.40
   2  12  -2   55.49   12.90
   2 -12   2   52.69    8.70
  -2  12   2   44.70   10.90
  -4  -2 -12  373.96   31.80
   2 -12   4  391.86   31.80
  12  -4   2  397.16   30.90
  -2 -12  -4  375.16   31.30
   2  12  -4  393.06   36.50
  -2  12   4  396.36   33.40
   4   2 -12  380.66   32.30
   2  12   4  516.55   34.40
  -2 -12   4  494.35   31.60
   2 -12  -4  512.35   32.30
  -4   2 -12  502.65   34.10
   6   2 -12 1607.04  115.89
  -2 -12  -6 1455.75  114.79
   2 -12   6 1555.64  115.09
  12  -6   2 1702.53  114.89
  -2  12   6 1618.64  115.69
  -2  12  -6 1632.24  118.29
   2 -12  -6 1813.62  115.39
   2  12   6 1882.31  116.29
  -2 -12   6 1848.12  115.09
  12  -8   2  221.48   18.20
  -2  12   8  195.98   16.40
   2  12  -8  225.58   26.20
   2 -12   8  207.28   18.80
  -2  12  -8  149.19   22.60
  -8   2 -12  131.09   23.00
 -12  10   2  343.77   29.10
  12 -10   2  323.27   24.10
   2  12 -10  332.07   31.30
   2 -12  10  313.17   24.40
  12 -10  -2  232.58   23.70
  -2  12 -10  236.98   30.90
 -12  10  -2  236.58   30.80
 -10   2 -12  204.58   29.00
  12   1  -3  894.21   64.39
   3 -12   1  930.91   65.69
  -3  12   1  993.80   67.99
  12  -1   3  939.71   64.59
   3  12  -1  950.70   68.49
   1   3 -12  955.70   66.69
  -1  -3 -12  938.11   64.39
  -3 -12  -1  953.60   65.29
  -3 -12  -3 2278.27  165.18
   3 -12   3 2307.07  165.48
  12  -3   3 2314.77  164.88
  -3  -3 -12 2127.09  165.08
   3   3 -12 2162.78  166.08
  -3  12   3 2295.57  166.78
   3  12  -3 2191.38  167.78
  -3 -12   3 2756.82  165.28
  -3   3 -12 2579.74  166.88
   3  12   3 2640.04  167.38
  12  -3  -3 2652.13  165.08
   3 -12  -3 2609.34  165.58
  -3  12  -3 2679.53  168.18
   3 -12   5  698.83   53.39
   5   3 -12  713.53   54.49
  -3 -12  -5  675.93   52.79
  12  -5   3  691.93   52.69
   3  12  -5  712.23   56.89
  -3  12   5  707.03   54.39
  -3 -12   5  829.92   52.99
  -5   3 -12  830.42   55.89
   3  12   5  780.42   54.99
   3 -12  -5  802.82   53.79
  12  -5  -3  807.92   52.99
  -3  12  -5  836.12   57.79
  -3  12   7  255.17   19.10
   3  12  -7  263.47   27.20
   3 -12   7  241.38   20.10
  12  -7   3  259.47   19.20
  -3 -12   7  173.38   18.40
  -7   3 -12  192.58   23.90
  -3  12  -7  176.78   26.60
  12  -7  -3  177.58   19.00
  12  -9   3  999.90   68.09
 -12   9   3 1031.00   70.89
   3  12  -9 1017.50   72.69
   3 -12   9 1035.30   68.39
  -3  12  -9  904.41   72.59
  12  -9  -3  889.61   67.99
  -9   3 -12  921.21   71.49
 -12   9  -3  954.30   72.59
   3  12 -11 2115.59  140.79
 -12  11   3 2113.99  138.99
  12 -11   3 2089.99  136.59
   3 -12  11 2061.59  136.59
  -3  12 -11 1866.31  140.29
  12 -11  -3 1787.62  136.39
 -12  11  -3 1871.71  140.09
 -11   3 -12 1991.10  140.19
   4 -12   0 1151.48   80.59
   4  12   0 1128.99   82.99
  -4 -12   0 1200.68   79.99
   0   4 -12 1171.28   81.99
  -4  12   0 1167.78   82.79
   4  12  -2  405.66   37.80
  12  -2   4  403.36   32.40
  -4 -12  -2  410.66   32.90
  -4  12   2  405.16   36.20
  -2  -4 -12  386.66   32.00
   4 -12   2  399.16   34.00
   2   4 -12  402.66   35.30
  12  -2  -4  531.15   33.00
  -2   4 -12  515.15   36.10
   4 -12  -2  539.45   34.50
   4  12   2  534.35   37.30
  -4  12  -2  532.45   38.00
  -4 -12   2  534.85   33.10
  -4  12   4 1230.18   95.59
  -4 -12  -4 1226.98   93.99
   4   4 -12 1211.08   95.59
   4  12  -4 1196.58   97.29
   4 -12   4 1245.08   94.59
  12  -4   4 1247.08   93.89
   4  12   4 1655.13   96.89
  -4   4 -12 1593.94   96.89
   4 -12  -4 1587.04   94.89
  -4 -12   4 1552.44   94.19
   6   4 -12 1698.93  126.79
  12  -6   4 1717.53  125.19
  -4 -12  -6 1570.24  124.99
   4 -12   6 1689.43  125.59
   4  12  -6 1676.93  128.59
  -4  12   6 1676.83  125.99
   4 -12  -6 2092.49  125.99
  -4 -12   6 1984.70  125.19
  -4  12  -6 2169.48  129.29
  12  -6  -4 2070.19  125.49
   4 -12   8 1167.08   80.39
   4  12  -8 1181.78   84.59
  -4  12   8 1115.29   79.49
  12  -8   4 1187.28   79.89
 -12   8  -4 1149.98   84.49
  12  -8  -4 1132.89   79.99
  -4  12  -8 1116.79   84.19
  -8   4 -12 1162.38   83.39
   4 -12  10  289.77   24.80
  12 -10   4  282.87   23.90
   4  12 -10  285.27   32.00
 -12  10   4  269.47   27.60
  -4  12 -10  265.87   31.90
 -10   4 -12  271.47   30.80
  12 -10  -4  262.97   24.30
 -12  10  -4  288.07   32.70
   5  12  -1  546.95   43.30
   5 -12   1  524.65   39.60
  12  -1   5  543.55   37.80
  -5 -12  -1  562.14   38.20
  -5  12   1  545.65   42.00
   1   5 -12  518.75   41.20
   5 -12  -1  513.65   39.30
   5  12   1  552.94   42.70
  -1   5 -12  557.54   41.50
  -5 -12   1  540.55   38.10
  -5  12  -1  544.85   42.60
   5  12  -3  712.63   56.79
   3   5 -12  716.03   54.79
  -3  -5 -12  666.33   51.69
   5 -12   3  694.93   53.09
  -5  12   3  727.63   54.59
  12  -3   5  700.13   51.89
  -5 -12  -3  694.43   51.89
  -5  12  -3  859.61   56.99
  -5 -12   3  798.32   51.99
  -3   5 -12  813.62   55.49
   5  12   3  838.02   55.79
   5 -12  -3  790.12   53.29
  12  -5   5 2192.08  157.88
   5 -12   5 1986.90  158.28
  -5 -12  -5 1998.60  157.68
   5   5 -12 2147.99  159.78
  -5  12   5 2153.28  159.18
   5  12  -5 2078.79  161.08
  -5   5 -12 2630.84  160.98
   5 -12  -5 2589.94  158.68
  12  -5  -5 2687.23  158.38
  -5 -12   5 2423.86  157.88
  -5  12  -5 2668.53  161.78
   5  12  -7   42.40   15.30
  -5  12   7   61.69    9.50
  -5 -12  -7   58.29    8.70
   7   5 -12   52.39   12.30
   5 -12   7   67.39   11.60
  12  -7   5   55.69    9.50
  -7   5 -12   91.39   15.20
  -5  12  -7   97.59   16.50
   5 -12  -7   94.19   14.30
  -5  12   9  523.45   39.00
   5 -12   9  575.24   41.40
 -12   9   5  603.64   43.90
   5  12  -9  582.04   47.50
  12  -9   5  570.14   41.10
  -9   5 -12  554.64   46.70
  12  -9  -5  533.75   41.40
  -5  12  -9  542.35   47.70
 -12   9  -5  564.94   47.90
  12 -11   5  144.69   18.50
   5  12 -11  165.48   28.20
   5 -12  11  149.99   19.40
 -12  11   5  163.78   21.90
 -11   5 -12  214.78   28.70
 -12  11  -5  189.18   29.00
  12 -11  -5  188.38   19.50
  -5  12 -11  181.48   27.80
  -6  12   0  597.54   46.00
   0   6 -12  606.94   45.60
  -6 -12   0  609.94   41.60
   6  12   0  589.84   46.90
   6 -12   0  568.34   43.20
   2   6 -12 1594.14  122.89
  -6 -12  -2 1634.34  120.39
  -6  12   2 1592.04  122.69
  12  -2   6 1640.54  120.39
   6  12  -2 1629.84  123.69
   6 -12   2 1585.04  121.19
  -6 -12   2 1978.50  120.49
   6  12   2 1922.61  123.79
  -2   6 -12 1966.60  123.59
  -6  12  -2 1962.50  124.09
   6 -12  -2 1974.10  121.59
  12  -4   6 1633.84  118.99
  -6  12   4 1657.53  120.89
   6  12  -4 1667.63  122.69
   4   6 -12 1662.13  121.49
   6 -12   4 1616.84  119.69
  -6 -12  -4 1684.93  118.89
   6 -12  -4 1997.40  120.09
  -6 -12   4 2027.80  118.99
  -6 -12  -6 1323.77   92.19
   6  12  -6 1372.36   96.99
   6 -12   6 1297.17   92.99
   6   6 -12 1374.66   95.29
  -6  12   6 1372.36   93.69
  12  -6   6 1339.67   92.59
  -6 -12  -8  239.78   18.60
   6 -12   8  210.68   21.00
  12  -8   6  229.68   19.90
  -6  12   8  228.18   18.60
   6  12  -8  245.18   29.00
   8   6 -12  222.58   25.00
 -12   8  -6  195.08   29.50
  -8   6 -12  204.28   27.80
  -6  12  -8  190.18   28.70
  12  -8  -6  193.78   20.50
   6  12 -10  438.06   39.50
   6 -12  10  455.85   32.50
  12 -10   6  436.06   31.80
 -12  10   6  460.85   33.90
  -6  12 -10  328.47   39.20
 -10   6 -12  302.47   38.00
 -12  10  -6  315.47   39.70
   7  12  -1  582.14   47.50
   7 -12   1  557.24   43.50
   1   7 -12  562.04   46.10
  -7  12   1  546.45   45.90
  -7 -12  -1  563.14   41.60
  -7  12  -1  622.44   46.70
   7 -12  -1  644.54   43.80
  -1   7 -12  636.54   46.50
  -7 -12   1  631.84   41.70
   7  12   1  633.24   47.00
   7  12  -3  258.67   28.20
   3   7 -12  249.58   25.90
   7 -12   3  256.17   22.40
  12  -3   7  263.67   19.90
  -7 -12  -3  257.57   19.10
  -7  12   3  264.77   24.60
  -7  12  -3  182.58   27.00
  -7 -12  -5   58.79    9.30
   7 -12   5   52.59   10.30
   5   7 -12   61.29   13.70
  12  -5   7   68.09   11.40
   7  12  -5   57.89   16.60
  -7  12   5   56.99   11.30
   7 -12  -5   92.39   13.60
  -7  12  -5  106.69   17.80
  -7  12   7  978.70   62.99
   7  12  -7  993.30   67.99
   7 -12   7  963.40   62.89
  -7 -12  -7  937.11   61.39
   7   7 -12  922.91   65.69
  12  -7   7  944.01   62.19
  -7   7 -12  729.03   66.09
  -7  12  -7  797.62   67.29
  12  -7  -7  737.73   62.19
 -12   7  -7  810.82   67.99
  -7  12   9   11.90    5.00
   7 -12   9    9.30    9.50
   7  12  -9    5.40   14.90
  12  -9   7    6.20    9.20
 -12   9   7    5.00    9.50
   9   7 -12    7.60   13.50
  12  -9  -7   18.10    9.70
  -7  12  -9   27.00   16.00
 -12   9  -7   23.10   17.20
  -9   7 -12   27.20   16.70
   7  12 -11  297.47   33.10
   7 -12  11  291.67   25.10
  12 -11   7  292.97   24.20
 -12  11   7  276.77   25.00
 -11   7 -12  199.98   33.20
 -12  11  -7  193.88   34.40
  -7  12 -11  202.98   33.20
  -8  12   0  220.28   24.80
   8  12   0  255.27   26.30
   8 -12   0  213.88   20.80
  -8 -12   0  206.58   16.50
   0   8 -12  243.28   25.40
  -8 -12  -2  201.18   14.90
   2   8 -12  220.78   24.10
  -8  12   2  214.18   22.50
   8  12  -2  222.58   25.80
   8 -12   2  202.78   19.20
  -8  12  -2  124.09   24.30
  -2   8 -12  139.69   23.20
   8 -12   4 1137.29   79.49
  -8  12   4 1131.39   80.89
  12  -4   8 1174.58   78.69
   8  12  -4 1152.68   83.49
   4   8 -12 1134.29   82.39
  -8 -12  -4 1146.79   77.89
  -8  12  -4 1121.79   83.19
   8 -12  -4 1134.39   79.69
  -4   8 -12 1113.69   82.49
  -8 -12  -6  232.98   17.30
  12  -6   8  218.88   19.30
   8 -12   6  215.48   20.30
   8  12  -6  210.78   28.70
  -8  12   6  213.78   20.90
   6   8 -12  217.58   26.00
   8 -12  -6  202.38   21.30
  -6   8 -12  189.18   27.00
  -8  12  -6  207.58   28.40
 -12   6  -8  188.78   28.70
   8  12  -8  506.05   44.40
 -12   8   8  477.55   38.80
   8   8 -12  477.55   42.70
  12  -8   8  499.85   37.90
  -8 -12  -8  477.25   36.30
   8 -12   8  497.95   38.60
  -8  12   8  513.15   37.70
  -8  12  -8  557.74   45.90
  -8   8 -12  551.84   45.10
   8 -12  -8  513.25   39.40
 -12   8  -8  558.64   45.80
  12  -8  -8  519.15   38.70
   8  12 -10  162.58   28.00
   8 -12  10  166.08   19.00
 -12  10   8  157.78   18.30
  12 -10   8  162.78   18.40
 -10   8 -12  151.88   23.90
  12 -10  -8  144.09   19.40
  -8  12 -10  129.39   22.40
 -12  10  -8  112.59   21.60
   1   9 -12  790.82   61.89
   9  12  -1  822.42   62.69
  -9  12   1  803.62   61.39
   9 -12   1  813.02   58.69
   9 -12  -1  838.62   58.79
  -1   9 -12  844.32   62.19
  -9  12  -1  856.51   62.39
   3   9 -12 1034.60   72.29
   9  12  -3 1013.90   72.89
  -9 -12  -3 1100.99   67.39
  -9  12   3  979.50   70.69
   9 -12   3 1001.10   68.69
   9 -12  -3  865.61   68.49
  -3   9 -12  866.11   71.69
  -9  12  -3  928.81   72.59
   9  12  -5  586.54   46.60
  -9  12   5  526.55   42.50
  -9 -12  -5  555.64   38.70
   5   9 -12  564.64   45.60
  12  -5   9  570.84   40.40
   9 -12   5  561.14   41.40
   9 -12  -5  543.05   41.50
  -5   9 -12  569.04   46.50
  -9  12  -5  528.75   47.20
   9 -12   7    1.40    9.20
  -9 -12  -7    3.30    5.10
  -9  12   7   -0.90    8.30
   9  12  -7    4.30   14.70
   7   9 -12    2.50   13.00
  12  -7   9    5.00    9.00
  -7   9 -12   13.10   15.80
  -9  12  -7   18.00   15.90
 -12   7  -9   20.40   16.10
   9 -12  -7    8.50   10.00
   9 -12   9  635.34   46.00
  -9 -12  -9  636.04   43.70
 -12   9   9  610.44   45.60
  12  -9   9  645.74   45.70
   9  12  -9  634.94   52.49
   9   9 -12  638.84   50.79
 -12   9  -9  605.64   53.79
  -9  12  -9  615.64   52.99
   9 -12  -9  574.64   46.60
  12  -9  -9  601.44   46.30
  -9   9 -12  607.44   52.49
   9  12 -11 2167.88  150.68
   9 -12  11 2052.49  146.09
  12 -11   9 2076.09  145.89
 -11   9 -12 2149.28  151.38
  -9  12 -11 2131.79  151.28
 -12  11  -9 2172.48  151.78
 -10  12   0  349.67   33.40
  10 -12   0  352.96   28.90
   0  10 -12  360.96   34.10
  10 -12   2  337.67   24.60
 -10  12   2  312.97   28.20
   2  10 -12  320.07   30.70
  -2  10 -12  235.38   29.60
 -10  12  -2  218.08   29.80
  10 -12  -2  229.28   24.00
  10 -12   4  286.17   24.40
 -10  12   4  275.97   26.80
  10  12  -4  293.97   31.80
   4  10 -12  299.47   30.80
  10 -12  -4  258.07   24.80
 -10  12  -4  268.07   31.60
  -4  10 -12  272.47   30.60
  10 -12   6  431.46   33.90
  10  12  -6  443.06   41.10
   6 -10  12  465.75   34.20
 -10  12   6  473.45   35.40
   6  10 -12  463.85   40.00
 -10  12  -6  312.77   40.40
   8  10 -12  175.08   27.20
  12  -8  10  163.28   18.30
 -10  12   8  154.28   17.20
  10 -12   8  167.38   18.90
 -12   8  10  159.08   16.20
  10  12  -8  135.59   22.10
   8 -10  12  160.18   18.80
 -10 -12  -8  160.08   13.40
  -8  10 -12  153.18   23.30
  10 -12  -8  150.38   19.70
 -12   8 -10  129.39   23.00
 -10  12  -8  132.39   22.90
  12 -10  10  665.73   53.99
 -10 -12 -10  687.13   51.79
  10 -12  10  626.94   54.39
  10  12 -10  680.33   60.59
  10  10 -12  673.83   59.39
  10 -10  12  745.33   54.49
  10 -12 -10  833.22   55.49
 -12  10 -10  876.71   63.69
 -10  10 -12  810.62   62.59
  12 -10 -10  866.41   55.19
 -10  12 -10  777.32   62.69
  11 -12   1  434.66   32.10
   1  11 -12  441.96   38.10
 -11  12   1  418.26   36.20
  11 -12  -1  378.96   31.80
 -11  12  -1  349.67   37.30
  -1  11 -12  379.96   37.70
 -11  12   3 2123.59  137.19
   3  11 -12 2097.79  138.79
  11 -12   3 2049.49  134.89
  11 -12  -3 1831.82  134.69
  -3  11 -12 1799.72  138.19
 -11  12  -3 1864.21  138.29
 -11  12   5  142.39   20.60
  11 -12   5  158.48   18.80
   5 -11  12  147.59   18.70
   5  11 -12  137.39   21.20
  -5  11 -12  157.68   27.40
  11 -12  -5  169.78   19.60
 -12   5 -11  190.78   28.60
 -11  12  -5  184.98   28.80
  11 -12  -7  174.28   20.80
  -7  11 -12  194.98   30.70
 -11  12  -7  154.58   24.40
 -12   7 -11  215.98   31.40
  12  -9  11 2143.49  144.49
  11  12  -9 2036.20  148.99
  11 -12   9 1880.61  144.29
   9 -11  12 2276.97  144.89
   9  11 -12 2103.29  148.79
  11 -12  -9 2058.69  145.09
  -9  11 -12 2082.29  149.88
 -12   9 -11 2172.18  150.38
 -11  12  -9 2165.38  150.28
  11 -12 -11 1200.28   87.49
 -12  11 -11 1297.27   94.99
 -11  12 -11 1253.97   94.59
  12 -11 -11 1219.58   87.39
 -11  11 -12 1204.88   93.89
 -12  12   0 4882.81  322.27
   0  12 -12 4761.02  322.67
  12 -12   0 4473.05  319.17
   2  12 -12  364.76   39.50
 -12  12   2  343.57   37.30
  12 -12   2  365.36   33.10
 -12  12  -2  502.05   40.60
  12 -12  -2  476.35   33.50
  -2  12 -12  479.55   40.50
   4 -12  12 1306.97   85.69
  12 -12   4 1326.87   85.69
 -12  12   4 1317.27   88.09
   4  12 -12 1300.37   90.49
 -12   4 -12 1133.69   89.89
  -4  12 -12 1136.79   89.99
  12 -12  -4 1090.89   85.49
 -12  12  -4 1145.09   90.39
  12 -12   6  238.78   24.20
   6  12 -12  235.28   32.50
 -12  12   6  224.28   25.60
   6 -12  12  227.08   24.10
  -6  12 -12  324.37   34.70
 -12  12  -6  334.37   34.70
 -12   6 -12  340.77   34.80
   8 -12  12 1499.75  100.79
  12 -12   8 1250.97  100.29
 -12  12   8 1418.46  100.89
   8  12 -12 1524.65  105.99
 -12   8 -12 1554.64  107.19
  -8  12 -12 1457.65  106.39
  12 -12  -8 1410.26  100.89
 -12  12  -8 1454.95  106.59
  10 -12  12  108.59   15.90
  12 -12  10   94.29   14.30
  10  12 -12   95.69   23.40
 -12  10 -12   79.19   23.70
 -10  12 -12   83.69   23.20
  12 -12 -10   79.29   15.30
 -12  12 -10   96.79   25.80
  12 -12  12 2590.24  183.78
  12 -12 -12 2762.02  184.68
 -12  12 -12 2685.43  190.28
   0  13  -1  215.38   23.20
   0  13   1  209.58   22.50
   1   0 -13  178.48   16.40
  13  -1   0  189.28   14.80
   0 -13   1  192.28   17.60
  -1   0 -13  193.18   17.10
   0 -13  -1  199.48   17.70
   0  13   3 2301.17  154.18
   3   0 -13 2331.17  152.18
  -3   0 -13 2109.19  152.78
   0 -13   3 2178.18  152.38
   0  13  -3 2303.47  155.28
  13  -3   0 2209.58  151.78
   0 -13  -3 2211.18  152.38
   0  13   5 1509.95  101.29
  13  -5   0 1476.55   99.39
   0  13  -5 1484.95  103.49
   0 -13  -5 1369.56   99.79
   0 -13   5 1408.56   99.79
  -5   0 -13 1460.25  100.99
   0  13  -7  786.02   59.49
   0 -13   7  761.92   54.39
  -7   0 -13  790.12   56.59
   0  13   7  711.33   54.59
  13  -7   0  786.52   54.09
   0 -13  -7  763.32   54.49
   0  13  -9  566.74   47.70
  13  -9   0  551.74   41.30
   0 -13   9  561.54   41.60
 -13   9   0  582.64   46.70
 -13  11   0  376.96   35.90
  13 -11   0  352.56   29.50
   0  13 -11  362.56   37.40
   1  13   0  191.08   22.90
  -1  13   0  189.08   22.40
   0  -1 -13  197.58   15.80
  13   0  -1  190.38   14.80
   1 -13   0  191.48   18.10
   0   1 -13  199.98   17.70
  -1 -13   0  192.18   17.30
   1 -13   2 1620.64  115.49
   1  13  -2 1738.23  118.49
  13  -2   1 1725.93  114.69
  -1  13   2 1704.43  117.49
  -2  -1 -13 1571.94  115.39
   2   1 -13 1714.33  115.69
  -1 -13  -2 1606.74  115.39
  -1 -13   2 1680.43  115.49
  -1  13  -2 1732.53  118.39
  13  -2  -1 1709.63  114.79
   2  -1 -13 1740.03  114.69
   1 -13  -2 1646.44  115.59
   1  13   2 1748.72  117.69
  -2   1 -13 1673.53  116.19
  -1 -13  -4 1077.69   74.99
  -1  13   4 1214.18   76.99
  -4  -1 -13 1151.78   75.69
   1  13  -4 1158.98   79.09
   1 -13   4 1128.69   75.19
   4   1 -13 1205.08   75.39
  13  -4   1 1180.98   74.49
  -4   1 -13  950.10   75.89
  -1  13  -4 1059.79   78.69
  -1 -13   4  939.81   74.79
   1  13   4 1010.90   76.59
  13  -4  -1  904.41   74.19
  -1 -13  -6  107.79   14.20
   1  13  -6  102.29   18.20
   1 -13   6   89.09   14.10
  -1  13   6  107.79   15.20
  -6  -1 -13   91.89   16.00
  13  -6   1   99.49   12.90
  -1  13  -6  101.09   17.00
  -1 -13   6  112.69   13.80
  -6   1 -13  118.29   17.60
   1 -13  -6  123.79   15.10
   1  13   6  126.49   16.20
  13  -6  -1  126.49   13.20
   1  13  -8   38.40   15.40
  -1  13   8   44.30    7.80
  13  -8   1   31.90    8.40
   1 -13   8   41.00    9.40
  -1  13  -8   -0.80   15.70
   1 -13  10 1192.98   76.59
  13 -10   1 1213.28   76.49
   1  13 -10 1239.38   82.09
 -13  10   1 1187.48   80.19
  -1  13 -10  995.50   81.09
  13 -10  -1  994.70   76.29
 -10   1 -13 1016.60   79.59
  -1 -13  10  981.50   76.09
 -13  10  -1 1006.80   80.29
   1  13 -12  657.93   50.69
  13 -12   1  649.04   43.20
 -13  12   1  688.83   48.50
  13 -12  -1  482.25   42.80
  -1  13 -12  468.75   48.90
 -13  12  -1  490.25   48.20
  -1  -2 -13 1701.33  113.69
   2  13  -1 1660.03  116.99
  13  -1   2 1659.73  113.39
  -2 -13  -1 1695.73  114.19
   1   2 -13 1671.73  114.99
   2 -13   1 1638.24  114.39
  -2  13   1 1738.73  116.69
  -1   2 -13 1638.84  115.19
  13  -1  -2 1627.84  113.49
   2  13   1 1694.73  116.69
  -2 -13   1 1589.74  114.09
   2 -13  -1 1613.04  114.39
  -2  13  -1 1775.62  117.19
  -2 -13  -3 1395.96   90.69
   2  13  -3 1473.95   94.49
  -3  -2 -13 1423.56   90.79
  13  -3   2 1430.36   90.09
  -2  13   3 1447.16   92.89
   2 -13   3 1374.26   90.89
   3   2 -13 1427.96   91.49
  -2 -13   3 1177.58   90.39
  -2  13  -3 1233.78   93.69
   2  13   3 1191.78   92.49
  -3   2 -13 1190.78   91.69
  13  -3  -2 1228.18   89.99
   2 -13  -3 1119.29   90.59
  -5  -2 -13  436.86   34.00
   5   2 -13  449.86   34.20
   2  13  -5  488.95   39.80
  -2  13   5  459.25   35.10
  -2 -13  -5  417.56   33.10
   2 -13   5  426.06   33.60
  13  -5   2  469.25   32.60
   2  13  -7  319.07   32.20
  -2 -13  -7  295.97   24.10
   2 -13   7  287.97   24.30
  13  -7   2  286.47   23.50
  -2  13   7  287.67   24.20
   2 -13   9  448.46   39.00
  13  -9   2  429.16   38.30
   2  13  -9  425.76   44.40
 -13   9   2  445.86   42.50
  -9   2 -13  618.94   43.40
  13  -9  -2  579.94   38.80
  -2 -13   9  587.04   38.60
  -2  13  -9  595.64   45.90
 -13   9  -2  576.74   45.30
 -13  11   2 1608.44  106.39
   2  13 -11 1602.54  108.29
  13 -11   2 1587.74  103.09
   2 -13  11 1583.74  103.09
  13 -11  -2 1316.87  102.79
  -2  13 -11 1387.36  107.49
 -11   2 -13 1420.76  106.69
 -13  11  -2 1377.26  107.09
  -3 -13   0 2191.88  151.38
  13   0  -3 2126.89  150.68
   0   3 -13 2263.47  152.78
   3 -13   0 2210.48  151.78
  -3  13   0 2308.67  153.98
   3  13   0 2245.28  154.08
  -3 -13  -2 1413.76   91.09
   3  13  -2 1427.46   94.69
  -2  -3 -13 1397.66   90.59
   2   3 -13 1449.46   92.59
  -3  13   2 1457.15   93.69
  13  -2   3 1431.66   90.49
   3 -13   2 1413.26   91.59
   3  13   2 1206.88   93.49
  -2   3 -13 1193.78   92.39
  -3  13  -2 1269.27   94.09
  -3 -13   2 1166.78   90.79
   3 -13  -2 1184.98   91.39
  13  -2  -3 1208.68   90.39
  -3 -13  -4 1868.91  135.29
   3  13  -4 1942.61  138.79
  -3  13   4 1935.21  136.89
   3 -13   4 1908.31  135.69
   4   3 -13 1953.70  136.59
  -4  -3 -13 1866.81  135.59
  13  -4   3 1951.30  134.99
   3 -13  -4 2434.26  136.09
  -3  13   6  269.17   23.00
  13  -6   3  272.17   21.00
   6   3 -13  266.97   23.60
   3 -13   6  276.67   22.80
   3  13  -6  275.17   29.60
  -3 -13  -6  267.07   21.50
  -6   3 -13  241.98   25.80
  -3  13  -6  260.27   29.60
   3  13   6  239.58   24.00
   3 -13  -6  253.27   22.70
  13  -6  -3  247.58   21.30
  -3 -13   6  224.78   20.90
   3  13  -8  435.16   36.80
  -3  13   8  412.26   28.20
  -3 -13  -8  410.66   28.70
   3 -13   8  418.56   29.80
  -8   3 -13  291.47   33.10
   3 -13  -8  295.27   29.60
  -3  13  -8  285.47   35.70
  13 -10   3  256.27   21.20
   3  13 -10  276.57   30.30
 -13  10   3  237.18   26.10
   3 -13  10  259.17   21.80
  -3  13 -10  174.48   28.60
  13 -10  -3  179.88   20.80
 -10   3 -13  176.68   27.30
 -13  10  -3  183.58   29.00
   3 -13  12  615.94   45.80
   3  13 -12  615.74   52.69
  13 -12   3  616.24   45.40
 -13  12   3  588.64   49.40
   4 -13   1 1104.99   72.79
  13  -1   4 1133.69   71.29
  -4  13   1 1222.68   75.39
   1   4 -13 1158.58   74.19
   4  13  -1 1172.48   76.29
  -4 -13  -1 1123.59   71.99
  13   1  -4 1075.19   71.19
  13  -1  -4  874.51   71.29
  -1   4 -13  930.21   73.79
   4 -13  -1  930.81   72.59
   4  13   1  961.90   75.19
  -4  13  -1  975.90   75.19
  -4 -13   1  900.71   71.69
  13  -3   4 1894.51  128.19
   4  13  -3 1831.82  131.79
   4 -13   3 1853.21  129.09
  -4 -13  -3 1873.91  128.49
  -4  13   3 1927.41  130.79
   3   4 -13 1920.71  130.29
  13  -5   4 1142.09   73.99
   4  13  -5 1160.18   79.09
   4 -13   5 1134.59   74.89
  -4  13   5 1206.38   76.09
  -5  -4 -13 1095.99   74.69
  -4 -13  -5 1087.99   73.99
   5   4 -13 1218.28   76.39
  -4 -13   5  924.91   73.69
   4 -13  -5  920.41   74.59
  -5   4 -13 1022.70   76.69
   4  13   5 1005.00   76.19
  -4  13  -5 1045.00   78.49
  13  -5  -4  964.20   73.89
   4  13  -7  143.39   24.20
   4 -13   7  144.89   16.90
  -4  13   7  141.29   15.30
  -4 -13  -7  141.39   14.90
  13  -7   4  156.58   15.00
   7   4 -13  159.48   19.20
  -4 -13   7  127.79   14.50
  -7   4 -13  132.09   21.90
  13  -7  -4  119.99   15.50
  -4  13  -7  136.29   24.80
   4 -13  -7  110.89   16.30
   4  13  -9  739.03   55.99
  -4  13   9  666.13   48.20
 -13   9   4  792.32   53.49
  13  -9   4  718.23   49.80
   4 -13   9  715.53   50.39
  -9   4 -13  662.93   54.49
 -13   9  -4  657.53   55.99
  13  -9  -4  633.24   49.90
  -4  13  -9  649.04   55.89
   4 -13  11  458.55   38.50
  13 -11   4  481.05   38.30
   4  13 -11  472.95   45.00
 -13  11   4  460.85   41.70
 -11   4 -13  592.34   45.70
 -13  11  -4  553.94   46.30
  -4  13 -11  520.55   46.10
  13 -11  -4  533.95   39.10
   5 -13   0 1513.55  104.59
   0   5 -13 1558.14  106.19
  -5  13   0 1490.25  106.79
   5  13   0 1528.95  107.29
  -5 -13   0 1494.95  103.69
   5  13  -2  484.15   39.70
  13  -2   5  460.55   33.00
  -5 -13  -2  453.95   33.50
   2   5 -13  475.75   37.10
  -5  13   2  473.45   37.70
   5 -13   2  450.85   35.20
  -4  -5 -13 1094.09   73.79
  -5  13   4 1158.58   76.39
  13  -4   5 1154.68   73.79
   5 -13   4 1111.49   74.79
   5  13  -4 1155.28   78.99
   4   5 -13 1180.78   76.59
  -5 -13  -4 1157.48   73.79
  -5  13  -4 1001.50   77.99
   5 -13  -4  938.51   74.49
  -4   5 -13  974.30   76.59
  13  -4  -5  983.20   73.89
   5  13   4  997.90   76.59
  -5 -13   4  980.40   73.49
   6   5 -13  609.64   47.50
   5 -13   6  572.14   45.40
  13  -6   5  604.14   44.40
  -5 -13  -6  586.44   44.10
  -5  13   6  554.24   45.60
   5  13  -6  552.64   50.29
  -5  13  -6  686.73   50.99
  -6   5 -13  723.63   49.40
  13  -6  -5  677.23   44.80
   5 -13  -6  655.23   45.40
  -5 -13   6  632.34   44.00
  -5  13   8   56.99    8.40
  -5 -13  -8   45.70    8.40
  13  -8   5   47.40    9.60
   5  13  -8   59.69   17.70
   8   5 -13   52.09   13.30
   5 -13   8   33.60   10.20
  -5  13  -8   15.70   15.20
  -8   5 -13   29.60   15.70
 -13   8  -5    4.40   15.30
   5  13 -10  635.84   51.69
 -13  10   5  544.65   47.00
  13 -10   5  610.74   44.50
   5 -13  10  649.83   45.30
  13 -10  -5  575.54   44.90
  -5  13 -10  592.14   51.59
 -10   5 -13  615.14   50.59
 -13  10  -5  618.14   52.09
 -13  12   5   18.00   12.70
  13 -12   5   49.30   12.10
   5  13 -12   41.90   18.10
   5 -13  12   31.70   11.60
 -12   5 -13   46.40   19.80
  -5  13 -12   19.50   17.10
  13 -12  -5   29.40   12.60
 -13  12  -5   19.40   18.10
  -6 -13  -1  104.09   11.60
   1   6 -13   92.09   15.20
   6 -13   1  111.49   15.60
   6  13  -1  125.19   19.20
  -6  13   1  104.59   16.50
  -6  13  -1  121.89   20.90
   6  13   1  143.89   21.10
   6 -13  -1  125.09   15.90
  -1   6 -13  138.49   18.80
  -6 -13   1  127.89   11.80
  -3  -6 -13  262.07   19.10
   3   6 -13  269.57   26.30
   6 -13   3  278.57   23.30
  -6  13   3  265.17   25.90
  13  -3   6  262.87   20.60
   6  13  -3  294.27   29.00
  -6 -13  -3  279.07   20.70
  -6 -13   3  259.57   20.30
   6 -13  -3  246.68   23.30
   6  13   3  254.07   27.00
  -3   6 -13  236.48   26.70
  -6  13  -3  261.27   28.80
   6  13  -5  538.45   48.60
   6 -13   5  590.84   44.30
   5   6 -13  592.44   46.60
  -6  13   5  595.14   45.40
  -6 -13  -5  580.14   42.70
  13  -5   6  563.04   42.90
  13  -5  -6  694.33   43.70
   6 -13  -5  660.13   44.50
  -5   6 -13  601.34   47.60
  -6  13  -5  647.64   49.40
  -6 -13   5  569.34   42.50
   6 -13   7  127.59   17.50
  -6 -13  -7  131.99   14.10
   6  13  -7  137.79   21.50
  -6  13   7  139.59   16.10
  13  -7   6  127.19   15.40
   7   6 -13  127.79   21.30
   6 -13  -7  176.38   18.80
  -6  13  -7  182.08   26.60
  13  -7  -6  168.58   16.80
   6 -13   9   11.20   10.10
 -13   9   6   14.80   10.80
   6  13  -9    7.40   15.80
  -6 -13  -9   11.50    7.50
  13  -9   6   12.10    8.70
  13  -9  -6   22.20   10.30
 -13   9  -6    7.70   15.60
  -6  13  -9   15.20   17.70
   6 -13  -9   16.30   10.60
  -9   6 -13    0.00   14.30
   6 -13  11  642.34   48.50
   6  13 -11  640.34   55.29
  13 -11   6  628.94   48.00
 -13  11   6  533.25   49.80
 -11   6 -13  708.03   55.09
 -13  11  -6  737.33   56.69
  -6  13 -11  713.33   56.09
  13 -11  -6  666.13   48.50
   7 -13   0  761.22   56.09
   7  13   0  782.72   59.49
  -7 -13   0  765.92   54.29
  -7  13   0  794.02   58.99
   0   7 -13  823.62   58.79
  -7  13   2  301.87   31.90
   2   7 -13  326.57   32.60
   7  13  -2  295.57   34.60
  -7 -13  -2  317.97   26.60
  -7 -13   2  438.96   26.80
  -7  13  -2  451.55   34.80
   7  13   2  442.96   34.00
  -7 -13  -4  142.79   12.80
   7 -13   4  151.28   17.30
   4   7 -13  142.89   20.70
  -7  13   4  141.29   19.20
  13  -4   7  140.59   13.80
   7  13  -4  163.08   24.20
  -4   7 -13  117.39   21.80
   7 -13  -4  109.49   16.80
  -7  13  -4  134.09   20.10
  -7 -13   4  120.49   12.50
   7  13  -6  154.88   22.90
  13  -6   7  144.99   15.80
  -7  13   6  148.79   17.80
  -7 -13  -6  131.79   14.20
   7 -13   6  141.79   17.50
   6   7 -13  123.59   22.00
  -6   7 -13  181.98   24.40
   7 -13  -6  173.08   18.80
  -7  13  -6  173.78   26.90
  13  -6  -7  174.28   17.10
  -7  13   8   18.40    7.60
  13  -8   7   35.80    9.50
   8   7 -13   27.50   13.10
  -7 -13  -8   19.30    6.70
   7  13  -8   32.20   17.90
   7 -13   8   18.20   10.40
  13 -10   7  636.64   44.70
 -13  10   7  615.44   46.20
   7 -13  10  631.74   45.50
   7  13 -10  641.54   52.19
  -7 -13 -10  586.24   43.20
  -7  13 -10  566.84   52.39
 -10   7 -13  603.44   51.39
 -13  10  -7  595.14   53.39
  13 -10  -7  576.14   45.10
   7 -13 -10  553.34   45.20
  13 -12   7  169.68   20.30
   7 -13  12  199.48   21.70
   7  13 -12  173.38   31.30
 -13  12   7  155.48   20.80
  -7  13 -12  187.38   27.60
 -13  12  -7  152.18   26.40
  13 -12  -7  168.58   21.60
 -12   7 -13  118.69   23.40
   1   8 -13   43.20   14.00
  -8  13   1   44.90   14.00
  -8 -13  -1   46.40    6.00
   8 -13   1   37.30   10.10
   8  13  -1   33.70   14.80
  -1   8 -13   12.30   13.60
  -8  13   3  427.76   35.70
  -8 -13  -3  424.36   30.50
   8  13  -3  439.56   39.20
   8 -13   3  411.26   33.30
   3   8 -13  444.76   37.40
   8  13  -5   55.19   17.70
  -8  13   5   44.30   11.60
  13  -5   8   52.79    9.00
  -8 -13  -5   61.69    7.40
   8 -13   5   68.39   12.20
   5   8 -13   61.09   15.80
  -5   8 -13   18.30   13.80
   8  13  -7   25.30   17.90
   7   8 -13   30.10   15.70
  -7   8 -13  116.79   18.00
 -13   7  -8  122.79   20.70
   8 -13  -7  105.99   16.70
   8  13  -9  398.66   40.30
   8 -13   9  379.56   32.00
  13  -9   8  386.66   31.00
 -13   9   8  373.76   32.20
  -8 -13  -9  389.46   28.90
   9   8 -13  378.26   36.70
  -9   8 -13  413.36   39.90
  13  -9  -8  386.76   31.90
 -13   9  -8  406.36   40.40
   8 -13  -9  388.86   32.90
  -8  13  -9  386.46   39.70
   8  13 -11  208.88   32.60
  13 -11   8  200.68   21.50
  -8 -13 -11  196.98   18.00
   8 -13  11  176.68   22.70
 -13  11   8  204.28   21.40
 -13  11  -8  225.08   33.60
  -8  13 -11  215.58   34.30
  13 -11  -8  173.88   22.00
 -11   8 -13  215.68   33.80
  -9 -13   0  551.74   39.40
   0   9 -13  571.84   46.30
   9 -13   0  587.34   42.50
  -9  13   0  569.84   46.10
  -9 -13  -2  416.06   30.00
  -9  13   2  467.55   36.80
   9 -13   2  437.96   33.70
   2   9 -13  407.36   37.90
   9  13  -2  406.86   39.40
   4   9 -13  731.53   53.69
  -9  13   4  702.43   51.69
   9 -13   4  705.53   49.80
   9  13  -4  667.13   54.49
  -9 -13  -4  716.33   47.10
   9 -13  -4  640.84   49.80
  -4   9 -13  608.14   53.79
  -9  13  -4  645.44   54.29
   6   9 -13   15.30   13.40
   9  13  -6   16.20   17.70
  -9 -13  -6   14.40    5.30
  -9  13   6   14.20    9.70
  13  -6   9   13.70    8.30
   9 -13   6   15.40   10.90
 -13   6  -9    4.70   16.30
   9 -13  -6   12.20   10.40
  -9  13  -6    7.00   17.30
  -6   9 -13    2.10   14.50
  13  -8   9  367.16   30.40
   9  13  -8  411.96   39.80
  -9  13   8  374.76   30.30
  -9 -13  -8  383.46   28.10
 -13   8   9  355.76   31.10
   8   9 -13  359.16   36.30
   9 -13   8  376.26   31.50
 -13   8  -9  391.86   40.20
  13  -8  -9  405.36   31.50
   9 -13  -8  405.66   32.50
  -9  13  -8  410.26   40.50
  -8   9 -13  360.36   38.20
  13 -10   9  640.04   48.50
   9 -13  10  620.04   49.10
   9  13 -10  581.74   55.29
 -13  10   9  642.64   48.10
  -9 -13 -10  578.84   46.10
 -13  10  -9  716.33   57.89
   9 -13 -10  691.23   49.50
  -9  13 -10  709.63   56.89
 -10   9 -13  734.43   57.19
  13 -10  -9  689.73   49.30
  13 -12   9  615.54   42.20
  -9 -13 -12  550.74   39.30
   9  13 -12  559.94   50.29
   9 -13  12  598.24   42.70
  -9  13 -12  417.86   51.19
 -12   9 -13  393.26   50.79
   1  10 -13 1213.08   80.29
  10 -13   1 1185.58   76.19
 -10  13   1 1192.88   79.19
  -1  10 -13  986.80   79.49
  10 -13  -1  978.30   75.79
 -10  13  -1  928.11   79.09
 -10  13   3  264.27   25.40
   3  10 -13  266.77   28.90
  10 -13   3  254.17   21.90
  10  13  -3  239.88   29.90
  -3  10 -13  186.78   28.20
 -10  13  -3  176.38   28.90
  10 -13  -3  186.38   22.50
 -10  13   5  636.94   47.00
   5  10 -13  642.44   50.39
  10 -13   5  638.94   45.20
  10  13  -5  613.24   51.49
 -13   5 -10  601.84   51.89
 -10  13  -5  567.44   50.89
  10 -13  -5  569.64   45.20
  -5  10 -13  567.34   50.09
  13  -7  10  658.63   45.30
   7  10 -13  688.83   51.49
 -10  13   7  629.34   46.40
  10 -13   7  611.64   46.20
  10  13  -7  619.24   52.19
 -13   7  10  606.74   45.50
  -7  10 -13  590.74   52.59
 -10  13  -7  585.24   52.59
  10 -13  -7  556.64   46.20
 -13   7 -10  601.34   53.19
  10  13  -9  602.84   55.09
  10 -13   9  591.94   48.00
 -10 -13  -9  586.24   45.10
  13  -9  10  622.74   47.60
   9  10 -13  584.34   52.99
  -9  10 -13  692.93   55.99
  10 -13  -9  684.63   49.20
 -10  13  -9  726.83   56.89
  13  -9 -10  669.73   48.40
 -13   9 -10  741.53   57.69
 -10 -13 -11  773.32   53.09
  10 -13  11  822.72   56.19
  10  13 -11  828.92   63.99
  13 -11  10  816.32   55.79
  13 -11 -10  723.13   56.69
 -10  13 -11  722.83   64.89
  10 -13 -11  697.03   56.49
 -13  11 -10  695.33   64.29
 -11  10 -13  706.03   64.09
 -11  13   0  366.76   35.70
   0  11 -13  377.16   36.60
  11 -13   0  365.36   30.40
  11 -13   2 1534.45  101.89
 -11  13   2 1558.74  104.69
   2  11 -13 1646.64  106.39
  11 -13  -2 1302.97  101.59
  -2  11 -13 1393.36  105.69
 -11  13  -2 1371.06  105.49
 -11  13   4  479.35   41.00
  11 -13   4  469.55   38.80
   4  11 -13  500.55   44.60
  11 -13  -4  551.14   39.50
  -4  11 -13  508.45   45.00
 -11  13  -4  518.15   45.50
 -11  13   6  620.94   50.49
   6  11 -13  661.13   55.19
  11 -13   6  629.64   49.20
 -13   6 -11  687.53   56.19
  11 -13  -6  665.43   49.90
  -6  11 -13  713.83   56.39
 -11  13  -6  722.03   57.09
   8  11 -13  212.08   31.20
  11  13  -8  197.68   33.10
 -11  13   8  238.68   20.40
  11 -13   8  192.78   23.10
  11 -13  -8  216.88   23.20
 -11  13  -8  203.98   33.90
  -8  11 -13  201.78   33.30
 -13   8 -11  215.58   34.20
  10  11 -13  851.11   62.69
  13 -10  11  816.42   55.89
  11 -13  10  828.22   56.49
  11  13 -10  779.32   63.59
 -11  13 -10  735.83   64.89
  13 -10 -11  688.73   56.29
 -10  11 -13  734.33   64.69
 -13  10 -11  677.83   64.69
  11 -13 -10  712.43   56.99
  13 -12  11 1229.08   83.49
  11 -13  12 1239.68   83.79
  13 -12 -11 1139.69   84.29
  11 -13 -12 1172.08   84.79
 -11  13 -12 1150.38   92.09
 -13  12 -11 1069.19   91.19
 -12  11 -13 1191.58   92.19
   1  12 -13  649.64   49.10
  12 -13   1  636.14   42.50
 -12  13   1  625.74   47.10
 -12  13  -1  480.55   47.10
  -1  12 -13  455.85   47.70
  12 -13  -1  483.05   42.00
  12 -13   3  613.54   50.79
   3  12 -13  609.84   56.29
 -12  13   3  588.54   53.59
  -3  12 -13  853.11   57.89
 -12  13  -3  849.81   57.99
  12 -13   5   25.40   10.90
   5  12 -13   40.20   18.60
 -12  13   5   38.40   13.20
  -5  12 -13   27.10   17.20
 -13   5 -12   50.49   20.40
 -12  13  -5   31.60   19.50
  12 -13  -5   29.10   12.70
 -12  13   7  162.08   20.40
   7  12 -13  212.28   27.10
  12 -13   7  165.08   20.90
 -12  13  -7  133.79   24.60
  -7  12 -13  147.59   25.00
 -13   7 -12  154.98   25.00
  12 -13  -7  153.08   21.80
  12 -13  -9  374.06   33.60
 -12  13  -9  362.16   44.20
 -13   9 -12  422.36   44.00
  -9  12 -13  378.56   44.00
 -11 -12 -13 1114.49   79.19
  12 -13  11 1191.68   81.79
  12 -13 -11 1123.99   82.39
 -11  12 -13 1184.58   90.09
  13 -11 -12 1102.79   82.19
 -12  13 -11 1145.69   90.29
 -13  11 -12 1175.68   90.79
 -13  13   0  259.87   32.20
   0  13 -13  284.77   33.60
  13 -13   0  255.37   25.30
 -13  13  -2 1092.89   81.39
  13 -13  -2 1061.39   76.29
  -2  13 -13 1068.89   81.69
  13 -13   4  272.47   25.60
   4  13 -13  325.67   34.60
 -13  13   4  325.97   29.80
  -4  13 -13  209.08   33.80
 -13  13  -4  217.48   34.50
  13 -13  -4  239.28   25.40
 -13   4 -13  242.18   34.30
  13 -13   6  231.48   23.90
   6  13 -13  201.88   33.50
 -13  13   6  203.08   25.00
  -6  13 -13  228.98   34.90
 -13  13  -6  219.98   34.30
  13 -13  -6  240.98   25.00
 -13   6 -13  242.28   34.50
  13 -13   8  956.30   70.59
   8  13 -13 1048.30   77.89
  -8  13 -13  956.60   78.69
 -13  13  -8  974.80   79.09
  13 -13  -8  971.40   71.09
 -13   8 -13  998.70   78.39
  10 -13 -13 1434.16   98.99
 -10  13 -13 1422.06  106.19
  13 -13 -10 1372.46   98.39
 -13  13 -10 1330.77  105.39
  13 -13  12   -0.80   12.60
 -13  12 -13    4.90   24.50
 -12  13 -13   25.00   24.80
  12 -13 -13   50.39   17.70
  13 -13 -12   30.60   15.20
 -13  13 -12   11.70   22.40
  13 -12 -13   31.00   15.10
   0 -14   0 7216.68  518.35
   0   0 -14 8030.60  518.55
   0  14   0 7755.92  520.75
   0 -14   2  290.77   24.50
   0  14  -2  256.47   30.10
   0  14   2  314.47   28.40
   2   0 -14  311.77   23.10
  14  -2   0  311.17   22.10
   0 -14  -2  291.97   24.30
  -2   0 -14  298.87   24.10
   0  14   4   58.89   12.60
   0  14  -4   64.09   15.70
  14  -4   0   66.59   10.00
   0 -14   4   72.89   10.50
  -4   0 -14   66.39   10.90
   0 -14  -4   65.29   10.20
   0  14   6   85.39   12.30
  -6   0 -14   96.09   13.40
   0 -14  -6   78.59   13.90
  14  -6   0   79.29   12.20
   0  14  -6   62.49   16.60
   0 -14   6   92.09   14.30
   0  14  -8  251.77   30.40
  -8   0 -14  204.58   24.60
   0 -14  -8  248.78   22.20
   0 -14   8  234.78   21.50
  14  -8   0  244.68   20.90
  14 -10   0   66.99   11.60
 -14  10   0   72.79   17.50
 -10   0 -14   62.89   15.80
   0 -14  10   72.29   12.50
   0  14 -10   89.49   20.70
 -14  12   0  429.86   41.00
   0  14 -12  432.76   43.10
  14 -12   0  422.76   34.40
   1 -14   1 4555.34  350.46
  14  -1   1 4832.52  349.67
  -1  -1 -14 4822.82  350.36
  -1 -14  -1 4591.04  350.36
   1   1 -14 4886.21  350.76
  -1  14   1 4933.81  352.46
   1  14  -1 5005.90  352.96
   1 -14  -1 5340.37  350.66
  14  -1  -1 5558.04  349.87
  -1 -14   1 5253.17  350.56
   1  14   1 5728.13  353.16
  -1  14  -1 5618.64  353.26
   1  -1 -14 5781.12  350.06
  -1   1 -14 5573.04  351.26
  14  -3   1  699.73   48.60
   1  14  -3  684.83   54.19
  -3  -1 -14  658.23   49.70
  -1 -14  -3  658.13   49.70
  -1  14   3  665.83   52.39
   3   1 -14  698.63   49.70
   1 -14   3  668.13   49.90
  -3   1 -14  724.63   50.79
   1 -14  -3  698.03   50.09
  -1 -14   3  690.73   49.70
   1  14   3  765.02   52.69
  -1  14  -3  744.13   54.69
  14  -3  -1  723.33   48.70
  14  -5   1 1161.98   70.79
  -1 -14  -5 1025.00   71.19
  -1  14   5 1134.59   73.09
   1 -14   5 1117.89   71.59
   1  14  -5 1143.59   76.19
  -5  -1 -14 1099.09   72.29
  -5   1 -14  905.81   72.49
  -1 -14   5  888.01   70.99
  -1  14  -5  941.51   75.09
  14  -5  -1  901.81   70.49
   1  14   5  910.11   72.69
   1  14   7  128.79   16.80
   1 -14  -7  128.09   16.90
  -7   1 -14  144.09   19.80
  14  -7  -1  145.39   15.40
  -1 -14   7  145.29   15.80
  -1  14  -7  139.19   24.70
  -9  -1 -14  504.95   43.20
   1  14  -9  472.75   47.30
  14  -9   1  496.65   40.10
   1 -14   9  508.85   40.40
  -1 -14  -9  481.75   40.30
 -14   9   1  492.05   45.40
 -14   9  -1  632.94   47.30
  -1 -14   9  584.84   40.40
  -9   1 -14  594.74   44.50
   1 -14  -9  581.84   40.90
  14  -9  -1  596.24   40.40
  -1  14  -9  583.94   47.60
  14 -11   1  808.72   58.39
   1 -14  11  823.42   58.59
 -14  11   1  872.81   63.29
   1  14 -11  799.42   64.89
  -1  14 -11  806.42   64.79
 -14  11  -1  791.72   63.79
  14 -11  -1  779.72   58.39
 -11   1 -14  823.22   62.89
 -14  13   1 1591.14  110.79
   1  14 -13 1636.84  112.59
  14 -13   1 1624.34  106.69
 -13   1 -14 1481.85  110.59
  -1  14 -13 1422.86  111.79
  14 -13  -1 1454.05  106.59
 -14  13  -1 1493.05  111.09
  14   0  -2  298.47   22.00
   2  14   0  306.57   30.10
   0   2 -14  298.07   25.30
  -2 -14   0  318.07   24.40
   2 -14   0  297.47   24.90
  -2  14   0  320.27   29.70
  -2  -2 -14 4933.11  321.37
   2  14  -2 5247.38  324.77
   2 -14   2 4998.50  321.87
  14  -2   2 4988.50  320.87
  -2 -14  -2 4802.52  321.57
   2   2 -14 5043.10  322.37
  -2  14   2 5080.79  323.77
  -2 -14   2 4298.87  321.37
  -2   2 -14 4294.27  322.27
  14  -2  -2 4392.26  320.87
   2 -14  -2 4405.56  321.57
   2  14   2 4479.75  323.47
  -2  14   4  840.32   62.49
  -4  -2 -14  799.12   60.39
   4   2 -14  839.32   60.89
   2  14  -4  843.02   65.39
  14  -4   2  837.12   59.49
  -2 -14  -4  832.12   60.29
   2 -14   4  810.22   60.59
   2  14   4  908.81   62.99
  -2 -14   4  859.41   60.19
  -4   2 -14  888.11   61.99
  14  -4  -2  900.01   59.59
   2 -14  -4  865.81   60.79
  -2  14  -4  932.41   65.19
   2  14  -6  209.48   28.70
  -2 -14  -6  184.18   19.50
   2 -14   6  194.18   20.80
  -6  -2 -14  189.58   21.00
  -2  14   6  182.78   21.00
  14  -6   2  206.18   18.90
  14  -6  -2  249.68   19.30
  -2 -14   6  223.48   19.70
  -6   2 -14  257.57   24.00
  -2  14  -6  275.07   28.50
   2 -14  -6  247.28   21.00
   2  14   6  254.97   22.50
   2 -14   8  343.57   26.40
  -2  14   8  332.77   24.80
  -8  -2 -14  340.77   28.30
  -2 -14  -8  336.07   25.80
  14  -8   2  345.37   25.20
   2  14  -8  370.16   35.30
   2 -14  -8  263.57   26.40
  -8   2 -14  234.38   29.30
  14  -8  -2  244.48   24.90
  -2  14  -8  261.67   33.70
  14 -10   2 1681.63  130.29
   2  14 -10 1753.12  135.09
   2 -14  10 1672.93  130.49
 -14  10   2 1679.53  133.29
  14 -10  -2 2066.39  130.79
 -14  10  -2 2114.29  135.19
  -2  14 -10 2092.69  135.89
 -10   2 -14 2167.58  134.29
 -14  12   2   39.40   16.50
   2  14 -12   42.30   18.70
  14 -12   2   32.20   11.30
  14 -12  -2   52.89   12.00
 -14  12  -2   56.79   19.40
  -2  14 -12   47.20   18.60
 -12   2 -14   53.69   17.10
  -3  14   1  684.23   52.79
  -3 -14  -1  637.44   48.90
   3 -14   1  658.33   49.80
   1   3 -14  698.33   50.59
  14  -1   3  672.53   47.70
   3  14  -1  714.23   53.79
  14   1  -3  633.44   48.00
  -3  14  -1  745.73   53.69
  -1   3 -14  713.73   50.89
  -3 -14   1  720.63   49.00
  14  -1  -3  710.23   48.10
   3  14   1  711.73   53.39
   3 -14  -1  719.63   49.90
  -3  -3 -14  253.07   21.60
   3 -14   3  270.37   23.90
  14  -3   3  265.87   21.30
  -3  14   3  273.57   26.90
  -3 -14  -3  249.58   22.60
   3  14  -3  280.37   30.80
   3   3 -14  281.87   24.40
   3  14   3  325.77   28.00
   3 -14  -3  282.47   24.20
  14  -3  -3  295.67   21.80
  -3 -14   3  291.17   22.60
  -3  14  -3  313.17   29.50
  -3   3 -14  297.57   25.70
  -5  -3 -14  103.99   13.70
  14  -5   3   96.79   12.10
   3 -14   5  105.89   14.80
   3  14  -5   99.29   17.70
  -3  14   5  107.79   16.90
   5   3 -14  102.39   15.60
  -3 -14  -5   87.79   13.40
  -3 -14  -7  182.88   17.80
  14  -7   3  164.68   17.50
   3  14  -7  171.68   27.90
  -7  -3 -14  194.28   20.00
   3 -14   7  184.98   19.70
  -3  14   7  173.28   18.30
  -7   3 -14  243.78   24.10
  14  -9   3  179.48   18.90
  -3  14   9  195.78   16.10
 -14   9   3  172.98   25.30
   3 -14   9  189.58   20.60
  -3 -14  -9  177.38   19.20
   3  14  -9  195.58   29.30
 -14   9  -3  221.68   30.10
  14  -9  -3  195.78   19.50
  -3 -14   9  208.28   19.10
  -9   3 -14  178.58   25.70
   3 -14  -9  207.58   20.50
  -3  14  -9  205.78   29.00
 -14  11   3  605.94   47.00
  14 -11   3  622.84   42.30
   3  14 -11  632.94   50.19
   3 -14  11  603.94   42.80
 -14  11  -3  504.35   48.90
 -11   3 -14  513.25   47.60
  -3  14 -11  489.75   49.50
  14 -11  -3  484.95   42.10
 -14  13   3  389.26   36.20
   3  14 -13  366.96   40.40
  14 -13   3  382.46   31.20
  14 -13  -3  341.37   31.50
 -14  13  -3  323.97   40.00
  -3  14 -13  373.16   41.20
 -13   3 -14  350.46   39.00
  -4  14   0   53.89   13.30
   4 -14   0   61.19   10.70
  -4 -14   0   64.29   10.70
  14   0  -4   65.09    8.10
   4  14   0   59.49   14.90
   0   4 -14   60.49   11.40
  -4  14   2  862.01   64.09
  -4 -14  -2  826.72   60.59
   4  14  -2  832.42   65.29
   2   4 -14  858.01   62.79
   4 -14   2  832.42   61.59
  14  -2   4  833.52   59.89
  -2   4 -14  922.81   63.19
  -4  14  -2  879.11   65.19
  14  -2  -4  868.11   60.19
   4 -14  -2  877.91   61.49
   4  14   2  956.10   64.89
  -4 -14   2  896.21   60.69
   4 -14   4  191.38   18.90
  14  -4   4  185.38   16.00
  -4  14   4  189.98   21.40
  -4 -14  -4  175.38   16.90
  -4  -4 -14  175.68   16.10
   4   4 -14  181.58   20.20
   4  14  -4  174.78   26.40
  14  -6   4  130.39   15.10
   4  14  -6  140.49   21.40
   6   4 -14  127.99   19.10
  -6  -4 -14  143.59   16.50
  -4 -14  -6  138.09   15.50
   4 -14   6  133.49   17.80
  -4  14   6  128.69   17.80
  -6   4 -14  205.48   22.50
  -4  14  -6  156.28   25.90
  -4 -14   6  173.58   15.50
  14  -6  -4  168.88   16.10
   4 -14  -6  184.48   18.00
  -4 -14  -8  286.97   24.70
  -4  14   8  280.47   24.50
  14  -8   4  295.47   24.90
   4  14  -8  274.37   33.20
   4 -14   8  310.27   26.40
  -8   4 -14  321.57   31.50
   4 -14  -8  325.27   26.70
  14  -8  -4  336.67   25.80
  -4 -14   8  313.57   24.80
  -4  14  -8  308.27   34.40
 -14  10   4  252.47   28.70
  14 -10   4  264.67   24.20
  -4 -14 -10  281.77   23.80
   4 -14  10  259.37   25.80
   4  14 -10  248.08   34.30
 -10   4 -14  306.97   32.20
   4 -14 -10  292.97   26.00
 -14  10  -4  308.57   33.90
  14 -10  -4  274.57   24.80
  -4  14 -10  288.07   33.80
 -14  12   4  325.27   34.00
   4 -14  12  340.47   29.90
  14 -12   4  344.37   29.20
   4  14 -12  355.56   38.10
  -5 -14  -1 1109.39   70.19
   5 -14   1 1107.59   71.39
   5  14  -1 1162.18   75.39
  14   1  -5 1031.80   69.49
  -5  14   1 1143.09   74.29
   1   5 -14 1124.59   73.09
  -1   5 -14  919.51   72.59
   5  14   1  954.40   74.19
  -5 -14   1  923.41   69.99
   5 -14  -1  907.31   71.09
  14  -1  -5  870.51   69.69
  -5  14  -1  941.11   73.99
   5 -14   3  106.19   15.10
  14  -3   5   97.29   11.00
   3   5 -14  111.79   17.80
  -5 -14  -3   89.39   12.10
  -5  14   3  105.39   18.70
   5  14  -3   97.29   17.50
  -3  -5 -14   92.89    8.60
  -5  -5 -14  156.48   15.60
  -5  14   5  172.38   19.70
  -5 -14  -5  151.58   15.70
  14  -5   5  173.48   15.60
   5 -14   5  161.48   18.50
   5  14  -5  167.48   26.00
   5   5 -14  171.18   20.70
   5 -14   7  171.88   20.10
  -5 -14  -7  170.38   16.90
  14  -7   5  182.38   17.50
   7   5 -14  195.08   22.10
   5  14  -7  183.88   28.80
  -5  14   7  174.28   18.50
  -5 -14  -9  755.32   53.29
  14  -9   5  729.23   53.59
   5 -14   9  746.83   54.29
   5  14  -9  736.43   60.79
 -14   9   5  796.12   57.19
  -9   5 -14  764.42   59.09
   5 -14  -9  740.03   54.69
  -5  14  -9  726.73   60.39
 -14   9  -5  743.33   60.89
  14  -9  -5  737.23   53.99
   5 -14  11  108.89   15.40
 -14  11   5  100.19   16.90
   5  14 -11   83.19   21.00
  14 -11   5  109.29   16.90
  14 -11  -5  117.79   18.10
 -11   5 -14  118.49   20.90
  -5  14 -11  129.69   23.60
 -14  11  -5   89.09   20.80
 -14  13   5  717.93   58.89
  14 -13   5  684.53   56.09
   5  14 -13  711.03   63.49
  14 -13  -5  799.62   56.59
 -14  13  -5  797.62   64.69
 -13   5 -14  837.42   63.59
  -5  14 -13  837.52   64.19
  -6  14   0   72.09   14.60
  -6 -14   0   78.69   10.40
   6 -14   0   84.89   14.90
   0   6 -14   95.99   15.10
   6  14   0   96.99   17.90
  -6  14   2  195.18   25.20
   6  14  -2  189.88   28.40
  -6 -14  -2  204.48   18.50
   6 -14   2  196.88   21.60
   2   6 -14  202.48   24.40
  -6  14  -2  281.07   28.00
  -6 -14   2  253.97   18.70
   6 -14  -2  252.37   21.80
  -2   6 -14  263.47   25.30
   6  14   2  248.78   26.90
  14  -2  -6  240.78   19.00
  14  -4   6  140.19   14.60
  -6 -14  -4  134.59   14.50
   4   6 -14  140.09   20.90
  -6  14   4  148.59   20.40
  -4  -6 -14  130.79   13.00
   6  14  -4  156.58   25.90
   6 -14   4  147.59   18.10
  14  -4  -6  171.88   15.60
   6 -14  -4  165.98   18.40
  -6  14  -4  165.98   24.70
  -4   6 -14  179.98   22.60
  -6 -14   4  170.98   14.40
   6   6 -14  545.65   44.70
  -6 -14  -6  576.44   40.60
   6  14  -6  569.44   48.80
   6 -14   6  580.74   42.40
  14  -6   6  551.54   40.80
  -6  14   6  555.14   42.80
  14  -8   6   73.79   11.10
   8   6 -14   62.69   14.90
  -6  14   8   62.59    9.90
  -6 -14  -8   67.09    9.20
   6  14  -8   49.80   18.80
   6 -14   8   75.09   13.10
 -14   8  -6   67.59   19.10
  -8   6 -14   66.29   16.30
   6 -14  -8   71.89   12.60
  14  -8  -6   75.89   11.30
  -6  14  -8   54.09   17.80
   6  14 -10  265.97   33.60
 -14  10   6  242.08   26.10
  -6 -14 -10  267.77   20.90
  14 -10   6  248.98   22.40
   6 -14  10  204.38   24.00
   6 -14 -10  179.98   24.30
  -6  14 -10  207.38   33.20
 -14  10  -6  245.78   34.30
  14 -10  -6  219.98   23.10
 -10   6 -14  221.78   31.40
   6 -14  12  117.69   16.80
   6  14 -12   62.29   20.50
  14 -12   6   99.29   15.00
 -14  12   6   83.99   15.70
 -12   6 -14   80.29   20.30
 -14  12  -6   88.29   22.30
  -6  14 -12   77.69   21.30
  14 -12  -6   96.89   14.70
  -7 -14   1  151.38   13.00
  -7  14  -1  127.29   23.30
   7 -14  -1  138.09   17.80
  -1   7 -14  116.89   21.40
   7  14   1  136.19   23.60
  -7 -14  -3  194.48   15.90
   7  14  -3  196.48   27.00
   3   7 -14  187.88   23.50
  -7  14   3  165.78   22.90
   7 -14   3  184.48   19.30
  14  -5   7  195.58   17.40
  -7  14   5  183.68   21.30
   5   7 -14  190.48   23.80
   7 -14   5  185.18   19.60
  -7 -14  -5  196.08   16.30
  -5  -7 -14  177.38   16.30
   7  14  -5  171.78   27.40
   7 -14   7  242.38   25.00
  14  -7   7  245.88   23.20
  -7  14   7  232.38   24.20
   7  14  -7  247.78   33.20
   7   7 -14  293.17   29.40
  -7 -14  -7  253.57   21.80
  14  -7  -7  316.97   24.40
 -14   7  -7  315.67   34.70
  -7  14  -7  322.47   34.00
   7 -14  -7  323.87   25.40
  -7   7 -14  298.27   31.20
  14  -9   7  475.15   39.90
  -7 -14  -9  491.75   38.50
   7  14  -9  499.65   48.40
 -14   9   7  436.96   41.80
   7 -14   9  506.95   40.80
  -7  14  -9  545.85   48.00
 -14   9  -7  600.14   49.10
  -9   7 -14  617.44   47.80
   7 -14  -9  619.34   41.90
  14  -9  -7  586.34   40.70
   7 -14  11    8.60   11.60
   7  14 -11   19.50   19.40
  14 -11   7   22.20   11.00
  -7 -14 -11   18.20    8.60
 -14  11   7   15.00   11.80
  -7  14 -11   35.60   19.80
 -14  11  -7   41.40   19.30
 -11   7 -14   50.99   19.50
   7 -14 -11   36.30   12.40
 -14  13   7  520.05   42.20
   7 -14  13  521.45   41.80
  14 -13   7  536.45   41.10
   7  14 -13  542.45   50.19
  -7  14 -13  535.45   51.69
 -14  13  -7  498.55   51.09
  14 -13  -7  481.65   41.70
 -13   7 -14  526.55   50.79
   8 -14   0  253.37   23.50
   0   8 -14  259.67   27.60
  -8  14   0  237.68   28.20
  -8 -14   0  247.48   19.00
   8  14   0  255.97   29.80
   8  14  -2  344.47   33.50
  -8  14   2  333.17   30.00
  -8 -14  -2  335.67   22.50
   2   8 -14  340.17   30.60
   8 -14   2  335.87   26.00
   8 -14  -2  253.87   26.10
  -8 -14   2  253.07   22.30
  -8  14  -2  247.28   31.40
  -8  14   4  250.27   27.70
  -8 -14  -4  282.27   22.30
   8 -14   4  274.77   26.00
   4   8 -14  299.27   29.90
   8  14  -4  291.27   34.20
  -4   8 -14  326.67   31.60
   8 -14  -4  329.67   26.40
  -8  14  -4  334.17   33.10
   8 -14   6   77.99   13.40
   6   8 -14   61.29   15.50
   8  14  -6   64.89   18.90
  -8  14   6   63.59   12.30
  14  -6   8   68.49   10.40
  -8 -14  -6   60.89   10.00
  -8  14  -6   74.59   18.40
  14  -6  -8   87.49   11.70
  -6   8 -14   64.09   16.40
   8 -14  -6   70.59   12.40
   8  14  -8   89.99   20.90
  -8 -14  -8   95.59   11.80
   8   8 -14   96.69   17.90
  14  -8   8   93.99   15.30
 -14   8   8   92.39   14.30
   8 -14   8   85.69   13.80
   8  14 -10  428.46   42.20
 -14  10   8  412.56   33.70
  14 -10   8  406.96   32.20
  -8 -14 -10  396.06   29.80
   8 -14  10  409.36   33.10
 -10   8 -14  371.06   41.30
   8 -14 -10  356.26   33.60
  14 -10  -8  405.96   33.10
  -8  14 -10  396.46   43.00
 -14  10  -8  353.76   43.70
  -8 -14 -12  270.07   25.00
   8 -14  12  302.27   29.10
  14 -12   8  271.07   28.00
   8  14 -12  287.27   39.00
  -8  14 -12  343.47   40.30
   8 -14 -12  338.07   30.40
  14 -12  -8  330.57   29.20
 -12   8 -14  372.76   40.00
 -14  12  -8  306.07   40.40
  -9  14   1  475.95   43.50
  -9 -14  -1  480.95   36.80
   1   9 -14  494.25   44.00
   9 -14   1  489.65   40.10
   9  14  -1  493.55   45.80
  -9  14  -1  604.84   45.20
   9 -14  -1  592.64   40.50
  -1   9 -14  561.94   44.80
  -9 -14   1  564.94   37.00
  -9 -14  -3  177.28   14.80
   9 -14   3  181.08   20.00
   9  14  -3  192.68   29.20
   3   9 -14  192.28   26.50
  -9  14   3  180.38   23.70
   9 -14  -3  189.28   21.00
  -3   9 -14  212.38   26.70
  -9  14  -3  203.38   28.40
   9 -14   5  750.82   54.59
   9  14  -5  727.73   60.39
  -9  14   5  761.02   55.99
   5   9 -14  749.53   58.49
  -9 -14  -5  754.02   51.89
  -5   9 -14  758.82   59.19
  -9  14  -5  760.22   60.39
   9 -14  -5  716.43   54.79
  -9 -14  -7  480.95   37.80
  -9  14   7  483.25   40.80
   9 -14   7  450.75   40.50
  14  -7   9  495.35   39.60
   7   9 -14  502.05   45.40
   9  14  -7  506.95   48.30
  -9  14  -7  613.34   49.10
   9 -14  -7  620.74   41.60
  14  -7  -9  604.34   40.70
  -7   9 -14  562.54   47.60
 -14   7  -9  620.44   50.29
  14  -9   9  170.78   20.40
   9   9 -14  176.78   27.60
  -9 -14  -9  174.88   16.70
   9  14  -9  212.88   32.00
   9 -14   9  194.18   22.20
 -14   9   9  185.58   21.10
  14  -9  -9  197.48   22.30
  -9  14  -9  197.18   34.20
  -9   9 -14  239.38   31.80
 -14   9  -9  238.18   33.90
   9 -14  -9  216.38   23.50
   9  14 -11  374.26   43.10
  -9 -14 -11  390.46   29.00
   9 -14  11  367.96   32.80
  14 -11   9  413.86   32.60
   9 -14 -11  373.06   34.70
  -9  14 -11  368.56   44.30
 -11   9 -14  358.66   43.10
 -14  11  -9  406.36   45.40
  14 -11  -9  384.96   33.50
   9  14 -13  154.88   26.90
   9 -14  13  145.69   23.20
  14 -13   9  155.28   21.70
  -9 -14 -13  152.38   16.30
 -13   9 -14  145.89   27.40
  -9  14 -13  149.99   30.30
 -14  13  -9   95.79   25.40
  14 -13  -9  145.09   23.50
   9 -14 -13  153.48   23.70
 -10  14   0   47.20   14.60
  10 -14   0   60.79   11.80
   0  10 -14   56.09   15.70
   2  10 -14 1726.33  133.39
 -10  14   2 1694.63  132.29
  10 -14   2 1644.04  129.99
  -2  10 -14 2113.19  134.39
  10 -14  -2 2086.49  130.69
 -10  14  -2 2096.49  134.19
   4  10 -14  230.98   30.70
  10 -14   4  256.67   24.70
  10  14  -4  235.78   32.50
 -10  14   4  271.67   27.70
  -4  10 -14  292.47   31.80
  10 -14  -4  285.77   25.10
 -10  14  -4  290.57   32.60
 -10  14   6  240.98   24.50
   6  10 -14  260.87   30.70
  10 -14   6  273.07   24.10
  10  14  -6  232.08   33.50
  10 -14  -6  180.58   24.30
 -10  14  -6  245.38   34.10
  -6  10 -14  212.08   31.50
 -14   6 -10  229.68   33.10
  10  14  -8  458.15   43.00
   8  10 -14  425.86   39.30
  14  -8  10  446.26   32.30
  10 -14   8  407.76   33.70
  10 -14  -8  377.96   33.70
  -8  10 -14  381.46   41.50
 -14   8 -10  382.36   43.60
 -10  14  -8  361.66   43.40
  14  -8 -10  358.66   33.00
  10  14 -10 2368.76  159.88
 -10 -14 -10 2398.06  152.68
  10 -14  10 2355.46  154.58
  10  10 -14 2491.35  158.68
  14 -10  10 2414.86  154.18
 -14  10 -10 2127.89  160.28
  14 -10 -10 2099.79  154.38
 -10  14 -10 2061.99  160.08
  10 -14 -10 1963.00  154.38
 -10  10 -14 2101.39  159.38
  10 -14  12   74.19   14.90
 -10 -14 -12   71.29   10.10
  10  14 -12   60.29   22.20
  14 -12  10  100.09   15.80
 -14  12 -10  104.19   26.30
  14 -12 -10  105.69   16.20
 -12  10 -14  116.19   24.50
 -10  14 -12   96.79   24.70
  10 -14 -12  112.49   17.50
  11 -14   1  817.52   57.89
 -11  14   1  799.72   61.09
   1  11 -14  778.22   62.49
  -1  11 -14  812.72   62.79
  11 -14  -1  779.52   57.79
 -11  14  -1  777.02   62.29
 -11  14   3  647.34   46.20
   3  11 -14  619.24   48.80
  11 -14   3  627.94   42.90
  -3  11 -14  467.35   47.60
  11 -14  -3  459.95   42.30
 -11  14  -3  532.95   49.00
  11 -14   5   85.99   14.60
 -11  14   5   96.19   15.80
   5  11 -14   88.69   19.50
  -5  11 -14  140.39   22.40
 -11  14  -5  138.79   23.50
 -14   5 -11  127.49   22.30
  11 -14  -5  132.59   19.20
   7  11 -14   26.00   16.40
  11 -14   7   23.60   12.70
 -11  14   7   15.10   10.40
  11  14  -7   10.90   19.20
  -7  11 -14   58.69   21.40
 -14   7 -11   34.80   19.60
 -11  14  -7   46.40   19.40
  11  14  -9  381.46   41.90
   9  11 -14  372.36   39.90
  11 -14   9  398.06   33.00
  14  -9 -11  388.66   33.00
  11 -14  -9  367.86   33.80
  -9  11 -14  379.06   43.20
 -14   9 -11  364.36   43.40
 -11  14  -9  369.16   44.30
  11 -14 -11   37.80   14.10
 -11  11 -14   22.50   20.90
 -11  14 -11   34.70   22.80
 -14  11 -11   49.20   23.10
  14 -11 -11   54.99   16.00
  14 -13  11  895.61   64.49
  14 -13 -11  909.31   65.59
 -11  14 -13  872.41   74.89
 -14  13 -11  867.51   75.49
 -13  11 -14  711.23   73.79
  13 -11 -14  901.21   65.59
  11 -14 -13  916.31   66.39
  12 -14   0  445.36   35.60
 -12  14   0  423.36   40.90
   0  12 -14  441.96   42.10
  12 -14   2   26.20   11.80
   2  12 -14   27.20   17.60
 -12  14   2   33.30   14.60
 -12  14  -2   59.29   18.80
  12 -14  -2   64.29   13.10
  -2  12 -14   47.60   18.10
  -4  12 -14  200.58   31.10
 -14   4 -12  204.38   32.80
 -12  14  -4  183.68   32.20
  12 -14  -4  193.08   22.40
   6  12 -14  110.59   22.60
  12 -14   6  108.19   15.90
 -12  14   6   93.19   15.60
  -6  12 -14   70.99   20.00
  12 -14  -6   78.49   14.60
 -14   6 -12  103.39   23.40
 -12  14  -6   70.79   21.60
   8  12 -14  320.57   38.30
  12 -14   8  305.27   29.50
  12 -14  -8  312.27   30.40
 -14   8 -12  319.57   40.40
  -8  12 -14  325.87   40.60
 -12  14  -8  319.27   41.50
  10  12 -14  101.49   24.60
  14 -10 -12  131.69   22.10
 -14  10 -12  109.19   28.60
  12 -14 -10  122.49   19.20
 -12  14 -10  120.39   28.50
 -10  12 -14  125.59   27.60
  12 -14 -12  518.25   43.40
  14 -12 -12  518.25   43.10
 -12  12 -14  477.35   53.99
  12 -12 -14  510.95   43.20
 -12  14 -12  521.85   54.99
 -14  12 -12  460.75   53.49
   1  13 -14 1628.54  112.09
  13 -14   1 1620.84  106.69
 -13  14   1 1559.64  110.39
  -1  13 -14 1431.36  111.29
 -13  14  -1 1458.45  110.79
  13 -14  -1 1462.75  106.59
   3  13 -14  418.16   40.70
 -13  14   3  376.36   35.90
  13 -14   3  383.96   31.70
  -3  13 -14  342.07   39.50
 -13  14  -3  354.76   40.40
 -14   3 -13  346.47   39.70
  13 -14  -3  337.87   32.00
  13 -14   5  705.93   56.89
 -13  14   5  725.03   59.39
   5  13 -14  720.33   63.79
 -14   5 -13  842.52   64.69
  13 -14  -5  824.32   57.69
 -13  14  -5  782.22   64.99
  -5  13 -14  847.52   64.89
  13 -14   7  540.35   42.90
 -13  14   7  572.34   43.20
   7  13 -14  569.84   50.99
  -7  13 -14  544.05   52.09
  13 -14  -7  514.25   43.20
 -14   7 -13  552.94   52.79
 -13  14  -7  496.05   52.69
   9  13 -14  143.59   24.90
  13 -14   9  154.28   22.50
  13 -14  -9  164.68   24.20
 -13  14  -9  142.49   29.80
 -14   9 -13  131.29   29.90
  -9  13 -14  138.49   28.80
 -11 -13 -14  809.92   60.19
  13 -14  11  787.92   63.09
 -13  14 -11  827.22   74.29
  14 -11 -13  941.21   64.69
 -11  13 -14  787.12   73.09
  11 -13 -14  946.51   65.19
  13 -14 -11  862.91   64.09
 -14  11 -13  862.41   73.99
 -14  13 -13 1608.94  128.09
 -13  13 -14 1667.53  128.59
 -13  14 -13 1652.43  128.49
  13 -14 -13 1840.52  120.99
  13 -13 -14 1753.32  120.89
  14 -13 -13 1684.13  120.39
 -14  14   0  316.47   36.90
   0  14 -14  301.57   38.70
  14 -14   0  332.37   29.70
  14 -14   2 2601.54  170.78
   2  14 -14 2625.44  175.88
 -14  14   2 2579.94  173.98
  -2  14 -14 2345.97  175.28
 -14  14  -2 2383.16  174.88
  14 -14  -2 2348.07  170.48
 -14   2 -14 2488.95  175.08
  -4  14 -14  443.56   47.60
 -14  14  -4  459.15   47.60
  14 -14  -4  467.95   38.30
 -14   4 -14  506.15   46.90
  14 -14   6   32.30   14.00
   6  14 -14   21.70   19.20
 -14  14   6   31.50   13.90
  -6  14 -14   55.59   21.70
 -14  14  -6   81.79   24.00
  14 -14  -6   69.99   14.20
 -14   6 -14   66.29   21.00
  14 -14   8  280.57   28.20
   8  14 -14  269.67   39.70
  -8  14 -14  299.07   41.10
 -14  14  -8  276.47   42.80
  14 -14  -8  305.77   29.60
 -14   8 -14  256.37   41.00
  14 -14  10 1304.17   83.69
  10  14 -14 1308.97   91.49
 -10 -14 -14 1210.48   80.89
 -10  14 -14 1093.49   92.59
 -14  14 -10 1011.00   92.29
  14 -14 -10 1067.79   83.79
 -14  10 -14 1143.79   92.29
  14 -10 -14 1133.89   83.99
  14 -14  12  268.07   31.90
 -14  12 -14  312.97   46.30
 -12  14 -14  346.87   48.80
  12 -14 -14  376.56   35.80
  14 -14 -12  301.77   33.20
 -14  14 -12  310.37   48.60
  14 -12 -14  330.37   34.70
 -14  14 -14 1240.18  104.09
  14 -14 -14 1361.76   95.09
  -1   0 -15 5069.39  343.47
   0 -15  -1 4984.50  343.37
   0 -15   1 4912.01  343.37
   0  15  -1 5247.28  346.27
   0  15   1 5166.48  345.87
   1   0 -15 5127.99  343.17
  15  -1   0 4963.60  342.37
   0 -15  -3 4221.18  296.87
   0 -15   3 4246.58  296.87
   0  15  -3 4476.85  299.97
   0  15   3 4532.05  298.97
  15  -3   0 4421.66  296.17
  -3   0 -15 4363.16  297.37
  15  -5   0   66.99   11.00
   0  15   5   71.49   13.00
   0 -15  -5   57.79   10.40
   0 -15   5   63.49   10.80
   0  15  -5   61.59   17.10
  -5   0 -15   73.99   11.70
   0  15  -7   69.59   20.30
   0 -15  -7   57.99   11.00
  15  -7   0   60.79    9.60
  -7   0 -15   50.59   12.70
   0  15   7   52.19   10.90
   0 -15   7   55.79   11.30
   0 -15  -9  467.75   36.10
  15  -9   0  475.35   35.50
 -15   9   0  447.46   42.10
   0 -15   9  455.95   36.00
   0  15  -9  467.15   43.70
  -9   0 -15  471.75   39.10
 -15  11   0  973.90   74.89
  15 -11   0  939.11   69.49
   0 -15  11 1015.60   69.69
   0  15 -11 1006.20   76.59
 -11   0 -15  989.20   73.49
   0 -15 -11  952.40   69.69
 -15  13   0  742.63   62.29
  15 -13   0  786.32   56.09
   0  15 -13  729.63   63.69
 -13   0 -15  759.92   60.99
   1 -15   0 4939.71  344.77
   1  15   0 5386.06  347.57
   0   1 -15 5007.70  345.07
   0  -1 -15 5049.09  344.17
  -1  15   0 5281.47  347.37
  -1 -15   0 4869.51  344.67
  15  -2   1  105.69   10.20
  -1 -15  -2  100.59   14.50
   1  15  -2   94.09   17.70
  -2  -1 -15   96.69   12.40
   2   1 -15  109.99   13.20
   1 -15   2  101.59   15.30
  -1  15   2  110.39   16.70
  -4  -1 -15  970.50   70.19
   1  15  -4 1037.30   74.79
  15  -4   1 1024.20   68.99
  -1 -15  -4 1024.70   70.09
  -1  15   4 1018.30   72.39
   1 -15   4 1008.80   70.09
   4   1 -15 1068.49   69.89
  -4   1 -15  953.00   70.89
  -1  15  -4  976.30   74.59
   1 -15  -4  935.81   70.09
   1  15   4  989.60   72.49
  15  -4  -1  979.40   68.99
  -1 -15   4  983.00   69.89
  -1 -15  -6  264.47   26.20
  -6  -1 -15  274.47   27.50
  15  -6   1  284.57   25.10
  -1  15   6  278.97   27.70
   1  15  -6  293.17   34.90
   1 -15   6  271.97   26.80
  -1  15  -6  406.66   35.30
  -6   1 -15  397.06   29.40
   1  15   6  356.26   28.80
  15  -6  -1  371.96   25.50
   1 -15  -6  383.26   26.90
  -8  -1 -15  552.34   43.70
  -1  15   8  535.55   41.10
  -1 -15  -8  603.34   41.50
   1  15  -8  621.54   49.70
  15  -8   1  585.04   41.00
   1 -15   8  572.84   41.80
  15  -8  -1  531.05   40.90
   1 -15  -8  541.55   41.80
  -8   1 -15  517.75   44.20
  -1  15  -8  517.95   47.80
  -1 -15   8  543.75   41.40
  -1 -15 -10   90.49   13.00
   1  15 -10   77.89   21.00
   1 -15  10   65.09   12.10
 -10  -1 -15   61.39   15.00
 -15  10   1   78.29   17.50
  15 -10   1   75.79   11.60
  15 -12   1 1386.76   99.79
   1  15 -12 1551.54  106.69
 -12  -1 -15 1429.46  103.39
 -15  12   1 1498.05  104.59
 -15  12  -1 1492.35  105.39
 -12   1 -15 1480.25  103.79
  15 -12  -1 1211.48   99.69
  -1  15 -12 1447.66  106.29
 -15  14   1  739.23   61.29
   1  15 -14  720.53   63.39
  15 -14   1  719.73   55.19
  15 -14  -1  745.53   55.49
  -1  15 -14  739.93   63.79
 -15  14  -1  736.73   62.09
 -14   1 -15  779.92   61.59
  -1  -2 -15   97.99    9.50
   2 -15   1   99.69   15.30
   2  15  -1  139.59   19.70
   1   2 -15   93.99   14.20
  15  -1   2   98.69    9.10
  -2 -15  -1   99.69   13.80
  -2  15   1  103.89   16.10
  -2  15  -1   54.89   17.10
  -2 -15  -3  817.82   56.89
  -3  -2 -15  819.72   56.49
  -2  15   3  860.71   60.09
  15  -3   2  832.82   55.69
   2  15  -3  875.71   62.59
   3   2 -15  862.21   57.59
   2 -15   3  830.62   57.39
  -3   2 -15  749.03   58.09
  -2 -15   3  749.23   56.59
   2 -15  -3  744.13   57.29
  15  -3  -2  740.03   55.79
   2  15   3  756.02   60.19
  -2  15  -3  817.52   61.99
  -5  -2 -15  195.18   20.10
  -2  15   5  188.18   22.70
   2 -15   5  200.88   21.00
   2  15  -5  199.08   29.70
  -2 -15  -5  209.18   20.10
  15  -5   2  201.68   18.30
   5   2 -15  204.28   20.40
   2  15   5  277.47   24.40
  -2  15  -5  272.17   29.60
  -5   2 -15  280.67   23.60
  -2  15   7   78.59   12.00
   2  15  -7   91.29   20.60
  -2 -15  -7   77.49   11.30
  15  -7   2   80.49   12.70
  -7  -2 -15   81.89   13.00
   2 -15   7   79.29   12.70
  -9  -2 -15  407.06   39.80
  -2 -15  -9  464.85   37.70
   2  15  -9  487.55   46.60
  15  -9   2  478.45   37.40
   2 -15   9  469.95   38.10
   2 -15  -9  535.25   38.60
  15  -9  -2  519.05   37.70
 -15   9  -2  552.64   46.10
  -2 -15   9  541.55   37.80
  -9   2 -15  491.55   42.20
  -2  15  -9  529.85   46.30
  -2 -15 -11  115.29   17.40
 -15  11   2  107.09   19.60
  15 -11   2  116.19   17.80
   2 -15  11  116.49   18.50
   2  15 -11  117.29   23.00
  15 -11  -2  152.08   18.60
 -15  11  -2  177.88   25.20
  -2  15 -11  125.39   22.50
 -11   2 -15  157.48   22.00
   2 -15 -11  113.29   18.80
  15 -13   2  128.89   19.90
   2  15 -13   89.69   23.10
 -15  13   2  118.49   20.70
 -15  13  -2  193.28   31.90
  -2  15 -13  202.58   32.30
   0   3 -15 4327.57  296.87
  -3 -15   0 4241.58  295.67
   3 -15   0 4356.46  296.07
  15   0  -3 4288.37  294.87
   3  15   0 4459.25  298.77
  -3  15   0 4503.45  298.57
  -3 -15  -2  801.82   56.09
  -3  15   2  864.31   59.79
   2   3 -15  861.01   57.59
   3 -15   2  802.62   56.69
  -2  -3 -15  806.62   54.49
   3  15  -2  796.72   60.99
  15  -2   3  805.02   54.79
   3  15   2  832.42   60.39
  -3 -15   2  748.73   55.89
  15  -2  -3  743.83   54.99
  -2   3 -15  735.03   57.69
   3 -15  -2  729.13   56.59
  -3  15  -2  808.32   60.89
   4   3 -15  187.08   18.70
  -3 -15  -4  179.38   17.00
   3 -15   4  184.08   18.70
  -3  15   4  185.08   21.70
   3  15  -4  193.08   27.20
  15  -4   3  185.58   15.10
  -4  -3 -15  179.68   15.70
  -4   3 -15  128.89   20.30
  -3  15  -4  144.99   25.10
  -3 -15   4  145.19   16.60
   3  15   4  141.29   22.00
   3 -15  -4  143.39   18.90
  15  -4  -3  148.99   15.40
  15  -6   3  193.28   19.10
   3 -15   6  198.08   21.70
   3  15  -6  204.58   29.50
  -3 -15  -6  178.58   19.80
  -3  15   6  204.68   22.30
   6   3 -15  194.18   21.70
  -6  -3 -15  200.68   20.80
  -3 -15   6  252.97   20.10
  -6   3 -15  252.67   25.00
   3 -15  -6  263.17   21.50
  -3  15  -6  276.77   30.90
   3  15   6  227.48   23.70
  15  -6  -3  259.77   19.70
  -3  15   8  141.49   15.20
   3  15  -8  156.88   23.20
  -3 -15  -8  156.28   16.20
   3 -15   8  151.68   18.00
  -8  -3 -15  145.29   18.70
  15  -8   3  149.79   15.70
  -8   3 -15  118.09   19.20
  -3  15  -8  100.39   20.60
   3 -15  -8  109.59   18.10
  15  -8  -3  106.19   15.70
  -3 -15   8   92.59   15.70
   3 -15  10  333.57   28.60
 -15  10   3  313.47   33.20
   3  15 -10  334.37   37.30
  15 -10   3  325.17   27.00
  -3 -15 -10  315.07   27.00
   3 -15 -10  311.97   28.40
 -15  10  -3  331.77   36.00
 -10   3 -15  321.37   33.50
  15 -10  -3  323.07   27.40
  -3  15 -10  272.57   36.00
 -15  12   3  590.74   49.90
   3 -15  12  602.14   45.30
   3  15 -12  609.44   53.99
  15 -12   3  588.64   44.80
 -12   3 -15  577.04   50.89
  15 -12  -3  591.64   45.20
  -3  15 -12  565.74   53.99
 -15  12  -3  594.44   53.19
  15 -14   3    5.30   12.10
 -15  14   3    8.00   16.80
   3  15 -14    7.70   18.70
 -15  14  -3   -8.90   19.20
  -3  15 -14    4.20   19.50
 -14   3 -15    8.60   17.50
  15 -14  -3   -1.10   13.40
  -4 -15  -1 1029.20   68.39
   4  15  -1 1041.90   73.49
  -4  15   1  896.91   71.79
   4 -15   1  990.00   69.19
  15   1  -4  979.00   67.09
   1   4 -15 1015.20   70.49
   4  15   1 1005.30   72.79
  -1   4 -15 1004.60   70.59
  -4 -15   1  931.71   68.19
  -4  15  -1  989.90   72.79
  15  -1  -4  946.01   67.49
   4 -15  -1  950.40   69.19
  -4  15   3  187.38   22.30
  -4 -15  -3  167.78   16.40
  15  -3   4  175.78   14.30
   3   4 -15  171.98   19.50
   4 -15   3  173.08   18.50
  -3  -4 -15  170.08   13.20
   4  15  -3  187.48   27.00
   4  15   3  136.39   23.40
  -4  15  -3  132.49   24.60
  15  -3  -4  141.49   15.00
  -4 -15   3  145.89   15.90
   4 -15  -3  168.68   18.80
  -3   4 -15  171.28   20.60
   5   4 -15  673.03   48.80
   4 -15   5  660.83   47.40
  15  -5   4  663.53   46.00
  -5  -4 -15  663.83   46.50
  -4 -15  -5  668.13   46.50
   4  15  -5  653.53   52.89
  -4  15   5  676.63   49.20
  15  -5  -4  608.84   46.10
   4  15   5  603.24   49.70
  -4  15  -5  626.54   52.79
  -5   4 -15  649.14   49.90
  -4 -15   5  616.54   46.10
   4 -15  -5  631.54   47.60
   4 -15   7  799.02   53.09
  -4 -15  -7  772.22   51.79
  -7  -4 -15  729.03   52.79
  15  -7   4  749.23   51.59
  -4  15   7  768.02   52.79
   4  15  -7  790.92   59.19
  -7   4 -15  672.83   55.59
   4 -15  -7  689.83   52.79
  -4  15  -7  679.23   58.49
  15  -7  -4  668.63   51.79
  -4 -15   7  641.44   51.39
 -15   9   4  545.35   41.60
  -4 -15  -9  508.35   35.80
   4 -15   9  534.65   37.20
   4  15  -9  557.44   46.00
  15  -9   4  541.45   36.10
 -15   9  -4  435.76   44.00
  15  -9  -4  397.96   36.10
  -4  15  -9  378.46   43.20
  -9   4 -15  423.36   41.40
   4 -15  -9  390.16   37.30
   4 -15  11  668.93   49.70
 -15  11   4  660.93   53.59
  15 -11   4  695.93   49.30
   4  15 -11  704.43   57.89
  -4 -15 -11  673.23   48.90
  15 -11  -4  625.84   49.40
  -4  15 -11  659.23   57.89
 -11   4 -15  661.43   55.29
 -15  11  -4  657.73   56.89
   4 -15 -11  657.33   50.29
  15 -13   4  654.43   51.19
 -15  13   4  659.63   55.29
   4  15 -13  677.33   59.69
  -4  15 -13  709.93   60.89
  15 -13  -4  698.23   51.79
 -13   4 -15  707.23   58.79
 -15  13  -4  688.33   59.99
   0   5 -15   75.59   13.00
   5  15   0   70.19   16.40
  15   0  -5   60.49    8.80
  -5  15   0   71.29   15.50
   5 -15   0   84.89   12.30
  -5 -15   0   67.99   11.10
   5 -15   2  196.28   21.20
   2   5 -15  208.68   23.50
  -5 -15  -2  207.48   19.20
  -5  15   2  238.38   26.00
   5  15  -2  194.88   29.00
  15  -2   5  192.98   17.50
  15   2  -5  192.18   16.70
   5  15   2  279.37   27.90
   5 -15  -2  283.47   22.50
  -2   5 -15  278.17   24.60
  15  -2  -5  271.37   18.50
  -5  15   4  660.63   48.60
  -4  -5 -15  626.24   44.10
  -5 -15  -4  676.13   45.20
   5 -15   4  672.33   46.60
  15  -4   5  659.63   44.70
   4   5 -15  671.53   48.30
   5  15  -4  659.43   52.69
   5  15   4  580.24   49.40
  -5  15  -4  613.14   51.59
   5 -15  -4  621.14   46.50
  15  -4  -5  584.04   44.90
  -5 -15   4  587.04   44.80
  -4   5 -15  576.04   48.80
  -5 -15  -6  475.25   37.00
   5  15  -6  476.75   45.50
  -5  15   6  458.85   39.20
   5 -15   6  475.15   38.70
  -6  -5 -15  451.65   37.30
   6   5 -15  457.25   40.00
  15  -6   5  459.25   36.80
  15  -6  -5  569.44   37.60
  -5  15  -6  599.04   46.00
  -5 -15   6  532.05   37.00
  -6   5 -15  550.44   42.60
   5 -15  -6  565.54   38.70
  -5 -15  -8  680.23   49.80
  15  -8   5  685.93   50.19
   5  15  -8  706.33   58.39
   5 -15   8  701.13   51.09
  -5  15   8  667.93   50.19
  15  -8  -5  711.13   50.59
   5 -15  -8  686.73   51.39
  -8   5 -15  704.03   55.49
  -5  15  -8  721.23   58.49
 -15   8  -5  711.23   58.29
  -5 -15 -10 1164.78   81.79
   5 -15  10 1266.27   83.19
  15 -10   5 1193.18   82.29
 -15  10   5 1160.48   85.39
   5  15 -10 1262.47   89.49
   5 -15 -10 1115.09   83.09
 -10   5 -15 1131.99   87.09
  15 -10  -5 1107.19   82.49
 -15  10  -5 1184.18   89.39
  -5  15 -10 1153.48   88.99
  -5 -15 -12  205.38   20.70
  15 -12   5  205.88   22.30
   5 -15  12  218.08   23.50
   5  15 -12  215.78   34.10
 -15  12   5  216.88   27.20
 -12   5 -15  183.28   27.40
 -15  12  -5  199.08   34.40
   5 -15 -12  167.28   24.20
  15 -12  -5  178.78   22.90
  -5  15 -12  189.18   29.10
 -15  14   5  210.68   30.00
   5  15 -14  204.38   37.30
  15 -14   5  240.78   27.10
 -14   5 -15  335.47   39.40
  15 -14  -5  308.17   28.10
 -15  14  -5  286.97   40.70
  -5  15 -14  293.97   39.90
   6 -15   1  279.77   27.90
  -6 -15  -1  288.37   25.20
   6  15  -1  296.07   34.30
  -6  15   1  286.87   31.70
   1   6 -15  257.07   30.10
  -6  15  -1  395.96   33.90
  15  -1  -6  383.96   25.30
  -1   6 -15  384.16   31.30
   6  15   1  379.06   33.70
   6 -15  -1  390.26   28.40
   6  15  -3  199.38   29.20
  -6 -15  -3  193.98   18.20
  15  -3   6  192.68   17.60
  15   3  -6  174.78   16.10
   6 -15   3  185.58   21.60
  -6  15   3  174.38   24.60
   3   6 -15  208.88   24.30
  -6 -15   3  248.18   18.30
   6 -15  -3  255.27   21.70
   6  15   3  260.77   26.90
  15  -3  -6  248.18   18.60
  -3   6 -15  274.37   25.60
  -6  15  -3  245.48   28.80
   6 -15   5  458.55   38.30
  -6  15   5  486.95   40.00
  -5  -6 -15  431.56   36.00
   5   6 -15  433.36   40.50
  -6 -15  -5  470.25   36.50
   6  15  -5  459.85   45.40
  15  -5   6  476.55   36.60
   6 -15  -5  587.54   39.20
  -6 -15   5  558.04   36.60
  -6  15  -5  584.44   45.50
  15  -5  -6  567.14   37.30
  -5   6 -15  535.05   42.40
  15  -7   6  199.58   19.30
   6  15  -7  187.28   31.60
   7   6 -15  202.38   24.90
  -6 -15  -7  197.18   18.80
  -7  -6 -15  196.48   20.10
  -6  15   7  183.68   20.80
   6 -15   7  191.18   22.40
  -6  15  -7  266.47   31.60
   6 -15  -7  261.57   22.90
  15  -7  -6  243.58   20.50
   6  15  -9   96.99   23.50
   6 -15   9   96.89   16.00
  -6 -15  -9   91.79   13.90
  15  -9   6   90.59   13.10
 -15   9   6  101.59   17.40
  -9   6 -15  157.28   21.60
 -15   9  -6  141.09   23.30
  -6  15  -9  116.59   21.70
   6 -15  11  770.72   56.39
  -6 -15 -11  766.82   54.59
  15 -11   6  662.53   55.29
 -15  11   6  763.82   58.49
   6  15 -11  793.12   64.09
  -6  15 -11  810.32   64.79
 -15  11  -6  797.62   64.99
   6 -15 -11  741.53   56.89
  15 -11  -6  770.72   56.09
 -11   6 -15  761.52   62.79
  -6 -15 -13    6.10    9.10
 -15  13   6    5.40   13.00
  15 -13   6    2.00   11.90
   6  15 -13   -1.40   21.50
   6 -15  13    0.30   12.80
 -15  13  -6    8.90   21.90
  15 -13  -6   30.60   13.60
   6 -15 -13    7.60   13.10
  -6  15 -13    7.40   20.10
 -13   6 -15   14.20   18.70
   7 -15   0   50.19   11.20
  -7 -15   0   59.99    8.00
  -7  15   0   70.09   16.30
   0   7 -15   62.39   14.70
   7  15   0   56.19   16.70
   7  15   2  217.78   27.90
  -2   7 -15  214.08   26.10
  -7 -15   2  221.48   17.80
   7 -15  -2  206.18   22.10
  -7  15  -2  238.78   28.80
  15  -2  -7  214.28   18.60
  -7  15   4  785.32   55.89
   7  15  -4  771.82   59.59
  15  -4   7  784.22   51.89
  -7 -15  -4  824.92   51.79
   4   7 -15  756.02   56.39
   7 -15   4  775.22   53.79
  -4   7 -15  677.63   56.69
  -7 -15   4  654.43   51.39
  -7  15  -4  693.83   58.69
   7 -15  -4  691.93   53.69
  15  -4  -7  672.83   52.29
   7 -15   6  180.18   21.50
  -7 -15  -6  213.48   18.30
  15  -6   7  203.68   19.20
  -6  -7 -15  180.28   18.30
  -7  15   6  185.48   22.20
   6   7 -15  204.78   25.50
   7  15  -6  203.38   32.20
  -7  15  -6  243.98   31.40
   7 -15  -6  258.27   22.20
  15  -6  -7  225.88   20.40
  -6   7 -15  244.08   28.20
   7 -15   8  495.95   35.70
  -7 -15  -8  489.35   32.90
   7  15  -8  497.35   44.80
   8   7 -15  461.95   38.60
  15  -8   7  471.55   34.00
 -15   8  -7  412.56   44.70
  -7  15  -8  390.96   44.00
   7 -15  -8  379.66   35.70
  15  -8  -7  388.06   34.20
  -8   7 -15  373.36   40.70
 -15  10   7  643.04   53.39
  -7 -15 -10  659.43   49.70
   7 -15  10  650.43   51.89
   7  15 -10  688.83   60.19
  15 -10   7  676.83   50.99
  15 -10  -7  630.64   51.49
 -10   7 -15  803.42   58.99
 -15  10  -7  765.22   60.99
  -7  15 -10  744.23   60.09
   7 -15 -10  769.02   52.89
   7  15 -12   26.80   23.20
  15 -12   7   45.20   13.50
   7 -15  12   29.00   13.20
 -15  12   7   27.60   12.80
  -7 -15 -12   29.60    9.40
   7 -15 -12   25.60   14.30
 -12   7 -15   36.80   19.70
  15 -12  -7   36.20   14.40
  -7  15 -12   23.10   21.00
 -15  12  -7   40.80   24.70
   7  15 -14  248.08   38.00
  15 -14  -7  173.08   24.80
 -15  14  -7  137.19   30.10
 -14   7 -15  141.69   26.30
   7 -15 -14  193.88   25.70
  -7  15 -14  144.69   27.60
  -8  15   1  575.34   46.00
  -8 -15  -1  589.94   39.40
   8 -15   1  576.14   42.30
   1   8 -15  612.24   45.80
   8  15  -1  572.64   48.20
  -8 -15   1  517.05   39.20
   8 -15  -1  518.25   41.90
  -8  15  -1  569.04   46.90
   8  15   1  541.45   47.30
  -1   8 -15  506.85   45.50
   8 -15   3  149.29   18.80
   3   8 -15  157.08   23.50
  -8 -15  -3  151.48   12.80
  -8  15   3  148.29   22.60
   8  15  -3  165.18   23.70
   8 -15  -3  128.29   18.10
  -8  15  -3  128.79   21.80
  -3   8 -15  107.09   18.30
  -8 -15   3  103.79   12.70
   5   8 -15  687.93   54.79
  15  -5   8  722.03   49.60
  -8  15   5  680.03   52.79
   8  15  -5  731.13   58.39
   8 -15   5  678.93   50.99
  -8 -15  -5  708.93   48.90
  -5   8 -15  715.83   55.69
  -8  15  -5  701.33   57.49
   8 -15  -5  666.03   51.29
  15  -5  -8  669.03   50.09
   7   8 -15  465.95   39.90
   8 -15   7  500.35   35.80
   8  15  -7  462.95   43.50
  -8 -15  -7  482.65   32.50
  -8  15   7  481.35   35.50
  15  -7   8  485.85   34.00
 -15   7  -8  380.86   44.20
   8 -15  -7  356.06   35.30
  15  -7  -8  380.56   34.20
  -7   8 -15  397.66   41.50
  -8  15  -7  397.16   43.30
   8 -15   9   51.09   12.80
   8  15  -9   65.49   22.10
  15  -9   8   69.79   12.20
  -8 -15  -9   65.89   11.40
   9   8 -15   51.19   15.90
 -15   9   8   56.49   12.90
 -15   9  -8   35.80   19.90
  -9   8 -15   30.80   17.00
   8 -15  -9   58.09   14.20
  15  -9  -8   48.70   13.00
  -8  15  -9   42.30   20.40
  15 -11   8 1151.28   77.49
   8 -15  11 1141.39   78.29
  -8 -15 -11 1089.19   75.89
 -15  11   8 1149.48   78.89
   8  15 -11 1147.89   85.79
 -11   8 -15 1069.69   84.49
 -15  11  -8 1022.60   85.49
  15 -11  -8 1035.40   77.79
  -8  15 -11 1005.80   85.59
   8 -15 -11 1063.59   78.79
  -8 -15 -13  288.07   25.30
   8 -15  13  290.77   29.80
  15 -13   8  301.37   28.80
   8  15 -13  284.27   41.10
 -15  13  -8  302.97   44.00
 -13   8 -15  314.87   42.30
  15 -13  -8  316.57   30.40
   8 -15 -13  327.07   31.50
  -8  15 -13  313.37   43.80
   0   9 -15  506.75   41.50
   9 -15   0  459.75   37.10
  -9  15   0  467.35   41.40
  -9 -15   0  455.85   33.20
  -9 -15  -2  471.65   35.30
   9 -15   2  483.85   39.10
  -9  15   2  477.55   42.20
   2   9 -15  508.95   43.70
   9  15  -2  476.15   45.80
   9 -15  -2  542.35   39.40
  -2   9 -15  518.55   43.50
  -9  15  -2  551.14   44.90
  -9 -15  -4  531.45   35.50
   9  15  -4  579.14   46.20
   4   9 -15  574.04   43.90
  -9  15   4  537.45   41.80
   9 -15   4  512.25   39.20
  -9  15  -4  421.86   45.60
  -4   9 -15  422.76   43.60
   9 -15  -4  420.66   39.10
   6   9 -15   97.99   18.50
   9 -15   6  102.79   15.40
  -9 -15  -6   77.79   10.70
  -6  -9 -15   76.49   13.00
  -9  15   6   87.19   14.40
   9  15  -6  108.89   22.50
  -9  15  -6  174.48   30.00
  -6   9 -15  113.59   19.20
   9 -15   8   75.99   14.60
   9  15  -8   47.80   22.20
  -9 -15  -8   68.79    8.60
  15  -8   9   56.59   10.90
   8   9 -15   59.29   17.10
 -15   8   9   58.39   12.90
  -8   9 -15   29.60   18.10
 -15   8  -9   36.40   20.50
   9 -15  -8   44.50   13.50
  15  -8  -9   40.40   12.60
  -9  15  -8   27.10   19.30
   9  15 -10  620.74   56.39
  -9 -15 -10  625.94   44.10
  15 -10   9  631.64   46.40
   9 -15  10  607.14   47.10
 -10   9 -15  626.74   55.19
  15 -10  -9  576.14   46.80
   9 -15 -10  625.04   48.10
 -15  10  -9  612.44   57.69
  -9  15 -10  593.74   57.19
   9  15 -12  557.64   51.09
   9 -15  12  585.14   41.50
  15 -12   9  571.94   40.40
  -9 -15 -12  525.25   36.80
 -12   9 -15  419.16   50.99
  -9  15 -12  391.86   50.69
  15 -12  -9  443.76   40.80
   9 -15 -12  480.95   42.40
 -15  12  -9  404.16   51.69
   9  15 -14   31.20   22.10
  -9 -15 -14   33.90    9.50
  15 -14   9   38.00   15.00
  -9  15 -14   32.60   23.60
   9 -15 -14   71.59   19.00
  15 -14  -9   39.70   15.40
 -15  14  -9   24.60   23.30
 -14   9 -15   46.80   26.40
  10 -15   1   88.99   14.20
   1  10 -15   73.39   17.50
 -10  15   1   85.39   18.00
  10 -15   3  277.47   27.10
  10  15  -3  309.57   36.30
 -10  15   3  295.67   30.60
   3  10 -15  317.67   33.10
  10 -15  -3  249.97   27.10
  -3  10 -15  338.07   33.80
 -10  15  -3  325.17   35.10
  10 -15   5 1203.98   83.09
  10  15  -5 1158.88   89.19
   5  10 -15 1214.08   87.19
 -10  15   5 1247.38   85.09
  10 -15  -5 1120.19   83.49
 -10  15  -5 1180.08   88.89
  -5  10 -15 1109.39   87.49
   7  10 -15  665.03   57.89
  10  15  -7  633.94   60.59
 -10  15   7  686.63   53.69
  10 -15   7  655.13   53.39
  10 -15  -7  788.42   54.59
 -10  15  -7  775.32   62.19
  15  -7 -10  760.72   53.19
  -7  10 -15  751.12   60.29
 -15   7 -10  785.82   62.39
  10 -15   9  608.14   47.70
  15  -9  10  630.54   46.60
   9  10 -15  641.04   52.79
  10  15  -9  639.84   56.09
 -15   9 -10  618.84   57.89
  -9  10 -15  595.84   55.69
 -10  15  -9  598.24   56.69
  10 -15  -9  629.74   47.90
  15  -9 -10  606.84   47.50
  15 -11  10  308.27   28.70
  10 -15  11  312.07   29.70
 -10 -15 -11  319.37   25.00
  10  15 -11  301.37   41.60
 -10  15 -11  324.77   42.90
  15 -11 -10  282.87   29.80
  10 -15 -11  297.57   31.40
 -11  10 -15  304.57   41.70
 -15  11 -10  313.47   44.00
 -10 -15 -13  394.66   28.90
  10 -15  13  439.36   35.20
  15 -13  10  405.26   33.70
  10  15 -13  374.26   45.70
 -13  10 -15  309.87   46.80
  10 -15 -13  364.06   36.00
 -10  15 -13  337.77   48.30
 -15  13 -10  291.97   47.60
  15 -13 -10  345.77   35.00
 -11  15   0  992.90   75.79
  11 -15   0  980.90   71.89
   0  11 -15 1042.80   76.49
 -11  15   2  147.89   21.40
  11 -15   2  125.09   19.90
   2  11 -15   98.69   20.30
  11 -15  -2  141.69   20.40
 -11  15  -2  166.08   24.20
  -2  11 -15  108.89   20.20
 -11  15   4  669.13   52.19
   4  11 -15  712.43   55.29
  11 -15   4  656.13   49.50
  11 -15  -4  645.24   49.80
 -11  15  -4  655.63   56.79
  -4  11 -15  612.54   54.89
   6  11 -15  726.43   62.09
  11 -15   6  790.32   56.99
 -11  15   6  787.82   58.29
  -6  11 -15  742.03   63.19
 -15   6 -11  768.32   65.29
  11 -15  -6  787.82   57.79
 -11  15  -6  789.62   64.99
  11 -15   8 1166.88   77.79
  11  15  -8 1063.99   84.39
   8  11 -15 1163.08   82.89
  11 -15  -8 1061.59   77.99
 -15   8 -11 1044.10   85.09
  15  -8 -11 1085.29   77.19
 -11  15  -8  993.20   85.09
  -8  11 -15 1053.29   84.19
  11  15 -10  296.27   39.90
  11 -15  10  283.37   29.10
 -15  10 -11  294.37   42.00
  15 -10 -11  280.97   29.50
  11 -15 -10  310.27   30.90
 -11  15 -10  305.97   43.20
 -10  11 -15  305.17   40.90
  15 -12  11  768.12   59.09
  11  15 -12  648.54   67.59
  11 -15  12  774.32   59.79
  15 -12 -11  882.41   60.29
 -12  11 -15  745.13   69.29
 -11  15 -12  803.12   71.29
  11 -15 -12  876.01   61.29
 -15  12 -11  827.42   71.09
 -15  14 -11   29.90   28.70
  15 -14 -11   21.80   16.20
 -14  11 -15   30.70   25.10
 -11  15 -14   20.00   26.60
  14 -11 -15   29.90   15.90
  11 -15 -14   34.80   17.70
  12 -15   1 1471.85  102.29
 -12  15   1 1460.15  105.79
   1  12 -15 1497.15  106.99
  12 -15  -1 1430.56  102.29
  -1  12 -15 1442.06  106.79
 -12  15  -1 1461.65  106.39
 -12  15   3  603.94   50.09
  12 -15   3  599.04   46.50
   3  12 -15  607.44   52.69
 -12  15  -3  618.94   53.39
  12 -15  -3  593.84   46.90
  -3  12 -15  613.74   52.99
   5  12 -15  219.88   31.60
 -12  15   5  208.78   25.40
  12 -15   5  205.68   22.60
  12 -15  -5  180.08   23.00
 -15   5 -12  194.88   34.30
  -5  12 -15  138.39   24.10
 -12  15  -5  141.29   25.20
  12 -15   7   33.70   13.50
   7  12 -15   26.40   18.90
  12 -15  -7   34.90   14.40
 -15   7 -12   27.20   22.10
 -12  15  -7   26.70   23.10
  -7  12 -15   18.60   20.00
  12 -15   9  539.35   38.20
 -15   9 -12  430.76   49.80
  -9  12 -15  449.56   49.20
  15  -9 -12  425.46   37.90
 -12  15  -9  389.06   48.80
  12 -15  -9  429.26   38.80
  12 -15  11  729.63   59.19
  12 -15 -11  810.22   60.39
 -12  15 -11  781.82   70.19
 -15  11 -12  780.12   70.59
 -11  12 -15  769.32   69.69
  15 -11 -12  858.31   60.19
 -13  12 -15  149.79   29.40
  13 -12 -15  186.98   28.10
 -15  13 -12  132.09   31.70
  15 -13 -12  187.88   26.30
  12 -15 -13  173.78   28.30
 -12  15 -13  150.68   30.40
  13 -15   0  772.42   56.29
   0  13 -15  774.12   62.99
 -13  15   0  723.03   61.19
  13 -15   2  123.89   20.70
 -13  15   2  139.19   21.50
   2  13 -15  127.49   24.40
 -13  15   4  680.93   54.49
  13 -15   4  654.03   50.99
   4  13 -15  675.63   58.19
  13 -15  -4  674.23   51.49
 -15   4 -13  686.03   59.49
  -4  13 -15  722.73   59.09
 -13  15  -4  656.93   58.69
  13 -15   6   -3.10   12.50
   6  13 -15   12.20   18.20
 -13  15   6   -7.60   11.90
  -6  13 -15    9.90   21.20
 -13  15  -6    4.90   19.60
 -15   6 -13    3.90   19.90
  13 -15  -6   16.30   13.10
   8  13 -15  312.57   39.00
  13 -15   8  301.67   30.20
  13 -15  -8  290.27   31.10
 -15   8 -13  312.87   42.10
  -8  13 -15  318.77   42.10
 -13  15  -8  285.67   42.90
  10  13 -15  399.66   42.00
  13 -15  10  418.76   32.90
 -15  10 -13  288.87   45.60
  15 -10 -13  311.77   33.30
 -10  13 -15  312.97   46.00
 -13  15 -10  266.37   45.40
  13 -15 -10  332.37   34.20
  12 -13 -15  168.68   27.80
  13 -15 -12  167.68   28.30
 -13  15 -12  163.38   35.60
  15 -12 -13  183.68   27.10
 -15  12 -13  149.29   32.60
 -12  13 -15  180.58   32.90
  14 -13 -15  227.08   31.60
  15 -14 -13  218.88   29.60
 -14  13 -15  134.89   31.20
 -13  15 -14  199.08   36.90
  13 -15 -14  216.08   31.60
 -15  14 -13  212.88   37.10
 -14  15   1  732.43   60.99
   1  14 -15  733.53   63.39
  14 -15   1  717.23   55.89
 -14  15  -1  734.83   62.19
  -1  14 -15  773.82   63.79
  14 -15  -1  789.42   56.19
   3  14 -15    4.60   19.00
  14 -15   3    4.70   11.90
 -14  15   3   10.70   15.30
 -15   3 -14  -14.70   18.50
  -3  14 -15    0.50   21.60
 -14  15  -3   -5.60   18.90
  14 -15  -3   -8.80   12.30
 -14  15   5  235.48   30.70
  14 -15   5  234.78   27.80
   5  14 -15  256.77   38.10
 -14  15  -5  293.37   39.70
  -5  14 -15  303.57   39.90
 -15   5 -14  338.87   39.60
  14 -15  -5  315.17   29.30
  14 -15   7  280.47   26.40
   7  14 -15  277.87   38.20
  14 -15  -7  196.08   27.40
 -15   7 -14  216.58   32.70
  -7  14 -15  216.88   39.00
 -14  15  -7  153.28   30.40
  14 -15   9   41.40   15.90
  -9 -14 -15   30.20    9.50
   9  14 -15   11.00   20.50
  14 -15  -9   50.49   16.60
 -14  15  -9   13.40   24.30
  -9  14 -15   33.50   22.80
 -15   9 -14   48.90   27.30
  15  -9 -14   59.29   16.10
 -14  15 -11   41.80   29.30
  15 -11 -14   60.89   18.00
 -15  11 -14   38.60   28.20
  14 -15 -11   34.30   15.90
  11 -14 -15   39.20   17.20
 -11  14 -15   38.90   26.90
  15 -13 -14  208.68   30.20
  14 -15 -13  206.38   30.70
  13 -14 -15  215.78   30.30
 -13  14 -15  207.18   37.10
 -15  13 -14  176.78   35.60
 -14  15 -13  198.98   35.80
 -15   0 -15 3656.93  257.07
 -15  15   0 3743.43  257.37
   0  15 -15 3655.43  258.57
  15 -15   0 3779.02  253.47
  15 -15   2  215.38   25.00
   2  15 -15  202.38   36.50
 -15  15   2  207.98   31.60
  -2  15 -15  208.08   37.50
 -15  15  -2  224.28   36.00
  15 -15  -2  214.38   25.70
 -15   2 -15  176.08   27.20
  15 -15   4  245.98   29.50
   4  15 -15  241.18   40.40
 -15  15   4  232.98   33.70
  -4  15 -15  345.37   42.90
 -15  15  -4  354.56   42.00
  15 -15  -4  371.46   30.80
 -15   4 -15  355.36   40.90
  15 -15   6   28.80   15.10
   6  15 -15   20.70   21.30
 -15  15   6   27.80   14.10
  -6  15 -15    0.00   20.50
 -15  15  -6   13.70   23.20
  15 -15  -6   28.10   14.90
 -15   6 -15   10.20   21.40
  15 -15   8   16.00   14.80
  -8 -15 -15    8.10    9.60
   8  15 -15   12.90   24.20
 -15  15  -8   19.70   22.80
   8 -15 -15   13.30   16.60
  -8  15 -15   11.10   26.80
  15 -15  -8   24.30   16.80
 -15   8 -15   14.40   24.00
 -10 -15 -15  144.19   15.60
  15 -15  10  163.48   24.70
  10  15 -15  113.19   25.40
 -15  10 -15   93.39   27.50
  10 -15 -15  162.58   23.90
 -10  15 -15  102.79   28.00
  15 -15 -10  140.49   20.50
 -15  15 -10  110.29   30.40
  15 -10 -15  152.28   26.30
  15 -15  12  967.00   80.59
 -15  12 -15 1099.99   91.99
 -12  15 -15 1150.58   92.99
  12 -15 -15 1134.59   82.49
  15 -15 -12 1123.49   81.79
 -15  15 -12 1044.00   91.99
  15 -12 -15 1238.48   82.69
 -15  14 -15  412.76   55.99
 -15  15 -14  415.56   56.19
 -14  15 -15  440.56   57.09
  14 -15 -15  431.96   41.80
  15 -15 -14  424.46   41.20
  15 -14 -15  429.46   41.60
   0 -16   0  472.25   35.50
   0   0 -16  444.66   34.10
   0  16   0  488.15   41.30
   2   0 -16 1017.00   69.09
  16  -2   0  978.00   68.69
   0  16   2 1015.40   73.89
   0 -16   2 1016.90   70.39
   0  16  -2 1020.50   74.89
  -2   0 -16  968.50   70.19
   0 -16  -2  984.80   70.29
   0 -16  -4  493.05   37.80
   0 -16   4  501.65   37.80
   0  16  -4  503.05   44.90
  -4   0 -16  486.25   38.10
  16  -4   0  498.35   35.90
   0  16   4  513.25   41.20
   0  16   6  484.55   39.20
   0 -16  -6  486.85   37.30
  16  -6   0  484.25   35.90
   0  16  -6  495.15   45.20
   0 -16   6  490.05   37.30
  -6   0 -16  486.45   38.50
  16  -8   0  225.08   20.90
   0 -16  -8  223.98   22.30
  -8   0 -16  230.68   25.10
   0  16  -8  241.58   32.80
   0 -16   8  226.58   22.20
   0  16 -10   67.39   20.60
 -16  10   0   72.19   20.80
  16 -10   0   61.89   11.30
 -10   0 -16   52.09   14.80
   0 -16 -10   67.39   12.40
   0 -16  10   65.09   12.20
 -12   0 -16 1418.06   99.29
 -16  12   0 1392.26  101.19
  16 -12   0 1389.56   95.59
   0 -16 -12 1299.47   95.59
   0  16 -12 1318.77  102.19
 -14   0 -16  129.59   23.10
   0  16 -14  138.09   26.40
 -16  14   0  170.28   26.90
   0 -16 -14  129.99   21.30
  16 -14   0  140.29   22.10
  16  -1   1 1970.00  158.28
  -1  16   1 2189.08  162.58
  -1 -16  -1 1983.50  159.48
   1  16  -1 2113.69  162.88
   1   1 -16 2105.39  159.58
   1 -16   1 2079.59  159.68
  -1  -1 -16 2086.19  158.98
  -1   1 -16 2573.74  160.38
  -1 -16   1 2699.63  160.08
   1 -16  -1 2602.74  160.08
   1  16   1 2685.93  163.48
  -1  16  -1 2721.03  163.78
  16  -1  -1 2622.54  158.58
   1  16  -3 1597.84  104.99
  -1  16   3 1339.37  102.29
  -3  -1 -16 1551.34   99.79
   3   1 -16 1621.94   99.69
  -1 -16  -3 1568.04   99.89
   1 -16   3 1551.84   99.99
  16  -3   1 1604.74   98.69
  -3   1 -16 1292.37  100.19
  16  -3  -1 1309.97   98.49
  -1 -16   3 1334.47   99.59
   1 -16  -3 1297.07   99.69
  -1  16  -3 1343.17  103.89
   1  16   3 1318.47  102.49
   1  16  -5  171.48   30.80
  -1  16   5  186.68   23.70
  -5  -1 -16  175.58   20.40
  16  -5   1  187.98   18.30
   1 -16   5  201.38   21.10
  -1 -16  -5  189.88   20.80
  16  -5  -1  252.77   18.80
  -5   1 -16  219.88   22.50
  -1 -16   5  256.37   21.10
   1  16   5  236.48   24.70
   1 -16  -5  261.77   21.90
  -1  16  -5  250.27   30.10
  -1  16   7  149.29   20.10
  -1 -16  -7  176.08   19.30
  -7  -1 -16  149.09   20.80
  16  -7   1  172.48   17.60
   1 -16   7  175.78   20.00
   1  16  -7  168.38   30.60
   1  16   7  212.08   21.00
   1 -16  -7  195.58   20.10
  -1 -16   7  200.78   19.40
  -7   1 -16  145.59   22.30
  -1  16  -7  231.08   31.30
  16  -7  -1  208.78   18.10
   1  16  -9  623.84   59.69
  -9  -1 -16  648.14   54.89
  16  -9   1  641.64   52.19
   1 -16   9  673.03   52.89
  -1 -16  -9  620.34   52.49
   1 -16  -9  779.02   53.29
 -16   9  -1  831.92   60.39
  -1 -16   9  814.82   52.99
  16  -9  -1  786.32   52.59
  -1  16  -9  818.22   60.99
  -9   1 -16  775.62   56.29
  16 -11   1  244.88   22.70
 -16  11   1  266.87   32.40
  -1 -16 -11  241.58   23.20
 -11  -1 -16  221.58   27.50
   1 -16  11  243.28   23.90
   1  16 -11  227.68   35.70
  16 -11  -1  190.98   22.50
  -1  16 -11  214.98   35.10
   1 -16 -11  165.98   23.30
 -16  11  -1  193.88   33.10
 -11   1 -16  226.78   28.40
 -13  -1 -16  536.05   47.00
 -16  13   1  540.85   48.80
   1  16 -13  555.54   52.29
  16 -13   1  540.95   41.40
  -1 -16 -13  484.65   41.00
  -1  16 -13  494.85   51.59
   1 -16 -13  501.95   41.70
  16 -13  -1  516.85   41.40
 -16  13  -1  540.75   50.29
 -13   1 -16  526.85   47.60
   1  16 -15  362.66   46.20
 -16  15   1  382.36   41.60
  16 -15   1  373.36   34.00
 -15  -1 -16  381.06   40.90
   0   2 -16  992.10   69.99
  -2 -16   0 1002.40   69.29
  16   0  -2  941.01   67.49
   2  16   0 1015.10   73.69
   2 -16   0  992.70   69.79
  -2  16   0  992.70   73.59
   2 -16   2 4782.52  313.17
  -2 -16  -2 4821.62  312.97
  -2  -2 -16 4603.24  312.27
   2  16  -2 4829.02  316.47
  -2  16   2 4802.52  315.57
  16  -2   2 4681.13  311.97
   2   2 -16 4917.11  313.57
   2  16   2 4448.75  315.47
  -2  16  -2 4542.25  315.97
  16  -2  -2 4350.06  311.97
  -2 -16   2 4487.55  312.77
  -2   2 -16 4369.26  313.77
   2 -16  -2 4335.87  312.97
   2  16  -4   23.50   17.80
  -2 -16   4   42.70    9.60
  -2  16  -4   39.70   16.40
   2 -16  -4   48.50   11.70
  16  -4  -2   49.60    7.90
  -4   2 -16   35.80   11.30
   2  16   4   46.60   13.60
  -2 -16  -6   79.19   12.00
   2 -16   6   75.79   13.00
  -6  -2 -16   71.39   11.80
  -2  16   6   77.19   13.20
  16  -6   2   66.59    9.70
   2  16  -6   70.09   18.60
  16  -6  -2   69.29   12.50
  -2  16  -6   79.99   18.80
  -2 -16   6   71.89   11.10
   2 -16  -6   67.99   12.00
  -6   2 -16   89.19   14.20
   2  16   6   74.39   13.50
  -2  16   8  109.69   15.70
  -2 -16  -8  116.09   16.60
  -8  -2 -16  105.09   18.80
   2 -16   8  122.39   17.80
  16  -8   2  123.99   15.70
   2  16  -8  122.19   23.90
   2 -16  -8  127.19   18.00
  -2 -16   8  134.79   17.00
  -8   2 -16  126.49   22.30
  -2  16  -8  170.58   25.10
  16  -8  -2  130.69   16.20
 -16  10   2  781.02   61.69
   2 -16  10  773.02   56.39
   2  16 -10  747.03   63.59
  16 -10   2  764.72   55.69
  -2 -16 -10  745.43   55.89
 -10  -2 -16  773.32   58.59
  -2 -16  10  769.02   55.99
 -16  10  -2  805.62   63.49
 -10   2 -16  784.82   60.29
  -2  16 -10  810.72   63.89
  16 -10  -2  796.52   55.79
   2 -16 -10  716.33   56.39
 -16  12   2  136.19   22.70
   2  16 -12  131.19   26.50
  16 -12   2  131.99   18.70
 -12  -2 -16  131.39   19.40
   2 -16  12  126.29   20.50
  -2 -16 -12  134.99   18.50
  16 -12  -2   90.19   14.60
 -12   2 -16   87.19   20.70
 -16  12  -2   64.09   20.90
  -2  16 -12   73.39   22.30
   2 -16 -12   83.09   15.40
  16 -14   2  444.06   36.20
  -2 -16 -14  427.06   35.50
 -16  14   2  459.65   43.80
   2  16 -14  426.26   47.30
 -14  -2 -16  407.86   41.60
   2 -16 -14  434.06   37.10
  16 -14  -2  429.16   36.80
  -2  16 -14  430.06   47.00
 -14   2 -16  394.86   43.50
 -16  14  -2  410.56   45.50
   3 -16   1 1618.74  101.19
  -3 -16  -1 1599.94  100.49
  -3  16   1 1601.24  104.29
   3  16  -1 1645.44  105.29
   1   3 -16 1618.14  101.89
   3  16   1 1361.76  104.09
  -1   3 -16 1334.57  101.59
  16  -1  -3 1297.87   99.19
   3 -16  -1 1287.67  100.69
  -3 -16   1 1301.27  100.19
  -3  16  -1 1369.76  104.19
  16  -3   3  230.68   17.50
  -3  16   3  194.38   25.50
   3   3 -16  247.88   21.60
  -3  -3 -16  228.58   17.40
   3  16  -3  227.58   29.10
   3 -16   3  265.47   22.10
  -3 -16  -3  228.28   20.30
  16  -3  -3  192.68   17.90
   3 -16  -3  191.18   21.60
  -3 -16   3  202.88   19.90
  -3  16  -3  199.18   29.20
  -3   3 -16  191.48   22.70
   3  16   3  204.98   26.60
   3 -16   5  309.47   25.50
  -5  -3 -16  304.77   23.90
  -3  16   5  324.47   28.40
   5   3 -16  312.97   25.70
   3  16  -5  333.17   35.40
  -3 -16  -5  328.87   24.70
  16  -5   3  307.37   23.00
  -3 -16   5  259.27   24.10
  16  -5  -3  239.58   23.00
  -3  16  -5  270.07   33.20
  -5   3 -16  262.27   27.90
   3 -16  -5  268.07   25.70
   3  16   5  244.58   28.60
  -3 -16  -7  825.72   57.19
  -3  16   7  850.21   58.39
  -7  -3 -16  799.62   57.99
  16  -7   3  834.02   56.59
   3  16  -7  884.51   65.29
   3 -16   7  871.61   58.19
  -7   3 -16  721.53   60.19
  -3  16  -7  762.72   63.79
   3 -16  -7  748.83   57.79
  16  -7  -3  743.23   56.69
  -3 -16   7  752.62   56.99
   3 -16   9  174.08   20.60
  16  -9   3  171.58   17.70
  -9  -3 -16  160.28   20.60
   3  16  -9  164.38   25.20
  -3 -16  -9  137.39   17.80
  -3 -16   9  146.29   18.00
  -3  16  -9  121.49   23.30
 -16   9  -3  165.28   25.90
   3 -16  -9  143.09   19.90
  -9   3 -16  139.99   25.20
  16  -9  -3  121.29   17.90
   3  16 -11  757.92   68.19
  16 -11   3  786.12   59.99
 -16  11   3  767.32   64.99
   3 -16  11  733.73   60.69
 -11  -3 -16  752.92   62.69
  -3 -16 -11  737.23   59.79
  -3  16 -11  909.61   68.59
 -11   3 -16  901.21   65.49
   3 -16 -11  918.01   61.29
  16 -11  -3  953.40   60.59
 -16  11  -3  976.80   69.29
   3  16 -13  513.25   47.70
  -3 -16 -13  521.85   36.10
  16 -13   3  491.05   36.80
 -16  13   3  469.65   42.80
  -3  16 -13  408.26   47.50
   3 -16 -13  379.96   37.60
  16 -13  -3  377.36   36.70
 -13   3 -16  412.56   44.00
 -16  13  -3  416.76   47.40
   3  16 -15  601.84   56.79
  16 -15   3  667.03   47.60
  -3 -16 -15  592.64   46.00
 -16  15   3  644.54   52.99
  -3  16 -15  539.05   57.49
  16 -15  -3  569.64   47.80
 -16  15  -3  557.84   56.59
 -15   3 -16  612.54   55.39
  16   0  -4  482.65   34.90
  -4  16   0  509.95   42.70
   4 -16   0  504.05   38.00
  -4 -16   0  494.35   36.60
   4  16   0  512.85   44.00
   0   4 -16  486.65   39.20
   4  16  -2    9.40   15.20
  -4  16   2    7.70   13.50
  -4  16  -2   38.70   15.10
   4 -16  -2   30.30   10.90
  -4 -16   2   51.49    9.40
  -2   4 -16   51.09   12.70
  16  -2  -4   45.90    7.10
   4  16   2   42.40   14.50
   4  16  -4 1867.91  122.49
  -4  16   4 1923.41  119.89
  -4  -4 -16 1788.42  116.19
   4 -16   4 1888.41  117.79
   4   4 -16 1905.81  118.79
  -4 -16  -4 1856.31  116.99
  16  -4   4 1889.21  116.29
   4  16   4 1397.16  119.29
  -4  16  -4 1417.16  120.89
   4 -16  -4 1382.66  117.19
  -4 -16   4 1385.56  116.39
  -4 -16  -6  158.18   16.30
   4  16  -6  165.28   23.90
   4 -16   6  150.28   18.80
  -6  -4 -16  160.48   15.80
  -4  16   6  150.98   19.40
   6   4 -16  158.68   19.40
  16  -6   4  140.89   14.80
  16  -6  -4   97.99   15.20
  -4 -16   6  108.29   15.60
  -4  16  -6   95.89   20.60
   4 -16  -6  115.19   18.80
  -8  -4 -16 2069.19  149.99
  16  -8   4 2013.40  148.69
  -4  16   8 1962.90  149.09
   4  16  -8 1972.90  153.68
  -4 -16  -8 2060.09  148.79
  -4 -16   8 2407.06  148.99
  -8   4 -16 2300.47  152.38
  -4  16  -8 2421.56  155.18
  16  -8  -4 2366.96  149.09
 -16  10   4  452.65   41.30
 -10  -4 -16  428.86   37.50
   4  16 -10  490.65   46.10
  16 -10   4  446.06   34.80
  -4 -16 -10  454.75   34.60
   4 -16  10  465.45   36.80
 -16  10  -4  477.05   45.80
   4 -16 -10  412.06   36.40
  16 -10  -4  443.96   35.30
  -4  16 -10  436.86   46.20
 -10   4 -16  415.16   41.60
   4 -16  12  524.25   42.00
  -4 -16 -12  549.05   40.40
  16 -12   4  492.85   40.70
 -16  12   4  501.45   46.00
   4  16 -12  499.45   51.59
  16 -12  -4  523.45   41.40
 -12   4 -16  579.94   48.60
  -4  16 -12  516.95   51.89
   4 -16 -12  529.65   42.20
 -16  12  -4  504.25   51.29
  16 -14   4  189.18   24.50
 -16  14   4  182.68   30.70
   4  16 -14  173.58   30.10
  -4 -16 -14  195.48   22.90
 -16  14  -4  222.58   37.70
   4 -16 -14  234.68   26.70
  -4  16 -14  213.28   38.20
 -14   4 -16  277.27   36.30
  16 -14  -4  239.48   26.10
   1   5 -16  204.58   23.80
   5  16  -1  184.38   28.60
  -5  16   1  187.78   26.70
  -5 -16  -1  191.28   18.80
  16   1  -5  179.88   16.40
   5 -16   1  188.88   21.70
  -5  16  -1  255.57   28.50
  -5 -16   1  249.18   19.20
  16  -1  -5  240.58   17.60
   5 -16  -1  231.58   21.60
   5  16   1  264.47   29.20
  -1   5 -16  243.38   24.20
   5  16  -3  327.07   33.80
  -5 -16  -3  325.07   23.50
   5 -16   3  314.67   25.60
  16  -3   5  309.27   21.90
   3   5 -16  324.87   27.50
  -5  16   3  289.87   29.40
  -5  16  -3  271.17   32.20
  -5 -16   3  259.27   23.00
  16  -3  -5  263.37   22.50
   5 -16  -3  259.47   25.60
  -3   5 -16  232.58   27.60
   5  16   3  236.58   30.40
   5   5 -16  935.91   63.89
  -5  -5 -16  808.22   60.09
   5  16  -5  920.11   68.59
  16  -5   5  843.42   60.39
  -5 -16  -5  888.41   60.89
  -5  16   5  918.81   63.99
   5 -16   5  904.61   62.39
  -5   5 -16  879.31   64.79
  -5 -16   5  801.82   60.69
   5 -16  -5  838.92   62.39
  -5  16  -5  839.82   67.19
  16  -5  -5  822.52   60.79
   7   5 -16  774.02   59.09
   5 -16   7  849.72   58.09
  -7  -5 -16  770.42   56.99
  -5 -16  -7  816.12   56.39
  -5  16   7  799.82   57.89
  16  -7   5  817.22   56.29
   5  16  -7  814.42   64.09
  -5 -16   7  767.92   56.19
  -5  16  -7  769.52   64.19
  -7   5 -16  738.73   60.89
   5 -16  -7  793.72   57.89
  16  -7  -5  777.02   56.59
  -9  -5 -16  289.17   29.50
  -5 -16  -9  317.67   27.40
   5 -16   9  292.97   29.90
  16  -9   5  316.37   28.20
   5  16  -9  334.27   40.30
 -16   9   5  288.47   33.30
  -9   5 -16  372.76   36.00
  16  -9  -5  373.16   28.90
  -5  16  -9  369.86   39.90
   5 -16  -9  407.06   30.80
 -16   9  -5  425.76   40.90
  16 -11   5  465.95   38.00
  -5 -16 -11  418.36   36.70
   5  16 -11  501.75   49.50
   5 -16  11  484.35   39.00
 -16  11   5  493.75   43.10
 -11   5 -16  515.65   46.20
  16 -11  -5  501.45   38.50
  -5  16 -11  483.75   48.30
   5 -16 -11  498.45   40.00
 -16  11  -5  514.95   49.60
  16 -13   5   76.69   15.10
 -16  13   5   61.19   17.20
   5  16 -13   34.60   21.40
  -5 -16 -13   72.69   12.90
   5 -16 -13   78.79   15.90
 -16  13  -5   65.39   22.60
  16 -13  -5   74.79   14.20
  -5  16 -13   64.79   22.50
 -13   5 -16   64.79   21.30
  -5 -16 -15  162.68   22.40
 -16  15   5  185.28   29.40
   5  16 -15  199.88   32.70
  16 -15   5  153.18   25.00
  -5  16 -15  230.08   40.60
 -16  15  -5  231.68   39.80
  16 -15  -5  246.48   27.20
   5 -16 -15  245.68   28.10
 -15   5 -16  218.88   38.30
   6  16   0  471.75   43.00
   6 -16   0  514.45   37.20
  -6 -16   0  482.95   34.80
  16   0  -6  440.06   33.90
   0   6 -16  478.25   39.50
  -6  16   0  477.65   41.70
   2   6 -16   79.09   14.50
  -6 -16  -2   76.99   11.50
  -6  16   2   66.29   15.20
   6 -16   2   66.39   12.30
   6  16  -2   73.59   18.20
  16  -2  -6   68.99   10.60
   6 -16  -2   62.59   12.70
  -2   6 -16   66.69   14.20
  -6 -16   2   65.99   11.40
   6  16   2   80.69   17.00
  -6  16  -2   61.89   17.30
   6  16  -4  157.58   23.30
   6 -16   4  151.98   18.60
  -6  16   4  146.79   22.00
  16  -4   6  164.68   14.20
  -6 -16  -4  166.98   15.10
   4   6 -16  158.18   21.50
  -4   6 -16  112.09   18.80
  -6  16  -4  129.79   22.90
  -6 -16   4  110.69   14.50
   6 -16  -4   96.29   15.60
  -6  16   6  386.56   33.40
  16  -6   6  395.06   30.10
  -6  -6 -16  381.96   29.70
   6   6 -16  404.76   35.10
   6 -16   6  431.46   32.60
   6  16  -6  421.96   42.60
  -6 -16  -6  405.16   30.10
  -6   6 -16  370.46   36.80
  -6  16  -6  399.36   41.10
  16  -6  -6  376.96   30.80
  -6 -16   6  383.66   30.00
   6 -16  -6  380.96   33.10
  -8  -6 -16  350.66   28.00
  -6 -16  -8  365.36   26.80
   6 -16   8  348.07   29.40
  16  -8   6  342.17   27.20
   6  16  -8  406.96   40.70
   6 -16  -8  287.87   29.50
  16  -8  -6  295.67   27.90
 -16   8  -6  291.47   39.60
  -6  16  -8  305.97   39.10
  -8   6 -16  280.67   34.50
  -6 -16 -10   43.90    9.80
   6 -16  10   50.89   14.00
   6  16 -10   30.40   22.70
 -16  10   6   29.30   14.50
  16 -10   6   46.00   11.60
 -10   6 -16    9.20   16.00
 -16  10  -6   36.90   23.20
   6 -16 -10   25.70   12.50
  -6  16 -10   34.30   22.50
  16 -10  -6   32.40   11.30
   6 -16  12  610.24   50.49
  16 -12   6  593.94   49.60
   6  16 -12  667.53   60.69
 -16  12   6  615.14   53.29
  -6 -16 -12  597.74   48.40
  -6  16 -12  719.13   61.09
   6 -16 -12  703.63   51.49
 -12   6 -16  754.72   58.69
 -16  12  -6  696.23   61.39
  16 -12  -6  742.23   50.59
   6  16 -14  138.09   28.40
  -6 -16 -14  130.59   18.90
  16 -14   6  148.89   22.60
 -16  14   6  163.88   21.70
 -16  14  -6  137.59   30.90
 -14   6 -16  189.58   30.00
   6 -16 -14  147.89   25.00
  16 -14  -6  167.18   24.10
  -6  16 -14  110.39   26.80
  -7 -16  -1  168.68   16.30
  -7  16   1  174.68   25.90
  16   1  -7  159.38   15.50
   7  16  -1  154.88   23.40
   1   7 -16  167.98   24.40
   7 -16   1  166.08   20.80
   7 -16  -1  205.98   21.30
   7  16   1  230.98   28.80
  -1   7 -16  220.38   24.60
  -7 -16   1  210.58   16.50
  -7  16  -1  220.28   28.10
  16  -1  -7  191.28   16.60
  -7 -16  -3  854.11   55.79
  -7  16   3  867.91   60.79
   7 -16   3  842.02   57.89
   7  16  -3  870.01   64.09
   3   7 -16  823.92   60.19
  -7  16  -3  734.33   62.69
  -7 -16   3  750.22   55.59
  16  -3  -7  761.62   55.99
  -3   7 -16  723.13   60.49
   7 -16  -3  733.53   57.49
   7 -16   5  693.63   55.19
   7  16  -5  812.42   62.89
  16  -5   7  781.02   53.39
  -7 -16  -5  815.32   53.29
  -7  16   5  663.63   56.49
   5   7 -16  818.62   58.29
  -5   7 -16  728.23   58.89
  16  -5  -7  753.52   53.89
   7 -16  -5  718.63   55.49
  -7  16  -5  773.72   60.99
  -7 -16   5  751.72   53.19
   7 -16   7 1758.32  124.79
  -7  16   7 1777.32  125.19
  -7 -16  -7 1806.02  123.39
   7  16  -7 1740.93  130.09
  -7  -7 -16 1692.33  123.79
  16  -7   7 1674.73  123.59
   7   7 -16 1715.13  126.79
   7 -16  -7 1979.00  125.19
  -7  16  -7 1916.11  130.29
  16  -7  -7 1890.21  124.19
  -7   7 -16 1869.11  128.39
  16  -9   7  325.57   26.60
   7 -16   9  340.37   29.20
  -7 -16  -9  334.07   25.10
 -16   9   7  338.47   31.30
   7  16  -9  320.37   40.00
  -9   7 -16  248.88   35.00
 -16   9  -7  209.98   39.00
  -7  16  -9  207.38   34.10
   7  16 -11  819.62   68.49
   7 -16  11  834.02   59.49
  -7 -16 -11  799.42   57.19
  16 -11   7  834.72   58.59
 -16  11   7  825.82   61.29
 -16  11  -7  744.63   68.39
   7 -16 -11  758.42   59.69
  16 -11  -7  805.42   59.29
  -7  16 -11  752.82   67.69
 -11   7 -16  824.82   66.69
  -7 -16 -13   94.69   15.70
  16 -13   7   92.19   15.50
   7 -16  13   95.19   16.30
   7  16 -13  100.69   25.10
   7 -16 -13  137.39   19.80
  16 -13  -7  107.49   17.00
 -16  13  -7   76.79   25.40
  -7  16 -13   94.19   25.30
 -13   7 -16   95.99   23.20
  16 -15   7  185.58   26.40
   7  16 -15  229.38   34.50
  -7 -16 -15  200.18   21.70
 -16  15  -7  292.17   42.40
   0   8 -16  244.18   27.60
  -8 -16   0  225.78   18.00
  -8  16   0  228.98   28.90
   8 -16   0  219.18   22.90
   8  16   0  214.48   31.30
  16   0  -8  213.78   18.50
  -8  16   2  124.29   19.60
   8 -16   2  136.39   19.50
  -8 -16  -2  118.29   12.90
   2   8 -16  154.78   20.80
   8  16  -2  102.59   21.10
  -2   8 -16  178.28   24.40
  -8 -16   2  142.19   13.30
  -8  16  -2  125.99   21.30
  16  -2  -8  134.19   14.90
   8 -16  -2  129.39   19.40
  -8 -16  -4 1919.61  149.19
   8  16  -4 2053.69  155.38
  -8  16   4 2012.20  152.58
   8 -16   4 2094.19  150.78
   4   8 -16 2039.30  153.18
  16  -4  -8 2450.65  150.28
   8 -16  -4 2482.05  151.28
  -4   8 -16 2284.27  154.18
  -8  16  -4 2412.46  155.58
   6   8 -16  329.97   33.30
  -8 -16  -6  355.66   25.10
  -8  16   6  343.37   30.00
   8  16  -6  330.77   39.10
  16  -6   8  308.47   26.20
   8 -16   6  345.37   29.00
   8 -16  -6  303.47   29.30
  -8  16  -6  313.27   38.50
  16  -6  -8  303.17   27.10
  -6   8 -16  266.37   34.50
  16  -8   8 1845.92  143.59
   8  16  -8 1940.71  149.88
  -8  -8 -16 1897.61  143.99
   8 -16   8 1983.40  144.69
   8   8 -16 2071.09  147.39
  -8 -16  -8 1968.10  143.09
 -16   8  -8 2322.07  151.18
   8 -16  -8 2300.27  145.19
  -8   8 -16 2257.67  149.29
  16  -8  -8 2303.07  144.39
  -8  16  -8 2211.28  150.68
  16 -10   8  282.67   26.90
   8 -16  10  274.17   28.40
 -16  10   8  279.17   29.40
   8  16 -10  287.87   39.40
  -8 -16 -10  282.47   24.00
   8 -16 -10  333.07   29.90
  16 -10  -8  286.67   27.90
 -16  10  -8  318.07   40.20
  -8  16 -10  282.17   40.00
 -10   8 -16  292.87   37.60
  -8 -16 -12  395.36   29.60
   8 -16  12  456.25   34.50
   8  16 -12  430.86   46.00
  16 -12   8  409.06   32.80
 -16  12  -8  312.87   47.10
 -12   8 -16  349.96   44.20
   8 -16 -12  293.17   34.80
  16 -12  -8  305.77   33.30
   8  16 -14   49.60   24.60
  -8 -16 -14   41.30   10.30
  16 -14   8   50.69   15.60
 -14   8 -16   24.90   23.80
  -8  16 -14   40.10   27.90
   8 -16 -14   34.60   16.80
  16 -14  -8   15.80   14.40
 -16  14  -8   18.70   24.10
  -9  16   1  638.04   56.09
   1   9 -16  660.33   55.89
   9  16  -1  626.14   57.79
  -9 -16  -1  616.54   49.10
   9 -16   1  656.73   52.59
  -1   9 -16  808.02   56.79
  -9 -16   1  793.02   49.40
  -9  16  -1  787.52   57.89
   9 -16  -1  787.92   52.99
   3   9 -16  163.38   25.00
  -9  16   3  164.08   24.60
   9  16  -3  144.69   23.60
   9 -16   3  159.28   20.50
  -9 -16  -3  171.68   13.50
  -3   9 -16  146.69   21.80
   9 -16  -3  135.39   20.50
  -9  16  -3  122.79   22.50
  16  -3  -9  117.99   16.40
   9  16  -5  310.57   38.30
  -9 -16  -5  300.77   24.90
   9 -16   5  313.07   30.20
   5   9 -16  283.37   34.20
  -9  16   5  294.47   31.50
  -5   9 -16  372.56   36.00
  16  -5  -9  366.46   28.20
   9 -16  -5  411.76   31.00
  -9  16  -5  393.16   39.30
   9  16  -7  347.57   40.20
   7   9 -16  336.77   34.00
   9 -16   7  327.17   28.90
  -9 -16  -7  328.87   24.00
  -9  16   7  310.27   26.90
  16  -7   9  346.37   26.80
 -16   7  -9  237.98   39.90
  -7   9 -16  231.78   35.60
  -9  16  -7  220.58   38.90
   9  16  -9  710.93   62.99
  -9 -16  -9  738.23   51.09
   9 -16   9  763.22   54.59
   9   9 -16  743.73   58.79
  16  -9   9  762.32   53.09
 -16   9   9  751.32   54.19
   9 -16  -9  652.43   54.59
 -16   9  -9  708.33   63.69
  -9   9 -16  722.63   61.39
  -9  16  -9  677.23   62.99
  16  -9  -9  674.63   53.29
   9 -16  11  946.31   67.89
  -9 -16 -11  978.50   65.09
  16 -11   9  990.40   67.09
   9  16 -11  938.61   75.89
  -9  16 -11  834.82   76.39
   9 -16 -11  891.01   68.29
 -11   9 -16  963.80   75.69
  16 -11  -9  943.01   67.69
 -16  11  -9  782.12   76.19
  16 -13   9  104.69   16.50
   9  16 -13   84.09   27.10
   9 -16  13   74.39   15.70
  -9 -16 -13   79.59   13.60
   9 -16 -13   59.79   17.50
 -13   9 -16   72.89   25.10
 -16  13  -9   45.30   25.40
  -9  16 -13   54.39   26.70
  16 -13  -9   88.89   17.40
  -9 -16 -15  310.17   28.30
   9  16 -15  354.16   46.40
  16 -15   9  339.57   34.00
 -16  15  -9  350.66   49.70
  -9  16 -15  366.76   49.99
 -15   9 -16  411.26   48.50
  16 -15  -9  379.16   35.20
   0  10 -16   55.19   16.40
 -10  16   0   81.59   19.10
  10 -16   0   59.39   13.60
   2  10 -16  766.22   61.39
 -10  16   2  757.92   60.59
  10 -16   2  789.52   56.89
 -10  16  -2  784.92   62.49
  -2  10 -16  748.63   61.49
  10 -16  -2  785.22   57.49
 -10  16   4  445.76   39.50
  10  16  -4  445.46   44.70
   4  10 -16  459.35   41.80
  10 -16   4  470.25   36.80
  10 -16  -4  424.86   36.80
  -4  10 -16  433.06   42.20
 -10  16  -4  421.76   44.60
  10 -16   6   31.30   13.20
   6  10 -16   44.40   17.80
  10  16  -6   23.10   19.50
 -10  16   6   32.50   13.00
  10 -16  -6   35.40   12.90
 -16   6 -10   37.30   20.30
  -6  10 -16   26.20   16.90
 -10  16  -6   35.20   20.50
  16  -6 -10   26.90   10.70
   8  10 -16  260.37   34.90
  10 -16   8  278.87   29.00
  10  16  -8  295.27   40.40
  -8  10 -16  315.67   38.60
  16  -8 -10  300.27   27.90
 -10  16  -8  281.17   40.90
  10 -16  -8  298.17   29.30
 -16   8 -10  337.77   41.00
  10  16 -10  193.68   30.70
  10 -16  10  186.58   24.10
  16 -10  10  166.48   21.10
  16 -10 -10  153.28   22.00
 -16  10 -10  117.59   26.80
  10 -16 -10  151.28   23.60
 -10  16 -10   97.19   27.30
 -10  10 -16  130.89   25.20
  16 -12  10   36.10   13.50
  10  16 -12   48.80   23.50
  10 -16  12   17.90   15.20
 -16  12 -10   14.70   23.40
  16 -12 -10   53.49   16.60
  10 -16 -12   35.70   16.10
 -12  10 -16   30.90   22.10
 -10  16 -12   32.80   26.10
  16 -14 -10   77.09   16.40
  10 -16 -14   77.29   19.30
 -16  14 -10   52.49   25.40
 -14  10 -16   71.29   24.40
 -10  16 -14   57.79   26.10
  11 -16   1  247.68   25.00
   1  11 -16  265.57   31.70
 -11  16   1  232.98   30.10
  11 -16  -1  200.88   24.60
 -11  16  -1  220.78   32.00
  -1  11 -16  172.88   30.80
 -11  16   3  799.72   64.59
  11 -16   3  765.72   61.49
   3  11 -16  732.43   65.69
 -11  16  -3  907.81   68.09
  11 -16  -3  912.61   62.09
  -3  11 -16  936.21   67.49
 -11  16   5  458.75   41.60
  11 -16   5  477.85   39.50
   5  11 -16  488.25   45.50
  11 -16  -5  519.45   39.90
 -16   5 -11  530.25   49.90
 -11  16  -5  502.05   49.00
  -5  11 -16  466.55   46.20
   7  11 -16  850.71   64.59
  11  16  -7  811.72   67.59
  11 -16   7  834.32   59.59
  -7  11 -16  779.22   66.09
  16  -7 -11  776.62   58.69
 -16   7 -11  767.32   67.59
  11 -16  -7  789.22   60.09
 -11  16  -7  771.72   67.99
  11 -16   9  957.10   67.69
  11  16  -9  895.81   75.39
   9  11 -16 1011.00   73.29
  16  -9 -11  892.61   67.39
 -11  16  -9  882.71   76.59
  -9  11 -16  918.21   75.69
 -16   9 -11  889.81   77.39
  11 -16  -9  917.11   68.39
  11  16 -11  442.16   45.80
 -11  16 -11  319.07   47.80
 -11  11 -16  334.17   44.70
  11 -16 -11  314.47   32.70
 -16  11 -11  306.87   46.60
  16 -11 -11  300.07   32.00
  16 -13  11   81.99   15.80
  11 -16  13  105.29   19.10
  11 -16 -13  116.79   20.10
 -13  11 -16  126.09   31.00
  16 -13 -11   89.39   17.20
 -16  13 -11   83.39   27.20
 -11  16 -13  111.49   29.30
  16 -15  11  420.86   36.40
 -11  16 -15  374.76   53.09
 -16  15 -11  336.67   53.29
  15 -11 -16  403.16   39.20
 -15  11 -16  336.37   50.79
  11 -16 -15  352.76   39.50
  16 -15 -11  397.46   38.20
 -12  16   0 1353.26   99.19
   0  12 -16 1319.77   99.59
  12 -16   0 1354.36   94.79
  12 -16   2  129.19   20.50
  12 -16  -2   66.59   14.70
  -2  12 -16   89.99   22.40
 -12  16  -2   79.19   22.90
 -12  16   4  477.85   43.90
  12 -16   4  491.15   41.10
   4  12 -16  473.65   47.30
  -4  12 -16  532.15   48.70
 -12  16  -4  509.35   49.60
  12 -16  -4  530.75   41.60
 -16   4 -12  543.05   50.29
   6  12 -16  657.03   58.09
  12 -16   6  651.03   52.19
 -12  16   6  605.64   52.89
  -6  12 -16  750.92   60.39
 -12  16  -6  694.63   61.19
 -16   6 -12  701.23   60.79
  12 -16  -6  750.92   52.99
   8  12 -16  393.86   39.70
  12 -16  -8  291.77   31.60
 -12  16  -8  285.47   42.70
  -8  12 -16  310.27   41.10
 -16   8 -12  350.86   44.80
  16  -8 -12  300.27   30.30
  12 -16  10   23.50   14.30
 -12  16 -10   49.20   28.30
  16 -10 -12   36.20   15.20
  12 -16 -10   36.00   15.90
 -16  10 -12   33.10   24.60
 -10  12 -16   28.20   23.20
  12 -16 -12  574.54   47.00
 -16  12 -12  524.25   58.49
 -12  16 -12  487.95   59.29
 -12  12 -16  555.04   57.99
  16 -12 -12  555.34   45.50
 -16  14 -12  145.39   34.30
  16 -14 -12  109.09   19.60
 -12  16 -14  135.09   35.70
 -14  12 -16  169.38   35.50
  14 -12 -16  179.28   24.70
  12 -16 -14  160.48   24.20
 -13  16   1  508.85   48.20
  13 -16   1  521.25   42.40
   1  13 -16  562.64   50.39
 -13  16  -1  533.55   49.50
  13 -16  -1  516.45   42.80
  -1  13 -16  529.55   49.90
  13 -16   3  521.75   38.60
 -13  16   3  477.15   42.20
   3  13 -16  527.55   46.40
  13 -16  -3  415.66   38.00
 -16   3 -13  426.86   47.10
 -13  16  -3  379.66   46.40
  -3  13 -16  418.56   46.30
   5  13 -16   31.20   19.60
 -13  16   5   72.89   16.90
  13 -16   5   75.09   15.90
 -13  16  -5   62.49   21.90
 -16   5 -13   71.29   22.60
  -5  13 -16   96.09   22.80
  13 -16  -5   73.19   15.50
  13 -16   7  124.99   18.10
   7  13 -16   89.09   22.20
 -13  16  -7   97.39   28.40
 -16   7 -13   83.39   25.30
  13 -16  -7   83.79   16.80
  -7  13 -16   93.09   24.10
  16  -7 -13  121.19   20.80
   9  13 -16   89.39   22.30
  13 -16   9   88.29   17.50
  -9  13 -16   74.79   27.60
 -16   9 -13   65.89   24.60
 -13  16  -9   81.09   28.90
  16  -9 -13   55.49   15.50
  13 -16  -9   70.49   17.20
 -11 -13 -16   81.89   14.10
  13 -16  11   94.09   18.70
 -13  16 -11  124.59   32.60
 -16  11 -13   91.39   26.90
 -11  13 -16  101.09   28.50
  16 -11 -13  136.49   19.40
  13 -16 -11  149.79   21.70
  13 -13 -16  189.68   30.50
  16 -13 -13  184.78   27.90
 -16  13 -13  123.89   31.00
  13 -16 -13  182.98   29.50
 -13  16 -13  110.49   30.10
 -13  13 -16  133.99   29.90
 -16  15 -13  309.17   44.30
  13 -16 -15  281.87   35.20
  15 -13 -16  301.07   35.80
 -15  13 -16  305.97   49.99
 -13  16 -15  289.77   50.69
  16 -15 -13  294.57   35.00
   0  14 -16  145.09   26.10
  14 -16   0  164.48   23.90
 -14  16   0  139.09   24.40
  14 -16   2  456.55   37.00
 -14  16   2  422.16   42.90
   2  14 -16  435.26   46.40
  -2  14 -16  439.56   47.00
 -14  16  -2  428.46   45.70
  14 -16  -2  430.56   37.70
 -16   2 -14  403.16   46.30
 -14  16   4  183.48   29.80
  14 -16   4  195.38   26.00
   4  14 -16  181.18   28.80
  14 -16  -4  238.98   27.40
  -4  14 -16  239.58   37.40
 -14  16  -4  240.38   38.10
 -16   4 -14  256.77   37.60
   6  14 -16  164.88   27.70
  14 -16   6  149.49   23.90
 -14  16   6  133.09   20.60
  -6  14 -16  169.08   30.00
 -14  16  -6  109.19   27.60
 -16   6 -14  174.78   29.80
  14 -16  -6  160.98   25.20
  14 -16   8   42.80   15.80
   8  14 -16   39.90   21.20
  14 -16  -8   33.80   16.40
 -16   8 -14   43.60   26.20
 -14  16  -8   38.40   24.20
  16  -8 -14   27.20   14.50
  -8  14 -16   37.00   23.40
  10  14 -16   11.00   23.30
 -16  10 -14   58.39   26.20
  10 -14 -16   64.29   18.10
  14 -16 -10   62.09   16.90
  16 -10 -14  106.69   18.90
 -14  16 -10   82.39   29.90
 -10  14 -16   79.49   28.90
  14 -16  12   91.79   17.90
 -12  14 -16  135.79   32.70
  12 -14 -16  154.48   24.30
 -16  12 -14   82.39   27.30
  14 -16 -12  140.19   21.70
  16 -12 -14  115.89   19.60
 -14  16 -12   75.39   28.70
 -14  14 -16  532.05   61.29
 -16  14 -14  515.25   60.59
  14 -14 -16  552.14   48.80
 -14  16 -14  520.95   61.99
  16 -14 -14  562.84   47.60
  14 -16 -14  565.84   48.90
  15 -16   1  415.26   42.50
 -15  16  -1  580.84   51.49
  -1  15 -16  598.84   53.89
  15 -16  -1  554.94   43.20
  15 -16   3  665.63   47.80
 -15  16   3  637.74   53.09
   3  15 -16  630.64   57.09
  -3  15 -16  575.24   57.09
  15 -16  -3  579.04   48.60
 -15  16  -3  523.35   56.09
 -16   3 -15  578.64   55.79
  15 -16   5  161.18   25.80
 -15  16   5  177.88   29.40
   5  15 -16  159.68   30.10
  15 -16  -5  252.37   27.90
  -5  15 -16  242.98   34.10
 -16   5 -15  229.38   39.00
 -15  16  -5  240.88   34.40
   7  15 -16  211.88   34.00
  15 -16   7  210.58   27.70
 -15  16  -7  277.57   42.30
  -9 -15 -16  325.17   30.20
   9  15 -16  355.16   45.70
  15 -16   9  319.77   35.50
  -9  15 -16  459.35   51.29
 -15  16  -9  336.87   50.39
 -16   9 -15  387.46   49.60
  16  -9 -15  404.26   36.10
  15 -16  -9  437.16   36.60
   9 -15 -16  392.16   38.60
  15 -16  11  400.26   36.70
  16 -11 -15  372.26   38.10
 -15  16 -11  381.96   53.49
 -16  11 -15  391.76   52.39
  11 -15 -16  358.66   40.50
  15 -16 -11  384.76   38.80
 -11  15 -16  414.36   53.19
  16 -13 -15  283.47   34.60
  13 -15 -16  298.17   36.90
  15 -16 -13  315.57   35.60
 -16  13 -15  268.37   49.20
 -15  16 -13  282.57   50.49
 -13  15 -16  292.87   50.29
 -15  15 -16  741.33   72.09
 -15  16 -15  765.32   73.29
  15 -16 -15  715.33   59.39
  15 -15 -16  708.03   58.99
 -16   0 -16  389.76   43.20
 -16  16   0  368.36   43.90
   0  16 -16  375.16   46.90
  16 -16   0  404.06   35.80
 -16  -2 -16  754.62   59.79
  16 -16   2  787.22   54.39
   2  16 -16  772.22   64.09
 -16  16   2  762.22   60.09
  -2  16 -16  551.24   62.59
 -16  16  -2  601.34   61.69
  16 -16  -2  643.94   54.39
  -4 -16 -16  479.25   42.10
  16 -16   4  524.35   44.30
 -16  16   4  482.75   48.60
   4  16 -16  512.95   54.69
  -4  16 -16  610.04   56.29
 -16   4 -16  662.13   55.49
 -16  16  -4  619.84   55.79
  16 -16   6  138.19   24.40
  -6 -16 -16  169.58   20.40
   6  16 -16  161.28   30.00
 -16  16  -6  144.49   32.20
   6 -16 -16  157.48   26.90
  -6  16 -16   98.59   28.00
  16 -16  -6  157.38   26.70
 -16   6 -16  137.09   29.20
  -8 -16 -16  365.66   28.80
  16 -16   8  365.96   33.70
   8  16 -16  364.36   46.20
   8 -16 -16  284.47   36.80
  16 -16  -8  285.87   34.60
  16 -16  10   80.29   18.40
  10  16 -16  104.29   26.60
 -10  16 -16   51.09   30.20
  10 -16 -16   50.39   20.70
 -16  16 -10   19.10   25.90
  16 -16 -10   53.39   19.20
 -16  10 -16   43.90   27.00
  16 -10 -16   57.69   18.10
 -16  12 -16  284.27   48.90
 -16  16 -12  304.67   51.69
 -12  16 -16  290.37   50.19
  12 -16 -16  287.47   36.70
  16 -16 -12  284.77   34.20
  16 -12 -16  272.67   34.50
 -16  14 -16   87.39   30.60
 -16  16 -14   82.69   32.60
 -14  16 -16  122.69   34.80
  14 -16 -16  130.49   23.40
  16 -16 -14   70.69   20.30
  16 -14 -16   78.29   19.20
 -16  16 -16  165.98   32.90
  16 -16 -16  177.98   31.50
   0  17   1 1965.50  134.49
   1   0 -17 1886.51  129.79
   0 -17   1 1851.71  130.79
   0  17  -1 1926.01  134.89
  -1   0 -17 1873.31  130.39
   0 -17  -1 1915.91  130.89
   0 -17   3   28.40   10.90
   0  17  -3   34.00   18.20
  -3   0 -17   28.90    8.90
   0 -17  -3   24.00   11.10
  17  -3   0   29.30    6.20
   0  17   3   28.30   13.00
   0  17  -5  443.06   42.30
  17  -5   0  419.26   30.80
   0 -17  -5  406.06   33.00
   0  17   5  389.66   35.90
  -5   0 -17  383.36   33.20
   0 -17   5  432.66   32.90
  -7   0 -17  552.44   42.10
   0  17  -7  563.74   49.60
   0 -17  -7  512.95   40.40
   0  17   7  502.05   41.40
  17  -7   0  520.05   38.80
   0 -17   7  524.85   40.40
  -9   0 -17  106.99   16.70
  17  -9   0  108.99   15.90
   0 -17   9  115.69   15.20
   0  17  -9   82.19   22.30
   0 -17  -9   72.29   13.10
 -11   0 -17   61.69   17.30
   0 -17  11   41.90   12.50
  17 -11   0   41.10   12.20
 -17  11   0   46.40   19.30
   0 -17 -11   46.10   13.00
   0  17 -11   30.20   22.20
 -17  13   0    8.40   21.30
   0  17 -13   14.90   24.50
  17 -13   0   15.80   12.10
   0 -17 -13    0.60   13.00
 -13   0 -17    8.10   17.00
   0 -17 -15  394.16   37.60
   0  17 -15  425.96   50.29
  17 -15   0  479.35   38.30
 -17  15   0  443.66   47.10
 -15   0 -17  430.56   45.00
  -1  17   0 1953.00  136.39
  -1 -17   0 1946.51  132.59
   1 -17   0 1899.41  132.79
   1  17   0 1964.20  136.59
   0   1 -17 1889.11  132.59
  -1 -17  -2 1508.45  110.79
   1  17  -2 1535.15  115.39
  17  -2   1 1480.15  109.29
   2   1 -17 1541.75  110.49
  -1  17   2 1503.75  114.19
  -2  -1 -17 1444.06  110.09
   1 -17   2 1546.95  111.09
  -1 -17   2 1724.53  110.99
   1  17   2 1777.92  114.89
   1 -17  -2 1751.62  111.29
  17  -2  -1 1661.13  109.49
  -2   1 -17 1693.93  111.49
  -1  17  -2 1735.53  115.69
  -4  -1 -17  256.37   23.80
   1 -17   4  265.77   25.30
   1  17  -4  299.47   34.30
  -1  17   4  280.97   29.20
  -1 -17  -4  268.97   24.80
  17  -4   1  294.87   22.00
  -1  17  -4  293.67   34.40
   1  17   4  295.97   29.80
  17  -4  -1  283.57   22.20
  -1 -17   4  290.47   24.90
   1 -17  -4  281.47   25.20
  -4   1 -17  286.77   25.50
  -1  17   6  105.39   19.00
  -1 -17  -6   98.39   16.70
   1  17  -6  131.49   23.90
   1 -17   6  128.99   17.80
  17  -6   1  117.59   13.40
  -6  -1 -17   98.39   16.30
  17  -6  -1   80.89   13.30
   1  17   6  102.39   16.00
  -1  17  -6   97.79   22.70
  -1 -17   6   89.39   16.00
  -6   1 -17   96.49   15.20
   1 -17  -6   97.09   14.60
  17  -8   1   68.79   11.40
   1  17  -8   60.49   21.30
   1 -17   8   50.69   13.20
  -1  17   8   83.79   14.60
  -8  -1 -17   70.89   14.00
  -1 -17  -8   48.80   11.70
   1 -17  -8  115.19   17.50
  17  -8  -1   87.79   11.30
  -1  17  -8  116.99   24.20
  -8   1 -17  109.39   16.20
  -1 -17 -10  552.64   45.90
 -17  10   1  597.24   53.19
  17 -10   1  572.84   45.60
   1 -17  10  549.25   46.20
 -10  -1 -17  562.04   48.90
   1  17 -10  563.64   55.79
 -10   1 -17  676.53   50.79
  -1  17 -10  663.83   56.69
   1 -17 -10  635.84   46.50
 -17  10  -1  670.93   54.69
  17 -10  -1  696.73   46.00
  -1 -17  10  629.44   46.30
 -12  -1 -17  393.76   37.80
 -17  12   1  397.26   42.40
  -1 -17 -12  383.36   33.20
   1  17 -12  387.26   45.60
  17 -12   1  385.46   33.20
 -17  12  -1  405.96   43.80
 -12   1 -17  398.26   39.30
  17 -12  -1  376.06   33.10
   1 -17 -12  389.96   33.90
  -1  17 -12  398.76   46.10
   1  17 -14  509.05   52.99
 -17  14   1  596.74   49.50
 -14  -1 -17  615.54   47.20
  17 -14   1  602.54   41.40
   1 -17 -14  427.36   41.10
 -17  14  -1  420.26   49.80
 -14   1 -17  444.36   46.90
  17 -14  -1  417.06   40.80
 -16  -1 -17  618.54   54.79
  -1 -17 -16  668.43   48.00
   1  17 -16  602.84   59.29
 -17  16   1  634.44   55.99
  17 -16   1  643.74   48.70
  17 -16  -1  587.24   48.80
  -1  17 -16  527.65   59.59
   1 -17 -16  604.64   48.60
 -17  16  -1  549.25   56.69
 -16   1 -17  547.25   55.39
  -2  17   1 1528.65  115.79
   1   2 -17 1483.85  112.39
  -2 -17  -1 1538.25  112.09
   2 -17   1 1484.75  112.39
   2  17  -1 1537.95  116.39
  17  -1  -2 1705.13  110.79
   2 -17  -1 1742.33  112.69
   2  17   1 1685.13  116.39
  -2 -17   1 1732.03  112.29
  -1   2 -17 1692.63  113.09
  -2  17  -1 1765.22  116.79
  17  -3   2  224.58   20.00
  -2 -17  -3  229.88   23.30
   2  17  -3  223.08   31.90
  -2  17   3  231.48   28.50
   2 -17   3  250.07   24.10
   3   2 -17  240.18   22.60
  -3  -2 -17  223.08   20.70
   2 -17  -3  308.07   24.80
  -2 -17   3  291.47   23.30
   2  17   3  307.57   30.30
  -3   2 -17  295.67   24.80
  17  -3  -2  302.17   20.60
  -2  17  -3  292.37   32.80
   2 -17  -5  342.47   29.40
   2  17   5  329.17   32.90
  -2  17  -5  356.26   38.10
  -5   2 -17  340.37   30.60
  -2 -17   5  352.06   28.30
   2 -17   7  142.89   19.30
  -2  17   7  130.89   18.60
  17  -7   2  138.49   15.50
  -2 -17  -7  127.19   18.00
  -7  -2 -17  127.89   18.20
   2  17  -7  151.98   25.60
  -2  17  -7  134.69   23.80
  17  -7  -2  131.89   15.90
  -7   2 -17  121.79   21.70
  -2 -17   7  130.69   17.60
   2 -17  -7  144.59   19.30
   2 -17   9  770.32   56.19
  17  -9   2  742.43   54.69
  -2 -17  -9  734.63   55.19
  -9  -2 -17  738.23   56.99
   2  17  -9  766.42   64.29
 -17   9  -2  826.02   63.89
  17  -9  -2  790.22   54.99
  -2  17  -9  765.12   63.49
  -2 -17   9  683.43   54.99
  -9   2 -17  780.32   59.19
   2 -17  -9  783.82   55.99
   2 -17  11  269.97   28.20
  -2 -17 -11  262.17   27.10
 -11  -2 -17  273.57   31.20
 -17  11   2  282.57   36.10
  17 -11   2  257.97   26.90
   2  17 -11  266.57   40.60
 -11   2 -17  381.86   34.90
   2 -17 -11  326.67   28.90
 -17  11  -2  361.76   40.20
  -2  17 -11  320.87   41.00
  17 -11  -2  340.07   27.80
  -2 -17 -13  914.81   71.09
 -17  13   2  996.60   77.39
   2  17 -13  977.20   80.69
 -13  -2 -17  894.11   74.69
  17 -13   2  966.60   71.29
 -13   2 -17 1069.79   77.19
 -17  13  -2 1017.20   79.79
  -2  17 -13  946.81   80.09
  17 -13  -2 1076.99   71.79
   2 -17 -13 1031.10   72.29
   2 -17 -15   75.99   16.00
 -15   2 -17   91.79   23.60
 -17  15  -2   83.79   26.10
  -2  17 -15   71.99   26.40
  17 -15  -2   83.69   17.40
   3 -17   0   21.60   10.70
   0   3 -17   36.60   10.40
   3  17   0   15.20   14.80
  -3 -17   0   23.40    8.50
  -3  17   0   13.90   15.80
  17  -2   3  230.38   19.60
  -3  17   2  219.38   29.40
   3 -17   2  244.08   24.40
   2   3 -17  232.68   23.80
   3  17  -2  234.08   32.70
  -3 -17  -2  229.58   22.90
   3 -17  -2  298.47   25.10
   3  17   2  296.77   30.60
  -3  17  -2  293.07   32.30
  -3 -17   2  299.07   23.00
  -2   3 -17  283.67   25.50
  17  -2  -3  298.07   20.40
   4   3 -17  967.30   61.99
  -3 -17  -4  961.80   60.99
  -3  17   4  978.50   64.89
   3 -17   4  957.20   61.79
  17  -4   3  935.31   59.69
   3  17  -4  924.71   68.09
  -4  -3 -17  912.81   59.79
  -3  17  -4  752.02   66.49
  -3 -17   4  743.23   60.39
   3 -17  -4  724.93   61.29
   3  17   4  690.43   64.19
  -4   3 -17  698.43   62.29
   3  17  -6 1869.01  120.79
   3 -17   6 1893.81  115.09
  -6  -3 -17 1745.43  114.49
  -3 -17  -6 1780.12  114.29
  17  -6   3 1728.23  113.49
  -3  17   6 1830.82  116.29
  -3  17  -6 1564.24  119.69
   3 -17  -6 1520.55  114.49
   3  17   6 1457.75  116.09
  -6   3 -17 1526.85  116.29
  -3 -17   6 1494.15  113.79
  17  -6  -3 1443.66  113.39
  -3 -17  -8  200.58   22.00
  17  -8   3  192.58   20.70
   3  17  -8  204.08   33.90
  -8  -3 -17  192.08   23.10
   3 -17   8  208.18   23.80
  17  -8  -3  260.87   21.90
   3 -17  -8  255.87   24.40
  -3  17  -8  264.37   35.70
  -8   3 -17  249.78   28.20
  -3 -17   8  276.67   22.50
 -10  -3 -17  953.60   72.39
   3  17 -10  925.11   78.69
 -17  10   3  975.90   75.79
  17 -10   3  969.20   70.09
   3 -17  10  961.00   71.09
  -3 -17 -10  985.10   70.19
  17 -10  -3 1025.10   70.39
  -3  17 -10  994.70   78.39
   3 -17 -10 1005.60   71.09
 -10   3 -17 1041.10   75.19
 -17  10  -3 1015.90   78.09
   3 -17  12   39.20   13.70
   3  17 -12   22.40   22.20
 -17  12   3   18.30   17.10
  17 -12   3   41.00   13.20
  -3 -17 -12   17.10   10.80
 -12  -3 -17   20.90   14.80
  17 -12  -3   65.49   13.10
 -17  12  -3   59.59   21.60
  -3  17 -12   50.19   22.10
 -12   3 -17   52.79   18.20
   3 -17 -12   82.99   15.10
  -3 -17 -14  516.45   42.40
  17 -14   3  504.45   43.10
 -14  -3 -17  522.95   48.00
 -17  14   3  496.25   49.50
   3  17 -14  469.35   53.49
  17 -14  -3  604.24   44.00
  -3  17 -14  549.85   55.09
 -17  14  -3  557.94   54.29
   3 -17 -14  566.74   44.90
 -14   3 -17  607.84   52.09
 -16  -3 -17  509.15   48.50
 -17  16   3  456.75   48.10
   3  17 -16  526.85   54.39
  17 -16   3  518.95   42.40
  -3 -17 -16  498.05   40.90
 -17  16  -3  461.95   52.69
 -16   3 -17  504.05   50.89
   3 -17 -16  541.85   43.90
  17 -16  -3  528.05   43.10
  -3  17 -16  448.26   53.59
   4 -17   1  281.07   26.30
  -4  17   1  277.37   31.20
  -4 -17  -1  262.47   23.80
   4  17  -1  282.17   34.10
   1   4 -17  270.67   26.60
   4 -17  -1  309.47   26.10
  17  -1  -4  271.67   21.50
  -1   4 -17  295.07   27.00
  -4 -17   1  303.27   23.70
  -4  17  -1  314.67   33.00
   4  17   1  283.07   32.70
   4 -17   3  908.21   61.19
  17  -3   4  905.01   58.59
  -4  17   3  959.60   64.59
   3   4 -17  970.10   62.09
   4  17  -3  945.41   67.59
  -4 -17  -3  940.11   60.09
  17  -3  -4  708.43   58.69
  -4  17  -3  770.12   65.89
   4  17   3  736.03   64.39
   4 -17  -3  727.43   60.59
  -4 -17   3  747.83   59.59
  -4 -17  -5  625.34   48.80
   4  17  -5  627.54   56.79
  -5  -4 -17  596.94   47.80
  -4  17   5  664.53   52.19
  17  -5   4  612.04   47.80
   4 -17   5  656.53   50.29
   5   4 -17  643.84   50.59
  17  -5  -4  692.73   48.30
   4  17   5  714.13   53.39
  -5   4 -17  755.92   52.89
  -4 -17   5  738.33   48.90
  -4  17  -5  748.93   57.59
   4 -17  -5  752.42   50.49
  -4  17   7  892.51   67.79
   4  17  -7  856.21   73.79
  -4 -17  -7  877.71   66.39
  -7  -4 -17  820.62   66.59
  17  -7   4  870.91   65.79
   4 -17   7  879.11   67.39
  -4 -17   7 1064.99   66.49
  -4  17  -7 1116.99   75.39
  -7   4 -17 1026.60   70.59
  17  -7  -4 1011.30   66.29
  -9  -4 -17  339.57   29.70
   4 -17   9  289.87   29.60
 -17   9   4  301.97   34.90
   4  17  -9  329.37   40.90
  -4 -17  -9  310.07   27.60
  17  -9   4  304.77   27.20
  -4  17  -9  337.97   41.00
  17  -9  -4  347.07   28.10
   4 -17  -9  348.47   29.70
 -17   9  -4  356.66   41.40
  -9   4 -17  346.17   34.90
 -17  11   4  292.77   35.40
  17 -11   4  325.77   28.00
  -4 -17 -11  297.27   27.30
   4  17 -11  322.47   41.70
   4 -17  11  310.87   29.90
 -11  -4 -17  300.47   30.50
  -4  17 -11  308.87   42.60
  17 -11  -4  304.67   28.50
 -11   4 -17  330.87   36.50
 -17  11  -4  308.97   41.10
   4 -17 -11  313.17   30.00
  -4 -17 -13   53.49   12.80
   4  17 -13   39.90   22.60
 -17  13   4   59.09   19.20
  17 -13   4   68.49   14.70
 -13  -4 -17   64.49   17.90
   4 -17 -13   85.79   17.40
 -13   4 -17   74.59   20.80
  17 -13  -4   80.49   14.80
 -17  13  -4   78.39   25.80
  -4  17 -13   65.39   24.70
  17 -15   4   50.79   14.20
   4  17 -15   56.09   26.80
 -17  15   4   52.19   19.90
  -4 -17 -15   41.50   12.70
 -15  -4 -17   48.10   19.40
   4 -17 -15   59.89   15.80
 -15   4 -17   82.09   23.10
 -17  15  -4   38.70   23.10
  -4  17 -15   75.89   27.30
  17 -15  -4  103.39   18.50
  -5 -17   0  427.46   31.90
   5 -17   0  400.26   34.30
  -5  17   0  439.06   39.60
   5  17   0  392.56   40.40
   0   5 -17  410.76   35.60
  17   0  -5  438.46   30.00
  -5  17  -2  333.57   35.70
  -2   5 -17  345.37   31.10
   5 -17  -2  349.57   29.60
  -5 -17   2  329.77   26.70
  17  -2  -5  322.27   25.40
   5  17   2  341.77   35.10
  -5 -17  -4  625.04   48.80
  -5  17   4  656.63   53.09
   4   5 -17  607.74   51.49
   5 -17   4  631.74   50.59
  17  -4   5  611.04   47.90
   5  17  -4  665.63   57.29
  -5 -17   4  725.03   48.90
   5 -17  -4  730.83   50.69
   5  17   4  748.43   54.79
  -5  17  -4  736.43   57.29
  -4   5 -17  727.03   53.09
  17  -4  -5  732.83   48.60
   5 -17   6 1951.70  121.49
  -6  -5 -17 1826.02  119.89
  -5 -17  -6 1944.91  120.29
  -5  17   6 1895.31  122.59
   6   5 -17 1537.65  121.89
   5  17  -6 1904.01  126.69
  17  -6   5 1797.02  119.79
   5 -17  -6 1685.43  121.19
  -6   5 -17 1590.14  123.19
  -5 -17   6 1616.54  119.79
  -5  17  -6 1705.33  125.99
  17  -6  -5 1506.45  119.79
  -8  -5 -17 1280.27   97.99
  17  -8   5 1362.66   97.29
   5 -17   8 1306.67   98.49
  -5 -17  -8 1352.96   97.39
   5  17  -8 1302.57  104.49
  -8   5 -17 1501.45  102.09
  17  -8  -5 1453.35   97.69
 -17   8  -5 1595.34  105.69
   5 -17  -8 1479.95   98.89
  -5  17  -8 1446.86  105.19
  -5 -17 -10  297.87   26.00
 -10  -5 -17  275.17   28.30
   5 -17  10  286.77   29.30
  17 -10   5  304.87   26.80
   5  17 -10  282.37   40.50
 -17  10   5  288.57   33.50
  -5  17 -10  300.37   40.20
 -17  10  -5  302.87   40.50
 -10   5 -17  292.77   34.90
   5 -17 -10  331.37   29.20
  17 -10  -5  303.87   27.50
 -17  12   5  406.36   40.40
  -5 -17 -12  374.06   32.80
   5 -17  12  396.26   35.70
  17 -12   5  401.46   34.40
   5  17 -12  398.46   47.40
 -12  -5 -17  389.96   37.00
 -17  12  -5  422.56   46.80
   5 -17 -12  430.86   36.10
  17 -12  -5  457.55   35.40
  -5  17 -12  450.75   49.20
 -12   5 -17  403.86   43.30
  17 -14   5  294.17   28.90
 -14  -5 -17  272.17   33.30
 -17  14   5  288.87   33.60
  -5 -17 -14  285.37   26.10
   5  17 -14  301.07   44.00
  17 -14  -5  264.17   29.70
   5 -17 -14  254.27   30.30
  -5  17 -14  264.87   44.60
 -14   5 -17  276.07   39.80
  17 -16   5   76.79   15.40
   5  17 -16   97.69   28.50
  17 -16  -5   44.10   17.70
   5 -17 -16   36.70   16.50
  -5  17 -16   46.80   27.80
 -17  16  -5   14.40   23.20
 -16   5 -17   57.49   23.80
   6 -17   1  113.29   17.60
   6  17  -1  119.09   21.50
  -6 -17  -1  109.89   13.10
   1   6 -17  106.29   16.20
  -6  17   1   99.49   17.50
  17  -1  -6   85.69   11.30
  -6 -17   1   82.09   13.10
  -1   6 -17  115.59   17.10
  -6  17  -1   91.79   18.90
   6  17   1  100.39   20.40
   6 -17  -1   85.09   14.20
   6 -17   3 1605.84  114.79
  -6  17   3 1770.52  117.49
   6  17  -3 1861.01  120.49
  -6 -17  -3 1854.31  113.59
   3   6 -17 1834.92  116.79
  -6 -17   3 1522.15  113.19
  17  -3  -6 1506.65  113.09
  -3   6 -17 1536.95  116.59
   6  17   3 1508.75  117.69
  -6  17  -3 1537.25  118.59
  -6  17   5 1936.01  125.39
   6 -17   5 1911.41  123.69
   6  17  -5 2006.60  129.59
   5   6 -17 1866.31  125.29
  17  -5   6 1915.01  121.99
  -6 -17  -5 1930.31  122.29
  -6 -17   5 1555.24  121.89
   6 -17  -5 1601.64  123.29
  17  -5  -6 1631.34  122.09
  -6  17  -5 1690.23  127.99
  -5   6 -17 1561.84  125.39
  -6 -17  -7  869.11   63.89
  -7  -6 -17  840.02   63.79
   6  17  -7  856.31   72.69
  -6  17   7  985.20   65.99
   6 -17   7  872.71   65.79
  17  -7   6  924.41   63.99
   7   6 -17  925.51   67.59
   6 -17  -7  975.90   65.99
  -6  17  -7  937.21   72.89
  17  -7  -6  887.01   64.49
  -7   6 -17  901.41   69.49
  -6 -17  -9 3076.19  199.28
   6  17  -9 2886.41  205.88
 -17   9   6 2985.50  202.78
  -9  -6 -17 2885.41  200.38
  17  -9   6 2960.70  199.38
   6 -17   9 3010.30  200.28
  -9   6 -17 2769.12  203.38
  -6  17  -9 2753.82  205.08
   6 -17  -9 2944.51  200.28
  17  -9  -6 3024.20  199.68
 -17   9  -6 2788.02  205.28
 -11  -6 -17  183.78   23.40
  -6 -17 -11  182.28   19.90
   6 -17  11  187.58   24.50
 -17  11   6  210.18   28.10
   6  17 -11  170.38   28.90
  17 -11   6  193.18   22.00
 -17  11  -6  167.58   30.30
  17 -11  -6  185.28   22.70
  -6  17 -11  130.19   27.70
 -11   6 -17  208.08   32.90
   6 -17 -11  157.58   23.80
 -17  13   6   41.90   16.40
   6 -17  13   44.40   15.40
   6  17 -13   31.80   24.00
  -6 -17 -13   37.30   10.70
  17 -13   6   39.90   13.20
 -13   6 -17   31.50   20.80
   6 -17 -13   20.10   16.70
  -6  17 -13   13.30   23.00
  17 -13  -6   25.80   13.50
 -17  13  -6    5.80   25.90
   6  17 -15  528.55   58.69
  17 -15   6  538.45   47.40
  -6 -17 -15  516.65   45.00
   6 -17 -15  676.13   49.99
 -17  15  -6  604.14   60.29
 -15   6 -17  649.24   57.89
  17 -15  -6  700.93   49.30
  -6  17 -15  587.74   60.79
  -7 -17   0  540.95   38.20
   7 -17   0  544.15   41.20
   7  17   0  490.45   47.40
  -7  17   0  520.05   46.00
  17   0  -7  514.95   37.40
   0   7 -17  535.65   43.90
   2   7 -17  135.59   23.20
  -7 -17  -2  136.19   14.50
   7 -17   2  125.99   19.70
  -7  17   2  161.08   21.70
   7  17  -2  110.69   22.20
  17  -2  -7  138.59   14.30
  -7  17  -2  162.88   28.50
   7  17   2  146.89   23.10
  -2   7 -17  155.48   23.90
  -7 -17   2  133.79   14.20
   7 -17  -2  133.49   20.00
  -7  17   4  896.91   72.99
  -7 -17  -4  876.91   68.69
   7  17  -4  921.21   77.29
   7 -17   4  893.81   70.79
   4   7 -17  891.51   72.89
  -7 -17   4 1065.49   68.89
  17  -4  -7 1026.10   69.29
   7 -17  -4 1079.39   71.29
  -4   7 -17 1071.39   74.19
  -7  17  -4 1180.18   77.69
  -7 -17  -6  889.21   64.19
  17  -6   7  901.41   64.49
   7 -17   6  877.31   66.39
   6   7 -17  913.71   68.69
   7  17  -6  906.11   74.09
  -7  17   6  908.01   67.49
  17  -6  -7  945.51   64.99
  -7  17  -6  953.10   73.59
   7 -17  -6  974.30   66.99
  -6   7 -17  906.51   69.99
   7  17  -8  635.14   57.49
   7 -17   8  640.64   48.00
  -7 -17  -8  619.64   44.90
  17  -8   7  649.83   45.70
  -8  -7 -17  605.24   45.40
  -7  17  -8  597.44   56.69
  -8   7 -17  567.34   52.69
 -17   8  -7  602.94   56.59
   7 -17  -8  625.34   48.00
  17  -8  -7  610.74   46.20
   7 -17  10  243.58   27.60
   7  17 -10  227.08   40.00
 -10  -7 -17  231.58   25.00
  -7 -17 -10  247.38   22.50
  17 -10   7  232.48   24.50
 -17  10   7  218.48   29.40
   7 -17 -10  275.67   27.90
 -17  10  -7  280.17   40.60
  -7  17 -10  253.27   40.00
 -10   7 -17  290.07   35.90
  17 -10  -7  271.07   25.70
  -7 -17 -12  353.86   28.40
  17 -12   7  342.77   30.80
   7  17 -12  326.97   45.00
 -17  12   7  324.07   33.70
   7 -17  12  351.76   32.70
 -12   7 -17  350.66   42.40
   7 -17 -12  343.87   33.50
  -7  17 -12  292.17   45.20
 -17  12  -7  293.27   46.00
  17 -12  -7  339.57   31.70
  17 -14   7   28.40   14.40
   7  17 -14   24.90   23.80
  -7 -17 -14   31.20   11.00
  -7  17 -14   64.49   26.60
 -17  14  -7   47.60   24.40
   7 -17 -14   78.99   18.50
  17 -14  -7   63.19   15.00
 -14   7 -17   77.09   26.40
  -7  17 -16   35.80   28.10
  17 -16  -7   19.30   17.40
 -17  16  -7   15.20   27.60
 -16   7 -17   23.00   27.10
   7 -17 -16   29.40   19.50
  -8  17   1   83.29   19.40
  -8 -17  -1   63.29   11.10
   8  17  -1   68.39   20.40
   8 -17   1   54.99   13.40
   1   8 -17   57.69   17.30
   8 -17  -1  115.09   18.40
  -8  17  -1  111.09   20.30
  -8 -17   1   98.49   11.30
  17  -1  -8  100.99   11.90
  -1   8 -17  110.79   18.00
   8  17  -3  218.48   34.00
   8 -17   3  195.38   24.20
  -8  17   3  195.68   28.00
   3   8 -17  207.08   27.70
  -8 -17  -3  205.78   18.90
  -8 -17   3  266.87   19.30
  -3   8 -17  267.27   29.70
   8 -17  -3  259.97   24.50
  17  -3  -8  218.38   20.30
  -8  17  -3  266.17   33.60
  -8 -17  -5 1344.37   95.29
   8 -17   5 1340.67   97.39
   5   8 -17 1316.17   99.89
   8  17  -5 1192.98  102.39
  -8  17   5 1325.07   99.09
  -8  17  -5 1533.15  103.69
  17  -5  -8 1427.36   96.19
  -5   8 -17 1492.25  101.29
   8 -17  -5 1509.75   97.89
   8  17  -7  613.24   57.19
   8 -17   7  646.34   48.10
  17  -7   8  658.83   45.50
  -8 -17  -7  623.74   44.40
   7   8 -17  634.54   50.89
  -7   8 -17  613.14   53.09
  -8  17  -7  572.94   55.39
  17  -7  -8  577.64   46.00
 -17   7  -8  592.74   56.49
   8 -17  -7  609.04   48.20
  -8 -17  -9  651.23   50.29
 -17   9   8  660.43   54.79
   8 -17   9  659.63   53.09
   8  17  -9  647.64   62.09
  17  -9   8  697.83   51.69
  -9  -8 -17  638.14   51.39
  -8  17  -9  739.63   63.49
  -9   8 -17  805.72   60.39
 -17   9  -8  735.43   63.79
   8 -17  -9  792.92   54.19
  17  -9  -8  760.32   52.79
  17 -11   8  144.59   20.90
   8  17 -11  116.19   27.90
  -8 -17 -11  131.69   16.20
   8 -17  11  106.29   17.40
 -17  11  -8  106.19   26.80
 -11   8 -17  144.89   27.50
   8 -17 -11  152.08   20.50
  17 -11  -8  142.89   22.00
  -8  17 -11  135.89   28.40
   8 -17  13   67.49   15.60
   8  17 -13   72.99   28.40
  -8 -17 -13   74.79   11.60
  17 -13   8   70.79   15.20
   8 -17 -13   46.40   16.20
 -17  13  -8   30.60   24.30
  17 -13  -8   75.79   16.20
  -8  17 -13   46.40   24.40
 -13   8 -17   81.69   24.90
   8  17 -15  153.68   29.90
  -8  17 -15  106.99   30.30
 -15   8 -17  126.79   29.40
  17 -15  -8  110.59   20.40
   8 -17 -15  113.09   21.70
 -17  15  -8  105.89   32.70
  -9 -17   0  106.59   11.60
   9 -17   0  130.49   20.00
   0   9 -17  102.49   18.10
  17   0  -9   96.29   12.90
  -9  17   0  135.29   22.50
   2   9 -17  797.42   60.79
   9  17  -2  744.93   63.89
  -9  17   2  762.42   60.79
  -9 -17  -2  734.33   53.59
   9 -17   2  788.42   57.09
   9 -17  -2  782.72   57.19
  17  -2  -9  754.82   54.79
  -9  17  -2  806.52   62.99
  -2   9 -17  783.82   60.99
   9  17  -4  293.17   39.10
   9 -17   4  299.97   29.70
   4   9 -17  307.07   34.70
  -9 -17  -4  302.17   24.70
  -9  17   4  329.27   33.10
  -9  17  -4  352.56   39.50
  17  -4  -9  359.76   27.50
  -4   9 -17  416.46   36.70
   9 -17  -4  343.77   31.00
   9 -17   6 2980.40  197.98
  -9 -17  -6 2992.10  196.08
   6   9 -17 2993.60  200.98
   9  17  -6 2841.22  203.08
  -9  17   6 3011.50  199.38
   9 -17  -6 2941.71  198.18
  -9  17  -6 2687.83  202.48
  -6   9 -17 2800.82  201.48
  17  -6  -9 2820.72  197.08
 -17   6  -9 2761.62  203.08
 -17   8   9  676.43   54.19
   8   9 -17  670.93   57.19
  -9 -17  -8  668.43   49.80
   9  17  -8  634.74   62.19
   9 -17   8  663.23   53.59
  17  -8   9  710.33   51.69
  -9  17  -8  713.03   62.19
  17  -8  -9  772.32   52.29
 -17   8  -9  756.32   63.49
   9 -17  -8  807.02   54.39
  -8   9 -17  654.53   59.69
   9 -17  10 1386.26   90.19
   9  17 -10 1304.37   98.09
  -9 -17 -10 1290.27   87.09
 -10  -9 -17 1197.18   89.29
  17 -10   9 1360.46   88.79
 -17  10  -9 1151.58   97.99
  17 -10  -9 1245.88   89.29
  -9  17 -10 1133.99   97.39
 -10   9 -17 1242.38   96.09
   9 -17 -10 1221.98   89.89
   9 -17  12  299.97   30.10
   9  17 -12  239.88   42.90
  17 -12   9  297.87   27.20
  -9 -17 -12  259.97   22.70
 -12   9 -17  256.77   41.30
 -17  12  -9  234.28   37.50
   9 -17 -12  241.68   30.30
  17 -12  -9  243.58   28.80
   9  17 -14   58.19   25.30
  -9 -17 -14  101.99   16.10
  17 -14   9  106.79   18.40
  17 -14  -9  176.78   25.40
   9 -17 -14  180.28   28.10
 -17  14  -9  148.49   31.20
  -9 -17 -16   16.40   10.10
   9  17 -16    4.20   25.20
  17 -16   9   24.60   15.00
 -17  16  -9   28.50   25.70
  17 -16  -9   21.60   16.70
   9 -17 -16   24.70   19.90
  16  -9 -17   34.60   17.60
  -9  17 -16   20.80   28.40
 -16   9 -17   55.69   29.70
  10 -17   1  579.14   48.00
   1  10 -17  560.54   52.09
 -10  17   1  592.84   52.49
  10 -17  -1  689.43   48.30
  -1  10 -17  630.04   52.69
 -10  17  -1  686.33   54.19
  10 -17   3  968.30   73.19
   3  10 -17  957.60   76.99
 -10  17   3 1021.10   76.39
  10 -17  -3 1060.39   73.69
  17  -3 -10  992.20   71.59
 -10  17  -3 1026.00   79.19
  -3  10 -17 1099.59   78.09
  10  17  -5  284.87   40.50
   5  10 -17  313.77   34.70
 -10  17   5  290.77   31.10
  10 -17   5  302.97   29.40
  10 -17  -5  313.97   30.00
  17  -5 -10  301.77   26.80
  -5  10 -17  268.77   35.50
 -10  17  -5  308.87   39.30
  10  17  -7  212.88   39.50
  10 -17   7  244.48   28.30
   7  10 -17  267.17   33.50
  17  -7 -10  285.07   26.10
  -7  10 -17  294.27   36.40
  10 -17  -7  290.77   29.00
 -10  17  -7  245.88   38.60
 -17   7 -10  274.27   39.60
  10 -17   9 1301.37   85.99
  10  17  -9 1244.38   93.59
 -17   9 -10 1160.88   94.09
  -9  10 -17 1180.28   92.49
 -10  17  -9 1135.49   94.19
  10 -17  -9 1178.58   85.99
  17  -9 -10 1156.98   84.89
  10  17 -11   27.60   24.70
  10 -17  11   73.69   17.70
  17 -11  10   63.89   14.50
 -11  10 -17   48.60   24.00
  17 -11 -10   77.99   16.20
 -10  17 -11   62.19   27.50
 -17  11 -10   56.39   28.10
  10 -17 -11   68.89   17.30
 -17  13 -10  225.78   37.70
  17 -13 -10  218.18   28.70
  10 -17 -13  225.18   31.10
 -10  17 -13  209.48   37.90
 -13  10 -17  242.28   34.90
  17 -15 -10   77.59   17.40
  10 -17 -15   73.29   18.60
  15 -10 -17   97.89   18.70
 -15  10 -17  115.49   29.00
 -10  17 -15  129.69   34.70
 -17  15 -10  118.79   32.60
   0  11 -17   58.49   17.20
 -11  17   0   41.70   18.40
  11 -17   0   55.29   16.10
 -11  17   2  277.17   33.90
  11 -17   2  266.27   29.30
   2  11 -17  256.97   35.80
  11 -17  -2  352.16   30.50
  -2  11 -17  325.27   36.00
 -11  17  -2  358.46   38.60
 -11  17   4  318.47   33.50
   4  11 -17  273.27   35.90
  11 -17   4  318.97   30.40
  17  -4 -11  304.47   27.10
 -11  17  -4  289.87   39.60
  11 -17  -4  335.57   31.10
  -4  11 -17  316.57   37.40
  11 -17   6  196.08   24.30
   6  11 -17  170.58   30.90
 -11  17  -6  175.98   30.20
  -6  11 -17  173.58   26.90
  11 -17  -6  157.48   24.40
 -17   6 -11  120.79   26.50
  17  -6 -11  159.68   21.40
  11 -17   8  137.09   24.30
  11  17  -8  119.39   27.60
   8  11 -17  132.79   22.60
 -17   8 -11  178.58   31.50
  -8  11 -17  173.48   28.40
 -11  17  -8  116.59   27.40
  11 -17  -8  160.78   25.30
  17  -8 -11  139.89   22.00
  11  17 -10   53.99   27.50
  11 -17  10   69.79   18.00
 -11  17 -10   55.09   25.40
  11 -17 -10   81.29   18.90
 -17  10 -11   51.29   24.70
  17 -10 -11   64.99   15.10
 -10  11 -17   87.59   26.10
  11 -17  12  123.39   20.00
  11 -17 -12  158.48   27.60
 -17  12 -11  161.48   33.90
  17 -12 -11  152.68   25.10
 -12  11 -17  154.48   31.20
 -11  17 -12  105.39   29.30
  14 -11 -17   82.29   20.50
  17 -14 -11   86.79   18.20
 -17  14 -11   61.89   28.20
  11 -17 -14   58.19   17.80
 -11  17 -14   74.49   32.30
 -14  11 -17   82.09   30.50
  17 -16  11    2.30   16.00
  16 -11 -17   -1.20   19.60
 -11  17 -16    0.70   25.00
  11 -17 -16   -3.70   17.70
 -16  11 -17    4.10   28.90
 -17  16 -11   -3.80   25.70
  17 -16 -11   -2.40   16.90
  12 -17   1  396.16   34.30
   1  12 -17  419.16   42.20
 -12  17   1  409.56   40.40
  -1  12 -17  312.07   40.90
  12 -17  -1  379.96   34.30
 -12  17  -1  398.96   42.20
   3  12 -17   27.90   18.70
  12 -17   3   36.80   14.60
 -12  17   3   34.70   17.30
 -12  17  -3   51.49   20.10
  -3  12 -17   61.89   20.00
  12 -17   5  416.16   37.10
   5  12 -17  414.96   44.50
 -12  17   5  412.66   39.50
  -5  12 -17  459.05   46.20
  17  -5 -12  433.66   35.40
  12 -17  -5  467.65   38.40
 -17   5 -12  465.65   49.10
 -12  17  -5  418.16   47.50
  12 -17   7  349.47   32.20
   7  12 -17  330.57   40.40
  -7  12 -17  322.67   42.60
 -12  17  -7  311.87   44.80
 -17   7 -12  315.37   45.60
  17  -7 -12  363.46   31.40
  12 -17  -7  331.47   33.40
   9  12 -17  297.47   36.80
  12 -17   9  288.37   28.40
  12 -17  -9  236.48   30.30
 -17   9 -12  217.58   34.50
  -9  12 -17  221.58   40.20
  17  -9 -12  240.38   27.30
 -12  17  -9  165.28   32.20
  12 -17  11  140.19   20.70
 -17  11 -12  103.39   28.50
 -12  17 -11  141.39   32.50
 -11  12 -17  140.99   28.60
  12 -17 -11  174.58   28.30
  17 -11 -12  146.69   24.30
 -13  12 -17   26.60   26.10
  17 -13 -12   21.10   17.10
 -12  17 -13   22.70   26.90
 -17  13 -12   25.40   30.20
  13 -12 -17    8.30   16.80
  12 -17 -13   34.20   19.80
 -17  15 -12   24.30   26.30
 -12  17 -15   24.20   28.10
 -15  12 -17   45.20   30.90
  15 -12 -17   22.50   17.60
  17 -15 -12   32.30   17.70
  12 -17 -15   26.90   17.60
 -13  17   0   -0.80   17.40
  13 -17   0   -1.30   15.00
   0  13 -17    3.10   20.70
 -13  17   2  979.40   77.89
  13 -17   2  993.00   73.69
   2  13 -17 1006.00   79.49
  13 -17  -2 1046.00   73.79
  -2  13 -17 1035.00   80.19
 -13  17  -2  996.70   79.89
 -13  17   4   51.69   17.30
  13 -17   4   60.39   14.80
   4  13 -17   68.29   21.30
  -4  13 -17   78.29   24.90
 -13  17  -4   74.49   24.60
  13 -17  -4   74.79   15.90
 -17   4 -13   68.99   24.10
   6  13 -17   33.40   19.20
  13 -17   6   39.40   14.90
  13 -17  -6   22.90   15.50
  17  -6 -13   16.40   13.00
 -13  17  -6   10.80   22.10
  -6  13 -17   15.60   22.30
 -17   6 -13    6.90   21.50
   8  13 -17   67.09   21.80
  13 -17   8   82.89   18.00
 -13  17  -8   86.89   29.40
 -17   8 -13   42.40   23.70
  17  -8 -13   96.49   17.00
  13 -17  -8   80.99   18.30
  -8  13 -17   54.69   23.40
 -13  17 -10  138.89   31.00
 -17  10 -13  133.29   30.20
  13 -17 -10  228.18   29.30
  17 -10 -13  210.88   26.70
 -10  13 -17  171.58   30.20
  13 -17  12   28.80   15.60
  13 -17 -12   13.60   16.20
  12 -13 -17   25.30   20.20
 -17  12 -13   13.10   24.40
 -13  17 -12    6.90   26.10
  17 -12 -13   24.30   16.20
 -12  13 -17   26.70   28.50
 -13  17 -14  348.37   53.09
  17 -14 -13  330.67   34.90
 -17  14 -13  308.07   51.29
  14 -13 -17  310.67   37.50
  13 -17 -14  311.67   37.50
 -14  13 -17  323.17   50.19
  16 -13 -17   75.79   21.20
 -17  16 -13   81.19   33.50
 -16  13 -17   39.80   29.00
  13 -17 -16   56.89   22.20
 -13  17 -16   52.09   28.80
  17 -16 -13   55.99   20.70
 -14  17  -1  388.06   44.20
  14 -17  -1  421.86   37.00
  -1  14 -17  389.26   45.60
   3  14 -17  524.05   53.09
 -14  17   3  541.95   49.80
  14 -17   3  490.45   45.30
 -17   3 -14  650.83   55.49
 -14  17  -3  539.25   54.09
  14 -17  -3  596.24   46.40
  -3  14 -17  580.94   54.49
   5  14 -17  292.37   40.00
  14 -17   5  294.77   29.50
 -14  17   5  285.77   33.00
  -5  14 -17  265.07   41.70
  14 -17  -5  257.67   30.20
 -14  17  -5  251.37   42.10
 -17   5 -14  239.08   41.70
  17  -7 -14  104.59   17.80
 -17   7 -14   84.59   28.30
  -7  14 -17   82.49   27.50
 -14  17  -7   81.29   29.60
  14 -17  -7   82.19   17.90
   9  14 -17  114.79   27.90
  -9  14 -17  156.88   31.30
  14 -17  -9  165.88   22.30
  17  -9 -14  165.98   25.80
 -14  17  -9  152.38   34.40
 -17   9 -14  151.88   31.60
  14 -17 -11   72.59   19.30
  11 -14 -17   92.89   22.10
 -11  14 -17   68.99   27.30
  17 -11 -14   83.99   17.00
 -17  11 -14   40.20   26.00
 -14  17 -11   65.69   28.20
  17 -13 -14  354.76   36.70
  13 -14 -17  353.86   39.90
 -17  13 -14  338.87   51.59
 -14  17 -13  354.96   54.19
 -13  14 -17  324.67   50.89
  14 -17 -13  328.87   37.10
  14 -17 -15   86.99   20.90
  17 -15 -14  114.59   22.10
 -15  14 -17   98.09   32.00
 -17  15 -14   77.69   30.30
 -14  17 -15  120.79   34.60
  15 -14 -17  103.29   21.80
 -17   0 -15  382.06   47.20
 -15  17   0  464.25   46.90
  15 -17   0  488.35   40.10
   0  15 -17  447.76   49.00
  -2  15 -17   53.69   22.40
 -15  17  -2   58.09   21.80
 -17   2 -15   94.49   25.70
  15 -17  -2   88.19   16.90
 -15  17   4   67.29   20.00
   4  15 -17   40.40   23.30
  15 -17   4   62.89   17.00
  15 -17  -4  108.09   19.20
 -15  17  -4   60.69   24.40
 -17   4 -15   70.99   26.90
  -4  15 -17   63.39   23.10
   6  15 -17  517.45   56.39
  15 -17   6  511.45   47.00
  -6  15 -17  584.24   58.99
 -17   6 -15  628.24   58.59
 -15  17  -6  617.24   59.89
  15 -17  -6  660.33   49.10
   8  15 -17  153.48   26.00
 -17   8 -15   53.19   25.40
  -8  15 -17  118.49   31.50
   8 -15 -17  108.89   21.30
  15 -17  -8   88.29   18.70
 -15  17  -8   72.79   29.50
  17  -8 -15  112.99   18.70
  15 -17  10  174.08   25.70
 -10  15 -17   81.89   27.50
  15 -17 -10  105.39   20.40
 -15  17 -10  115.39   33.40
  10 -15 -17   72.19   19.80
  17 -10 -15  106.19   18.40
 -17  10 -15  109.79   32.70
  15 -17  12   35.20   19.00
  12 -15 -17   55.69   22.40
 -15  17 -12   47.30   31.00
 -12  15 -17   49.90   30.90
  15 -17 -12   34.60   17.90
 -17  12 -15   38.30   28.20
  17 -12 -15   51.89   18.70
 -14  15 -17   77.29   27.50
 -15  17 -14  109.09   35.60
  14 -15 -17   90.69   22.60
  17 -14 -15  122.39   22.00
  15 -17 -14  139.19   24.40
 -17  14 -15   90.29   29.40
  15 -17 -16    8.10   19.70
 -15  17 -16    2.90   26.00
 -16  15 -17    0.90   29.40
  16 -15 -17   14.70   20.00
  17 -16 -15    1.10   19.10
 -17  16 -15   18.40   26.50
   1  16 -17  607.04   58.79
 -17  -1 -16  640.74   56.79
  16 -17   1  677.93   49.40
 -16  17   1  654.33   55.79
 -16  17  -1  523.55   56.59
  16 -17  -1  579.74   49.20
 -17   1 -16  577.44   56.29
  -1  16 -17  558.34   58.79
   3  16 -17  520.45   53.49
  16 -17   3  522.45   42.80
 -16  17   3  512.95   48.10
  16 -17  -3  499.45   43.20
 -16  17  -3  447.56   52.89
 -17   3 -16  482.65   51.89
  -3  16 -17  482.85   53.49
   5  16 -17   79.69   24.40
  -5 -16 -17   66.59   13.00
  -5  16 -17   38.00   27.80
 -16  17  -5   35.20   26.10
  16 -17  -5   45.20   16.40
   5 -16 -17   37.50   17.00
 -17   5 -16   36.70   25.90
 -16  17  -7   28.70   29.20
 -17   7 -16   15.90   26.30
  -7  16 -17    7.50   24.50
   7 -16 -17   17.30   19.00
  17  -7 -16   26.00   14.80
  16 -17  -7   26.00   18.20
   9  16 -17   19.60   22.10
  16 -17   9   15.20   16.90
  -9 -16 -17   19.90   10.20
 -16  17  -9   23.00   30.40
  16 -17  -9   19.70   19.50
  17  -9 -16   34.20   18.10
  -9  16 -17   30.30   26.00
   9 -16 -17   26.90   18.00
 -17   9 -16   31.60   29.10
  16 -17  11   -4.80   15.10
 -11  16 -17   -7.20   27.60
  11 -16 -17    0.50   18.60
  16 -17 -11    3.80   18.60
  17 -11 -16   -2.50   16.10
 -17  11 -16    1.00   25.50
 -16  17 -11  -20.80   28.90
  13 -16 -17   62.69   23.10
 -13  16 -17   49.90   31.30
 -17  13 -16   91.09   31.20
 -16  17 -13   66.69   31.20
  16 -17 -13   65.79   21.70
  17 -13 -16   66.79   20.40
  17 -15 -16   17.70   20.10
  15 -16 -17    4.70   18.90
  16 -17 -15   10.80   19.70
 -17  15 -16    7.30   25.30
 -16  17 -15   10.90   25.40
 -15  16 -17   10.80   28.90
 -17   0 -17  427.26   45.30
 -17  17   0  408.06   46.30
   0 -17 -17  405.56   37.10
   0  17 -17  397.46   50.49
  17 -17   0  413.66   38.30
 -17  -2 -17  600.24   55.29
  17 -17   2  599.44   48.90
  -2 -17 -17  552.54   47.50
 -17  17   2  568.54   55.19
   2  17 -17  540.65   59.29
 -17  17  -2  771.52   59.79
 -17  -4 -17   69.69   21.20
  17 -17   4   53.99   16.60
  -4 -17 -17   27.40   12.90
 -17  17   4   51.19   20.20
   4  17 -17   24.90   22.90
 -17  17  -4   -0.30   26.60
   4 -17 -17   -4.70   17.70
  -4  17 -17    5.30   22.80
  17 -17  -4   17.70   17.20
 -17   4 -17    4.10   23.80
  17 -17   6  562.44   48.20
  -6 -17 -17  582.34   45.80
   6  17 -17  591.24   59.49
 -17  17  -6  590.44   61.49
   6 -17 -17  632.84   51.19
  -6  17 -17  556.64   61.39
  17 -17  -6  600.64   49.50
 -17   6 -17  624.34   59.69
  -8 -17 -17   62.09   12.00
  17 -17   8   42.10   16.70
   8  17 -17   41.30   23.20
 -17   8 -17   34.00   24.50
   8 -17 -17   35.70   19.20
  -8  17 -17   44.50   29.00
  17 -17  -8   35.40   18.80
 -17  17  -8   15.70   25.70
  17  -8 -17   24.60   15.70
  17 -17  10  217.98   29.10
 -17  10 -17  174.08   31.50
 -10  17 -17  213.18   35.90
  10 -17 -17  225.68   34.20
  17 -17 -10  173.88   31.20
 -17  17 -10  234.38   38.80
  17 -10 -17  195.58   30.10
 -17  12 -17   73.09   27.50
 -17  17 -12  105.39   35.90
 -12  17 -17   49.10   27.50
  12 -17 -17   70.49   22.30
  17 -17 -12   41.20   17.20
  17 -12 -17   62.49   17.80
 -17  14 -17  429.16   56.39
 -17  17 -14  502.15   59.29
 -14  17 -17  470.75   58.29
  14 -17 -17  442.56   44.50
  17 -17 -14  434.96   42.90
  17 -14 -17  417.56   42.80
 -17  16 -17  115.89   28.50
 -17  17 -16  120.79   31.10
 -16  17 -17  159.58   32.40
  16 -17 -17   91.69   19.00
  17 -16 -17   92.59   18.90
   0 -18   0 1171.98   82.29
   0   0 -18 1155.88   81.29
   0  18   0 1184.48   86.99
   0 -18  -2  295.27   25.70
   0 -18   2  287.77   25.50
   0  18  -2  309.17   35.00
   0  18   2  273.97   31.50
  -2   0 -18  263.37   23.30
   0 -18  -4 1057.59   76.99
  -4   0 -18 1052.69   76.99
   0  18  -4 1100.89   83.19
   0  18   4 1109.49   80.49
  18  -4   0 1087.79   75.19
   0 -18   4 1132.39   77.19
   0  18   6  768.82   57.99
   0 -18  -6  767.82   55.79
   0  18  -6  742.73   63.79
   0 -18   6  804.32   55.69
  18  -6   0  755.32   53.99
  -6   0 -18  723.73   56.29
  18  -8   0  324.87   26.20
  -8   0 -18  299.67   30.10
   0  18  -8  312.47   40.50
   0 -18   8  278.67   27.90
   0 -18  -8  330.97   28.30
 -18  10   0  238.98   36.40
  18 -10   0  232.38   23.80
   0 -18 -10  237.18   24.90
   0  18 -10  216.78   37.60
   0 -18  10  250.77   25.40
 -10   0 -18  248.98   29.20
  18 -12   0 1048.80   71.19
   0  18 -12  945.71   80.99
 -18  12   0  999.40   78.99
 -12   0 -18  972.60   75.29
   0 -18 -12  955.00   71.19
 -14   0 -18  279.97   35.90
  18 -14   0  280.67   29.50
   0  18 -14  271.17   43.80
 -18  14   0  263.57   39.80
   0 -18 -14  296.97   29.30
   0  18 -16  266.57   45.00
   0 -18 -16  238.88   28.80
  18 -16   0  243.78   29.40
 -16   0 -18  252.67   37.10
 -18  16   0  229.48   39.40
  -1  18   1  587.74   53.69
   1   1 -18  548.05   46.90
   1 -18   1  588.24   48.70
  -1 -18  -1  601.14   48.30
   1  18  -1  564.54   54.59
   1 -18  -1  753.82   49.10
  -1  18  -1  738.23   55.69
  -1 -18   1  756.52   48.80
   1  18   1  727.83   54.19
  -1   1 -18  732.53   48.20
  -1  18   3  273.17   29.40
   1 -18   3  267.57   24.00
   1  18  -3  278.17   34.10
  -1 -18  -3  260.87   23.20
  -3  -1 -18  251.67   20.60
  -1 -18   3  225.88   23.10
  -3   1 -18  214.78   22.70
   1  18   3  214.68   29.60
  -1  18  -3  248.88   33.40
   1 -18  -3  219.78   23.60
  18  -3  -1  230.68   18.90
  -5  -1 -18  244.08   23.30
  18  -5   1  241.18   21.10
   1  18  -5  268.47   36.20
   1 -18   5  270.97   25.30
  -1 -18  -5  262.47   24.50
  -1  18   5  236.48   28.50
   1  18   5  258.57   29.20
   1 -18  -5  269.27   25.10
  -5   1 -18  256.77   25.10
  18  -5  -1  262.17   21.30
  -1 -18   5  279.17   24.40
  -1  18  -5  272.47   34.80
  -1 -18  -7  421.06   33.60
  -1  18   7  397.76   34.70
  18  -7   1  424.16   31.60
   1  18  -7  422.26   44.60
  -7  -1 -18  425.16   34.30
   1 -18   7  439.66   34.00
  18  -7  -1  395.76   31.70
   1  18   7  371.06   35.10
  -1  18  -7  350.36   43.90
   1 -18  -7  410.36   34.00
  -1 -18   7  428.66   33.30
  -7   1 -18  392.16   35.50
   1  18  -9   72.99   24.30
   1 -18   9   78.79   14.70
  18  -9   1   93.69   15.90
  -9  -1 -18   85.69   15.90
  -1 -18  -9  117.09   15.70
  18  -9  -1   99.09   16.60
  -1  18  -9   89.59   23.90
  -1 -18   9  104.29   15.10
   1 -18  -9   86.69   14.30
  -9   1 -18  109.69   17.60
 -18   9  -1   86.69   22.10
   1 -18  11  398.26   31.50
  -1 -18 -11  394.86   30.70
 -11  -1 -18  388.16   35.10
   1  18 -11  363.56   44.60
 -18  11   1  391.96   41.30
  18 -11   1  395.06   30.40
 -18  11  -1  313.67   41.60
  18 -11  -1  296.37   29.90
   1 -18 -11  283.97   30.80
 -11   1 -18  283.37   35.40
  -1  18 -11  243.68   42.50
   1  18 -13   95.19   28.50
 -18  13   1   81.89   23.70
  18 -13   1  110.89   16.70
 -13  -1 -18   70.09   19.20
  18 -13  -1  153.58   21.60
   1 -18 -13  147.89   21.90
 -18  13  -1  124.09   25.40
  -1  18 -13  105.99   26.30
   1  18 -15  799.72   71.69
 -15  -1 -18  779.92   65.19
 -18  15   1  822.22   67.69
  -1 -18 -15  802.72   59.89
  18 -15   1  857.11   60.59
  18 -15  -1  820.42   60.59
  -1  18 -15  756.52   71.39
 -18  15  -1  716.73   68.39
 -15   1 -18  826.12   66.59
   1 -18 -15  786.42   60.79
 -17  -1 -18  487.75   44.10
  -1 -18 -17  392.26   34.90
   1  18 -17  428.86   49.50
 -18  17   1  467.35   45.80
   1 -18 -17  332.07   36.30
 -17   1 -18  327.77   43.70
  -1  18 -17  323.77   49.90
 -18  17  -1  298.77   46.00
  18 -17  -1  337.87   36.70
   2  18   0  304.57   34.30
  -2 -18   0  306.97   26.00
   0   2 -18  286.27   25.70
  -2  18   0  296.17   34.10
   2 -18   0  309.17   27.30
   2  18   2  128.89   20.50
  -2 -18   2  103.59   16.80
   2 -18  -2  120.09   18.50
  -2  18  -2  120.99   20.80
  -2   2 -18  122.89   17.00
   2 -18   4  202.38   20.50
  -2  18   4  197.38   24.90
   2  18  -4  193.68   30.90
  -4  -2 -18  196.58   16.00
  18  -4   2  186.58   15.10
  -2 -18  -4  216.28   19.80
  -2  18  -4  127.69   25.40
  18  -4  -2  125.79   15.10
   2  18   4  151.28   22.10
   2 -18  -4  127.39   20.00
  -4   2 -18  116.09   19.80
  -2 -18   4  126.29   18.80
  -2  18   6 1746.73  116.79
  -2 -18  -6 1747.43  114.49
   2 -18   6 1724.43  114.99
  -6  -2 -18 1624.94  114.69
  18  -6   2 1733.53  113.59
   2  18  -6 1734.63  121.09
  -6   2 -18 1594.64  116.19
  -2  18  -6 1629.34  120.59
   2 -18  -6 1584.74  114.79
   2  18   6 1568.04  116.59
  18  -6  -2 1526.45  113.49
  -2 -18   6 1626.54  114.29
  18  -8   2  165.78   18.60
  -8  -2 -18  187.78   21.80
   2  18  -8  158.38   27.40
  -2 -18  -8  171.58   20.80
   2 -18   8  184.98   22.20
  -2 -18   8  185.08   20.80
  -2  18  -8  185.48   30.50
  18  -8  -2  185.58   19.20
  -8   2 -18  186.78   25.20
   2 -18  -8  183.58   22.50
  -2 -18 -10  416.06   34.70
   2 -18  10  389.36   35.60
 -18  10   2  392.46   43.30
   2  18 -10  373.36   46.60
  18 -10   2  363.16   33.80
 -10  -2 -18  368.46   37.00
  -2  18 -10  443.36   47.80
   2 -18 -10  460.35   35.90
 -18  10  -2  484.75   46.60
  -2 -18  10  469.35   35.10
  18 -10  -2  461.15   34.50
 -10   2 -18  485.75   40.60
  -2 -18 -12   54.39   12.50
 -18  12   2   65.79   20.60
  18 -12   2   66.89   12.80
   2 -18  12   52.19   14.50
 -12  -2 -18   62.09   17.00
   2  18 -12   70.29   27.00
  18 -12  -2   44.60   13.00
  -2  18 -12   43.20   25.60
 -18  12  -2   61.49   25.40
   2 -18 -12   35.70   13.50
 -12   2 -18   46.20   18.30
 -18  14   2   54.09   20.00
 -14  -2 -18   75.89   19.20
   2  18 -14   67.69   25.70
  -2  18 -14   25.90   23.80
 -14   2 -18   46.20   20.40
   2 -18 -14   24.70   14.40
 -18  14  -2   31.20   23.80
  18 -14  -2   33.30   14.60
  18 -16   2   18.40   15.20
 -16  -2 -18   10.00   20.20
  -2 -18 -16    9.90   13.00
 -18  16   2   13.20   19.40
   2  18 -16    4.20   23.30
 -18  16  -2   36.20   22.60
 -16   2 -18   50.99   23.50
   2 -18 -16   45.60   16.90
  -2  18 -16   41.90   28.50
  18 -16  -2   55.99   16.60
  -3 -18  -1  275.57   22.30
   1   3 -18  264.97   23.00
   3 -18   1  242.18   24.40
  -3  18   1  273.47   30.50
   3  18  -1  261.77   33.30
  -3  18  -1  213.18   31.50
  -3 -18   1  227.08   22.00
  -1   3 -18  216.38   23.50
   3 -18  -1  207.08   24.00
   3  18   1  232.98   31.30
   3 -18   3  259.77   24.00
   3  18  -3  252.77   33.90
   3   3 -18  256.77   23.10
  -3  18   3  258.67   29.50
  18  -3   3  235.08   18.40
  -3 -18  -3  250.87   22.60
  -3  18  -3  175.28   28.60
  -3 -18  -5 1362.46   91.89
   3  18  -5 1368.56   98.89
  -3  18   5 1339.17   94.59
  -5  -3 -18 1278.37   90.99
   3 -18   5 1350.76   92.69
  18  -5   3 1325.97   90.79
  18  -5  -3 1301.17   90.89
   3  18   5 1266.67   95.09
  -3 -18   5 1287.47   91.69
  -5   3 -18 1253.47   93.69
   3 -18  -5 1358.06   92.59
  -3  18  -5 1316.07   97.99
   3  18  -7 1517.35  114.09
  18  -7   3 1559.54  106.89
  -3 -18  -7 1575.14  107.49
   3 -18   7 1546.35  108.19
  -3  18   7 1495.05  108.79
  -7  -3 -18 1485.25  107.79
  -7   3 -18 1584.14  110.39
  18  -7  -3 1551.54  106.99
   3 -18  -7 1607.04  108.39
  -3  18  -7 1518.75  114.19
  -3 -18   7 1597.64  107.59
   3 -18   9  913.41   63.09
   3  18  -9  816.22   70.39
  -3 -18  -9  866.31   61.69
  -9  -3 -18  846.62   63.09
  18  -9   3  874.31   61.19
 -18   9  -3  853.41   71.09
   3 -18  -9  871.71   62.69
  -3  18  -9  812.12   70.99
  -3 -18   9  853.51   61.69
  -9   3 -18  848.42   65.89
  18  -9  -3  824.52   61.49
 -18  11   3  332.17   38.50
  18 -11   3  329.67   28.40
   3  18 -11  280.47   42.30
   3 -18  11  306.27   30.30
  -3 -18 -11  301.57   28.20
 -11  -3 -18  323.27   32.20
   3 -18 -11  322.07   30.40
 -11   3 -18  313.07   35.60
  18 -11  -3  337.37   29.10
 -18  11  -3  312.57   42.20
  -3  18 -11  320.77   42.40
   3  18 -13   11.60   26.50
 -18  13   3   35.30   20.70
 -13  -3 -18   19.60   16.00
  18 -13   3   18.10   12.90
  -3 -18 -13   23.00   11.80
 -13   3 -18   28.30   19.70
  18 -13  -3   31.80   13.00
  -3  18 -13   25.70   25.50
 -18  13  -3   32.90   23.20
   3 -18 -13   46.70   16.30
  -3 -18 -15   29.30   12.50
  18 -15   3   34.50   15.80
   3  18 -15   18.20   23.80
 -15  -3 -18   23.00   17.80
 -18  15   3   35.60   19.30
  18 -15  -3   30.10   14.80
   3 -18 -15   11.10   14.70
 -15   3 -18   44.50   21.90
  -3  18 -15   41.40   28.50
 -18  15  -3   28.40   25.60
   4 -18   0  967.60   76.09
   4  18   0 1136.79   81.69
  -4 -18   0 1104.89   75.09
   0   4 -18 1077.89   77.09
  -4  18   0 1086.39   80.69
  -4 -18  -2  217.58   18.30
   4  18  -2  201.28   30.70
   4 -18   2  205.78   21.50
  -4  18   2  177.88   26.80
   2   4 -18  201.48   20.70
  -4 -18   2  118.89   17.70
   4  18   2  151.38   23.20
   4 -18  -2  122.09   21.10
  -2   4 -18  111.29   21.20
  -4  18  -2  153.18   24.50
  18  -2  -4  167.58   14.00
   4  18  -4   87.79   20.20
  -4  18  -4   38.70   19.10
  18  -4  -4   37.50    8.30
   4 -18  -4   37.50   12.90
  -4   4 -18   30.30   12.60
   4  18   4   47.30   16.10
  -4 -18   4   42.70   10.20
   4  18  -6  132.99   24.90
  -4 -18  -6  163.28   18.70
  -6  -4 -18  144.29   17.30
   4 -18   6  169.08   21.90
  -4  18   6  163.58   21.70
  18  -6   4  145.09   16.10
  18  -6  -4  165.28   17.10
  -4  18  -6  141.49   24.30
  -4 -18   6  170.58   18.50
  -6   4 -18  141.09   24.10
   4 -18  -6  176.18   21.40
  -4 -18  -8  478.15   35.20
   4 -18   8  473.55   37.00
  -8  -4 -18  478.15   35.60
  18  -8   4  490.25   34.50
   4  18  -8  459.85   47.90
  -4 -18   8  370.86   34.40
  18  -8  -4  413.86   34.60
  -4  18  -8  396.96   46.90
  -8   4 -18  426.26   40.50
   4 -18  -8  422.16   36.80
  18 -10   4  251.17   24.70
   4  18 -10  260.17   40.50
 -10  -4 -18  265.27   26.50
   4 -18  10  261.57   27.50
  -4 -18 -10  266.97   24.70
 -18  10   4  299.37   34.40
 -10   4 -18  235.48   32.70
  18 -10  -4  242.28   25.20
  -4  18 -10  236.88   40.50
 -18  10  -4  231.68   39.40
   4 -18 -10  256.17   27.40
   4  18 -12  190.68   33.20
  18 -12   4  249.38   24.90
 -12  -4 -18  229.98   29.20
   4 -18  12  244.08   27.40
 -18  12   4  235.68   34.10
  -4 -18 -12  223.18   23.70
 -12   4 -18  271.77   35.10
 -18  12  -4  194.88   31.80
  -4  18 -12  213.88   33.60
  18 -12  -4  228.18   25.40
   4 -18 -12  251.07   27.70
 -14  -4 -18  149.79   23.00
 -18  14   4  117.59   22.80
  18 -14   4  142.89   18.80
  -4 -18 -14  127.69   20.30
   4  18 -14  113.29   28.80
 -18  16   4  193.88   32.80
   4  18 -16  169.58   32.90
  -4 -18 -16  178.98   22.40
  18 -16   4  208.58   26.60
 -16  -4 -18  181.28   26.20
 -18  16  -4  138.09   31.10
  18 -16  -4  158.68   27.40
  -4  18 -16  150.68   33.80
   4 -18 -16  162.28   28.70
 -16   4 -18  188.18   31.30
   5 -18   1  254.47   25.90
   1   5 -18  258.47   26.60
  -5 -18  -1  237.98   22.20
   5  18  -1  253.67   34.20
  -5  18   1  236.48   31.20
  -5 -18   1  278.87   22.70
   5  18   1  266.87   33.50
  -1   5 -18  256.07   26.60
  -5  18  -1  262.07   32.80
   5 -18  -1  270.27   26.20
   3   5 -18 1105.89   92.69
   5  18  -3 1342.77   97.79
  -5  18   3 1300.57   94.99
  -5 -18  -3 1332.27   90.89
   5 -18   3 1345.27   92.19
  -5 -18   3 1335.07   90.79
  -3   5 -18 1328.97   93.99
  -5  18  -3 1363.66   97.49
  18  -3  -5 1283.77   90.09
   5  18   3 1366.36   96.29
   5 -18  -3 1311.47   92.29
   5 -18   5 2993.50  184.58
   5   5 -18 2992.00  185.78
  -5  18   5 2917.21  186.48
   5  18  -5 2976.20  190.38
  -5 -18  -5 2900.71  183.48
  18  -5   5 2922.81  182.98
  -5 -18   5 2393.46  183.08
  -5   5 -18 2307.37  185.78
  -5  18  -5 2427.06  188.58
   5 -18  -5 2452.25  184.08
  18  -5  -5 2292.37  182.88
   5  18  -7  374.86   42.30
   5 -18   7  395.86   32.70
  -5 -18  -7  377.36   29.40
  18  -7   5  356.56   28.60
  -5 -18   7  335.97   29.30
  -7   5 -18  332.57   35.80
   5 -18  -7  364.26   32.60
  -5  18  -7  352.06   42.70
  18  -7  -5  357.16   29.40
 -18   9   5 1610.74  115.49
   5  18  -9 1516.05  118.59
   5 -18   9 1587.94  111.79
  18  -9   5 1707.63  110.69
  -9  -5 -18 1524.45  111.49
  -5 -18  -9 1612.44  110.69
  -9   5 -18 1637.74  115.59
  -5  18  -9 1509.65  118.49
   5 -18  -9 1601.74  111.99
  18  -9  -5 1634.24  110.99
 -18   9  -5 1589.34  118.59
 -18  11   5  181.58   24.20
   5 -18  11  152.38   23.50
   5  18 -11  146.29   28.60
  18 -11   5  161.98   20.40
  -5 -18 -11  148.69   19.10
 -11  -5 -18  157.68   22.30
  18 -11  -5  138.59   20.90
 -18  11  -5  100.39   26.90
   5 -18 -11  120.09   18.40
  -5  18 -11  132.99   31.50
 -11   5 -18  145.69   25.60
   5  18 -13   86.39   27.60
  18 -13   5  104.89   15.50
  -5 -18 -13  105.09   14.30
 -18  13   5   92.49   20.60
 -13  -5 -18  114.59   19.10
 -13   5 -18  108.99   25.60
 -18  13  -5   63.79   26.70
  -5  18 -13   56.19   25.40
   5 -18 -13  103.79   18.60
  18 -13  -5   96.09   16.80
   5  18 -15  462.25   53.19
 -18  15   5  492.95   45.40
  18 -15   5  522.35   40.10
 -15  -5 -18  518.15   44.60
  -5 -18 -15  520.75   37.50
  -5  18 -15  407.06   55.09
 -15   5 -18  432.56   49.99
 -18  15  -5  358.46   52.69
  18 -15  -5  415.06   40.80
   5 -18 -15  417.16   41.70
   5  18 -17  289.57   43.80
   5 -18 -17  178.88   30.80
 -17   5 -18  229.48   34.30
  18 -17  -5  159.78   28.90
 -18  17  -5  157.98   33.60
  -5  18 -17  167.68   34.70
   6 -18   0  771.12   57.69
  -6  18   0  821.72   62.89
   6  18   0  750.52   63.49
  -6 -18   0  786.52   55.79
   0   6 -18  802.32   59.99
   6 -18   2 1680.13  116.19
  -6  18   2 1751.52  119.49
  -6 -18  -2 1690.73  114.69
   2   6 -18 1641.54  117.49
   6  18  -2 1767.12  121.79
  -6  18  -2 1715.63  120.69
  -2   6 -18 1624.54  117.89
   6  18   2 1625.24  119.99
   6 -18  -2 1664.43  116.19
  -6 -18   2 1592.04  114.49
  18  -2  -6 1617.04  114.09
   4   6 -18  151.68   22.90
  -6 -18  -4  158.28   17.20
   6  18  -4  114.69   24.80
   6 -18   4  162.08   21.40
  -6  18   4  160.08   25.40
  -4   6 -18  185.08   25.30
  18  -4  -6  178.68   16.90
  -6  18  -4  175.58   26.00
   6 -18  -4  174.58   22.00
  -6 -18   4  170.28   17.20
  -6  18   6 5788.42  393.66
  18  -6   6 5602.34  391.16
   6 -18   6 5813.72  392.46
   6   6 -18 5640.24  393.76
   6  18  -6 5495.15  396.66
  -6 -18  -6 5677.63  391.36
  -6 -18   6 5909.41  391.46
   6 -18  -6 5923.01  392.46
  18  -6  -6 5866.01  391.56
  -6  18  -6 5964.90  396.96
  -6   6 -18 5861.11  394.86
  18  -8   6  542.45   37.80
  -6 -18  -8  526.45   37.30
   6  18  -8  485.35   50.79
   6 -18   8  539.75   40.90
 -18   8  -6  451.05   51.09
  -8   6 -18  443.26   44.80
  -6  18  -8  401.76   49.10
   6 -18  -8  448.56   40.00
  18 -10   6 1292.47   95.19
   6 -18  10 1363.26   96.69
 -10  -6 -18 1300.67   96.19
  -6 -18 -10 1147.79   94.59
   6  18 -10 1312.97  104.29
 -18  10   6 1325.87   99.39
  -6  18 -10 1425.46  105.09
  18 -10  -6 1488.95   95.89
 -10   6 -18 1502.85  101.69
 -18  10  -6 1364.16  104.19
   6 -18 -10 1490.85   96.89
   6 -18  12  462.35   38.70
 -12  -6 -18  433.36   38.10
  -6 -18 -12  441.06   34.90
 -18  12   6  454.55   42.30
   6  18 -12  416.76   49.99
  18 -12   6  462.15   36.50
 -18  12  -6  352.26   49.20
  -6  18 -12  451.65   51.99
 -12   6 -18  408.36   46.50
   6 -18 -12  436.26   38.70
  18 -12  -6  428.46   37.40
   6  18 -14  295.57   48.60
  -6 -18 -14  371.86   32.40
 -14  -6 -18  371.26   38.80
  18 -14   6  350.86   35.10
 -18  14   6  416.26   38.40
  -6  18 -14  377.36   50.59
 -14   6 -18  462.75   47.10
   6 -18 -14  469.25   38.50
 -18  14  -6  395.86   51.39
  18 -14  -6  430.16   36.70
  -6 -18 -16   13.30   11.40
   6  18 -16    4.00   25.10
 -16  -6 -18   16.10   17.90
  18 -16   6    6.60   15.60
 -16   6 -18   16.00   24.50
  -6  18 -16   19.00   27.60
   6 -18 -16   22.90   18.20
 -18  16  -6    8.40   29.10
  18 -16  -6    3.70   17.40
  -7 -18  -1  431.36   31.20
   7 -18   1  428.46   35.40
   7  18  -1  422.16   42.80
   1   7 -18  439.06   37.70
  -7  18   1  466.55   40.30
  -7 -18   1  380.46   31.00
  -1   7 -18  393.56   37.70
  -7  18  -1  386.96   41.30
   7  18   1  402.66   41.90
   7 -18  -1  391.36   34.80
   7  18  -3 1531.75  115.49
   7 -18   3 1558.34  109.79
  -7 -18  -3 1520.85  107.89
  -7  18   3 1546.45  112.59
   3   7 -18 1567.74  111.99
  18  -3  -7 1534.35  107.99
  -7  18  -3 1624.34  114.79
  -7 -18   3 1577.34  107.99
  -3   7 -18 1645.04  112.69
   7 -18  -3 1613.64  109.99
   5   7 -18  367.96   35.40
  -7  18   5  384.16   35.00
   7  18  -5  407.06   44.40
  -7 -18  -5  424.16   29.10
   7 -18   5  399.86   33.40
  -5   7 -18  362.86   37.40
  18  -5  -7  343.37   29.60
  -7 -18   5  345.17   29.00
  -7  18  -5  350.16   42.00
   7 -18  -5  338.57   32.60
  18  -7   7 1410.76  103.69
   7   7 -18 1380.96  107.09
   7 -18   7 1463.35  105.49
   7  18  -7 1331.67  111.49
  -7 -18  -7 1374.66  103.39
  18  -7  -7 1644.04  104.49
  -7  18  -7 1568.74  112.29
  -7   7 -18 1604.14  109.39
 -18   7  -7 1525.85  111.89
   7 -18  -7 1706.13  106.19
 -18   9   7  791.12   64.29
   7 -18   9  780.32   61.49
  18  -9   7  788.32   59.79
  -7 -18  -9  766.92   58.79
   7  18  -9  779.12   71.19
 -18   9  -7  817.12   71.09
   7 -18  -9  908.91   62.39
  -9   7 -18  898.91   67.59
  18  -9  -7  907.31   60.59
  -7  18  -9  835.92   70.99
   7  18 -11  268.27   42.10
  18 -11   7  281.27   26.40
 -11  -7 -18  252.97   26.30
 -18  11   7  250.77   31.10
  -7 -18 -11  263.27   24.20
   7 -18  11  288.17   29.40
 -11   7 -18  284.87   37.80
   7 -18 -11  285.67   29.40
  18 -11  -7  279.97   27.20
  -7  18 -11  180.48   32.70
 -13  -7 -18  136.49   23.70
  -7 -18 -13  120.19   18.00
   7  18 -13  122.09   29.80
  18 -13   7  146.39   22.60
   7 -18  13  153.78   21.90
   7 -18 -13  108.39   20.10
  -7  18 -13   99.39   31.00
 -18  13  -7  118.99   31.80
 -13   7 -18   99.99   25.70
  18 -13  -7  140.09   23.50
 -15  -7 -18   61.29   18.50
   7  18 -15   91.99   31.00
  18 -15   7   89.39   17.50
  -7 -18 -15   80.09   13.70
  -7  18 -15  149.99   31.90
 -18  15  -7  124.99   27.20
  18 -17   7  132.79   21.10
   7  18 -17  132.09   30.80
 -17  -7 -18  122.79   23.20
  -7 -18 -17  110.49   19.20
 -17   7 -18  172.48   30.70
  18 -17  -7  177.68   28.00
  -7  18 -17  167.98   36.30
   7 -18 -17  138.99   22.40
 -18  17  -7  173.68   34.60
   0   8 -18  328.17   33.60
  -8 -18   0  305.37   24.30
   8  18   0  304.77   37.90
  -8  18   0  315.37   35.80
   8 -18   0  321.27   29.90
  -8  18   2  158.78   27.80
   8  18  -2  198.58   28.80
   2   8 -18  181.78   26.20
   8 -18   2  171.98   23.00
  -8 -18  -2  158.68   16.10
  18  -2  -8  168.38   16.70
  -2   8 -18  164.48   27.00
   8 -18  -2  194.18   23.40
  -8 -18   2  167.18   16.00
  -8  18  -2  186.58   31.10
  -8 -18  -4  482.85   34.30
   8 -18   4  490.75   38.40
   4   8 -18  515.25   42.20
   8  18  -4  471.95   48.20
  -8  18   4  525.15   42.00
  -8  18  -4  426.56   46.90
   8 -18  -4  428.76   38.80
  -4   8 -18  462.85   43.00
  18  -4  -8  404.66   35.20
  -8  18   6  566.44   41.80
  -8 -18  -6  528.15   37.00
   8  18  -6  495.55   50.99
   8 -18   6  505.35   40.80
   6   8 -18  561.14   44.20
  -6   8 -18  470.15   45.50
   8 -18  -6  460.75   41.20
  -8  18  -6  454.25   50.59
  18  -6  -8  456.55   38.30
  -8 -18  -8  453.65   33.20
   8 -18   8  473.25   37.70
   8  18  -8  413.56   48.30
  18  -8   8  461.25   34.90
  -8   8 -18  408.76   43.60
 -18   8  -8  391.96   49.50
  18  -8  -8  446.86   35.60
  -8  18  -8  405.26   49.20
   8 -18  -8  425.96   38.00
  18 -10   8  537.65   39.20
   8 -18  10  543.45   41.50
   8  18 -10  475.75   52.89
 -18  10   8  601.44   43.00
  -8 -18 -10  523.95   37.20
 -10   8 -18  439.36   48.30
  18 -10  -8  460.35   39.90
   8 -18 -10  431.46   42.00
 -18  10  -8  401.36   53.49
  -8  18 -10  395.46   52.59
   8  18 -12   14.70   25.50
 -12  -8 -18   12.40   11.90
  -8 -18 -12   24.00    9.80
  18 -12   8   30.70   14.20
   8 -18  12   14.70   14.60
 -18  12  -8   30.90   26.50
   8 -18 -12   57.49   17.70
  -8  18 -12   30.90   27.60
  18 -12  -8   27.20   14.10
 -12   8 -18   41.10   23.10
   8  18 -14   75.89   30.20
  18 -14   8   64.29   15.70
 -14   8 -18   24.40   22.50
 -18  14  -8   13.20   24.10
   8 -18 -14   12.70   17.80
  -8  18 -14   25.80   25.50
  18 -14  -8   42.50   16.80
  -8 -18 -16   71.69   13.10
   8  18 -16   56.39   26.50
  18 -16   8   62.69   16.80
 -16  -8 -18   89.19   19.90
   8 -18 -16  126.09   21.70
 -18  16  -8  124.49   32.90
  -8  18 -16   73.09   28.00
 -16   8 -18  102.09   27.10
  -9 -18  -1   82.29   11.00
  -9  18   1   64.59   18.70
   9 -18   1   92.99   16.30
   1   9 -18   75.89   18.20
  -9 -18   1  110.59   11.60
  -9  18  -1   97.29   20.00
   9 -18  -1  128.29   17.20
  -1   9 -18  103.79   18.60
   9  18  -3  862.21   71.19
   9 -18   3  869.41   63.39
  -9  18   3  876.41   67.09
   3   9 -18  913.01   67.29
  -9 -18  -3  898.61   62.69
  -9  18  -3  875.21   70.09
  -3   9 -18  810.72   67.39
  18  -3  -9  825.02   60.99
   9 -18  -3  839.32   63.59
  -9  18   5 1643.04  114.29
   5   9 -18 1684.63  115.69
   9  18  -5 1548.74  118.89
   9 -18   5 1603.14  112.39
  -5   9 -18 1597.54  116.19
   9 -18  -5 1617.24  112.39
  18  -5  -9 1543.95  110.79
  -9  18  -5 1589.64  118.29
   9  18  -7  690.73   69.09
   7   9 -18  779.32   64.69
  -9 -18  -7  794.72   59.89
   9 -18   7  794.92   61.69
 -18   7  -9  929.11   72.19
  18  -7  -9  873.31   60.19
   9 -18  -7  902.41   62.09
  -9  18  -7  832.72   70.79
  -7   9 -18  846.62   67.19
  18  -9   9 1232.08   82.39
   9 -18   9 1152.28   83.79
   9  18  -9 1105.69   92.19
  -9 -18  -9 1169.58   81.69
 -18   9  -9 1135.59   93.19
  -9   9 -18 1157.58   89.99
  18  -9  -9 1174.08   82.99
  -9  18  -9 1111.29   92.39
   9 -18  -9 1202.48   84.39
   9 -18  11  114.39   19.20
  -9 -18 -11   93.79   13.90
   9  18 -11  101.09   28.90
   9 -18 -11   55.99   17.20
 -11   9 -18   59.89   22.60
  18 -11  -9   66.89   15.70
 -18  11  -9   24.80   28.30
  -9  18 -11   36.70   25.50
   9 -18  13   25.00   17.30
  18 -13   9   44.40   15.00
  -9 -18 -13   27.60    9.90
   9  18 -13    7.90   24.00
 -18  13  -9   21.30   29.40
   9 -18 -13   36.70   18.50
  -9  18 -13   14.50   24.90
  18 -13  -9   49.60   15.40
 -13   9 -18   39.80   26.20
   9  18 -15  104.49   26.10
  18 -15   9  140.29   24.60
 -15  -9 -18  141.79   20.80
 -18  15  -9  118.09   34.90
  18 -15  -9  161.08   22.10
 -15   9 -18  108.59   27.10
  -9  18 -15  110.49   32.60
   9 -18 -15   85.79   19.90
 -17  -9 -18  408.26   38.50
   9  18 -17  412.66   49.10
  18 -17   9  420.76   36.50
 -18  17  -9  325.87   53.79
  18 -17  -9  323.67   38.00
   9 -18 -17  335.27   40.00
  -9  18 -17  303.67   53.49
 -17   9 -18  358.76   49.80
  17  -9 -18  342.97   37.60
  10 -18   0  240.08   27.50
 -10  18   0  251.17   34.10
   0  10 -18  251.37   33.20
  10 -18   2  394.76   37.20
   2  10 -18  393.16   41.20
 -10  18   2  388.26   41.00
  -2  10 -18  481.25   42.30
  18  -2 -10  440.36   33.10
  10 -18  -2  466.75   37.80
 -10  18  -2  462.15   45.10
   4  10 -18  289.37   32.90
  10  18  -4  241.68   39.20
 -10  18   4  266.97   31.00
  10 -18   4  268.67   27.50
 -10  18  -4  278.77   38.30
  -4  10 -18  244.18   34.00
  10 -18  -4  239.28   28.60
  18  -4 -10  230.48   23.40
  10 -18   6 1311.77   98.99
  10  18  -6 1161.08  105.39
   6  10 -18 1341.17  102.69
  10 -18  -6 1531.95   99.79
  -6  10 -18 1534.75  104.59
 -18   6 -10 1471.35  107.39
  18  -6 -10 1444.66   97.89
 -10  18  -6 1398.86  106.29
   8  10 -18  539.55   45.50
  10 -18   8  529.15   41.00
  10  18  -8  489.05   51.39
 -18   8 -10  419.86   51.79
  18  -8 -10  435.06   38.30
  10 -18  -8  469.95   41.10
  -8  10 -18  464.55   47.80
 -10  18  -8  410.26   51.49
  10 -18  10  727.73   51.89
  10  18 -10  647.44   62.29
 -10  10 -18  630.94   60.09
 -18  10 -10  586.64   62.99
 -10  18 -10  581.14   63.09
  18 -10 -10  641.74   49.99
  10 -18 -10  652.63   52.29
  18 -12  10  272.67   29.20
  10 -18  12  267.87   31.50
  10  18 -12  254.67   45.40
 -10  18 -12  288.97   48.30
  18 -12 -10  303.87   30.80
  10 -18 -12  291.17   34.00
 -12  10 -18  294.67   44.30
 -18  12 -10  261.67   47.20
  10  18 -14   37.30   23.90
  18 -14 -10   11.20   15.30
 -18  14 -10    3.40   24.60
 -10  18 -14   28.70   27.40
  10 -18 -14   13.70   17.00
 -14  10 -18    2.00   23.80
  18 -16  10  134.69   19.50
 -18  16 -10   85.79   28.10
  18 -16 -10   90.39   18.50
  10 -18 -16   80.79   19.20
 -10  18 -16   95.29   29.20
 -16  10 -18  107.99   27.40
  16 -10 -18   95.49   19.70
 -11  18   1  368.46   38.50
   1  11 -18  389.46   39.00
  11 -18   1  392.46   32.60
 -11  18  -1  297.07   39.10
  11 -18  -1  305.37   31.90
  -1  11 -18  299.47   37.40
  18  -1 -11  284.67   26.40
   3  11 -18  312.87   37.30
  11 -18   3  300.57   30.60
 -11  18   3  286.27   34.60
 -11  18  -3  322.07   40.10
  18  -3 -11  304.77   26.70
  11 -18  -3  342.77   31.60
  -3  11 -18  270.87   36.70
   5  11 -18  189.38   26.00
 -11  18   5  153.38   25.00
  11 -18   5  165.18   24.00
  18  -5 -11  128.39   19.10
  -5  11 -18  171.58   27.50
  11 -18  -5   95.19   17.90
 -11  18  -5  137.69   28.90
 -18   5 -11  141.29   29.80
   7  11 -18  280.17   36.70
  11 -18   7  273.07   29.40
  18  -7 -11  272.57   27.10
  -7  11 -18  297.77   39.30
  11 -18  -7  303.67   30.40
 -11  18  -7  238.48   42.80
 -18   7 -11  275.47   43.10
  11 -18   9   84.79   18.00
  18  -9 -11   45.90   14.30
  11 -18  -9   44.20   15.90
 -18   9 -11   34.90   24.50
  -9  11 -18   32.10   21.10
 -11  18  -9   37.80   25.90
 -18  11 -11   43.30   30.30
  18 -11 -11   54.89   16.30
 -11  18 -11   37.30   27.00
 -11  11 -18   69.89   27.30
  11 -18 -11   32.80   16.40
  11 -18 -13  177.48   29.20
 -13  11 -18  137.89   28.80
 -11  18 -13  140.99   34.00
  18 -13 -11  185.38   26.70
 -18  13 -11  106.79   29.60
 -18  15 -11   33.30   29.50
  11 -18 -15   40.80   20.90
 -15  11 -18   32.60   27.60
  18 -15 -11   48.80   18.50
  15 -11 -18   55.79   21.20
 -11  18 -15   18.60   26.10
  11 -18 -17   87.89   22.90
 -11  18 -17  175.88   35.90
  17 -11 -18  130.49   22.10
 -18  17 -11  196.08   38.20
 -17  11 -18  126.69   31.10
  18 -17 -11  105.49   21.10
 -12  18   0  967.10   76.79
  12 -18   0 1007.80   71.39
   0  12 -18  940.41   76.99
 -12  18   2  100.09   22.10
  12 -18   2   50.89   15.20
   2  12 -18   71.49   22.00
  -2  12 -18   45.20   20.40
 -12  18  -2   45.80   21.20
  18  -2 -12   54.99   11.20
  12 -18  -2   62.29   17.60
 -12  18   4  254.67   31.90
  12 -18   4  232.88   27.70
   4  12 -18  237.98   35.20
  12 -18  -4  245.68   29.30
  -4  12 -18  256.47   36.70
 -12  18  -4  243.78   39.60
  18  -4 -12  243.98   24.60
  12 -18   6  478.25   40.00
   6  12 -18  485.85   46.20
 -12  18  -6  395.46   50.49
 -18   6 -12  454.75   50.19
  12 -18  -6  452.45   40.50
  -6  12 -18  438.96   47.60
  18  -6 -12  448.06   37.40
  12 -18   8   24.00   15.10
   8  12 -18   17.90   20.00
  -8  12 -18   15.50   23.60
  12 -18  -8   25.70   17.00
 -12  18  -8   16.20   25.30
 -18   8 -12   21.60   23.40
  18  -8 -12   29.20   13.50
  12 -18  10  263.47   31.30
  18 -10 -12  302.17   29.60
 -10  12 -18  260.37   42.80
  12 -18 -10  279.17   31.90
 -18  10 -12  186.98   34.60
 -12  18 -10  269.87   47.40
 -12  18 -12   78.19   28.30
 -18  12 -12  106.19   33.30
  12 -18 -12  130.89   22.90
  18 -12 -12  103.49   18.20
 -12  12 -18  129.69   32.30
 -12  18 -14    9.00   32.10
  14 -12 -18   17.00   20.40
  12 -18 -14   20.90   20.00
 -14  12 -18   13.90   27.00
 -18  14 -12   15.70   26.50
  18 -14 -12    9.20   15.00
 -12  18 -16   99.39   33.00
  16 -12 -18   53.19   18.10
 -18  16 -12   99.29   33.40
  18 -16 -12   72.29   19.90
  12 -18 -16   52.59   19.80
 -16  12 -18   59.49   27.80
   1  13 -18   85.49   23.90
  13 -18   1   93.89   18.70
 -13  18   1   98.39   22.70
  13 -18  -1  159.88   24.10
 -13  18  -1  141.39   25.10
  -1  13 -18  121.79   23.10
 -13  18   3   27.10   18.10
   3  13 -18   16.40   19.70
  13 -18   3   11.40   15.40
 -13  18  -3   35.80   21.60
 -18   3 -13   31.20   22.40
  -3  13 -18   25.00   19.70
  13 -18  -3   35.00   15.40
  18  -3 -13   41.40   12.10
  13 -18   5  130.19   19.80
   5  13 -18  128.49   25.70
 -13  18   5  172.18   25.20
 -13  18  -5   47.50   24.20
 -18   5 -13   73.29   27.00
  18  -5 -13   88.19   15.70
  13 -18  -5  109.49   20.50
  -5  13 -18   58.69   23.20
  13 -18   7  106.99   17.50
   7  13 -18  129.29   24.60
 -18   7 -13   96.59   29.60
 -13  18  -7   65.79   26.20
  -7  13 -18   95.29   26.60
  18  -7 -13  128.89   21.90
  13 -18  -7   80.99   17.90
   9  13 -18   32.00   20.30
  13 -18   9   34.80   17.90
  -9  13 -18   34.70   27.50
 -13  18  -9   13.90   27.80
  13 -18  -9   25.70   16.50
 -18   9 -13   17.30   26.10
  18  -9 -13   52.39   15.70
  13 -18  11  225.18   27.80
  13 -18 -11  168.18   29.50
 -13  18 -11  125.19   32.60
 -11  13 -18  165.38   31.50
  18 -11 -13  163.18   26.70
 -18  11 -13  122.39   31.80
  13 -13 -18   16.70   19.60
 -13  18 -13    5.40   30.50
  18 -13 -13   21.30   16.60
 -18  13 -13    9.80   29.10
 -13  13 -18   14.70   23.60
  13 -18 -13   13.90   17.20
 -13  18 -15   78.59   32.40
  15 -13 -18   80.49   21.40
 -18  15 -13  106.19   33.70
  13 -18 -15   59.19   20.10
  18 -15 -13   56.39   17.80
 -15  13 -18   85.39   30.90
 -17  13 -18  201.48   35.80
  13 -18 -17  175.68   27.20
  17 -13 -18  198.18   31.20
  18 -17 -13  169.58   30.20
 -18  17 -13  153.38   32.10
 -13  18 -17  152.38   33.30
   0  14 -18  273.97   40.50
  14 -18   0  307.27   31.90
 -14  18   0  271.07   39.30
  14 -18   2   58.49   15.50
   2  14 -18   88.29   22.70
 -14  18   2   74.99   20.60
 -14  18  -2   34.80   21.70
 -18   2 -14   23.50   22.60
  14 -18  -2   35.70   15.90
  -2  14 -18   25.30   22.30
   4  14 -18  117.59   25.10
  14 -18   4   84.59   15.70
  18  -4 -14   49.99   13.90
  14 -18  -4   44.10   19.10
  -4  14 -18   51.79   25.80
 -14  18  -4   36.30   26.10
 -18   4 -14   32.70   22.70
   6  14 -18  384.06   45.70
  14 -18   6  363.96   36.70
  -6  14 -18  397.26   48.40
  18  -6 -14  426.36   35.70
 -18   6 -14  413.26   49.70
  14 -18  -6  409.56   38.60
 -14  18  -6  346.97   48.80
  14 -18   8   73.69   18.40
   8  14 -18   43.50   21.50
  14 -18  -8   47.60   19.50
  -8  14 -18   36.10   26.50
  18  -8 -14   25.00   15.70
 -14  18  -8   26.60   30.90
 -18   8 -14   16.40   27.00
  14 -18  10   48.70   16.10
 -14  18 -10    7.10   29.40
 -10  14 -18    6.50   23.40
  18 -10 -14   19.10   16.80
  14 -18 -10   19.10   17.90
 -18  10 -14   17.60   28.70
  14 -18  12   13.10   18.00
  14 -18 -12   18.70   17.90
  12 -14 -18   23.20   21.40
 -12  14 -18   26.40   29.00
  18 -12 -14   17.90   17.10
 -18  12 -14   14.90   28.10
 -14  18 -12   19.60   31.70
 -14  18 -14   50.79   28.40
  14 -18 -14   46.10   19.80
  18 -14 -14   35.90   16.20
  14 -14 -18   52.49   19.00
 -18  14 -14   58.89   31.20
 -14  14 -18   76.89   29.20
 -18  16 -14  104.59   34.60
  18 -16 -14   90.99   20.20
 -14  18 -16   91.19   33.70
 -16  14 -18   55.29   26.50
  14 -18 -16   86.89   23.20
  16 -14 -18   50.79   18.50
   1  15 -18  813.92   69.69
  15 -18   1  853.41   61.99
 -15  18   1  814.22   68.19
 -18   1 -15  785.32   69.79
  -1  15 -18  785.62   70.09
  15 -18  -1  801.32   62.19
 -15  18  -1  808.52   69.29
  15 -18   3   26.90   16.40
   3  15 -18   48.30   24.50
 -15  18   3   25.90   18.70
  15 -18  -3   21.00   15.80
 -15  18  -3   30.10   25.40
  -3  15 -18   13.70   21.10
 -18   3 -15   48.40   25.20
  15 -18   5  530.15   40.90
   5  15 -18  560.04   50.79
  18  -5 -15  429.96   38.10
  15 -18  -5  431.76   41.20
 -18   5 -15  374.16   51.79
  -5  15 -18  419.46   51.19
 -15  18  -5  389.26   52.39
  -7  15 -18  168.88   31.30
 -18   7 -15  198.98   33.60
 -15  18  -7  165.08   34.00
  18  -7 -15  185.78   26.70
  15 -18  -7  180.88   30.00
  15 -18   9  111.39   19.60
  -9 -15 -18  144.99   17.70
   9  15 -18  136.89   27.30
 -15  18  -9  124.09   35.70
   9 -15 -18  124.39   22.60
  18  -9 -15  142.89   20.10
 -18   9 -15   80.79   26.50
  15 -18  -9   86.39   20.50
  -9  15 -18   59.19   25.80
  15 -18  11   63.99   18.80
 -18  11 -15   35.10   30.60
  18 -11 -15   31.90   16.20
  11 -15 -18   36.60   21.00
 -15  18 -11   19.70   26.90
 -11  15 -18   22.60   24.70
  15 -18 -11   16.70   16.50
  18 -13 -15   59.29   18.20
  15 -18 -13   41.00   17.80
 -13  15 -18   48.50   26.70
  13 -15 -18   86.59   23.00
 -18  13 -15   71.99   31.20
 -15  18 -13   80.49   33.50
 -15  15 -18   56.29   26.90
 -18  15 -15   51.69   29.00
  15 -15 -18   57.29   19.10
  15 -18 -15   47.00   20.30
  18 -15 -15   70.29   19.10
 -15  18 -15   75.99   32.50
 -18  17 -15  181.28   36.50
  18 -17 -15  179.18   30.30
 -15  18 -17  125.59   31.00
  15 -18 -17  211.68   28.20
  17 -15 -18  203.78   32.20
 -17  15 -18  245.58   37.70
   0  16 -18  194.48   32.10
 -18   0 -16  270.27   39.50
 -16  18   0  232.68   38.90
  16 -18   0  265.27   31.30
   2  16 -18    7.30   23.10
  16 -18   2   15.20   15.20
 -16  18   2   13.70   21.20
 -18  -2 -16   14.70   19.70
 -18   2 -16   41.00   22.40
  16 -18  -2   58.09   18.70
  -2  16 -18   39.30   26.50
 -16  18  -2   26.30   22.00
 -16  18   4  202.68   32.00
   4  16 -18  155.58   27.00
  16 -18   4  195.78   27.30
  16 -18  -4  151.78   22.50
 -16  18  -4  140.59   31.50
  -4  16 -18  101.59   26.70
 -18   4 -16  155.08   30.30
   6  16 -18   15.70   25.20
  16 -18   6   17.60   17.30
 -16  18   6    6.90    4.10
  -6 -16 -18    7.60   12.90
 -18   6 -16   10.90   22.90
  16 -18  -6   35.70   19.10
 -16  18  -6   12.60   26.70
  -6  16 -18   11.70   23.90
   6 -16 -18    2.20   16.60
  18  -6 -16   23.00   15.60
   8  16 -18   86.59   28.40
  16 -18   8   71.99   18.80
  -8 -16 -18   69.79   14.00
   8 -16 -18  111.39   21.60
  18  -8 -16  120.09   18.50
 -18   8 -16  101.49   27.10
  -8  16 -18   80.69   26.90
 -16  18  -8  131.29   32.40
  16 -18  10   84.39   18.20
 -16  18 -10  122.09   31.20
  16 -18 -10  139.99   23.10
  10 -16 -18  124.89   24.40
  18 -10 -16  135.19   20.10
 -10  16 -18  106.09   30.40
 -18  10 -16  119.59   32.10
 -12  16 -18   76.69   32.70
 -16  18 -12   56.09   31.10
  18 -12 -16   97.99   20.40
  12 -16 -18   86.99   23.40
 -18  12 -16   91.09   31.70
  16 -18 -12   41.20   18.00
  18 -14 -16   49.99   17.40
  16 -18 -14   88.79   22.60
 -18  14 -16   81.99   32.20
 -16  18 -14  107.19   35.80
  14 -16 -18   94.89   22.20
 -14  16 -18   52.09   26.90
 -18  16 -16  315.97   51.89
  16 -18 -16  329.17   37.40
  16 -16 -18  307.37   37.50
 -16  18 -16  309.27   52.29
  18 -16 -16  302.27   36.10
 -16  16 -18  304.17   50.69
  -1 -17 -18  449.76   36.80
 -18  -1 -17  478.55   46.40
   1  17 -18  453.85   49.70
 -17  18   1  452.35   47.00
  17 -18   1  493.25   38.60
   1 -17 -18  309.47   37.00
  -1  17 -18  315.77   48.90
 -18   1 -17  327.57   46.10
 -17  18  -1  328.67   47.90
  17 -18  -1  330.87   38.10
  17 -18  -5  177.38   29.30
 -17  18  -5  152.78   32.40
  -5  17 -18  186.58   35.90
   5 -17 -18  193.18   30.20
 -18   5 -17  134.29   28.30
  17 -18   7  109.09   20.50
   7  17 -18  136.19   30.30
  -7 -17 -18   97.49   16.10
 -17  18  -7  164.18   34.10
   7 -17 -18  197.38   31.70
  17 -18  -7  162.38   22.70
  18  -7 -17  161.98   26.50
 -18   7 -17  172.18   31.70
  -7  17 -18  120.89   30.70
  -9 -17 -18  432.86   30.90
   9  17 -18  439.66   48.10
  17 -18   9  397.26   37.30
 -18   9 -17  320.87   50.59
  17 -18  -9  339.47   39.10
 -17  18  -9  348.37   53.69
  18  -9 -17  356.56   38.00
  -9  17 -18  356.46   53.19
   9 -17 -18  287.97   40.80
  17 -18  11   79.89   18.90
 -11  17 -18  103.89   29.10
 -17  18 -11  136.89   34.80
  18 -11 -17  106.89   19.30
 -18  11 -17  161.68   34.10
  17 -18 -11  140.29   23.80
  11 -17 -18   84.59   20.80
  18 -13 -17  218.28   30.60
  17 -18 -13  182.28   26.20
 -13  17 -18  198.48   35.90
  13 -17 -18  185.88   27.40
 -18  13 -17  183.28   33.40
 -17  18 -13  135.89   32.50
  17 -18 -15  193.28   31.80
  18 -15 -17  201.08   31.00
 -15  17 -18  197.58   35.60
  15 -17 -18  194.28   33.40
 -18  15 -17  213.88   37.70
 -17  18 -15  147.29   33.50
 -18   0 -18 1056.39   84.99
 -18  18   0 1066.69   86.09
   0 -18 -18 1107.39   78.99
   0  18 -18 1034.80   88.49
  18 -18   0 1098.19   79.69
 -18  18  -2   89.89   26.40
   2 -18 -18  118.89   21.10
  -2  18 -18   90.39   28.30
  18 -18  -2  107.39   20.00
 -18   2 -18  126.99   26.70
 -18  -4 -18   85.99   22.30
  18 -18   4   90.39   18.50
  -4 -18 -18   73.09   14.80
 -18  18   4  114.99   21.60
   4  18 -18   93.19   29.70
 -18  18  -4   66.09   28.60
   4 -18 -18   75.79   21.50
  -4  18 -18   48.60   26.30
  18 -18  -4   60.09   19.50
 -18   4 -18   85.49   27.40
 -18  -6 -18 1170.38   86.39
  -6 -18 -18 1163.88   79.59
  18 -18   6 1112.79   81.69
   6  18 -18 1190.58   91.59
 -18   6 -18 1125.69   90.79
   6 -18 -18 1062.49   83.49
  -6  18 -18 1093.19   92.79
  18 -18  -6 1081.29   82.49
 -18  18  -6 1069.39   92.39
  18  -6 -18 1079.59   81.39
 -18  -8 -18  134.69   23.30
  -8 -18 -18  141.69   18.80
  18 -18   8  105.99   19.10
   8  18 -18  124.19   28.00
 -18   8 -18  147.39   30.40
   8 -18 -18  143.19   23.90
  -8  18 -18  158.28   34.70
  18 -18  -8  144.39   23.00
 -18  18  -8  144.89   32.90
  18  -8 -18  134.09   20.60
 -18  10 -18  256.97   46.60
 -10  18 -18  291.57   50.59
  10 -18 -18  262.87   36.00
  18 -18 -10  278.47   34.60
 -18  18 -10  296.67   51.79
  18 -10 -18  258.87   33.30
 -18  12 -18   31.20   25.50
 -18  18 -12   41.70   27.60
 -12  18 -18   49.40   31.80
  12 -18 -18   40.00   18.90
  18 -18 -12   29.70   18.10
  18 -12 -18   62.39   19.60
 -18  14 -18   55.39   28.30
 -18  18 -14   49.00   31.00
 -14  18 -18   74.29   32.60
  14 -18 -18   72.79   22.70
  18 -18 -14   70.89   20.20
  18 -14 -18   44.80   16.70
   0  19  -1   58.59   20.40
   0  19   1   56.89   18.10
   0 -19   1   45.40   11.90
   0 -19  -1   72.49   13.70
   0 -19  -3  139.99   18.90
   0  19  -3  111.19   22.30
   0  19   3  117.49   19.60
   0 -19   3  108.89   18.60
  -3   0 -19  119.59   14.90
  -5   0 -19  122.59   17.30
   0  19  -5  103.99   23.20
   0  19   5  143.49   24.30
  19  -5   0  114.39   13.30
   0 -19  -5  130.79   16.80
   0 -19   5  118.29   19.10
   0  19  -7   52.09   22.60
   0 -19  -7  105.49   15.30
   0 -19   7   98.69   15.70
  19  -7   0   87.49   14.00
   0  19   7   94.89   15.50
  -7   0 -19   91.39   15.10
  -9   0 -19    1.90   12.50
   0  19  -9   -1.50   22.20
   0 -19   9   -3.40   11.90
 -19   9   0    2.90   19.30
   0 -19  -9   -2.50   12.00
  19  -9   0    3.40   10.00
   0  19 -11  253.47   42.80
   0 -19  11  278.87   28.20
   0 -19 -11  265.67   27.40
 -19  11   0  251.37   39.70
  19 -11   0  278.97   26.50
 -11   0 -19  285.67   32.60
 -13   0 -19   42.50   18.50
   0  19 -13   43.90   26.80
   0 -19 -13   56.29   15.10
 -19  13   0   64.39   25.00
  19 -13   0   58.19   14.30
  19 -15   0  144.69   20.20
 -19  15   0  112.29   27.30
 -15   0 -19  140.19   24.10
   0  19 -15   81.59   27.60
   0 -19 -15  140.79   19.40
  19 -17   0   14.30   14.90
 -17   0 -19   35.00   21.60
   0  19 -17    8.10   28.00
   0 -19 -17   19.00   14.20
 -19  17   0   27.40   22.10
  -1  19   0   54.29   18.60
  -1 -19   0   48.70   11.20
   1  19   0   42.10   17.40
   1 -19   0   59.69   13.50
   0   1 -19   57.49    9.00
   1 -19   2  345.37   31.80
   1  19  -2  347.67   40.90
  -1  19   2  326.17   38.20
  -1 -19  -2  343.57   31.60
  -1 -19   2  435.06   31.80
   1  19   2  415.86   39.20
  -2   1 -19  394.06   30.60
   1 -19  -2  399.06   32.40
  -1  19  -2  432.16   41.60
   1  19  -4  774.42   62.49
  -1 -19  -4  786.22   54.39
   1 -19   4  767.02   54.69
  -4  -1 -19  751.42   52.99
  -1  19   4  820.32   58.89
  -4   1 -19  667.23   54.29
   1 -19  -4  679.73   54.49
  -1  19  -4  725.33   62.29
   1  19   4  688.23   58.59
   1 -19   6   12.10   11.60
  -1  19   6    8.10   12.80
  19  -6   1   11.60    7.40
  -1 -19  -6    3.20   10.60
   1  19  -6    4.50   22.50
  -6  -1 -19   12.10    9.10
  -1  19  -6   12.10   22.00
  19  -6  -1    9.70    7.70
   1 -19  -6    4.40   11.10
   1  19   6    5.50   12.60
  -1 -19   6   -3.90   10.50
  -6   1 -19    6.80   10.80
   1  19  -8 1082.89   90.99
   1 -19   8 1255.57   83.89
  19  -8   1 1187.78   82.39
  -1 -19  -8 1223.68   83.69
  -8  -1 -19 1152.58   84.59
  -8   1 -19 1146.39   85.49
  -1  19  -8 1109.99   91.59
  19  -8  -1 1145.99   82.49
   1 -19  -8 1241.68   84.09
  -1 -19   8 1205.58   83.49
  19 -10   1  147.09   19.40
   1  19 -10  140.89   30.00
 -10  -1 -19  139.59   24.10
   1 -19  10  140.39   22.00
  -1 -19 -10  133.79   20.90
 -19  10   1  130.59   24.70
   1 -19 -10  146.99   22.20
  19 -10  -1  146.69   19.60
 -19  10  -1  163.08   28.10
 -10   1 -19  171.98   26.80
  -1  19 -10  108.19   26.50
  -1 -19  10  144.29   21.40
   1  19 -12  148.79   29.80
 -12  -1 -19  164.28   29.20
 -19  12   1  204.38   31.00
  19 -12   1  159.88   22.70
  -1 -19 -12  181.18   23.70
  -1  19 -12  243.68   36.10
   1 -19 -12  218.18   24.70
  19 -12  -1  218.58   23.90
 -12   1 -19  222.78   31.50
 -19  12  -1  185.08   30.20
   1  19 -14  166.18   30.50
  19 -14   1  210.58   25.10
  -1 -19 -14  197.88   24.60
 -14  -1 -19  238.08   32.40
 -19  14   1  207.78   37.30
 -14   1 -19  218.88   32.90
  19 -14  -1  200.28   26.10
   1 -19 -14  213.38   26.50
 -19  14  -1  165.98   30.00
  -1  19 -14  156.98   31.20
 -19  16   1   43.90   23.10
 -16  -1 -19   39.10   20.70
  -1 -19 -16   51.19   15.20
  19 -16   1   62.99   17.00
   1  19 -16   33.90   25.30
 -19  16  -1  109.09   26.40
  -1  19 -16   99.19   30.10
 -16   1 -19  109.89   23.30
  19 -16  -1   96.39   16.70
  19 -18   1   60.79   16.70
 -18  -1 -19   94.69   24.20
 -19  18   1   78.89   25.80
  -1 -19 -18   42.60   15.00
   1  19 -18   64.49   26.80
  19 -18  -1   52.19   16.60
   1 -19 -18   85.59   17.70
  -1  19 -18   75.39   30.40
 -18   1 -19   94.79   25.30
 -19  18  -1   78.29   27.70
  -2  19   1  318.47   37.60
   1   2 -19  318.87   28.80
   2 -19   1  295.37   30.80
   2  19  -1  347.97   39.70
  -2 -19  -1  324.47   29.90
  -2  19  -1  395.16   39.80
  -1   2 -19  412.26   30.20
  -2 -19   1  414.26   30.20
   2 -19  -1  385.66   31.30
   2  19   1  453.65   39.80
  -2 -19  -3  420.26   31.60
   2  19  -3  414.56   42.50
   2 -19   3  424.06   32.70
  -2  19   3  404.26   37.90
  -3   2 -19  366.36   32.00
   2 -19  -3  318.47   32.50
  -2 -19   3  366.36   31.30
  -2  19  -3  357.06   41.20
   2  19   3  388.06   39.00
  19  -5   2  628.14   43.30
   2  19  -5  581.64   55.09
  -2  19   5  607.14   49.40
  -2 -19  -5  586.64   45.60
   2 -19   5  598.64   46.70
  -2  19  -5  614.84   54.39
  19  -5  -2  608.04   43.60
   2 -19  -5  597.84   46.40
   2  19   5  605.54   49.99
  -5   2 -19  619.74   47.20
  -2 -19   5  616.04   45.60
  -2  19   7  564.14   41.10
  -7  -2 -19  501.85   39.70
  19  -7   2  514.45   38.00
   2 -19   7  560.04   41.10
  -2 -19  -7  493.25   39.80
   2  19  -7  490.25   50.69
   2 -19  -7  486.05   40.80
  -2  19  -7  489.55   51.19
  -7   2 -19  471.65   42.30
  -2 -19   7  528.15   39.90
  19  -7  -2  501.25   38.30
  -9  -2 -19  607.54   48.30
  -2 -19  -9  654.63   47.00
  19  -9   2  537.05   45.50
   2  19  -9  560.74   57.09
   2 -19   9  622.44   48.00
 -19   9   2  615.04   55.19
  -2 -19   9  613.74   46.90
  -9   2 -19  637.54   50.79
  -2  19  -9  579.24   57.39
 -19   9  -2  634.24   57.39
   2 -19  -9  673.03   48.10
  19  -9  -2  637.14   46.10
   2 -19  11   45.30   14.40
   2  19 -11   44.80   23.80
  19 -11   2   88.39   14.30
 -11  -2 -19   78.89   16.60
 -19  11   2   78.49   23.70
  -2 -19 -11   71.69   14.10
 -11   2 -19   77.29   18.80
 -19  11  -2   75.49   24.30
  19 -11  -2   65.19   13.20
   2 -19 -11   88.09   17.00
  -2  19 -11   48.80   24.80
  -2 -19 -13  345.77   33.20
   2  19 -13  298.07   48.20
  19 -13   2  375.76   33.20
 -13  -2 -19  349.67   38.60
 -19  13   2  301.67   43.10
 -13   2 -19  409.96   41.40
   2 -19 -13  399.36   34.90
  19 -13  -2  424.26   34.20
  -2  19 -13  390.56   49.99
 -19  13  -2  433.16   48.20
  -2 -19 -15   69.19   14.40
 -15  -2 -19   70.29   20.50
  19 -15   2   82.69   16.70
   2  19 -15   47.90   26.30
 -19  15   2   79.99   24.40
  -2  19 -15    7.50   27.20
   2  19 -17  109.49   31.50
  -2 -19 -17  112.49   17.10
 -17  -2 -19  101.49   23.10
  19 -17   2   89.39   17.50
 -19  17   2  125.59   25.90
 -19  17  -2   40.20   23.70
  -2  19 -17   30.10   26.50
 -17   2 -19   39.30   22.50
   3 -19   0  132.49   20.00
  -3 -19   0  134.79   16.80
   0   3 -19  116.49   17.20
   3  19   0  112.49   21.20
  -3  19   0  106.09   21.00
   3 -19   2  426.66   34.40
   3  19  -2  425.26   43.20
  -3 -19  -2  431.06   32.60
  -3  19   2  418.56   40.00
   2   3 -19  411.66   32.70
  -2   3 -19  354.76   33.50
  -3  19  -2  389.46   41.70
   3  19   2  408.06   41.00
   3 -19  -2  383.86   34.00
  -3 -19   2  403.76   32.30
  -3  19  -4  183.68   33.00
  -3 -19   4  173.98   19.80
   3 -19  -4  174.48   22.60
  19  -4  -3  205.38   16.10
   3  19   4  174.18   28.10
  -4   3 -19  172.08   22.90
  -3  19   6  751.22   58.89
   3  19  -6  721.83   65.59
  19  -6   3  742.93   54.69
  -3 -19  -6  769.52   56.39
   3 -19   6  739.53   57.29
  -6   3 -19  806.62   59.09
  -3 -19   6  777.02   56.19
  -3  19  -6  805.62   65.39
  19  -6  -3  805.52   55.09
   3 -19  -6  801.32   57.39
  -3 -19  -8  340.77   29.80
   3  19  -8  333.97   42.90
  19  -8   3  362.26   28.60
  -8  -3 -19  334.67   29.50
   3 -19   8  363.16   31.70
  19  -8  -3  338.67   28.60
  -3  19  -8  326.67   42.40
  -8   3 -19  327.07   34.90
  -3 -19   8  364.06   29.90
   3 -19  -8  349.77   31.80
   3  19 -10  531.05   55.99
 -10  -3 -19  550.84   44.80
 -19  10   3  572.44   51.59
  -3 -19 -10  577.34   43.00
  19 -10   3  572.34   42.70
   3 -19  10  580.94   44.70
  19 -10  -3  545.55   43.00
  -3  19 -10  481.25   54.49
   3 -19 -10  579.14   44.90
 -10   3 -19  563.54   48.40
 -19  10  -3  524.95   54.39
 -12  -3 -19   49.99   16.20
 -19  12   3   24.50   19.80
   3 -19  12   28.60   14.40
   3  19 -12   33.20   27.60
  19 -12   3   40.40   12.60
  -3 -19 -12   63.89   13.90
 -19  12  -3   19.00   22.70
  -3  19 -12   27.50   23.70
  19 -12  -3   57.19   14.60
   3 -19 -12   48.90   15.80
 -12   3 -19   62.99   20.60
  -3 -19 -14  122.79   16.50
  19 -14   3  103.09   16.30
   3  19 -14  123.89   31.90
 -14  -3 -19  108.09   21.00
 -19  14   3  138.19   24.10
 -14   3 -19  116.39   23.50
  -3  19 -14  110.59   32.50
   3 -19 -14  147.89   20.30
  19 -14  -3   94.29   16.80
 -19  14  -3  115.19   29.60
 -16  -3 -19  338.07   38.30
  19 -16   3  354.16   33.10
  -3 -19 -16  322.27   30.60
   3  19 -16  333.77   48.50
 -19  16   3  321.97   39.90
   3 -19 -16  336.97   34.60
 -19  16  -3  254.97   45.60
 -16   3 -19  293.77   41.70
  -3  19 -16  287.97   48.50
  19 -16  -3  311.47   33.90
  -3 -19 -18   25.00   13.70
  19 -18   3   26.60   16.20
 -19  18   3   23.30   20.10
   3  19 -18   38.60   27.10
 -18  -3 -19   39.40   20.60
 -18   3 -19   66.99   23.80
 -19  18  -3   76.39   29.00
  -3  19 -18   47.40   28.80
  19 -18  -3   64.69   18.90
   4  19  -1  799.12   62.09
  -4 -19  -1  783.52   53.59
   4 -19   1  806.02   55.29
  -4  19   1  785.12   60.19
   1   4 -19  745.23   54.99
  -4  19  -1  676.73   60.59
   4 -19  -1  691.73   54.99
  -4 -19   1  708.13   53.39
   4  19   1  723.23   60.89
  -1   4 -19  678.63   55.39
  -4  19  -3  191.28   31.80
   4  19   3  180.28   29.80
  -3   4 -19  157.08   22.30
  -4 -19   3  157.28   18.80
   4 -19  -3  170.38   22.60
  -4 -19  -5 1273.97   81.69
  -4  19   5 1296.57   85.29
   4  19  -5 1329.17   90.39
   4 -19   5 1336.27   83.19
  19  -5   4  983.10   79.79
  -4  19  -5 1105.49   88.89
  -5   4 -19 1097.49   84.19
  -4 -19   5 1084.89   81.19
  19  -5  -4 1050.39   80.39
   4 -19  -5 1107.69   82.69
  19  -7   4 2654.93  174.88
   4 -19   7 2740.03  176.48
   4  19  -7 2575.94  182.48
  -4 -19  -7 2934.11  175.78
  19  -7  -4 2360.36  174.98
  -4 -19   7 2504.85  175.28
  -7   4 -19 2464.15  178.38
   4 -19  -7 2449.55  176.18
  -4  19  -7 2352.36  181.58
  -4 -19  -9  386.36   32.40
  -9  -4 -19  361.06   32.60
 -19   9   4  397.66   41.50
  19  -9   4  394.86   32.00
   4  19  -9  349.07   46.40
   4 -19   9  400.06   35.60
   4 -19  -9  427.06   35.40
  19  -9  -4  402.66   32.50
 -19   9  -4  382.86   47.00
  -4  19  -9  368.06   46.30
  -9   4 -19  420.56   39.70
  19 -11   4  626.84   47.80
 -19  11   4  661.33   56.39
   4 -19  11  660.73   50.09
  -4 -19 -11  680.73   48.10
 -11  -4 -19  604.54   49.70
   4  19 -11  580.44   60.29
  -4  19 -11  570.84   61.19
 -19  11  -4  620.04   60.49
 -11   4 -19  619.44   54.49
   4 -19 -11  638.34   49.90
  19 -11  -4  639.94   48.20
   4  19 -13  244.98   43.50
  19 -13   4  265.57   26.20
 -13  -4 -19  265.27   30.40
  -4 -19 -13  282.57   25.10
 -19  13   4  282.07   35.80
 -13   4 -19  188.98   30.00
   4 -19 -13  178.08   28.30
  19 -13  -4  182.88   26.70
 -19  13  -4  189.38   35.50
 -15  -4 -19  209.18   31.40
   4  19 -15  206.28   34.70
  19 -15   4  217.78   27.10
  -4 -19 -15  202.38   24.50
 -19  15   4  181.68   33.70
 -15   4 -19  265.27   39.20
 -19  15  -4  221.68   35.10
  19 -15  -4  236.98   28.90
  -4  19 -15  185.28   34.10
   4 -19 -15  236.68   29.30
  19 -17   4  399.16   37.00
 -17  -4 -19  411.96   41.50
  -4 -19 -17  413.06   34.00
 -19  17   4  450.25   42.90
   4  19 -17  398.06   51.09
  19 -17  -4  350.26   37.60
  -4  19 -17  309.57   51.29
 -19  17  -4  343.07   50.29
 -17   4 -19  367.66   46.00
   4 -19 -17  352.96   38.50
  -5  19   0   94.99   19.90
   0   5 -19  110.99   16.60
  -5 -19   0  121.99   15.70
   5  19   0   98.19   22.10
   5 -19   0  121.09   17.20
  -5  19   2  579.04   51.29
   2   5 -19  580.04   47.20
  -5 -19  -2  580.34   44.40
   5 -19   2  572.84   46.60
   5  19  -2  615.84   55.09
  -5  19  -2  626.34   53.39
  -5 -19   2  621.54   44.50
  -2   5 -19  616.24   48.40
   5 -19  -2  646.64   47.20
   5  19   2  623.24   52.89
  -5  19   4 1392.76   89.89
   5 -19   4 1349.86   86.59
   5  19  -4 1333.77   93.89
   4   5 -19 1309.47   87.29
  -5 -19  -4 1357.26   85.19
  -4   5 -19 1098.89   87.99
   5  19   4 1122.79   89.69
  19  -4  -5 1130.89   83.99
   5 -19  -4 1113.49   86.19
  -5  19  -4 1119.09   92.09
  -5 -19   4 1071.49   84.39
   5 -19   6  440.56   38.50
  19  -6   5  404.36   34.50
   5  19  -6  413.16   49.20
  -5 -19  -6  416.26   35.80
  -5  19   6  430.16   39.30
  19  -6  -5  499.55   35.50
  -6   5 -19  495.35   41.60
   5 -19  -6  525.65   38.90
  -5 -19   6  532.55   36.10
  -5  19  -6  489.35   48.70
  -5 -19  -8 2144.99  136.59
   5  19  -8 1922.41  144.59
   5 -19   8 1933.41  137.49
  19  -8   5 1958.00  136.09
   5 -19  -8 2083.79  137.99
  19  -8  -5 1939.21  136.39
  -8   5 -19 2044.90  140.79
  -5  19  -8 1854.21  144.19
 -19   8  -5 1916.01  143.99
  19 -10   5   77.89   13.60
 -19  10   5   59.29   20.80
   5 -19  10   52.19   15.20
   5  19 -10   55.19   27.90
 -10  -5 -19   60.69   12.90
  -5 -19 -10   67.09   12.90
 -10   5 -19   71.59   19.70
 -19  10  -5   38.50   22.90
  19 -10  -5   88.89   14.30
  -5  19 -10   64.09   26.60
   5 -19 -10   76.59   17.40
 -19  12   5  156.78   24.30
  -5 -19 -12  145.19   20.10
   5 -19  12  118.19   18.70
   5  19 -12  158.68   33.50
 -12  -5 -19  144.09   23.40
  19 -12   5  155.08   21.20
   5 -19 -12  156.28   25.70
  -5  19 -12  101.09   29.60
  19 -12  -5  129.59   22.30
 -12   5 -19  119.29   23.20
 -19  12  -5  105.89   27.80
 -14  -5 -19  149.29   27.10
   5  19 -14  166.68   33.20
  -5 -19 -14  155.08   21.40
  19 -14   5  155.18   24.10
 -19  14   5  145.69   24.10
 -14   5 -19  187.48   30.30
   5 -19 -14  169.78   27.80
 -19  14  -5  167.68   32.50
  19 -14  -5  171.08   25.60
  -5  19 -14  131.39   33.40
  -5 -19 -16  520.35   39.20
  19 -16   5  497.65   41.50
 -19  16   5  432.16   42.50
   5  19 -16  487.45   55.09
 -16  -5 -19  469.15   44.60
 -16   5 -19  501.85   51.59
  19 -16  -5  461.95   42.50
 -19  16  -5  447.16   54.79
   5 -19 -16  472.55   43.60
  -5  19 -16  446.96   57.09
   5  19 -18    1.90   24.10
  19 -18   5    1.20   16.10
 -18  -5 -19   18.30   18.30
  -5 -19 -18   10.90   12.70
 -18   5 -19   26.50   25.20
   5 -19 -18   31.80   19.80
  19 -18  -5   25.90   16.50
 -19  18  -5   46.60   28.30
  -5  19 -18   24.40   28.30
  -6 -19  -1   15.60    8.80
  -6  19   1    9.20   17.20
   1   6 -19   16.50   12.40
   6 -19   1   19.70   13.10
   6  19  -1   18.60   19.20
  -6  19  -1   11.00   18.30
  -6 -19   1    9.60    8.70
   6  19   1   -0.30   17.10
  -1   6 -19   12.10   13.30
   6 -19  -1    8.50   13.70
   6  19  -3  726.33   66.39
   3   6 -19  770.82   60.29
  -6 -19  -3  744.03   56.59
   6 -19   3  768.42   58.99
  -6  19   3  767.62   62.49
  -3   6 -19  810.92   61.49
  -6 -19   3  809.62   56.59
  -6  19  -3  854.01   66.19
   6 -19  -3  841.52   59.39
   6  19   3  869.71   64.59
   6 -19   5  445.86   39.20
   5   6 -19  455.25   39.90
  -6 -19  -5  446.86   35.90
   6  19  -5  423.36   49.40
  -6  19   5  428.06   41.10
  -5   6 -19  489.85   42.70
   6 -19  -5  527.55   39.80
  19  -5  -6  493.05   35.70
  -6 -19   5  504.55   36.20
  -6  19  -5  500.45   48.90
   6  19  -7  567.24   61.39
   6 -19   7  626.34   52.69
  19  -7   6  636.44   49.90
  -6 -19  -7  617.04   50.19
  -6  19  -7  725.33   62.79
   6 -19  -7  815.72   53.89
  -7   6 -19  754.52   57.09
  19  -7  -6  801.12   50.99
   6  19  -9  229.78   43.30
  -6 -19  -9  273.37   25.60
 -19   9   6  267.57   35.30
   6 -19   9  268.77   29.50
  19  -9   6  285.37   26.20
  -6  19  -9  395.26   44.40
 -19   9  -6  392.96   43.90
 -19  11   6    8.10   18.00
   6  19 -11   -9.00   22.00
   6 -19  11   -6.10   14.10
  -6 -19 -11    9.80   10.60
 -11  -6 -19    0.20   14.00
  19 -11   6   -0.10   11.70
  19 -11  -6   -5.80   11.80
   6 -19 -11   15.90   14.40
  -6  19 -11    2.70   23.80
 -19  11  -6   14.50   25.30
 -11   6 -19   10.30   20.50
 -13  -6 -19   42.80   15.30
 -19  13   6   30.80   17.60
  19 -13   6   52.09   15.40
   6  19 -13   38.70   28.30
  -6 -19 -13   57.79   12.70
  -6  19 -13   28.10   29.70
 -19  13  -6   17.00   26.00
  19 -13  -6   41.00   14.60
   6 -19 -13   32.50   16.40
 -13   6 -19   31.80   23.00
   6  19 -15  124.69   31.80
 -15  -6 -19  117.29   20.40
  -6 -19 -15  121.29   19.60
  19 -15   6  127.69   18.20
   6 -19 -15  124.29   21.80
  -6  19 -15  120.39   32.90
 -19  15  -6   60.39   26.20
 -15   6 -19  128.29   27.00
  19 -15  -6  108.09   18.50
  19 -17   6  151.18   25.80
 -17  -6 -19  157.08   27.20
   6  19 -17  154.28   30.90
 -19  17  -6  120.29   31.30
 -17   6 -19   96.19   27.90
  -6  19 -17   94.59   29.80
  19 -17  -6   81.49   18.80
   6 -19 -17   70.19   19.50
   7 -19   0   83.79   15.40
  -7 -19   0   84.39   10.80
   0   7 -19   75.09   16.60
  -7  19   0   91.59   19.90
   7  19   0   69.49   22.40
   7 -19   2  505.85   41.30
   2   7 -19  517.45   43.30
  -7 -19  -2  513.95   37.80
   7  19  -2  503.65   50.29
  -7  19   2  517.45   46.20
  -7 -19   2  503.65   37.70
  -2   7 -19  511.45   44.20
   7 -19  -2  493.65   41.50
  -7  19  -2  537.15   48.70
  -7 -19  -4 2712.93  176.38
   7 -19   4 2700.63  178.08
   7  19  -4 2637.84  183.48
  -7  19   4 2685.53  180.48
   4   7 -19 2720.53  179.88
  -7  19  -4 2534.65  182.78
  -4   7 -19 2486.05  180.48
  -7 -19   4 2451.25  176.18
   7 -19  -4 2517.05  177.98
  19  -4  -7 2403.56  176.18
   7 -19   6  643.44   53.59
   6   7 -19  651.53   54.79
   7  19  -6  557.74   61.69
  -7 -19  -6  627.44   50.19
  19  -6  -7  772.02   51.09
   7 -19  -6  780.82   54.09
  -6   7 -19  817.72   58.39
  -7  19  -6  733.63   62.59
   7  19  -8 2578.24  184.98
   7 -19   8 2735.53  178.78
  19  -8   7 2692.43  177.18
  -7 -19  -8 2669.03  176.88
 -19   8  -7 2470.35  184.78
  -7  19  -8 2330.27  184.28
   7 -19  -8 2652.53  178.88
  -8   7 -19 2580.54  181.98
  19  -8  -7 2553.34  177.38
  19 -10   7  574.14   42.50
   7  19 -10  534.85   56.59
   7 -19  10  518.15   45.00
 -19  10   7  585.44   48.80
  -7 -19 -10  576.24   41.40
 -19  10  -7  460.35   55.89
  -7  19 -10  499.55   57.19
   7 -19 -10  571.04   45.80
  19 -10  -7  547.75   43.40
 -10   7 -19  569.24   51.69
  -7 -19 -12   27.20   11.00
  19 -12   7   30.30   13.40
   7  19 -12   22.80   27.00
   7 -19  12   39.10   16.60
 -19  12   7   32.50   13.50
 -12   7 -19   79.39   22.50
  -7  19 -12   51.49   30.30
  19 -12  -7   67.39   15.60
   7 -19 -12   57.69   17.90
 -19  12  -7   53.59   27.30
  19 -14   7  145.99   20.30
   7  19 -14  132.19   34.50
  -7 -19 -14  114.19   19.30
 -14  -7 -19  121.89   20.10
   7 -19 -14  164.78   23.40
  -7  19 -14  166.48   36.40
 -14   7 -19  215.68   31.10
 -19  14  -7  125.29   32.50
  19 -14  -7  163.08   25.80
  19 -16   7  996.60   68.59
  -7 -19 -16  964.00   66.09
 -16  -7 -19  944.71   70.79
   7  19 -16  917.51   79.79
 -16   7 -19  926.91   77.39
 -19  16  -7  825.12   80.29
  -7  19 -16  851.61   81.89
  19 -16  -7  890.41   69.09
   7 -19 -16  843.92   70.39
 -18  -7 -19  203.88   28.80
   7  19 -18  202.98   32.50
  -7 -19 -18  204.68   21.20
  19 -18   7  202.08   28.00
 -19  18  -7  144.29   32.60
 -18   7 -19  168.28   32.50
  19 -18  -7  105.09   21.60
   7 -19 -18  152.08   25.60
  -7  19 -18  129.29   32.10
  18  -7 -19  139.99   22.10
  -8 -19  -1 1191.18   83.09
   1   8 -19 1185.18   88.39
   8  19  -1 1220.88   92.49
   8 -19   1 1252.47   86.09
  -8  19   1 1255.17   90.49
  -1   8 -19 1187.68   88.59
   8 -19  -1 1213.18   86.09
  -8 -19   1 1130.09   83.09
  -8  19  -1 1202.38   91.09
   3   8 -19  345.07   35.00
  -8 -19  -3  362.66   26.90
   8 -19   3  366.16   32.80
   8  19  -3  350.86   42.10
  -8  19   3  372.86   36.50
   8 -19  -3  346.57   32.50
  -3   8 -19  350.56   36.70
  -8 -19   3  322.57   26.90
  19  -3  -8  330.07   26.50
  -8  19  -3  317.37   41.10
  -8 -19  -5 1979.90  135.09
   8 -19   5 1981.10  137.29
   8  19  -5 1870.31  143.39
  -8  19   5 2003.20  139.29
   5   8 -19 1990.30  139.59
   8 -19  -5 2052.19  137.59
  -8  19  -5 1923.21  143.09
  19  -5  -8 1953.40  135.69
  -5   8 -19 2003.00  140.79
   7   8 -19 2737.33  183.18
   8 -19   7 2688.83  180.68
  -8 -19  -7 2727.43  178.68
   8  19  -7 2553.44  186.78
  -8  19  -7 2379.76  185.98
 -19   7  -8 2558.74  186.88
   8 -19  -7 2726.03  180.88
  -7   8 -19 2630.44  184.38
  19  -7  -8 2542.15  179.38
   8  19  -9   80.89   26.80
  19  -9   8  126.59   19.30
 -19   9   8  137.19   21.00
   8 -19   9  160.58   21.70
  -8 -19  -9  119.99   16.20
  -9   8 -19  221.08   33.20
 -19   9  -8  223.88   33.00
  -8  19  -9  142.89   28.00
  -8 -19 -11  801.32   53.29
  19 -11   8  794.22   55.29
   8 -19  11  802.62   57.29
   8  19 -11  776.92   69.29
   8 -19 -11  679.63   57.39
 -11   8 -19  709.33   63.99
  -8  19 -11  619.04   67.29
 -19  11  -8  643.74   68.19
  19 -11  -8  715.63   55.59
   8  19 -13   97.39   31.10
   8 -19  13  100.69   20.70
  19 -13   8  130.59   22.20
  -8 -19 -13  124.69   17.30
 -19  13  -8  127.39   29.90
   8 -19 -13  184.88   27.50
  -8  19 -13  205.18   36.00
  -8 -19 -15  252.67   23.70
  19 -15   8  265.17   29.30
   8  19 -15  218.28   35.80
 -19  15  -8  178.78   33.40
   8 -19 -15  277.87   33.80
 -15   8 -19  275.37   43.90
  -8  19 -15  173.58   35.10
  19 -15  -8  299.67   31.10
  19 -17   8  366.46   34.70
  -8 -19 -17  347.97   29.20
   8  19 -17  357.26   48.60
 -17   8 -19  326.87   46.80
  17  -8 -19  318.97   35.50
  19 -17  -8  303.97   36.30
  -8  19 -17  306.27   52.79
 -19  17  -8  354.16   51.89
   8 -19 -17  326.77   37.90
   0   9 -19    4.50   15.30
  19   0  -9    3.70    2.00
   9 -19   0    2.90   13.00
  -9 -19   0    5.50    8.70
  -9  19   0    0.50   17.40
  -9  19   2  620.84   53.29
   9 -19   2  619.34   48.60
   2   9 -19  608.44   51.99
   9  19  -2  581.94   56.29
  -9  19  -2  616.14   55.59
  -2   9 -19  630.34   52.89
   9 -19  -2  635.44   49.10
  -9  19   4  374.36   38.10
   9  19  -4  372.36   45.60
   4   9 -19  368.46   38.40
   9 -19   4  370.26   35.00
  -9  19  -4  397.96   44.90
   9 -19  -4  391.26   36.10
  -4   9 -19  415.06   40.40
  19  -4  -9  395.96   30.70
   6   9 -19  297.37   41.50
  -9  19  -6  388.76   46.70
   9 -19  -6  461.45   37.20
  19  -6  -9  428.56   32.70
  -6   9 -19  417.46   42.00
 -19   6  -9  338.87   47.30
   9  19  -8  125.39   30.00
   9 -19   8  134.59   19.70
 -19   8   9   84.79   16.20
 -19   8  -9  175.88   28.90
  -9  19  -8  137.29   26.90
   9  19 -10  441.76   50.79
   9 -19  10  427.16   35.90
 -10   9 -19  357.76   44.70
   9 -19 -10  372.26   37.50
 -19  10  -9  348.27   50.89
  -9  19 -10  321.37   50.09
  19 -10  -9  356.16   33.60
   9 -19  12  146.59   22.40
   9  19 -12   90.59   28.70
  19 -12   9  150.88   22.50
 -12   9 -19  109.99   25.60
  19 -12  -9  144.29   23.50
 -19  12  -9  135.19   33.60
  -9  19 -12   87.59   28.40
   9 -19 -12  131.69   21.00
   9  19 -14  194.18   32.30
   9 -19 -14  113.79   20.40
  19 -14  -9  131.49   19.40
 -19  14  -9  126.79   34.50
 -14   9 -19  129.19   28.50
  -9  19 -14   95.39   31.70
  19 -16   9   19.60   14.60
   9  19 -16    8.80   27.00
  16  -9 -19   -1.00   16.00
  19 -16  -9    8.30   18.30
   9 -19 -16    1.80   18.30
 -16   9 -19   -8.10   24.00
  -9  19 -16   -9.10   26.50
 -19  16  -9  -11.30   30.20
  19 -18   9  127.89   20.20
 -19  18  -9  119.29   33.00
  19 -18  -9  109.99   22.20
   9 -19 -18   58.19   21.50
  18  -9 -19   83.79   19.40
  -9  19 -18  100.39   33.10
 -18   9 -19   87.09   27.90
 -10  19   1  143.19   25.00
   1  10 -19  159.08   24.10
  10 -19   1  140.19   24.40
 -10  19  -1  135.49   24.10
  10 -19  -1  145.79   23.80
  -1  10 -19  168.38   25.00
 -10  19   3  572.54   49.60
  10 -19   3  549.85   45.80
   3  10 -19  582.44   50.09
  10 -19  -3  548.35   45.70
  19  -3 -10  560.54   41.50
 -10  19  -3  553.94   53.89
  -3  10 -19  575.04   50.49
   5  10 -19   50.89   18.40
  10 -19   5   49.80   15.30
  10  19  -5   44.80   23.10
 -10  19   5   54.89   16.10
 -19   5 -10   47.80   23.20
  -5  10 -19   49.00   19.60
 -10  19  -5   47.50   22.80
  10 -19  -5   72.69   17.70
  10 -19   7  578.44   45.40
   7  10 -19  545.15   48.90
  10  19  -7  530.95   56.99
 -10  19  -7  536.45   56.59
 -19   7 -10  518.95   56.69
  -7  10 -19  513.55   51.59
  19  -7 -10  553.34   42.40
  10 -19  -7  560.14   45.80
  10 -19   9  425.76   35.00
  10  19  -9  401.56   49.60
 -19   9 -10  311.57   48.70
 -10  19  -9  342.67   49.70
  -9  10 -19  359.46   43.60
  19  -9 -10  345.57   32.80
  10 -19  -9  332.87   35.50
  10 -19  11   28.80   18.40
  10  19 -11   15.30   23.60
  19 -11 -10   13.00   13.10
 -11  10 -19   24.40   24.70
 -10  19 -11   18.50   27.10
 -19  11 -10   10.90   29.30
  10 -19 -11   16.10   15.80
  10  19 -13    2.90   22.90
 -13  10 -19   19.40   22.30
 -10  19 -13    1.80   29.90
  19 -13 -10   12.00   15.60
  10 -19 -13    9.20   17.00
 -19  13 -10   12.10   25.60
  19 -15  10  288.47   33.20
  10 -19 -15  357.86   38.80
  15 -10 -19  306.67   37.00
 -10  19 -15  372.66   54.39
 -19  15 -10  350.86   51.09
 -15  10 -19  336.37   47.90
  19 -15 -10  360.56   35.70
  17 -10 -19   99.09   20.80
 -19  17 -10   91.59   30.20
  19 -17 -10   72.29   18.20
 -10  19 -17  159.38   37.40
  10 -19 -17   80.59   20.90
 -17  10 -19   85.39   26.50
   0  11 -19  311.67   36.60
 -11  19   0  276.37   37.30
  11 -19   0  234.88   29.40
 -11  19   2   57.99   18.90
  11 -19   2   57.09   17.70
   2  11 -19   77.89   19.70
  11 -19  -2   79.19   17.70
 -11  19  -2   74.09   21.60
  -2  11 -19   46.80   19.30
 -11  19   4  658.13   53.99
  11 -19   4  672.53   51.19
   4  11 -19  672.23   56.19
 -11  19  -4  570.34   59.39
  19  -4 -11  622.14   47.60
  -4  11 -19  623.74   56.89
  11 -19  -4  657.93   50.99
   6  11 -19   15.90   18.40
 -11  19   6    1.80    2.60
  11 -19   6   -4.60   14.30
  19  -6 -11    4.20   10.80
 -19   6 -11   10.50   25.70
  11 -19  -6    6.80   14.50
  -6  11 -19   18.70   22.00
 -11  19  -6   11.80   22.30
  11 -19   8  812.42   57.79
   8  11 -19  822.92   62.19
  11 -19  -8  732.53   57.99
  19  -8 -11  711.43   55.29
 -11  19  -8  620.94   67.19
  -8  11 -19  741.93   64.59
 -19   8 -11  706.93   68.79
  11 -19  10   26.50   17.00
 -11  19 -10   14.20   27.50
 -19  10 -11   16.90   25.60
 -10  11 -19    1.90   21.90
  19 -10 -11   14.30   14.80
  11 -19 -10   11.80   19.00
  11 -19  12  379.96   35.80
 -11  19 -12  314.97   51.59
  11 -19 -12  315.37   36.60
 -12  11 -19  309.97   46.00
 -19  12 -11  308.67   50.89
  19 -12 -11  321.07   33.40
  11 -19 -14    0.00   19.50
 -11  19 -14    6.10   30.90
 -19  14 -11    9.40   27.00
  19 -14 -11   -0.40   16.70
 -14  11 -19   -7.60   25.60
  11 -19 -16  132.69   25.90
  16 -11 -19  108.89   22.10
 -11  19 -16  141.49   37.40
 -16  11 -19  136.79   32.30
  19 -16 -11  124.69   22.40
 -19  16 -11  151.18   37.00
 -11  19 -18   18.70   29.80
 -18  11 -19   16.10   27.80
  19 -18 -11   13.70   16.20
  18 -11 -19    1.30   17.90
  11 -19 -18   -4.10   21.60
 -19  18 -11   12.80   30.30
  12 -19   1  187.88   27.00
 -12  19   1  161.08   27.00
   1  12 -19  183.18   28.80
  -1  12 -19  245.38   35.60
  12 -19  -1  262.27   28.60
 -12  19  -1  238.18   37.50
   3  12 -19   25.60   19.80
 -12  19   3   33.40   19.30
  12 -19   3   48.80   17.30
 -12  19  -3   40.80   24.70
  19  -3 -12   41.90   11.20
  -3  12 -19   41.80   22.10
  12 -19  -3   44.60   17.10
  12 -19   5  142.09   25.10
   5  12 -19  162.08   25.30
  12 -19  -5  150.18   22.30
  19  -5 -12  137.29   19.60
 -12  19  -5   90.79   26.40
  -5  12 -19  105.09   23.60
 -19   5 -12  127.69   28.20
   7  12 -19   27.80   20.30
  12 -19   7   22.70   15.20
 -12  19  -7   50.19   27.50
 -19   7 -12   74.29   28.90
  19  -7 -12   59.29   13.50
  12 -19  -7   42.30   16.60
  -7  12 -19   67.59   24.80
  12 -19   9  128.19   21.00
 -12  19  -9  100.89   29.20
  19  -9 -12  145.29   23.50
  -9  12 -19  134.29   27.20
  12 -19  -9  156.08   22.60
 -19   9 -12  124.59   31.90
  12 -19  11  369.56   36.30
  12 -19 -11  358.06   38.00
  19 -11 -12  342.47   34.10
 -11  12 -19  359.76   47.50
 -12  19 -11  303.87   53.19
 -19  11 -12  320.47   51.99
 -19  13 -12   13.10   24.70
 -12  19 -13    2.20   30.00
  12 -19 -13   35.30   20.90
  13 -12 -19    8.70   19.30
 -13  12 -19   34.90   28.10
  19 -13 -12   23.60   16.60
 -12  19 -15   34.40   26.20
  19 -15 -12   62.69   18.60
  15 -12 -19   67.49   22.00
 -19  15 -12   64.49   33.60
  12 -19 -15   34.90   19.90
 -15  12 -19   42.60   25.90
 -12  19 -17   15.20   31.80
 -17  12 -19    7.50   25.80
  17 -12 -19   -1.00   18.50
 -19  17 -12   -1.90   26.00
  19 -17 -12    0.30   17.90
  12 -19 -17    7.30   18.30
  13 -19   0   54.29   17.40
 -13  19   0   50.59   22.80
   0  13 -19   25.50   21.60
  13 -19   2  343.67   36.60
 -13  19   2  330.47   42.50
   2  13 -19  333.67   44.50
  13 -19  -2  436.86   38.20
  -2  13 -19  409.56   45.60
  19  -2 -13  460.65   31.90
 -13  19  -2  394.06   46.20
  13 -19  -4  170.48   28.40
 -19   4 -13  140.19   30.30
  19  -4 -13  160.08   21.60
 -13  19  -4  164.58   31.90
  -4  13 -19  217.28   31.50
   6  13 -19   43.00   21.00
  13 -19   6   32.20   15.30
  13 -19  -6   36.00   19.50
 -13  19  -6   16.20   25.10
  -6  13 -19   26.90   22.00
 -19   6 -13   29.40   26.10
  19  -6 -13   38.10   13.10
   8  13 -19  104.39   25.00
  -8  13 -19  150.78   28.30
 -19   8 -13  129.49   29.10
  19  -8 -13  198.78   24.20
  13 -19  -8  184.08   29.40
 -13  19  -8  153.18   31.00
  13 -19  10    7.50   18.40
 -19  10 -13    0.30   28.10
  13 -19 -10   -0.70   18.00
 -10  13 -19   11.60   26.50
  19 -10 -13   15.10   16.00
 -13  19 -10    9.90   28.00
  13 -19  12   25.60   17.30
  12 -13 -19    7.40   17.80
  13 -19 -12   17.60   17.40
 -19  12 -13    6.20   29.30
 -12  13 -19   19.90   25.60
 -13  19 -12   22.80   32.40
  19 -12 -13   16.20   15.20
 -19  14 -13  146.39   32.40
  14 -13 -19  196.78   33.10
 -14  13 -19  125.29   28.20
  19 -14 -13  133.19   20.90
 -13  19 -14  176.88   35.80
  13 -19 -14  184.28   32.20
 -13  19 -16   67.89   28.80
 -16  13 -19   67.09   28.90
 -19  16 -13   59.19   31.10
  19 -16 -13   84.39   20.50
  16 -13 -19   57.19   20.50
  13 -19 -16   68.89   23.20
  13 -19 -18   14.00   20.60
  19 -18 -13   16.20   17.80
 -18  13 -19    0.30   26.30
 -19  18 -13   14.60   29.60
  18 -13 -19   -1.60   15.80
 -13  19 -18    4.20   29.10
 -14  19   1  239.28   36.20
  14 -19   1  220.18   28.50
   1  14 -19  228.88   37.70
 -19   1 -14  223.88   33.00
  -1  14 -19  224.18   38.40
 -14  19  -1  223.28   38.90
  14 -19  -1  190.08   29.00
 -14  19   3  116.99   22.90
   3  14 -19  130.69   26.50
  14 -19   3  143.29   21.30
 -14  19  -3   89.99   29.10
  19  -3 -14  117.49   16.10
 -19   3 -14  102.99   27.10
  -3  14 -19   76.69   23.20
  14 -19  -3  122.69   20.90
  14 -19   5  179.68   27.50
   5  14 -19  205.38   30.80
  14 -19  -5  182.78   29.30
 -19   5 -14  134.89   31.00
  -5  14 -19  151.48   28.80
  19  -5 -14  179.58   23.10
 -14  19  -5  134.29   31.20
  14 -19   7  109.79   20.80
   7  14 -19  127.89   26.80
 -14  19  -7  112.99   28.70
  14 -19  -7  115.39   20.40
  -7  14 -19  157.28   30.60
  19  -7 -14  161.98   23.30
 -19   7 -14  166.38   33.40
  14 -19   9  217.08   28.80
 -14  19  -9  152.38   36.60
  14 -19  -9  133.39   23.80
  19  -9 -14  156.18   20.20
  -9  14 -19  125.39   30.90
 -19   9 -14   84.19   28.10
  14 -19  11    1.30   16.80
  11 -14 -19   -5.10   17.90
 -11  14 -19    4.10   25.80
  14 -19 -11    2.80   18.70
 -19  11 -14   -3.80   27.60
 -14  19 -11    0.60   27.20
  19 -11 -14   -5.20   15.70
 -14  19 -13  142.79   32.50
  13 -14 -19  112.39   22.50
  19 -13 -14  178.28   27.50
 -13  14 -19  163.18   32.50
 -19  13 -14  202.88   37.10
  14 -19 -13  151.78   24.20
 -14  19 -15   68.39   32.80
  14 -19 -15   54.39   21.50
  15 -14 -19   49.10   21.10
 -19  15 -14   69.79   32.80
  19 -15 -14   57.29   19.10
 -15  14 -19   28.50   24.50
 -19  17 -14   -5.30   25.90
  19 -17 -14   -4.30   16.70
  14 -19 -17    0.80   21.10
 -17  14 -19   11.20   26.30
  17 -14 -19    1.30   17.90
 -14  19 -17   -0.50   27.90
 -15  19   0  141.29   27.30
   0  15 -19   96.89   25.10
 -19   0 -15  108.79   26.70
  15 -19   0  127.09   20.60
   2  15 -19   39.40   22.10
 -15  19   2   58.19   21.60
  19  -2 -15   16.30   11.30
  15 -19  -2    4.90   18.20
  -2  15 -19   15.00   24.90
 -19   2 -15    0.30   20.70
 -15  19  -2    9.50   22.30
   4  15 -19  250.77   39.30
  15 -19   4  211.38   29.50
 -15  19   4  226.68   33.20
 -19   4 -15  238.88   42.90
  19  -4 -15  233.28   26.20
  -4  15 -19  227.98   41.30
 -15  19  -4  240.68   43.50
  15 -19  -4  226.88   31.40
   6  15 -19  169.58   30.40
  15 -19   6   89.49   18.90
  15 -19  -6  129.39   21.80
  19  -6 -15  132.89   18.50
 -15  19  -6  157.08   34.40
  -6  15 -19  134.09   30.80
 -19   6 -15  124.39   30.40
  -8 -15 -19  230.28   24.60
  15 -19   8  239.48   30.70
   8  15 -19  256.17   39.70
 -19   8 -15  263.87   45.40
  15 -19  -8  231.58   32.90
  -8  15 -19  261.07   44.70
  19  -8 -15  256.57   29.20
 -15  19  -8  266.07   39.40
  15 -19  10  280.87   34.10
 -10 -15 -19  314.37   28.20
 -15  19 -10  353.46   53.59
  15 -19 -10  333.47   36.60
 -19  10 -15  273.87   49.10
 -10  15 -19  323.37   49.10
  10 -15 -19  318.97   39.30
  19 -10 -15  309.97   32.90
  19 -12 -15   47.20   18.20
  12 -15 -19   44.30   19.80
 -19  12 -15   53.09   28.90
 -12  15 -19   95.59   31.70
 -15  19 -12   68.69   33.40
  15 -19 -12   56.39   22.10
  14 -15 -19   29.90   18.40
  19 -14 -15   45.20   17.40
 -19  14 -15   59.59   32.50
 -14  15 -19   43.10   26.90
  15 -19 -14   35.80   17.40
 -15  19 -14   50.69   31.10
 -19  16 -15   62.69   32.80
  15 -19 -16   39.90   21.40
 -15  19 -16   35.60   24.80
 -16  15 -19   53.09   28.80
  19 -16 -15   51.89   18.40
  16 -15 -19   37.20   16.90
   1  16 -19   43.00   25.60
 -16  19   1   46.40   22.70
  16 -19   1   55.69   17.60
 -19  -1 -16   71.49   24.80
 -19   1 -16  130.99   28.30
  16 -19  -1  101.69   18.30
  -1  16 -19  110.29   27.30
 -16  19  -1  125.49   27.60
  16 -19   3  309.47   34.20
 -16  19   3  353.96   40.10
   3  16 -19  361.86   45.70
 -19   3 -16  310.17   44.90
  19  -3 -16  324.87   30.50
 -16  19  -3  305.07   46.90
  -3  16 -19  288.87   46.30
  16 -19  -3  323.97   35.60
   5  16 -19  571.34   52.89
  16 -19   5  522.45   43.10
  16 -19  -5  444.46   43.60
  19  -5 -16  459.45   40.10
 -19   5 -16  426.86   53.29
 -16  19  -5  432.96   55.39
  -5  16 -19  462.15   53.59
   7  16 -19  986.50   76.49
  16 -19   7  930.61   68.59
  -7 -16 -19  922.61   65.79
  16 -19  -7  832.22   69.29
  -7  16 -19  901.31   78.59
 -16  19  -7  868.71   80.19
 -19   7 -16  840.42   78.59
  19  -7 -16  918.01   67.59
  16 -19   9   22.50   17.70
  -9 -16 -19   26.30   10.70
  19  -9 -16   -2.00   15.40
   9 -16 -19    1.20   20.70
  16 -19  -9    3.50   19.10
 -19   9 -16   26.30   25.50
 -16  19  -9    3.00   28.00
  -9  16 -19    7.50   27.40
  16 -19  11  124.59   20.60
 -11  16 -19   76.29   27.20
 -16  19 -11  124.09   34.00
 -19  11 -16  124.19   32.90
  16 -19 -11  110.09   22.60
  11 -16 -19   80.19   22.40
  19 -11 -16  106.09   18.70
 -19  13 -16   52.19   27.40
 -13  16 -19   52.89   26.60
  13 -16 -19   45.70   19.90
 -16  19 -13   68.29   33.30
  16 -19 -13   55.09   19.60
  19 -13 -16   57.89   17.80
  16 -19 -15   37.50   18.80
  15 -16 -19   35.00   19.70
 -15  16 -19   42.10   25.50
 -16  19 -15   36.00   29.00
  19 -15 -16   61.89   17.90
 -19  15 -16   36.80   30.60
 -17  19   0   14.70   22.00
   0 -17 -19   26.30   16.70
 -19   0 -17   22.60   23.20
   0  17 -19   21.10   24.20
  17 -19   0   22.40   17.90
 -19  -2 -17   87.99   24.70
   2  17 -19  112.49   28.00
  -2  17 -19   38.40   27.30
   2 -17 -19   18.70   16.20
 -17  19  -2   37.00   25.80
 -19   2 -17   57.89   25.90
  17 -19  -2   20.20   16.90
  17 -19   4  409.36   38.20
 -19  -4 -17  437.06   44.70
  -4 -17 -19  406.36   34.30
   4  17 -19  461.75   49.40
  -4  17 -19  349.07   50.09
 -17  19  -4  329.77   50.59
  19  -4 -17  355.56   34.70
  17 -19  -4  318.77   38.20
 -19   4 -17  373.26   48.40
  17 -19   6  168.18   27.30
   6  17 -19  179.98   30.00
 -17  19  -6   79.89   28.90
  17 -19  -6   98.69   20.90
  19  -6 -17  123.09   18.80
  -6  17 -19  136.09   33.20
 -19   6 -17   68.59   26.80
   6 -17 -19   87.39   20.50
  -8 -17 -19  328.37   28.50
   8  17 -19  341.17   44.60
  17 -19   8  309.47   35.40
   8 -17 -19  335.27   40.20
 -17  19  -8  336.37   51.69
 -19   8 -17  340.57   48.00
  -8  17 -19  322.17   49.70
  19  -8 -17  331.17   33.90
  17 -19  -8  282.27   36.70
  17 -19 -10   62.59   19.40
 -10  17 -19  115.19   32.80
 -17  19 -10  122.79   35.40
 -19  10 -17  114.29   31.90
  10 -17 -19   50.79   19.40
  19 -10 -17   65.29   17.40
  12 -17 -19    0.30   17.50
 -17  19 -12   17.00   30.10
  17 -19 -12    8.50   17.50
  19 -12 -17   -5.50   15.40
 -19  12 -17    9.70   28.00
 -12  17 -19    6.40   30.30
 -17  19 -14   12.60   30.10
  14 -17 -19    1.20   17.30
 -14  17 -19    3.90   25.50
  19 -14 -17    3.80   17.10
  17 -19 -14    2.90   19.30
 -19  14 -17   -8.80   24.20
 -18  19   1   88.59   24.60
 -19  -1 -18   95.39   25.60
  18 -19   1   93.89   20.50
   1  18 -19   92.59   30.00
  -1 -18 -19   92.59   17.70
  -1  18 -19   87.59   28.70
  18 -19  -1   50.89   17.80
 -18  19  -1  109.29   28.10
   1 -18 -19   94.79   19.40
 -19   1 -18  109.69   27.40
 -19  -3 -18   17.20   20.90
 -18  19   3   28.60   20.60
  -3 -18 -19   33.40   15.70
  18 -19   3   34.10   17.40
   3  18 -19   13.50   22.40
 -18  19  -3   40.70   28.70
  18 -19  -3   70.89   19.20
  -3  18 -19   75.49   29.50
   3 -18 -19   73.89   19.50
 -19   3 -18   49.50   23.50
 -19  -5 -18   -1.40   19.60
  18 -19   5   13.40   16.60
   5  18 -19   16.00   25.40
  -5 -18 -19   12.80   13.20
 -18  19  -5   58.29   30.80
  19  -5 -18   33.80   15.40
  18 -19  -5   23.30   17.50
 -19   5 -18   28.30   23.00
  -5  18 -19   28.20   26.80
   5 -18 -19   27.80   17.80
   7  18 -19  180.38   30.10
 -19  -7 -18  233.88   34.00
  18 -19   7  203.98   29.80
  -7 -18 -19  215.18   21.70
 -19   7 -18  178.68   34.00
 -18  19  -7  155.48   35.40
  -7  18 -19  158.68   35.10
  19  -7 -18  149.59   22.70
 -19  -9 -18  112.59   21.10
  18 -19   9  119.49   19.40
 -18  19  -9   81.49   28.40
  19  -9 -18   65.99   17.40
 -19   9 -18   68.99   24.90
  18 -19  -9   62.59   19.00
  -9  18 -19  128.79   33.60
   9 -18 -19   52.49   19.10
 -11  18 -19    5.90   25.90
 -19  11 -18   18.20   25.60
 -18  19 -11   15.50   31.30
  18 -19 -11    5.00   19.20
  19 -11 -18    3.10   15.30
  11 -18 -19   -6.50   19.60
  19 -13 -18   11.60   16.10
  13 -18 -19   13.30   17.00
  18 -19 -13   14.10   18.70
 -18  19 -13   -2.70   29.30
 -13  18 -19   -7.50   28.00
 -19  13 -18   16.90   24.40
 -19   0 -19   20.10   22.20
 -19  19   0   16.50   23.30
   0 -19 -19   15.90   15.60
   0  19 -19    3.20   24.50
  19 -19   0    6.80   15.20
 -19  -2 -19   84.89   24.00
  19 -19   2   84.19   18.90
  -2 -19 -19   97.99   18.20
 -19  19   2  102.49   24.60
   2  19 -19   78.09   25.90
 -19  19  -2  171.48   29.70
   2 -19 -19  162.48   27.00
  19 -19  -2  163.88   27.80
 -19  -4 -19  484.35   43.00
  19 -19   4  448.76   37.80
 -19  19  -4  363.96   50.69
   4 -19 -19  351.76   38.90
  -4  19 -19  322.87   51.59
  19 -19  -4  322.77   38.60
 -19   4 -19  339.07   46.80
  19  -4 -19  343.97   35.10
 -19  -6 -19   -3.60   17.10
  -6 -19 -19   -1.60   11.80
  19 -19   6    2.90   17.80
   6  19 -19   -5.70   23.40
 -19   6 -19   13.10   23.20
   6 -19 -19    5.30   19.10
  -6  19 -19   18.00   26.80
  19 -19  -6    6.30   18.50
 -19  19  -6   15.50   28.10
  19  -6 -19   20.00   15.70
  19 -19   8  794.72   55.89
   8  19 -19  867.91   66.89
  -8  19 -19  706.93   69.29
   8 -19 -19  652.43   58.59
 -19  19  -8  681.13   70.09
  19 -19  -8  648.34   57.39
 -19   8 -19  675.13   65.89
  19  -8 -19  628.14   54.89
 -19  10 -19  148.59   32.70
 -19  19 -10  123.09   30.50
 -10  19 -19  163.48   35.60
  10 -19 -19  139.49   24.20
  19 -19 -10  118.49   22.40
  19 -10 -19  115.39   20.00
 -19  12 -19  -20.90   24.40
 -19  19 -12   13.00   26.70
 -12  19 -19   31.50   29.40
  12 -19 -19    6.30   21.30
  19 -19 -12   10.40   18.10
  19 -12 -19   15.10   17.10
   0 -20   0   64.39   13.00
   0  20   0  113.19   22.80
   0  20   2  185.78   30.50
   0  20  -2  165.48   27.90
   0 -20   2  195.18   21.90
   0 -20  -2  175.68   21.90
   0  20  -4  147.29   26.90
   0 -20   4  119.89   20.50
   0 -20  -4  155.28   20.50
  -4   0 -20  144.49   18.70
   0  20   4  141.59   21.10
   0 -20   6  291.57   27.50
   0  20  -6  258.47   40.00
   0 -20  -6  281.67   27.40
   0  20   6  277.97   30.30
  -6   0 -20  266.37   25.90
  -8   0 -20  194.38   24.50
   0  20  -8  169.78   30.70
  20  -8   0  212.78   20.20
   0 -20  -8  210.98   24.30
   0 -20   8  215.48   24.70
   0  20 -10   83.19   27.90
 -10   0 -20  102.69   18.90
  20 -10   0  118.39   15.10
 -20  10   0  106.69   26.70
   0 -20  10  126.69   17.20
   0 -20 -10   95.29   16.40
  20 -12   0  134.89   21.60
   0  20 -12  118.79   32.10
 -12   0 -20  158.98   28.20
   0 -20 -12  185.48   24.00
 -20  12   0  156.08   29.80
 -20  14   0   33.80   23.50
  20 -14   0   20.90   13.30
   0 -20 -14   22.00   14.70
   0  20 -14   21.60   25.50
 -14   0 -20   12.80   18.60
 -20  16   0   14.70   21.40
   0 -20 -16   26.90   16.10
 -16   0 -20   20.00   19.70
  20 -16   0   24.40   14.60
   0  20 -16   11.20   24.00
 -18   0 -20  105.69   24.50
 -20  18   0  141.69   29.30
   0  20 -18   96.99   29.20
   0 -20 -18  114.09   19.20
  20 -18   0  124.29   21.00
   1  20  -1  381.76   40.20
  -1  20   1  391.06   39.00
  -1 -20  -1  383.46   29.80
   1 -20   1  361.66   30.20
   1 -20  -1  291.97   30.00
  -1 -20   1  310.17   29.40
   1  20   1  297.37   37.70
  -1  20  -1  282.67   39.20
  -1 -20  -3   47.70   12.50
   1 -20   3   50.39   13.70
   1  20  -3   34.30   19.80
  -1  20   3   61.29   19.10
   1 -20  -3   79.39   13.70
  -3   1 -20   87.69   14.40
  -1 -20   3   79.59   13.70
   1  20   3   68.09   18.00
  -1  20  -3   68.09   21.00
   1 -20   5  501.75   37.00
   1  20  -5  477.95   48.40
  -1 -20  -5  455.95   36.30
  -1  20   5  480.55   41.00
  -1 -20   5  375.96   35.80
   1 -20  -5  431.86   36.90
   1  20   5  418.66   40.90
  -1  20  -5  404.16   47.00
  -5   1 -20  442.66   36.20
   1 -20   7  494.25   41.70
  20  -7   1  509.65   38.80
  -7  -1 -20  476.75   40.80
   1  20  -7  453.95   53.09
  -1 -20  -7  505.75   41.50
  -7   1 -20  561.14   42.70
  -1 -20   7  563.24   41.70
   1 -20  -7  562.44   42.10
  -1  20  -7  526.55   53.39
  20  -7  -1  564.34   39.20
   1  20  -9  299.27   46.50
  -9  -1 -20  340.47   32.40
 -20   9   1  355.76   43.40
  20  -9   1  358.96   29.00
   1 -20   9  373.26   32.40
  -1 -20  -9  347.17   31.40
  -9   1 -20  341.67   34.40
  20  -9  -1  327.17   29.30
  -1 -20   9  359.36   31.60
   1 -20  -9  363.26   32.40
 -20   9  -1  344.97   43.90
  -1  20  -9  340.77   46.80
 -20  11   1   48.10   23.40
  -1 -20 -11   39.00   13.70
  20 -11   1   52.19   12.70
 -11  -1 -20   55.49   16.80
   1  20 -11   44.50   28.60
   1 -20  11   52.29   16.70
  -1  20 -11   68.39   28.50
 -11   1 -20   86.49   18.30
  20 -11  -1   90.89   14.30
   1 -20 -11   89.39   16.40
 -20  11  -1   60.59   24.00
  -1 -20 -13   71.59   14.80
   1  20 -13   56.89   26.10
 -20  13   1   64.79   23.00
 -13  -1 -20  105.39   20.50
  20 -13   1  103.49   16.00
 -20  13  -1   86.59   27.80
 -13   1 -20   72.59   20.60
  20 -13  -1   89.49   16.10
   1 -20 -13   80.99   16.90
  -1  20 -13   43.60   28.90
  20 -15  -1   96.79   16.80
 -20  15  -1  101.29   29.20
 -15   1 -20  116.09   23.20
  -1  20 -15   70.49   27.70
   1 -20 -15   72.89   16.20
   1  20 -17   24.10   25.80
  -1 -20 -17   49.30   16.90
 -20  17   1   56.19   23.40
 -17  -1 -20   31.40   20.10
  20 -17   1   37.00   16.40
  -1  20 -17   83.89   31.50
   1 -20 -17   89.49   18.70
 -17   1 -20   75.69   22.20
 -20  17  -1   77.29   28.10
  20 -17  -1   84.39   18.00
 -20  19   1   48.00   22.30
  -1 -20 -19   43.40   14.70
   1  20 -19   49.30   29.90
  20 -19   1   44.20   17.90
 -19  -1 -20   37.20   21.50
   1 -20 -19   51.19   16.70
  20 -19  -1   54.89   17.10
  -1  20 -19   53.99   25.80
 -20  19  -1   79.49   25.70
 -19   1 -20   67.19   22.80
   0   2 -20  174.48   19.10
   2 -20   0  172.88   22.20
  -2  20   0  191.58   26.30
   2  20   0  168.18   25.20
  -2 -20   0  135.19   19.60
  -2  20  -2  199.68   35.10
   2 -20  -2  210.88   23.50
   2  20   2  201.88   31.60
  -2   2 -20  190.18   20.70
  -2 -20   2  202.58   22.00
  -2 -20  -4  205.58   21.30
  -2  20   4  200.78   28.20
   2  20  -4  190.28   28.60
   2 -20   4  217.18   23.10
  -4   2 -20  149.59   20.80
  -2  20  -4  129.69   25.40
   2  20   4  166.98   28.50
  -2 -20   4  160.18   20.90
   2 -20  -4  150.38   22.80
   2  20  -6  266.27   37.00
   2  20   6  182.08   26.90
  -2 -20   6  202.48   21.80
  20  -6  -2  176.78   16.80
   2 -20  -6  184.68   23.80
  -6   2 -20  183.98   23.60
  -2  20  -6  156.48   28.40
  -2 -20  -8  959.90   65.09
   2  20  -8  884.51   75.19
  -8  -2 -20  934.11   65.19
   2 -20   8  978.70   66.09
  20  -8   2  936.91   63.69
  -2 -20   8  850.31   64.69
  -2  20  -8  774.32   74.79
  -8   2 -20  809.02   67.19
   2 -20  -8  873.21   65.69
   2 -20  10  287.27   30.30
  20 -10   2  288.87   26.80
 -10  -2 -20  255.57   29.10
 -20  10   2  285.47   39.60
   2  20 -10  262.67   44.30
  -2 -20 -10  286.27   28.30
  20 -10  -2  315.07   27.40
 -20  10  -2  306.27   43.10
   2 -20 -10  314.67   30.30
  -2  20 -10  299.67   45.60
 -10   2 -20  334.67   34.40
  -2 -20 -12   10.20   12.20
  20 -12   2    5.60   11.70
 -12  -2 -20    4.20   14.60
 -20  12   2    9.00   22.50
   2  20 -12   13.00   23.70
 -20  12  -2    2.00   21.70
  -2  20 -12   13.10   23.80
  20 -12  -2   11.40   12.90
 -12   2 -20    4.40   17.00
   2 -20 -12    9.80   13.80
  -2 -20 -14  205.28   25.70
 -14  -2 -20  235.38   32.10
 -20  14   2  212.88   38.30
   2  20 -14  171.08   32.50
  20 -14   2  212.98   26.20
  20 -14  -2  246.58   27.30
  -2  20 -14  202.98   37.20
 -14   2 -20  228.88   36.00
 -20  14  -2  246.28   42.80
   2 -20 -14  233.18   28.40
   2  20 -16  114.99   30.40
 -16  -2 -20  138.99   22.90
 -20  16   2  111.19   24.20
   2 -20 -16   49.80   16.00
 -20  16  -2   61.29   25.10
 -16   2 -20   84.89   23.70
  20 -16  -2   82.49   17.40
  -2  20 -16   59.19   32.10
 -18   2 -20   99.49   24.90
   2 -20 -18   60.49   17.00
  20 -18  -2   62.99   17.00
 -20  18  -2   87.09   26.50
  -2  20 -18   98.79   31.70
   3  20  -1   39.80   20.80
  -3 -20  -1   61.19   12.30
   3 -20   1   65.49   15.10
   1   3 -20   46.00   10.80
  -3  20   1   35.40   17.80
  -3  20  -1   98.89   22.70
   3  20   1   68.89   20.10
   3 -20  -1   80.89   14.00
  -1   3 -20   87.19   13.10
  -3 -20   1   67.39   11.70
  -3  20   3   61.59   19.00
  -3 -20  -3   56.39   11.90
   3  20  -3   43.10   20.40
   3 -20   3   43.40   13.10
  -3 -20   3   50.59   12.40
  -3   3 -20   26.30   11.80
   3  20   3   49.20   20.10
  -3  20  -3   56.59   22.60
   3 -20  -3   39.20   13.80
   3 -20   5  176.38   23.80
  -3 -20  -5  171.98   21.10
  -3  20   5  186.48   27.20
   3  20  -5  162.88   28.30
  -3 -20   5  182.48   20.70
  -3  20  -5  202.88   36.00
  -5   3 -20  178.88   23.80
   3 -20  -5  200.08   24.20
   3  20   5  198.38   28.60
   3  20  -7  588.34   62.09
   3 -20   7  634.54   52.09
  -3 -20  -7  664.13   50.79
  20  -7   3  701.93   48.80
  -3 -20   7  714.43   50.79
  20  -7  -3  709.53   49.50
   3 -20  -7  735.93   52.39
  -3  20  -7  648.54   61.69
  -7   3 -20  675.53   53.99
  -3 -20  -9   98.19   14.20
   3  20  -9   70.39   26.50
  -9  -3 -20   84.99   16.90
  20  -9   3   98.59   13.00
 -20   9   3   89.39   23.40
   3 -20   9   87.59   17.20
  -3  20  -9   53.09   27.40
   3 -20  -9   57.99   16.60
 -20   9  -3   47.60   25.20
  -9   3 -20   68.19   18.90
  20  -9  -3   66.59   13.00
  20 -11   3  354.56   31.20
 -11  -3 -20  328.67   33.50
   3 -20  11  336.17   34.40
  -3 -20 -11  341.17   32.00
   3  20 -11  309.87   47.40
 -20  11   3  370.16   43.00
 -20  11  -3  464.45   48.30
  -3  20 -11  448.56   49.20
  -3 -20 -13   91.89   16.30
 -13  -3 -20   91.59   19.20
   3  20 -13   74.89   31.20
  20 -13   3   88.09   16.70
 -20  13   3   68.59   23.10
  20 -13  -3  147.19   22.30
 -20  13  -3  116.19   27.30
 -13   3 -20  145.59   24.60
  -3  20 -13   92.39   27.70
   3 -20 -13  147.79   25.30
 -15  -3 -20   65.39   19.00
  20 -15   3   48.10   15.20
  -3 -20 -15   70.29   15.00
 -20  15   3   47.90   21.00
   3  20 -15   26.00   26.30
   3 -20 -15   30.50   15.60
 -20  15  -3   42.60   28.60
 -15   3 -20   39.30   21.20
  -3  20 -15   42.50   26.70
  20 -15  -3   46.50   15.40
 -17  -3 -20   75.79   20.60
  20 -17   3   59.49   16.60
   3  20 -17   36.00   25.70
 -20  17   3   80.19   23.20
  -3 -20 -17   72.49   15.10
  20 -17  -3   78.39   18.00
 -20  17  -3   57.89   25.00
   3 -20 -17  108.49   20.30
  -3  20 -17   87.59   32.70
 -17   3 -20   73.89   23.20
 -20  19   3  149.49   25.90
  20 -19   3  110.69   20.30
  -3 -20 -19  111.89   17.60
 -19  -3 -20  133.29   24.30
   3  20 -19  114.39   30.60
  -3  20 -19  138.69   31.80
  19  -3 -20  156.68   23.90
 -19   3 -20  169.58   29.00
  20 -19  -3  161.88   28.30
   3 -20 -19  160.48   28.10
 -20  19  -3  183.88   33.70
   4  20   0  186.58   27.40
  -4 -20   0  148.29   18.70
  -4  20   0  152.58   25.00
   4 -20   0  152.38   22.70
   0   4 -20  150.28   20.10
  -4 -20  -2  207.68   20.30
  -4  20   2  208.28   31.60
   4 -20   2  221.78   23.60
   4  20  -2  149.09   26.00
   2   4 -20  212.28   21.60
   4 -20  -2  178.88   24.00
  -2   4 -20  168.18   22.70
  -4 -20   2  151.78   19.90
  -4  20  -2  153.88   25.40
   4  20   2  184.88   32.60
  -4  20   4 2185.68  150.08
   4 -20   4 2146.39  147.19
   4  20  -4 2103.69  153.28
  -4 -20  -4 1834.62  145.79
  -4 -20   4 2087.39  145.99
  -4   4 -20 2175.48  148.59
   4  20   4 2199.38  150.98
   4 -20  -4 2301.47  147.49
  -4  20  -4 2105.29  152.58
   4 -20   6   49.60   15.70
   4  20  -6   17.90   21.60
  -4 -20  -6   47.20   11.50
  -4  20   6   73.89   14.20
  -4 -20   6   51.59   11.80
  -4  20  -6   30.10   21.70
   4 -20  -6   47.20   15.00
  -6   4 -20   47.20   15.00
  -4 -20  -8 2503.85  168.68
  20  -8   4 2220.38  167.88
   4 -20   8 2392.06  169.48
   4 -20  -8 2609.84  169.78
  20  -8  -4 2576.44  168.38
  -4 -20   8 2520.55  168.68
  -8   4 -20 2645.54  172.78
 -20   8  -4 2458.85  176.08
  -4  20  -8 2167.58  175.18
 -20  10   4  157.48   26.00
   4 -20  10  197.78   25.70
   4  20 -10  204.68   33.30
  -4 -20 -10  205.28   22.50
  20 -10   4  181.88   21.60
 -10   4 -20  199.48   32.40
   4 -20 -10  247.78   27.00
  -4  20 -10  132.59   29.90
 -20  10  -4  185.88   31.70
  20 -10  -4  198.38   22.60
 -12  -4 -20   67.19   16.00
   4  20 -12   64.29   29.70
   4 -20  12   70.59   18.60
  20 -12   4   74.89   14.70
 -20  12   4   61.29   23.00
  -4 -20 -12   71.89   14.50
 -12   4 -20  112.79   22.20
 -20  12  -4   93.19   27.30
  -4  20 -12   91.39   28.00
  -4 -20 -14   72.49   14.30
   4  20 -14   65.69   29.40
 -14  -4 -20   89.89   18.90
 -20  14   4   95.29   22.20
  20 -14   4   78.89   15.80
   4 -20 -14   87.59   19.50
  -4  20 -14   84.69   32.40
  20 -14  -4   76.49   16.80
 -20  14  -4   57.09   27.20
 -14   4 -20   54.39   20.90
 -20  16   4  704.13   58.99
   4  20 -16  623.94   65.59
 -16  -4 -20  709.53   56.59
  -4 -20 -16  753.62   59.79
  20 -16   4  705.33   52.59
  20 -16  -4  699.33   53.59
 -16   4 -20  700.73   61.79
   4 -20 -16  548.95   54.09
 -20  16  -4  611.04   64.49
  -4  20 -16  600.64   67.19
 -18  -4 -20   20.50   18.00
  -4 -20 -18   32.50   13.80
  20 -18   4   34.70   16.60
   4  20 -18   39.10   27.80
  20 -18  -4   15.70   16.20
   4 -20 -18   29.10   18.60
 -18   4 -20   18.30   22.00
 -20  18  -4   10.40   27.00
  -4  20 -18   30.80   26.70
   5  20  -1  502.55   48.50
   1   5 -20  496.75   39.00
  -5  20   1  490.25   44.90
   5 -20   1  484.85   39.00
  -5 -20  -1  505.05   36.00
  -5  20  -1  431.56   46.00
   5 -20  -1  457.85   38.90
  -1   5 -20  403.86   38.90
   5  20   1  427.66   46.00
  -5 -20   1  429.66   35.70
   5 -20   3  183.08   24.80
  -5 -20  -3  203.98   20.40
   5  20  -3  216.48   31.60
   3   5 -20  191.88   23.10
  -5  20   3  224.28   30.50
   5  20   3  177.68   32.80
  -3   5 -20  162.48   25.30
  -5 -20   3  191.58   20.00
   5 -20  -3  196.38   25.30
  -5  20  -3  244.28   31.80
   5 -20   5 1692.93  111.59
  -5  20   5 1678.03  113.69
   5  20  -5 1448.66  117.59
  -5 -20  -5 1685.83  109.99
   5 -20  -5 1585.44  111.29
  -5 -20   5 1583.54  109.79
  -5  20  -5 1426.06  116.89
  -5   5 -20 1539.05  113.19
   5  20  -7 1003.30   87.49
   5 -20   7 1031.30   78.59
  -5 -20  -7 1047.70   76.89
   5 -20  -7 1156.08   78.89
  20  -7  -5 1056.09   76.49
  -5  20  -7 1050.19   86.89
  -5 -20   7 1184.68   77.19
  -7   5 -20 1160.48   82.19
  20  -9   5  925.41   61.99
  -5 -20  -9  916.01   62.29
   5  20  -9  877.21   75.39
   5 -20   9  983.90   64.89
 -20   9   5  960.40   70.09
   5 -20  -9  873.31   64.69
 -20   9  -5  747.93   73.49
  -5  20  -9  694.73   73.79
  20  -9  -5  780.02   61.99
  -9   5 -20  766.52   67.69
   5  20 -11  369.46   51.19
   5 -20  11  431.36   37.80
 -20  11   5  409.76   43.80
  20 -11   5  432.66   34.40
  -5 -20 -11  426.06   33.80
   5 -20 -11  404.16   38.30
 -11   5 -20  380.86   43.00
  20 -11  -5  402.36   34.90
  -5  20 -11  351.96   50.49
 -20  11  -5  366.76   50.49
  20 -13   5  333.07   31.40
   5  20 -13  277.47   47.20
  -5 -20 -13  352.36   30.60
 -13  -5 -20  290.27   44.00
 -20  13   5  322.17   39.20
  20 -13  -5  359.86   32.30
  -5  20 -13  282.77   50.39
 -20  13  -5  337.37   49.60
   5 -20 -13  342.67   34.90
 -13   5 -20  341.97   41.90
   5  20 -15  426.36   56.29
  -5 -20 -15  468.95   39.40
  20 -15   5  452.15   41.10
 -15  -5 -20  435.06   43.10
 -20  15   5  475.75   46.70
 -20  15  -5  495.25   56.49
  -5  20 -15  494.95   58.69
   5 -20 -15  543.65   44.00
  20 -15  -5  526.55   42.30
 -15   5 -20  513.25   51.09
   5  20 -17  307.17   48.40
  20 -17   5  301.67   32.70
 -17  -5 -20  294.37   34.70
  -5 -20 -17  291.57   28.90
   5 -20 -17  294.17   34.90
  -5  20 -17  274.77   49.90
 -20  17  -5  342.07   48.80
  20 -17  -5  297.17   33.50
 -17   5 -20  306.57   42.00
  -5 -20 -19  571.94   40.10
  20 -19   5  528.85   43.30
   5  20 -19  536.15   55.79
 -19  -5 -20  561.44   47.30
   5 -20 -19  420.06   44.60
  19  -5 -20  453.25   42.40
  -5  20 -19  459.65   58.19
 -20  19  -5  484.25   56.99
 -19   5 -20  445.86   52.09
  20 -19  -5  422.96   44.20
   0   6 -20  273.27   29.70
  -6  20   0  291.87   36.40
   6 -20   0  286.17   29.10
  -6 -20   0  292.27   24.60
   6  20   0  273.67   38.70
   2   6 -20  289.37   27.50
  -6  20   2  316.77   33.30
   6  20  -2  299.37   40.00
   6 -20   2  286.97   27.10
  -2   6 -20  187.08   27.40
   6 -20  -2  184.58   26.90
  -6  20  -2  221.88   31.50
  -6 -20   2  184.88   21.20
   6  20   2  210.48   30.60
   6 -20   4   31.50   15.30
   4   6 -20   27.30   13.10
   6  20  -4   26.50   24.80
  -6 -20  -4   35.20    9.70
  -6  20   4   32.20   16.70
  -6  20  -4   40.10   23.40
  -4   6 -20   38.80   15.90
   6 -20  -4   47.30   16.10
  -6 -20   4   44.80   10.40
  -6 -20   6  626.94   47.10
  20  -6  -6  630.84   46.70
  -6   6 -20  643.14   53.19
  -6  20  -6  601.84   59.09
   6 -20  -6  680.73   50.49
   6 -20   8   30.60   15.10
   6  20  -8   55.49   27.30
  -6 -20  -8   44.30   10.80
  20  -8   6   45.10   10.50
 -20   8  -6   14.30   26.90
  -8   6 -20    9.80   17.10
  -6  20  -8   17.90   24.10
  20  -8  -6   19.50   10.90
   6 -20  -8   24.80   15.50
   6 -20  10  237.98   29.10
  20 -10   6  190.58   23.60
 -20  10   6  199.78   33.40
  -6 -20 -10  213.38   22.90
   6  20 -10  202.28   36.30
   6 -20 -10  264.17   29.00
  20 -10  -6  250.27   24.70
 -20  10  -6  259.17   43.50
 -10   6 -20  242.58   35.10
  -6  20 -10  222.68   35.60
   6  20 -12   74.79   29.00
 -20  12   6   96.29   21.10
   6 -20  12   68.79   16.70
  -6 -20 -12  106.19   13.90
   6 -20 -12   84.79   19.60
  20 -12  -6   65.39   15.20
  -6  20 -12   59.49   31.10
 -20  12  -6   46.10   27.70
 -12   6 -20   46.70   21.10
  20 -14   6   64.39   15.90
   6  20 -14   31.50   25.80
  -6  20 -14   12.10   27.30
   6 -20 -14   52.79   19.30
 -14   6 -20   21.50   22.90
  20 -14  -6   30.80   14.70
 -20  14  -6   23.60   26.80
  -6 -20 -16   94.89   15.10
   6  20 -16   84.19   30.90
  20 -16   6  104.69   18.80
 -20  16  -6   72.49   31.90
  -6  20 -16   69.89   31.80
  20 -16  -6   77.09   19.80
 -16   6 -20   49.30   25.70
   6 -20 -16   74.59   20.50
   6  20 -18  436.46   52.69
  20 -18   6  386.86   38.90
  -6 -20 -18  402.36   35.00
  20 -18  -6  421.26   40.40
 -18   6 -20  435.26   48.60
 -20  18  -6  482.85   55.39
   6 -20 -18  438.16   41.90
  18  -6 -20  409.26   39.30
   7  20  -1  516.05   52.19
   7 -20   1  500.05   43.30
   1   7 -20  499.65   44.50
  -7  20   1  533.45   48.80
  -7 -20  -1  497.45   39.20
  -1   7 -20  566.74   45.90
   7  20   1  525.35   51.19
  -7 -20   1  569.94   39.30
   7 -20  -1  559.44   43.80
  -7  20  -1  539.45   50.39
   7 -20   3  619.94   51.99
   3   7 -20  618.74   52.99
  -7 -20  -3  636.74   48.30
  -7  20   3  676.33   55.59
   7  20  -3  576.94   59.99
   7 -20  -3  739.13   52.59
  -3   7 -20  788.02   65.29
  -7 -20   3  694.33   48.50
  -7  20  -3  702.73   60.09
   7  20  -5  997.20   86.79
   7 -20   5 1087.69   78.29
   5   7 -20 1030.10   79.29
  -7 -20  -5 1045.20   75.49
  -7  20   5 1053.49   80.09
  -7  20  -5 1073.89   85.79
   7 -20  -5 1182.68   78.89
  -5   7 -20 1140.19   81.69
   7 -20   7 1807.02  120.99
  -7 -20  -7 1888.11  118.99
   7  20  -7 1624.74  128.39
  -7  20  -7 1569.84  127.89
  20  -7  -7 1730.93  119.19
 -20   7  -7 1611.74  128.39
   7 -20  -7 1711.43  120.99
  -7   7 -20 1782.12  124.59
 -20   9   7  183.38   31.10
  -7 -20  -9  179.78   19.90
   7 -20   9  178.28   27.10
  20  -9   7  175.58   21.40
   7  20  -9  151.48   33.80
  20  -9  -7  241.78   22.90
  -9   7 -20  227.98   33.60
 -20   9  -7  198.08   33.10
  -7  20  -9  152.38   30.50
   7 -20  -9  231.08   27.50
  -7 -20 -11  147.49   18.40
  20 -11   7  144.59   20.90
   7 -20  11  191.68   26.30
   7  20 -11  134.49   32.10
 -20  11   7  194.48   28.70
 -20  11  -7  121.69   33.60
 -11   7 -20  125.29   26.70
   7 -20 -11   94.29   19.40
  20 -11  -7  111.49   17.10
  -7  20 -11  108.59   31.70
   7  20 -13  359.06   54.09
  20 -13   7  431.86   37.20
  -7 -20 -13  399.16   34.80
  -7  20 -13  424.46   56.49
 -13   7 -20  462.95   48.10
 -20  13  -7  418.16   55.09
  20 -13  -7  473.15   38.60
   7 -20 -13  463.35   41.50
   7  20 -15  488.25   55.09
  20 -15   7  540.45   39.70
   7 -20 -15  424.26   43.30
 -15   7 -20  445.36   50.79
  -7  20 -15  426.56   58.49
  20 -15  -7  394.66   40.70
 -20  15  -7  400.96   54.29
  20 -17   7  326.47   34.80
  -7 -20 -17  320.47   29.60
   7  20 -17  333.97   48.50
 -20  17  -7  377.36   51.89
 -17   7 -20  336.17   46.20
  -7  20 -17  360.96   52.89
  20 -17  -7  355.66   36.60
  -7 -20 -19  523.25   46.10
   7  20 -19  490.45   57.59
  20 -19   7  484.95   47.80
   7 -20 -19  613.44   51.79
 -19   7 -20  604.74   57.89
 -20  19  -7  682.23   64.29
  19  -7 -20  639.84   49.40
  20 -19  -7  619.34   50.09
  -7  20 -19  713.93   64.49
  -8  20   0  198.98   34.00
   8 -20   0  198.58   26.50
  -8 -20   0  202.08   18.40
   0   8 -20  212.88   30.20
   2   8 -20  961.00   69.09
   8 -20   2  926.31   66.29
  -8  20   2  939.31   70.69
  -8 -20  -2  925.51   62.39
   8  20  -2  860.51   73.69
  -8  20  -2  855.71   72.49
  -8 -20   2  836.62   62.39
   8 -20  -2  879.81   66.29
  -2   8 -20  813.02   68.49
   8 -20   4 2450.55  170.18
   4   8 -20 2542.85  172.58
  -8 -20  -4 2445.96  167.98
  -8  20   4 2403.36  172.58
   8  20  -4 2189.08  175.48
  -4   8 -20 2585.94  173.28
  -8  20  -4 2458.55  175.58
   8 -20  -4 2604.04  170.48
   8 -20   6   51.79   15.40
   6   8 -20   53.39   17.10
   8  20  -6   26.00   25.00
  20  -6  -8   16.80    9.90
  -6   8 -20   13.60   17.10
  -8  20  -6   11.30   24.80
   8 -20  -6   17.10   16.30
  -8 -20  -8 1736.33  119.79
   8 -20   8 1770.12  122.49
 -20   8   8 1698.33  124.99
   8  20  -8 1500.55  129.79
  20  -8  -8 1832.22  120.89
   8 -20  -8 1915.91  122.89
  -8  20  -8 1637.34  129.59
 -20   8  -8 1662.43  129.89
  -8   8 -20 1860.51  127.19
  20 -10   8  316.27   29.40
   8  20 -10  290.47   48.30
   8 -20  10  329.17   33.80
  -8 -20 -10  306.97   26.60
 -20  10  -8  284.27   47.20
   8 -20 -10  329.87   34.20
 -10   8 -20  351.76   41.20
  20 -10  -8  340.97   30.00
  -8  20 -10  318.77   49.90
   8  20 -12   86.29   30.60
   8 -20  12  110.39   20.30
  -8 -20 -12  106.79   15.80
  20 -12   8   98.69   15.70
  -8  20 -12   68.79   32.10
   8 -20 -12   87.49   21.00
 -20  12  -8   37.00   26.70
  20 -12  -8   95.39   17.70
 -12   8 -20  102.09   26.10
  -8 -20 -14  104.69   14.50
  20 -14   8   90.79   16.90
   8  20 -14   37.60   26.60
 -14   8 -20  105.99   28.70
 -20  14  -8   65.89   28.50
   8 -20 -14  129.19   22.40
  20 -14  -8  136.19   19.00
  -8  20 -14  118.99   35.30
   8  20 -16  810.22   70.09
  20 -16   8  766.02   56.89
 -20  16  -8  753.52   71.49
 -16   8 -20  672.23   65.99
  -8  20 -16  743.43   73.39
   8 -20 -16  691.23   59.79
  20 -16  -8  697.03   57.69
  20 -18   8  191.18   26.20
   8  20 -18  149.88   27.60
 -20  18  -8  152.08   33.40
  -8  20 -18  182.48   35.30
  20 -18  -8  105.59   20.50
 -18   8 -20  145.49   29.60
   8 -20 -18  105.19   21.70
  18  -8 -20  132.29   21.30
   9 -20   1  379.16   34.00
   1   9 -20  380.46   37.30
  -9  20   1  333.87   40.60
   9 -20  -1  367.16   34.70
  -1   9 -20  332.17   38.10
  -9  20  -1  350.06   41.70
   9 -20   3   71.79   16.10
  -9  20   3   99.99   19.90
   3   9 -20   90.69   20.40
   9  20  -3   86.69   27.80
   9 -20  -3   60.39   17.30
  -3   9 -20   52.49   18.80
  -9  20  -3   39.20   21.80
   5   9 -20  945.11   67.29
   9 -20   5  853.11   63.49
  -9  20   5  973.50   65.39
   9  20  -5  779.32   72.49
  -9  20  -5  713.63   71.59
  -5   9 -20  836.62   68.09
  20  -5  -9  842.62   60.49
   9 -20  -5  793.52   64.09
   9 -20   7  183.58   28.20
   9  20  -7  158.88   33.00
  -9  20  -7  244.58   36.70
   9 -20  -7  231.18   28.90
 -20   7  -9  266.37   38.10
  20  -7  -9  225.28   23.10
  -7   9 -20  251.47   35.30
   9  20  -9   50.09   28.40
   9 -20   9   55.99   18.00
  -9   9 -20   33.80   20.20
 -20   9  -9   13.20   24.50
   9 -20  -9   36.50   16.00
  -9  20  -9   38.70   29.90
  20  -9  -9   29.20   12.60
   9 -20  11  417.86   39.20
   9  20 -11  373.86   52.49
   9 -20 -11  431.36   40.90
 -11   9 -20  443.96   48.40
  -9  20 -11  411.76   55.49
  20 -11  -9  453.75   37.30
 -20  11  -9  394.76   54.49
   9  20 -13   77.59   26.30
 -13   9 -20   36.80   25.00
   9 -20 -13   47.30   18.00
 -20  13  -9   45.10   30.40
  -9  20 -13   39.90   28.30
  20 -13  -9   33.90   15.50
   9  20 -15   44.10   25.70
  20 -15   9   34.90   15.40
   9 -20 -15   22.20   17.80
  20 -15  -9   26.20   15.30
  -9  20 -15   29.60   31.30
 -20  15  -9   45.20   30.60
 -15   9 -20   44.10   25.20
  20 -17   9  194.18   29.10
   9 -20 -17  228.18   34.40
  17  -9 -20  201.08   31.80
 -17   9 -20  202.88   33.00
  -9  20 -17  277.77   42.40
  20 -17  -9  200.98   30.80
 -20  17  -9  283.27   49.90
  20 -19   9  234.78   30.40
  19  -9 -20  226.48   30.90
 -19   9 -20  230.48   34.90
  -9  20 -19  285.87   41.40
 -20  19  -9  284.27   49.80
  20 -19  -9  238.48   32.30
   0  10 -20  108.59   22.10
  10 -20   0   94.89   18.10
 -10  20   0  114.69   24.40
  10 -20   2  286.47   31.60
 -10  20   2  277.27   36.60
   2  10 -20  260.37   35.30
  -2  10 -20  288.17   36.50
  10 -20  -2  308.97   31.20
 -10  20  -2  328.07   40.80
  10 -20   4  201.48   28.50
   4  10 -20  225.78   32.40
 -10  20   4  211.48   30.70
  10 -20  -4  237.38   29.30
  -4  10 -20  221.48   34.40
 -10  20  -4  196.38   32.30
  10 -20   6  196.88   29.50
   6  10 -20  225.98   33.30
  20  -6 -10  255.17   24.30
 -10  20  -6  237.08   41.60
 -20   6 -10  221.98   35.30
  10 -20  -6  255.07   30.80
  -6  10 -20  294.57   36.80
  10  20  -8  249.38   45.60
  10 -20   8  301.57   33.20
 -10  20  -8  306.37   47.60
  20  -8 -10  340.57   29.60
 -20   8 -10  296.47   49.20
  10 -20  -8  344.17   35.30
  -8  10 -20  346.57   41.80
  10 -20  10  220.38   31.10
  10  20 -10  255.57   45.40
  20 -10 -10  268.17   27.20
 -10  20 -10  238.88   39.40
 -10  10 -20  239.58   39.10
 -20  10 -10  254.37   45.30
  10 -20 -10  250.87   32.60
  10 -20  12   32.10   18.80
  10  20 -12   51.19   30.40
 -10  20 -12   12.00   29.80
 -20  12 -10    4.70   30.70
  20 -12 -10    9.80   15.20
 -12  10 -20   30.50   25.10
  10 -20 -12    6.70   16.20
  20 -14 -10   94.69   19.40
 -10  20 -14  122.69   35.20
 -20  14 -10   73.39   29.00
  10 -20 -14   65.89   21.70
 -14  10 -20  113.09   30.10
  20 -16 -10   58.69   17.70
  10 -20 -16   63.29   22.50
 -16  10 -20   83.39   29.30
 -10  20 -16   71.69   34.90
 -20  16 -10   36.90   25.90
  16 -10 -20   41.80   17.80
 -20  18 -10   55.09   28.50
  10 -20 -18   42.50   21.10
 -10  20 -18   38.90   28.10
  20 -18 -10   45.50   17.90
 -18  10 -20   56.09   27.80
  18 -10 -20   43.60   17.60
  11 -20   1   40.80   16.60
   1  11 -20   51.29   21.00
 -11  20   1   32.20   19.20
  11 -20  -1   84.09   18.50
  -1  11 -20   63.29   20.20
 -11  20  -1   51.99   22.60
  11 -20   3  326.17   37.40
 -11  20   3  359.16   41.60
   3  11 -20  373.86   41.80
  11 -20  -3  487.75   38.50
 -11  20  -3  508.95   48.40
   5  11 -20  434.66   42.80
  11 -20   5  428.96   37.80
 -20   5 -11  394.06   51.59
  20  -5 -11  370.16   32.50
  11 -20  -5  391.66   37.90
 -11  20  -5  349.17   47.90
  -5  11 -20  403.16   44.50
  11 -20   7  159.78   26.50
   7  11 -20  185.28   25.70
  -7  11 -20   99.39   24.00
 -20   7 -11  133.29   32.70
  11 -20  -7  132.89   22.90
  20  -7 -11  116.89   20.30
 -11  20  -7  118.29   32.90
  11 -20   9  450.45   41.70
  -9  11 -20  479.05   49.40
 -20   9 -11  431.36   56.09
 -11  20  -9  413.46   54.89
  20  -9 -11  465.65   37.90
  11 -20  -9  431.56   41.30
  20 -11 -11  255.87   27.70
 -11  20 -11  209.98   38.60
  11 -20 -11  202.58   32.00
 -11  11 -20  232.38   41.50
 -20  11 -11  219.68   38.10
 -20  13 -11   77.29   30.70
  20 -13 -11  136.79   20.10
 -13  11 -20  178.88   31.60
 -11  20 -13  136.19   36.80
  11 -20 -13  105.29   22.30
  11 -20 -15    4.40   17.30
 -11  20 -15   10.30   28.10
  15 -11 -20    5.50   20.00
 -15  11 -20   16.90   23.80
 -20  15 -11   13.30   28.80
  20 -15 -11    7.50   16.00
  20 -17 -11   97.69   19.70
 -20  17 -11  225.48   38.70
 -17  11 -20  191.18   33.10
  11 -20 -17  131.59   24.00
  17 -11 -20  159.58   23.90
 -11  20 -17  130.19   33.10
  19 -11 -20  267.07   32.70
 -19  11 -20  281.77   44.40
  20 -19 -11  269.17   33.20
 -11  20 -19  318.67   49.99
 -20  19 -11  325.17   43.70
  11 -20 -19  283.17   37.20
 -12  20   0  120.09   24.90
  12 -20   0  159.08   27.20
   0  12 -20  185.28   28.80
   2  12 -20    2.30   19.30
 -12  20   2    6.60   18.10
  12 -20   2   11.60   16.50
  -2  12 -20    7.50   19.10
  12 -20  -2    5.80   18.10
 -12  20  -2    9.50   21.90
   4  12 -20   67.89   22.70
 -12  20   4   74.89   20.40
  12 -20   4   54.79   17.80
 -20   4 -12  100.29   27.70
  20  -4 -12   94.09   13.90
  12 -20  -4  141.39   21.90
  -4  12 -20  123.99   23.70
 -12  20  -4  128.09   29.40
  12 -20   6   81.79   18.20
   6  12 -20   92.89   23.10
 -12  20  -6   66.59   29.30
  -6  12 -20   61.79   23.70
  12 -20  -6   78.39   19.90
 -20   6 -12   48.40   27.20
  20  -6 -12   64.39   13.60
  12 -20   8  102.29   19.60
  20  -8 -12  104.29   16.50
 -12  20  -8   71.79   31.50
 -20   8 -12   85.69   33.70
  -8  12 -20   92.89   26.50
  12 -20  -8   69.59   19.90
  12 -20  10   37.90   19.30
  20 -10 -12   -0.90   13.50
 -10  12 -20    1.30   24.70
 -20  10 -12   11.10   29.90
  12 -20 -10   -2.70   18.80
 -12  20 -10  -10.20   24.20
 -20  12 -12  302.57   43.40
  20 -12 -12  242.28   30.20
 -12  12 -20  294.87   45.20
 -12  20 -12  330.57   45.40
  12 -20 -12  252.37   35.00
  12 -20 -14   23.50   18.20
 -14  12 -20   25.70   24.70
 -20  14 -12   10.10   26.50
  14 -12 -20   16.20   20.40
 -12  20 -14   50.29   32.60
  20 -14 -12   21.50   15.30
 -20  16 -12   72.49   32.50
  20 -16 -12   40.00   17.50
  12 -20 -16   40.40   20.00
 -12  20 -16   51.69   34.20
 -16  12 -20   48.50   24.80
  16 -12 -20   54.29   19.70
  20 -18 -12   12.50   16.40
  12 -20 -18   16.70   21.00
 -18  12 -20   11.20   22.80
 -12  20 -18   -1.90   28.20
 -20  18 -12   19.20   27.30
  18 -12 -20   12.20   17.00
 -13  20   1   88.49   22.50
  13 -20   1  106.29   19.50
   1  13 -20   93.39   23.40
 -13  20  -1   50.89   22.70
  -1  13 -20   84.49   24.50
  13 -20  -1   85.99   19.80
  13 -20   3   76.09   19.00
   3  13 -20   81.29   23.60
 -13  20   3   85.29   21.50
 -13  20  -3  138.79   29.90
  13 -20  -3   99.19   18.60
  -3  13 -20  170.68   28.60
 -20   3 -13  112.19   29.20
   5  13 -20  338.77   42.60
  13 -20   5  281.47   35.10
  20  -5 -13  369.46   30.50
  13 -20  -5  353.36   36.60
 -20   5 -13  341.47   49.20
 -13  20  -5  329.77   47.90
  -5  13 -20  370.46   44.30
   7  13 -20  419.66   46.30
  13 -20   7  395.76   40.60
 -20   7 -13  426.96   53.39
  20  -7 -13  444.66   36.50
 -13  20  -7  415.36   54.29
  13 -20  -7  437.56   41.10
  -7  13 -20  434.96   49.40
  13 -20   9  120.49   20.60
  -9  13 -20   74.89   25.90
  20  -9 -13   61.09   15.60
  13 -20  -9   72.39   21.70
 -20   9 -13   68.89   32.20
 -13  20  -9   41.80   29.50
  13 -20  11  111.69   22.10
  13 -20 -11   91.19   21.00
  20 -11 -13  150.38   19.80
 -11  13 -20   99.69   27.00
 -13  20 -11   87.89   29.90
 -20  11 -13  122.39   33.10
  13 -20 -13    3.10   16.90
  20 -13 -13    5.70   14.40
 -13  13 -20   11.90   25.70
 -13  20 -13  -11.50   29.80
  13 -13 -20   16.30   20.50
 -20  13 -13  -17.10   28.30
  20 -15 -13   76.39   18.10
  13 -20 -15   61.49   19.20
 -15  13 -20  119.09   31.50
 -20  15 -13  136.99   34.80
 -13  20 -15  110.69   34.10
  15 -13 -20   98.79   23.30
 -20  17 -13   12.20   25.60
  13 -20 -17   18.50   20.00
  20 -17 -13   14.60   16.10
 -17  13 -20   22.60   24.50
  17 -13 -20   22.30   18.60
 -13  20 -17   32.60   31.60
  14 -20   0   27.00   18.80
 -14  20   0   20.40   21.20
   0  14 -20   14.00   22.40
   2  14 -20  181.68   28.90
 -14  20   2  227.58   35.50
  14 -20   2  204.68   29.90
 -20   2 -14  172.88   30.30
 -14  20  -2  179.28   30.40
  14 -20  -2  190.48   29.30
  -2  14 -20  242.98   39.20
   4  14 -20   93.29   23.70
  14 -20   4   57.79   16.60
  -4  14 -20   66.19   25.00
  14 -20  -4   62.69   18.70
 -14  20  -4   47.30   26.20
 -20   4 -14   68.49   27.60
   6  14 -20   50.19   22.70
  14 -20   6   65.19   19.20
  -6  14 -20   51.49   27.10
 -14  20  -6   32.70   25.80
  14 -20  -6   35.10   19.80
 -20   6 -14   29.40   27.40
  20  -6 -14   32.10   13.50
  14 -20   8   88.19   21.20
   8  14 -20   86.39   24.70
 -20   8 -14   56.89   26.10
 -14  20  -8   89.99   30.00
  14 -20  -8  105.29   22.30
  -8  14 -20   72.99   25.60
  20  -8 -14  135.89   17.90
  20 -10 -14  102.59   17.80
 -10  14 -20   80.39   30.40
 -20  10 -14  111.19   33.40
  14 -20 -10   68.69   21.40
 -14  20 -10  125.99   35.10
  14 -20  12    9.80   18.70
 -12  14 -20   19.10   23.70
 -14  20 -12   16.40   27.50
 -20  12 -14   31.50   28.90
  20 -12 -14   25.40   15.20
  12 -14 -20   22.70   23.30
  14 -20 -12   35.10   21.40
 -20  14 -14   64.89   31.00
  14 -14 -20   68.69   21.30
 -14  20 -14   62.19   33.00
  14 -20 -14   40.70   17.80
  20 -14 -14   48.00   16.30
 -14  14 -20   87.59   29.60
 -14  20 -16   65.79   34.00
 -16  14 -20   48.30   27.80
  14 -20 -16   52.99   21.80
  16 -14 -20   22.80   17.00
 -20  16 -14   50.29   31.60
  20 -16 -14   48.30   17.90
  -1  15 -20   95.39   25.50
 -15  20  -1  127.29   28.10
  15 -20  -1   89.69   18.80
 -20   1 -15   78.19   25.00
  15 -20   3   27.50   16.20
   3  15 -20   46.90   22.50
 -15  20   3   57.69   20.30
 -20   3 -15   43.20   27.20
  -3  15 -20   34.20   22.90
 -15  20  -3   40.10   25.30
  15 -20  -3   47.90   18.50
   5  15 -20  471.05   51.89
  15 -20   5  457.55   44.20
  15 -20  -5  482.75   44.80
 -15  20  -5  503.15   56.79
 -20   5 -15  521.95   55.89
  20  -5 -15  501.05   40.20
  -5  15 -20  518.75   53.99
   7  15 -20  523.55   48.80
  15 -20   7  447.26   40.30
 -20   7 -15  391.06   52.59
  15 -20  -7  350.96   41.30
  20  -7 -15  407.66   36.80
 -15  20  -7  402.96   54.99
  -7  15 -20  428.86   51.79
  -9 -15 -20   49.00   12.20
  15 -20   9   35.70   16.60
   9 -15 -20   16.40   21.60
 -20   9 -15   38.90   27.10
 -15  20  -9   35.70   30.20
  20  -9 -15   36.80   15.20
  -9  15 -20   28.60   26.30
  15 -20  -9   31.60   19.60
  15 -20  11   20.70   15.80
 -15  20 -11    9.40   28.00
  11 -15 -20   14.40   21.50
 -20  11 -15    8.10   28.00
  20 -11 -15   18.50   15.40
 -11  15 -20    2.40   27.00
  15 -20 -11   16.40   21.00
  13 -15 -20   99.49   24.80
 -13  15 -20   92.69   31.20
 -15  20 -13   98.79   32.10
  20 -13 -15   99.29   19.70
 -20  13 -15  108.09   32.00
  15 -20 -13  100.79   24.30
 -15  20 -15  100.69   34.50
  15 -15 -20   33.00   17.30
 -15  15 -20   68.09   27.90
 -20  15 -15   62.09   28.80
  20 -15 -15   76.99   18.60
  15 -20 -15   67.29   22.10
 -20   0 -16   24.90   24.50
  16 -20   0   24.20   18.60
 -16  20   0   25.90   22.70
   0  16 -20   26.90   24.80
   2  16 -20  125.09   26.30
 -16  20   2  159.08   26.20
  16 -20   2   96.19   18.80
 -20  -2 -16  151.78   27.60
 -16  20  -2   49.60   25.40
  -2  16 -20   78.19   27.20
  16 -20  -2   45.60   18.50
 -20   2 -16  100.49   28.80
  16 -20   4  673.13   54.19
   4  16 -20  748.93   63.09
 -20   4 -16  662.13   63.99
  16 -20  -4  565.04   54.19
  -4  16 -20  685.13   63.79
  20  -4 -16  652.43   50.49
 -16  20  -4  654.03   65.09
  16 -20   6   47.40   17.40
   6  16 -20   81.99   25.70
  -6 -16 -20   75.59   14.60
  -6  16 -20   33.10   23.40
  16 -20  -6   48.50   18.70
 -20   6 -16   66.09   29.80
   6 -16 -20   36.50   18.80
  20  -6 -16   72.79   15.50
 -16  20  -6   54.59   28.00
  -8 -16 -20  759.92   54.89
   8  16 -20  802.82   65.39
  16 -20   8  757.52   58.99
  20  -8 -16  723.53   56.79
  -8  16 -20  732.73   69.49
  16 -20  -8  698.03   59.99
   8 -16 -20  689.33   61.49
 -16  20  -8  772.72   72.29
 -20   8 -16  709.03   69.39
  16 -20  10   58.89   19.90
 -10  16 -20   51.89   27.00
  10 -16 -20   41.50   22.10
 -16  20 -10   40.10   27.10
  20 -10 -16   54.79   17.20
  16 -20 -10   57.69   21.80
 -20  10 -16   42.30   29.80
  12 -16 -20   71.49   23.90
 -20  12 -16   57.69   30.10
  20 -12 -16   44.50   15.90
  16 -20 -12   57.39   21.80
 -12  16 -20   66.09   29.80
 -16  20 -12   49.00   32.90
 -14  16 -20   50.39   26.90
 -20  14 -16   52.19   30.60
  14 -16 -20   57.29   21.70
  20 -14 -16   46.10   15.90
 -16  20 -14   34.20   26.60
  16 -20 -14   26.90   17.80
   1  17 -20   46.10   26.60
  17 -20   1   15.20   16.40
 -20  -1 -17   40.00   22.40
  -1 -17 -20   12.00   14.50
 -17  20   1   30.50   22.20
  17 -20  -1   72.69   20.00
 -17  20  -1   54.79   25.20
  -1  17 -20   88.39   28.90
 -20   1 -17   87.79   27.20
   1 -17 -20   69.99   18.50
  -3 -17 -20   77.99   16.60
 -20  -3 -17   71.99   23.60
 -17  20   3   83.59   22.60
  17 -20   3   68.89   18.00
   3  17 -20   71.09   25.90
  -3  17 -20   65.19   26.30
 -17  20  -3   97.49   28.30
 -20   3 -17   87.19   26.20
  17 -20  -3   75.39   20.70
   3 -17 -20  104.19   21.40
 -20  -5 -17  302.77   40.80
  -5 -17 -20  290.97   29.70
  17 -20   5  267.27   33.60
   5  17 -20  316.67   43.50
   5 -17 -20  287.77   36.20
 -20   5 -17  334.07   45.70
  -5  17 -20  274.17   46.50
  17 -20  -5  277.27   34.80
 -17  20  -5  290.77   48.10
  20  -5 -17  296.07   30.00
  -7 -17 -20  320.17   30.40
  17 -20   7  311.57   36.60
   7  17 -20  304.87   44.40
  -7  17 -20  341.87   49.60
 -20   7 -17  360.76   48.90
  20  -7 -17  371.46   33.50
   7 -17 -20  364.86   40.30
 -17  20  -7  400.26   53.19
  17 -20  -7  353.66   38.50
  17 -20   9  200.58   30.90
 -17  20  -9  284.77   43.00
 -20   9 -17  265.17   38.40
  17 -20  -9  225.08   33.30
   9 -17 -20  208.98   35.60
  20  -9 -17  201.08   27.80
  -9  17 -20  264.17   38.90
 -17  20 -11  174.78   36.10
  20 -11 -17  159.58   26.50
  17 -20 -11  155.98   25.20
 -20  11 -17  147.19   34.00
 -11  17 -20  129.89   30.20
 -13  17 -20   15.80   27.50
  17 -20 -13   22.90   18.60
  13 -17 -20   35.10   21.90
 -20  13 -17   30.60   26.40
 -17  20 -13   23.70   29.50
  20 -13 -17   20.60   15.50
   0  18 -20  135.59   30.20
 -18  20   0  116.19   26.90
  18 -20   0   73.59   18.40
   0 -18 -20  150.58   21.50
 -20   0 -18   99.99   25.00
   2  18 -20  151.78   27.60
 -20   2 -18   82.29   24.70
  18 -20  -2   44.60   18.70
 -18  20  -2   69.29   26.30
   2 -18 -20   93.49   21.50
  -2  18 -20   70.79   27.00
   4  18 -20   46.00   27.10
  18 -20   4   23.50   17.00
  -4 -18 -20   23.90   13.30
 -20  -4 -18   21.10   21.00
 -20   4 -18   23.80   23.30
  -4  18 -20   20.10   27.00
 -18  20  -4   12.50   25.50
  18 -20  -4   14.20   18.20
  20  -4 -18   24.60   14.10
   4 -18 -20   36.10   20.20
   6  18 -20  381.96   47.50
  -6 -18 -20  388.66   33.90
 -20  -6 -18  376.46   43.80
  18 -20   6  356.86   39.00
  -6  18 -20  455.85   52.59
  18 -20  -6  382.76   40.30
 -18  20  -6  439.96   54.19
   6 -18 -20  402.26   41.40
 -20   6 -18  392.66   50.39
  20  -6 -18  417.46   36.10
  18 -20   8  192.18   28.90
 -20  -8 -18  217.08   31.70
  -8 -18 -20  215.58   22.20
   8 -18 -20  157.78   26.90
  18 -20  -8  143.59   24.40
  -8  18 -20  163.68   34.40
 -18  20  -8  165.28   36.60
  20  -8 -18  158.18   26.00
 -20   8 -18  157.78   32.40
  18 -20  10   20.40   18.20
 -18  20 -10   44.80   30.90
  20 -10 -18   41.30   15.70
 -10  18 -20   62.39   30.40
  18 -20 -10   30.70   18.10
 -20  10 -18   48.00   25.20
  10 -18 -20   37.70   20.00
 -12  18 -20   13.50   27.80
  20 -12 -18   10.90   14.60
  12 -18 -20   16.50   19.80
 -20  12 -18   12.00   24.50
 -18  20 -12    1.50   26.00
  18 -20 -12    7.70   16.70
   1  19 -20   42.10   24.40
 -19  20   1   40.70   23.00
 -20  -1 -19   47.80   21.50
  19 -20   1   25.30   15.70
  -1 -19 -20   47.70   15.20
  -1  19 -20   83.39   29.80
  19 -20  -1   63.59   19.00
   1 -19 -20   39.10   15.90
 -19  20  -1   61.69   24.80
 -20   1 -19   60.09   22.60
   3  19 -20  114.99   29.10
  19 -20   3   96.39   20.00
  -3 -19 -20  119.79   17.90
 -20  -3 -19  134.19   25.40
   3 -19 -20  159.98   22.80
 -20   3 -19  122.29   26.40
  -3  19 -20  177.08   34.30
  20  -3 -19  190.28   22.60
 -19  20  -3  157.28   31.40
  19 -20  -3  149.59   22.10
  -5 -19 -20  532.85   40.20
  19 -20   5  515.75   44.20
   5  19 -20  558.54   54.69
 -20  -5 -19  552.14   48.10
   5 -19 -20  463.55   46.20
  20  -5 -19  447.76   41.50
  -5  19 -20  485.05   57.79
 -20   5 -19  429.16   52.19
  19 -20  -5  461.55   45.40
 -19  20  -5  500.45   58.29
  -7 -19 -20  503.15   43.50
 -20  -7 -19  490.65   53.89
  19 -20   7  477.45   47.60
   7  19 -20  497.55   56.29
 -20   7 -19  577.54   57.59
 -19  20  -7  666.23   63.69
   7 -19 -20  632.74   51.19
  20  -7 -19  634.24   46.70
  19 -20  -7  630.34   50.09
  -7  19 -20  682.43   61.89
  19 -20   9  216.88   30.30
  19 -20  -9  244.68   33.00
 -20   9 -19  195.18   33.30
 -19  20  -9  232.28   37.60
  -9  19 -20  241.28   36.90
  20  -9 -19  223.28   28.40
   9 -19 -20  223.18   33.50
  20 -11 -19  268.67   29.60
  11 -19 -20  277.27   37.00
  19 -20 -11  286.77   34.10
 -20  11 -19  252.27   43.70
 -19  20 -11  296.57   50.39
 -11  19 -20  224.38   36.20
 -20   0 -20  103.39   24.60
 -20  20   0   86.59   25.70
   0 -20 -20   88.89   17.50
   0  20 -20  100.39   28.90
  20 -20   0   83.49   18.50
 -20  -2 -20  143.79   26.00
  20 -20   2  140.39   21.70
  -2 -20 -20  136.39   23.70
 -20  20   2  135.69   26.50
   2  20 -20  158.68   32.40
 -20  20  -2  168.68   30.30
   2 -20 -20  152.88   21.40
  -2  20 -20  216.48   35.00
  20 -20  -2  148.19   22.00
 -20   2 -20  148.79   27.90
 -20  -4 -20  396.96   41.90
  -4 -20 -20  427.16   35.70
  20 -20   4  375.96   39.00
   4  20 -20  452.35   50.79
 -20   4 -20  409.06   47.50
   4 -20 -20  403.36   40.00
  -4  20 -20  466.85   54.49
  20 -20  -4  411.86   39.60
 -20  20  -4  404.26   52.79
  20  -4 -20  408.26   37.50
  -6 -20 -20   25.20   11.70
  20 -20   6   39.70   17.80
   6  20 -20   23.80   22.90
 -20   6 -20   -0.20   22.80
   6 -20 -20    9.20   19.10
  -6  20 -20    3.00   27.40
  20 -20  -6    4.60   17.70
 -20  20  -6   10.00   27.70
  20  -6 -20   -0.60   13.90
  20 -20   8  444.06   45.30
 -20   8 -20  533.55   54.29
  -8  20 -20  588.24   60.29
   8 -20 -20  563.94   49.20
  20 -20  -8  565.74   47.60
 -20  20  -8  545.05   60.59
  20  -8 -20  557.84   44.60
   0  21   1  241.98   35.90
   0 -21   1  239.48   25.60
   0  21  -1  226.88   36.70
   0 -21  -1  257.27   25.60
   0 -21  -3   32.70   12.80
   0  21  -3   36.20   21.50
   0  21   3   21.50   18.30
   0 -21   3   38.00   12.90
   0  21   5  423.66   40.00
   0  21  -5  399.06   47.60
   0 -21  -5  407.26   34.90
   0 -21   5  389.56   34.70
  -7   0 -21  625.84   49.60
   0 -21   7  692.73   50.29
   0  21  -7  618.04   61.79
   0 -21  -7  658.83   50.29
   0  21  -9    8.60   26.80
  21  -9   0   16.80    9.90
   0 -21   9   29.80   13.30
   0 -21  -9   17.20   13.60
 -21   9   0   33.90   24.50
  -9   0 -21   24.00   13.20
   0  21 -11  667.83   69.59
  21 -11   0  738.63   54.39
   0 -21 -11  768.92   56.09
 -21  11   0  705.63   66.29
 -11   0 -21  751.82   58.69
   0 -21 -13   32.60   14.20
  21 -13   0   80.99   15.30
 -21  13   0   58.29   25.20
   0  21 -13   38.60   27.80
 -13   0 -21   54.89   18.30
  21 -15   0  102.89   17.40
   0 -21 -15   86.39   17.70
 -15   0 -21   98.19   22.30
 -21  15   0   62.39   26.10
   0  21 -15   67.99   30.20
   0 -21 -17   51.89   15.90
 -21  17   0   67.29   25.70
  21 -17   0   37.80   16.20
   0  21 -17   28.10   27.20
 -17   0 -21   56.39   21.10
   0  21 -19   26.00   28.20
  21 -19   0   27.50   16.80
 -21  19   0   36.80   23.10
   0 -21 -19   34.20   15.50
 -19   0 -21   21.00   19.80
  -1  21   0  242.08   36.10
  -1 -21   0  260.57   25.80
   1  21   0  285.77   37.00
   1 -21   0  254.67   26.90
   1  21  -2   80.09   23.10
  -1 -21  -2  137.69   17.00
   1 -21   2  115.59   20.20
  -1  21   2   87.99   20.70
  -1 -21   2   94.89   16.00
   1 -21  -2   90.79   15.70
  -1  21  -2   98.59   26.30
   1  21   2   88.99   20.70
   1 -21   4   85.99   16.10
  -1 -21  -4   89.89   15.00
  -1  21   4   68.49   19.00
   1  21  -4   49.99   24.50
   1  21   4  117.19   21.20
  -1 -21   4  118.09   19.40
  -1  21  -4   61.39   23.00
   1 -21  -4   80.69   15.60
   1  21  -6  108.09   27.10
  -1  21   6  139.49   24.90
  -1 -21  -6  142.49   20.90
   1 -21   6  110.19   17.10
  -1  21  -6  128.69   29.70
  -1 -21   6  144.19   20.70
   1 -21  -6  134.19   22.50
  -6   1 -21  128.19   19.60
   1  21   6  145.69   20.90
   1  21  -8   88.59   27.10
  -1 -21  -8  137.89   22.50
   1 -21   8  133.09   23.90
  -1  21  -8  149.88   29.00
  21  -8  -1  159.48   16.20
   1 -21  -8  200.28   24.10
  -1 -21   8  211.78   23.10
  -8   1 -21  201.48   23.50
   1 -21  10   84.09   17.10
   1  21 -10   52.19   28.90
  21 -10   1   63.69   12.70
  -1 -21 -10   52.19   14.10
 -21  10   1   55.69   25.50
 -10  -1 -21   45.70   15.10
  21 -10  -1   89.39   13.70
  -1  21 -10   72.89   30.40
 -21  10  -1   56.29   24.30
   1 -21 -10   72.29   14.90
  -1 -21  10   60.89   15.50
 -10   1 -21  107.39   18.60
  -1 -21 -12  154.48   20.00
 -21  12   1  146.69   31.10
   1  21 -12  129.49   32.60
  21 -12   1  153.38   21.80
 -12  -1 -21  152.58   22.50
  -1  21 -12  259.37   44.90
  -1 -21 -14    4.70   15.20
   1  21 -14    8.30   28.30
 -14  -1 -21    0.40   17.00
 -21  14   1   12.80   22.30
  21 -14   1   -4.20   12.70
 -21  14  -1   10.00   22.20
 -14   1 -21   23.80   18.40
  21 -14  -1    9.50   13.50
   1 -21 -14   18.70   14.00
  -1  21 -14   13.10   27.60
 -16  -1 -21  152.78   23.70
   1  21 -16  180.58   36.10
  21 -16   1  154.98   24.70
  21 -16  -1   85.79   17.10
   1 -21 -16   83.89   17.60
 -21  16  -1  114.49   27.10
 -16   1 -21  103.89   24.00
  -1  21 -16   80.69   30.60
 -21  18   1   21.40   21.60
   1  21 -18   39.20   28.70
  21 -18   1   24.90   16.40
  -1 -21 -18   17.80   14.50
 -18  -1 -21   20.60   18.80
   1 -21 -18   13.00   15.40
 -18   1 -21    7.70   19.70
 -21  18  -1   27.20   23.60
  21 -18  -1   10.50   15.40
  -1  21 -18   21.90   25.90
  -1 -21 -20   12.10   14.20
   1  21 -20   21.40   23.30
  21 -20   1   19.70   16.30
 -21  20   1   13.60   21.00
 -20  -1 -21    8.10   17.60
 -20   1 -21   34.90   20.30
   1 -21 -20   45.40   16.00
  21 -20  -1   22.00   14.90
 -21  20  -1   57.99   25.40
  -1  21 -20   42.10   24.90
  -2 -21  -1  104.59   18.10
   2  21  -1   74.09   21.80
  -2  21   1  112.29   22.50
   2 -21   1   90.89   15.00
   2 -21  -1   75.59   14.80
  -2  21  -1  100.19   24.90
   2  21   1   81.39   20.40
  -2 -21   1   93.89   14.40
  -3   2 -21   48.80   11.60
  -2 -21   3   54.29   13.40
   2  21   3   79.79   21.30
  -2  21  -3   51.29   24.00
   2 -21  -3   60.39   15.60
   2  21  -5  327.67   46.50
   2 -21   5  398.96   34.80
  -2 -21  -5  369.76   33.10
  -2  21   5  405.96   38.50
   2 -21  -5  395.76   34.90
  -5   2 -21  383.06   33.50
  -2  21  -5  389.86   47.40
  -2 -21   5  402.76   33.00
   2  21   5  393.86   38.90
   2 -21   7  589.04   43.30
   2  21  -7  468.85   53.89
  -2 -21  -7  508.65   41.90
  -2 -21   7  528.85   41.60
   2 -21  -7  543.25   43.00
  -7   2 -21  512.55   43.40
  -2  21  -7  485.35   54.79
   2  21  -9  131.69   30.20
 -21   9   2  202.38   31.60
   2 -21   9  190.98   25.70
  -2 -21  -9  157.48   23.10
  21  -9   2  213.78   19.80
  -2 -21   9  159.88   23.20
  21  -9  -2  176.48   20.00
  -9   2 -21  176.68   27.10
 -21   9  -2  176.88   31.50
   2 -21  -9  189.58   24.90
  -2  21  -9  114.49   29.20
 -21  11   2  171.48   27.00
   2  21 -11  184.68   34.00
   2 -21 -11  116.49   19.70
 -11   2 -21  114.89   21.40
 -21  11  -2   39.90   24.90
  -2  21 -11   67.79   27.10
  21 -11  -2  108.09   15.50
   2  21 -13   66.29   27.40
 -21  13   2  106.49   26.60
  21 -13   2   93.39   15.70
  -2 -21 -13   97.19   16.30
 -13  -2 -21  112.49   19.80
 -13   2 -21   90.19   22.20
 -21  13  -2   77.89   28.40
  -2  21 -13   71.19   29.20
  21 -13  -2  107.29   16.80
   2 -21 -13   62.79   16.30
 -15  -2 -21  144.49   23.40
  -2 -21 -15  126.59   23.20
  21 -15   2  131.59   24.00
   2  21 -15  116.49   34.20
 -21  15   2  129.49   25.80
  -2  21 -15  177.78   37.00
  21 -15  -2  175.58   24.80
 -21  15  -2  158.68   31.20
   2 -21 -15  164.68   27.40
 -15   2 -21  207.38   27.70
 -17  -2 -21  245.78   33.00
 -21  17   2  252.87   37.80
  21 -17   2  237.48   29.10
   2  21 -17  276.47   39.30
  -2 -21 -17  225.88   26.80
 -17   2 -21  215.28   36.80
  -2  21 -17  144.09   32.50
  21 -17  -2  203.58   29.20
   2 -21 -17  209.78   29.90
 -21  17  -2  238.48   42.60
  -2 -21 -19  118.19   17.50
 -21  19   2  138.09   26.30
 -19  -2 -21  113.29   22.90
   2  21 -19  101.89   28.40
  21 -19   2  107.59   18.60
   2 -21 -19  140.49   21.70
  -2  21 -19  146.59   35.10
  21 -19  -2  113.49   19.50
 -19   2 -21   93.59   24.30
 -21  19  -2  131.99   30.10
   3 -21   0   22.40   13.00
  -3 -21   0   42.20   11.60
   3  21   0   34.10   22.20
  -3  21   0   25.80   18.70
   3  21  -2  122.39   23.30
  -3  21  -2   50.99   22.70
   3 -21  -2   64.39   15.50
  -3 -21   2   59.09   12.80
  -2   3 -21   46.50   11.80
   3  21   2   69.59   21.30
  -3 -21  -4   57.79   13.20
   3  21  -4   55.79   23.20
   3 -21   4   59.79   16.60
  -3  21   4   71.59   18.70
   3  21   4   99.99   20.40
   3 -21  -4   90.79   15.80
  -4   3 -21   98.79   15.20
  -3 -21   4  112.89   17.60
  -3  21  -4   72.79   23.00
  -3 -21  -6 1689.33  106.49
   3 -21   6 1704.63  107.39
   3  21  -6 1406.36  114.69
  -6   3 -21 1468.65  108.19
  -3  21  -6 1340.27  114.19
  -3 -21   6 1477.55  105.99
   3 -21  -6 1499.85  107.29
  -3 -21  -8  129.29   20.20
   3 -21   8  137.19   23.40
   3  21  -8  114.39   31.40
  -3  21  -8  115.09   30.60
  -3 -21   8   90.89   14.70
   3 -21  -8   91.09   17.20
  -8   3 -21  118.49   19.30
 -21   8  -3   76.59   26.40
  21 -10   3  395.86   34.50
 -21  10   3  380.56   46.40
   3 -21  10  412.56   38.10
   3  21 -10  371.16   52.29
  -3 -21 -10  410.86   35.80
  21 -10  -3  471.25   35.30
  -3  21 -10  400.46   52.09
 -10   3 -21  468.15   42.30
 -21  10  -3  415.16   50.19
   3 -21 -10  467.75   38.40
  -3 -21 -12   15.40   12.80
   3  21 -12   26.10   27.80
 -21  12   3   18.60   21.00
  21 -12   3   18.50   12.40
  21 -12  -3   43.70   13.70
 -12   3 -21   44.60   19.70
 -21  12  -3   27.70   24.00
  -3  21 -12   50.59   28.40
   3 -21 -12   58.19   18.20
  -3 -21 -14  116.89   17.50
   3  21 -14   98.09   32.60
 -14  -3 -21   98.19   20.40
 -21  14   3   83.49   24.00
  21 -14   3  105.69   16.70
  -3  21 -14   93.99   30.50
 -14   3 -21  100.79   23.70
  21 -14  -3  121.19   17.80
   3 -21 -14  151.18   21.40
 -21  14  -3   74.69   27.70
 -21  16   3  100.79   24.20
  -3 -21 -16   94.59   16.00
 -16  -3 -21  106.69   20.60
  21 -16   3   89.99   16.70
   3  21 -16  117.39   31.80
 -16   3 -21   78.69   22.40
 -21  16  -3   86.39   30.10
   3 -21 -16   77.89   19.80
  -3  21 -16   97.39   34.00
  21 -16  -3   91.79   18.10
  21 -18   3  383.06   36.90
 -21  18   3  425.46   43.90
   3  21 -18  381.96   51.89
 -18  -3 -21  381.36   41.40
  -3 -21 -18  391.36   35.20
  -3  21 -18  379.96   54.29
 -21  18  -3  399.36   51.69
 -18   3 -21  387.56   45.10
  21 -18  -3  384.26   37.60
   3 -21 -18  373.16   38.40
   3  21 -20  120.49   30.10
  -3 -21 -20  117.99   16.30
  21 -20   3  101.09   17.60
  -3  21 -20   61.89   29.10
  21 -20  -3   80.79   18.50
   3 -21 -20   90.89   20.30
 -21  20  -3   41.20   25.70
  20  -3 -21   75.39   16.20
 -20   3 -21   72.99   22.30
  -4  21   1   75.59   20.30
   4  21  -1   62.89   22.70
  -4 -21  -1   69.39   13.00
   4 -21   1   83.09   16.50
   1   4 -21   67.89   13.20
   4 -21  -1  123.69   18.10
  -4 -21   1  106.39   17.10
   4  21   1   85.39   22.50
  -1   4 -21   93.09   14.30
  -4  21  -1  133.19   25.60
   4  21  -3   65.09   27.00
  -4  21   3   78.09   21.00
   4 -21   3   79.39   17.70
  -4 -21   3   91.09   14.20
   4 -21  -3  108.79   17.40
  -4  21  -3  122.29   26.80
   4  21   3  112.69   22.60
  -3   4 -21  113.49   16.50
   4 -21   5  331.37   34.20
  -4 -21  -5  314.47   30.90
   4  21  -5  292.37   45.50
  -4  21   5  307.67   36.80
  -4 -21   5  446.66   31.70
  -4  21  -5  388.26   45.20
   4 -21  -5  449.06   35.30
  -5   4 -21  415.36   35.20
   4  21  -7  615.54   67.39
   4 -21   7  729.93   57.09
  -4 -21  -7  702.13   54.79
  -4 -21   7  817.72   55.09
  -4  21  -7  670.03   66.79
  -7   4 -21  798.72   59.69
   4 -21  -7  802.32   57.29
 -21   9   4   13.70   22.30
  -4 -21  -9   31.60   13.00
   4  21  -9   22.30   26.50
   4 -21   9   14.30   14.80
 -21   9  -4   27.20   25.60
  -9   4 -21   25.40   16.70
   4 -21  -9   33.60   17.00
  -4  21  -9   19.60   25.50
  21  -9  -4   22.10   11.60
  -4 -21 -11   10.30   11.80
  21 -11   4   13.40   11.70
   4  21 -11    7.10   25.00
 -21  11   4    4.50   21.40
   4 -21  11    6.30   16.00
  21 -11  -4   28.80   13.00
 -11   4 -21    7.90   18.20
   4 -21 -11   26.20   17.20
 -21  11  -4   26.50   28.20
  -4  21 -11    6.10   24.60
   4  21 -13  104.29   30.20
  21 -13   4  146.29   17.90
 -21  13   4  116.89   25.00
  -4 -21 -13  150.88   21.90
 -21  13  -4  116.29   30.50
   4 -21 -13   91.19   18.40
 -13   4 -21  149.29   25.70
  21 -13  -4  142.09   23.40
  -4  21 -13   71.09   27.70
   4  21 -15  114.89   34.20
  -4 -21 -15  108.99   17.50
  21 -15   4  136.09   19.30
 -21  15   4  129.89   25.40
  -4  21 -15   80.39   29.40
   4 -21 -15  154.48   21.90
  21 -15  -4  148.99   25.40
 -15   4 -21  121.69   24.80
 -21  15  -4  110.39   29.70
  -4 -21 -17   16.00   13.20
  21 -17   4    9.70   15.70
   4  21 -17   17.00   28.60
 -21  17  -4   14.50   27.60
  21 -17  -4   21.40   16.10
 -17   4 -21   15.20   21.60
   4 -21 -17   21.00   17.50
  -4  21 -17   40.60   31.40
  21 -19   4   28.90   16.80
   4  21 -19   24.60   27.50
   4 -21 -19   63.59   19.10
 -19   4 -21   78.09   23.30
 -21  19  -4   83.59   28.20
  21 -19  -4   74.89   18.90
  19  -4 -21   91.59   17.00
  -4  21 -19   72.99   29.10
   5 -21   0  412.86   36.30
  -5 -21   0  410.76   33.00
  -5  21   0  418.26   44.60
   5  21   0  415.66   46.20
   0   5 -21  401.06   35.70
  -5 -21  -2  379.36   31.30
   5 -21   2  388.36   34.90
   2   5 -21  374.06   33.40
   5  21  -2  331.17   45.90
  -5  21   2  379.46   41.40
   5  21   2  413.36   43.10
  -5  21  -2  426.76   44.70
  -2   5 -21  381.56   35.00
  -5 -21   2  365.46   31.20
   5 -21  -2  417.16   35.60
   5 -21   4  318.97   34.50
   5  21  -4  289.77   45.90
  -5 -21  -4  313.67   30.90
  -5  21   4  326.17   38.80
  -5 -21   4  448.46   31.60
   5 -21  -4  451.25   35.70
  -5  21  -4  426.26   46.50
  -4   5 -21  434.56   36.30
  -5 -21  -6 1013.80   70.69
   5 -21   6 1029.50   73.19
   5  21  -6  917.21   81.99
  -5  21  -6  938.01   81.69
  -6   5 -21 1042.70   75.69
  -5 -21   6  969.60   70.79
   5 -21  -6 1006.30   73.29
   5  21  -8  211.08   34.80
   5 -21   8  304.87   29.00
  -5 -21  -8  284.77   24.30
  -8   5 -21  225.58   32.60
  21  -8  -5  226.38   23.20
   5 -21  -8  225.98   28.90
 -21   8  -5  164.08   32.40
  -5  21  -8  230.98   37.30
  -5 -21 -10  339.67   30.60
  21 -10   5  320.87   30.20
   5 -21  10  355.06   35.20
 -21  10   5  348.97   41.60
   5  21 -10  292.07   49.60
  -5  21 -10  470.75   52.09
 -21  10  -5  439.96   50.49
  -5 -21 -12  226.88   24.30
  21 -12   5  210.08   24.90
 -21  12   5  202.68   35.40
   5 -21  12  211.48   30.10
   5  21 -12  152.98   33.30
 -21  12  -5  310.67   46.50
  -5  21 -12  280.17   47.40
 -21  14   5  130.89   23.90
   5  21 -14   73.09   28.20
  -5 -21 -14  129.39   20.80
  21 -14   5  142.29   19.00
  -5  21 -14  225.28   35.30
  -5 -21 -16   -0.10   12.30
   5  21 -16   -9.80   28.00
  21 -16   5   12.20   14.90
 -21  16   5    8.80    5.70
   5 -21 -16    0.80   18.00
 -16   5 -21   -8.70   20.70
  21 -16  -5   11.90   15.90
  -5  21 -16    9.00   26.30
 -21  16  -5    0.50   25.00
   5  21 -18  551.64   59.09
  21 -18   5  543.05   44.50
  -5 -21 -18  563.84   41.50
   5 -21 -18  475.95   46.20
 -21  18  -5  501.85   58.09
  -5  21 -18  530.15   61.29
  21 -18  -5  461.55   45.20
 -18   5 -21  501.05   53.29
  21 -20   5  126.19   20.00
  -5 -21 -20  136.69   20.50
   5  21 -20  118.99   28.90
   5 -21 -20  151.38   22.50
  -5  21 -20  180.78   34.20
  21 -20  -5  151.98   21.30
 -21  20  -5  197.38   34.00
 -20   5 -21  135.69   26.90
  20  -5 -21  173.18   24.60
   6  21  -1  121.09   27.30
   6 -21   1  143.79   20.10
  -6 -21  -1  153.58   17.30
   1   6 -21  138.49   22.70
  -6  21   1  131.19   23.30
   6 -21  -1  139.29   23.50
  -6  21  -1  108.99   23.30
  -1   6 -21  127.19   23.30
  -6 -21   1  130.99   17.30
   6  21   1  121.29   25.80
   6 -21   3 1729.73  113.49
   6  21  -3 1648.14  120.79
   3   6 -21 1637.24  113.79
  -6  21   3 1688.93  116.99
  -6 -21  -3 1716.43  111.29
  -6 -21   3 1493.85  110.99
  -6  21  -3 1478.75  118.69
  -3   6 -21 1525.95  114.79
   6 -21  -3 1536.25  113.09
  -6 -21  -5 1020.80   70.19
   6 -21   5 1030.00   72.89
   6  21  -5  942.91   81.89
  -6  21   5 1041.50   74.79
  -5   6 -21 1019.70   75.69
  -6  21  -5  870.71   80.09
   6 -21  -5  972.50   72.99
  -6 -21   5  975.20   70.09
   6 -21   7 1380.66   98.59
   6  21  -7 1217.48  107.09
  -6 -21  -7 1399.76   96.59
   6 -21  -7 1478.95   99.09
 -21   7  -6 1263.77  106.79
  -6  21  -7 1332.67  106.89
  -7   6 -21 1564.74  102.79
   6 -21   9  978.40   70.99
   6  21  -9  834.02   80.59
 -21   9   6  842.62   74.79
  -6 -21  -9  907.71   67.79
  -6  21  -9  920.31   81.39
  21  -9  -6 1026.40   68.49
  -9   6 -21  999.70   75.39
 -21   9  -6  959.40   81.49
   6 -21  -9 1020.20   70.99
  21 -11   6   97.29   15.00
 -21  11   6   83.99   22.10
   6 -21  11  100.99   19.10
  -6 -21 -11  115.99   19.00
   6  21 -11   79.69   32.50
  21 -11  -6  109.59   16.10
 -21  11  -6   96.99   30.80
 -11   6 -21  117.69   25.40
  -6  21 -11  108.09   32.90
   6 -21 -11  104.29   19.60
  21 -13   6    2.40   13.20
   6  21 -13   15.90   28.20
  -6 -21 -13   12.90   11.60
  21 -13  -6    2.50   14.20
 -21  13  -6   11.90   24.90
   6 -21 -13    5.10   16.20
 -13   6 -21    4.00   19.20
  -6  21 -13   13.50   27.10
  21 -15   6  225.18   26.90
  -6 -21 -15  208.28   22.70
   6  21 -15  192.98   35.10
 -15   6 -21  192.38   29.60
  -6  21 -15  142.39   32.40
  21 -15  -6  195.98   27.70
 -21  15  -6  239.58   38.70
   6 -21 -15  191.68   31.20
  21 -17   6  850.41   61.99
   6  21 -17  826.62   74.79
  -6 -21 -17  866.51   59.09
  21 -17  -6  756.42   62.19
  -6  21 -17  827.22   76.79
 -17   6 -21  779.22   69.39
   6 -21 -17  727.23   63.69
 -21  17  -6  824.32   74.59
   6  21 -19  282.27   46.10
  -6 -21 -19  266.57   28.00
  21 -19   6  273.77   32.70
 -21  19  -6  363.76   49.99
   6 -21 -19  324.97   36.90
  -6  21 -19  355.86   52.29
  21 -19  -6  367.96   35.00
  19  -6 -21  344.47   32.70
 -19   6 -21  364.16   44.10
   7 -21   0  671.63   51.99
  -7 -21   0  666.33   48.30
  -7  21   0  644.04   58.79
   7  21   0  643.24   60.79
   0   7 -21  698.33   54.09
   7 -21   2  556.54   44.60
  -7  21   2  548.95   49.90
  -7 -21  -2  577.24   40.10
   2   7 -21  568.54   45.20
   7  21  -2  458.85   54.19
  -7  21  -2  530.45   52.39
   7 -21  -2  559.54   44.60
  -7 -21   2  450.65   39.60
  -2   7 -21  546.45   46.90
  -7 -21  -4  643.64   52.49
   7 -21   4  733.13   56.79
   7  21  -4  673.53   66.39
   4   7 -21  699.83   56.79
  -7  21   4  718.53   59.69
  -7  21  -4  733.43   64.99
   7 -21  -4  772.72   56.89
  -7 -21   4  805.92   52.99
  -4   7 -21  785.32   59.59
   7  21  -6 1211.98  107.39
  -7 -21  -6 1414.16   96.59
   7 -21   6 1390.56   99.29
  -6   7 -21 1487.35  103.19
  -7  21  -6 1279.87  106.39
   7 -21  -6 1514.25   99.89
 -21   8   7  130.99   23.90
   7 -21   8   94.99   18.90
   7  21  -8  110.99   31.30
  -7 -21  -8  114.89   17.10
 -21   8  -7  102.99   28.40
  -8   7 -21  146.79   24.10
   7 -21  -8  156.28   26.10
  21  -8  -7  165.48   19.00
  -7  21  -8  115.69   29.80
   7 -21  10  402.66   38.40
   7  21 -10  333.57   51.79
  -7 -21 -10  379.96   32.10
  21 -10   7  391.46   33.50
 -21  10   7  404.06   41.70
 -21  10  -7  378.86   51.69
  21 -10  -7  416.36   34.30
 -10   7 -21  434.66   44.10
  -7  21 -10  374.16   53.49
   7 -21 -10  451.95   39.10
   7  21 -12  364.36   52.29
  -7 -21 -12  409.56   31.10
   7 -21  12  405.26   38.20
  21 -12   7  431.86   33.40
   7 -21 -12  310.97   37.80
 -12   7 -21  347.67   43.90
  -7  21 -12  301.67   53.59
  21 -12  -7  342.17   34.40
 -21  12  -7  294.17   50.19
   7  21 -14  383.76   52.69
  -7 -21 -14  392.26   29.90
  21 -14   7  399.86   33.00
  -7  21 -14  287.37   53.49
  21 -14  -7  296.87   33.90
 -14   7 -21  275.77   42.80
   7 -21 -14  322.27   37.90
 -21  14  -7  297.47   50.89
   7  21 -16   69.99   27.10
  21 -16   7   87.89   16.60
  -7  21 -16   76.79   34.60
  21 -16  -7   45.70   16.90
 -21  16  -7   53.89   30.00
 -16   7 -21   36.60   24.90
   7 -21 -16   55.89   19.20
   7  21 -18  351.26   48.90
  21 -18   7  319.27   34.60
  -7  21 -18  385.26   53.69
  21 -18  -7  378.36   37.40
   7 -21 -18  351.86   39.40
 -21  18  -7  381.96   52.89
 -18   7 -21  365.76   44.10
  18  -7 -21  380.36   36.90
  20  -7 -21   38.10   15.00
   7 -21 -20   33.40   18.30
  -7  21 -20   34.80   26.80
 -21  20  -7   44.90   28.10
 -20   7 -21   40.60   23.10
  21 -20  -7   48.90   17.70
   8  21  -1  135.19   30.10
  -8  21   1  153.98   25.90
   8 -21   1  138.89   25.20
   1   8 -21  160.18   28.30
  -8 -21  -1  149.19   16.90
  -1   8 -21  216.98   30.20
  -8 -21   1  201.28   17.70
   8 -21  -1  230.38   26.80
  -8  21  -1  212.18   35.30
   3   8 -21  141.29   21.30
  -8  21   3  112.99   21.80
   8  21  -3  101.69   27.10
  -8 -21  -3  118.39   14.60
   8 -21   3  146.99   20.50
  -3   8 -21  125.09   22.00
  -8  21  -3   78.59   24.10
   8 -21  -3   83.59   18.30
  -8 -21  -5  300.57   22.80
   5   8 -21  303.37   31.90
   8  21  -5  264.67   44.60
  -8  21  -5  193.58   33.60
   8 -21  -5  220.98   30.80
  -5   8 -21  228.38   34.80
  -8 -21  -7  115.09   17.00
   8  21  -7  103.79   31.00
   8 -21   7  146.49   21.60
  -8  21  -7  129.29   31.40
 -21   7  -8  135.39   30.20
   8 -21  -7  188.88   27.60
  -7   8 -21  157.58   24.20
  -8 -21  -9  111.59   18.80
   8 -21   9   91.29   19.60
   8  21  -9   56.89   27.70
 -21   9  -8   87.89   29.70
   8 -21  -9  121.39   20.60
  -9   8 -21  160.18   26.60
  -8  21  -9  137.59   32.90
  21  -9  -8  131.69   20.00
   8 -21  11   49.00   17.80
   8  21 -11   35.30   29.10
  -8  21 -11   29.20   27.00
   8 -21 -11   46.20   17.80
 -11   8 -21   49.10   22.40
 -21  11  -8   35.50   30.70
  21 -11  -8   35.50   13.50
   8  21 -13  398.66   54.69
  21 -13   8  443.06   36.40
  -8  21 -13  389.36   56.99
  21 -13  -8  404.46   37.50
   8 -21 -13  408.96   41.30
 -21  13  -8  425.66   55.49
 -13   8 -21  406.06   46.90
  21 -15   8    7.40   14.30
   8  21 -15   17.40   28.40
  -8  21 -15    9.30   31.90
   8 -21 -15    7.20   19.60
  21 -15  -8    5.00   16.30
 -15   8 -21    0.40   21.80
 -21  15  -8   11.60   29.30
  21 -17   8  155.98   25.60
   8  21 -17  208.88   34.50
  21 -17  -8  155.98   27.50
 -17   8 -21  137.29   27.40
  -8  21 -17  167.28   37.90
 -21  17  -8  123.99   30.20
   8 -21 -17  127.89   23.90
  17  -8 -21  148.79   22.40
  21 -19   8   96.39   17.50
 -21  19  -8  107.89   32.80
  21 -19  -8   88.89   18.60
   8 -21 -19   61.49   19.60
 -19   8 -21   86.19   25.70
  -8  21 -19   70.99   30.60
  19  -8 -21   78.99   18.20
   9 -21   0    6.10   15.40
   0   9 -21   16.50   17.10
  -9  21   0   26.70   22.20
  -9  21   2  158.58   25.10
   2   9 -21  176.38   29.50
   9 -21   2  208.58   26.50
  -2   9 -21  189.38   31.70
  -9  21  -2  184.08   31.00
   9 -21  -2  132.69   20.90
  -9  21   4   15.20   16.60
   4   9 -21   32.00   17.60
   9 -21   4   22.90   15.70
   9  21  -4   11.70   26.30
  -4   9 -21   20.80   17.80
   9 -21  -4   42.70   18.30
  -9  21  -4    6.90   22.00
   6   9 -21  942.41   72.49
   9 -21   6  883.81   70.09
   9  21  -6  795.82   79.79
 -21   6  -9  954.60   81.09
  -6   9 -21 1021.30   75.49
  -9  21  -6  921.21   79.89
   9 -21  -6 1027.60   70.99
   9  21  -8   72.69   29.70
   9 -21   8  102.09   18.80
 -21   8  -9   68.79   26.60
  -8   9 -21  142.19   25.10
  -9  21  -8  106.29   30.60
  21  -8  -9  124.69   19.10
   9 -21  -8   89.09   18.40
   9 -21  10  282.17   31.10
   9  21 -10  179.78   33.10
  -9  21 -10  171.68   34.30
  21 -10  -9  276.27   26.70
 -10   9 -21  252.27   39.40
 -21  10  -9  245.28   40.00
   9 -21 -10  261.97   32.40
   9  21 -12   15.20   27.40
   9 -21  12   32.60   18.90
  -9  21 -12   27.40   27.90
  21 -12  -9   53.49   16.00
 -21  12  -9   32.10   27.00
   9 -21 -12   28.30   20.20
 -12   9 -21   52.89   24.30
   9  21 -14  182.68   33.90
 -14   9 -21  138.49   28.00
  -9  21 -14  127.09   32.20
 -21  14  -9  117.89   29.60
  21 -14  -9  116.89   18.60
   9 -21 -14  105.89   21.70
   9 -21 -16   66.29   19.40
 -16   9 -21   68.19   24.80
 -21  16  -9   70.19   26.90
  21 -16  -9   79.39   18.40
  -9  21 -16  140.79   36.80
  16  -9 -21  102.19   22.30
  21 -18  -9  740.73   58.89
 -18   9 -21  740.93   66.99
 -21  18  -9  786.12   72.49
   9 -21 -18  726.23   61.09
  18  -9 -21  731.73   59.19
  10 -21   1   43.00   17.20
   1  10 -21   74.59   21.10
 -10  21   1   44.90   20.60
  -1  10 -21  106.89   23.40
 -10  21  -1  101.99   26.00
  10 -21  -1   89.79   18.10
  10 -21   3  390.76   39.30
 -10  21   3  422.76   43.40
   3  10 -21  410.36   42.60
  -3  10 -21  434.26   43.70
  10 -21  -3  467.05   40.20
 -10  21  -3  418.16   48.60
   5  10 -21  359.16   43.80
  -5  10 -21  531.55   47.30
 -21   5 -10  450.45   54.59
 -10  21  -5  492.15   52.99
  10 -21  -5  479.65   42.00
  10  21  -7  336.47   50.69
  10 -21   7  377.26   38.50
 -21   7 -10  389.36   52.49
  -7  10 -21  424.06   45.10
 -10  21  -7  406.86   52.29
  21  -7 -10  421.26   33.20
  10 -21  -7  403.06   39.80
  10  21  -9  251.07   45.60
  10 -21   9  289.27   32.80
  21  -9 -10  276.77   26.90
  10 -21  -9  243.58   32.20
 -21   9 -10  207.48   36.80
  -9  10 -21  268.87   38.50
 -10  21  -9  268.27   48.40
 -11  10 -21  304.57   42.00
 -10  21 -11  210.08   37.10
 -21  11 -10  186.78   35.40
  21 -11 -10  278.77   28.40
  10 -21 -11  280.07   34.10
 -10  21 -13  235.58   40.20
 -13  10 -21  147.69   28.30
 -21  13 -10  225.38   38.30
  21 -13 -10  188.38   27.40
  10 -21 -13  189.58   32.50
 -21  15 -10  185.38   37.10
  10 -21 -15  116.29   23.40
 -15  10 -21  165.68   31.70
  15 -10 -21  144.09   23.80
  21 -15 -10  160.38   26.60
 -10  21 -15  152.18   33.80
  10 -21 -17   91.39   19.90
 -17  10 -21  122.79   27.30
 -10  21 -17  135.79   31.90
  17 -10 -21  122.29   21.00
 -21  17 -10  183.68   36.70
  21 -17 -10  159.38   26.40
 -11  21   0  729.93   63.99
   0  11 -21  705.33   61.39
  11 -21   0  751.82   57.99
  11 -21   2  158.08   26.20
  11 -21  -2   80.59   18.60
 -11  21  -2   85.09   25.10
  -2  11 -21  105.49   23.80
   4  11 -21    0.70   19.00
  11 -21   4    8.80   15.40
 -21   4 -11   20.10   23.70
  -4  11 -21   38.50   21.80
  11 -21  -4    5.30   17.20
  21  -4 -11   -0.20    2.10
 -11  21  -4   23.90   23.90
  11 -21   6   81.49   17.90
   6  11 -21  110.79   22.60
  -6  11 -21  112.99   25.30
 -21   6 -11   73.99   28.80
  11 -21  -6  112.29   21.80
 -11  21  -6  105.89   31.30
  11 -21   8   30.70   16.90
  21  -8 -11   49.70   13.60
 -11  21  -8   17.70   23.90
 -21   8 -11   35.40   30.50
  -8  11 -21   35.10   22.10
  11 -21  -8   60.89   22.00
 -11  21 -10  306.27   51.39
 -21  10 -11  289.47   42.60
 -10  11 -21  297.87   43.30
  21 -10 -11  257.57   28.90
  11 -21 -10  315.17   36.20
  11 -21  12  399.26   36.90
 -11  21 -12  334.37   54.99
  11 -21 -12  299.67   37.80
 -21  12 -11  323.57   51.79
 -12  11 -21  282.17   46.10
  21 -12 -11  328.67   33.30
 -21  14 -11   85.99   30.80
  11 -21 -14   50.29   20.30
  14 -11 -21   93.09   22.80
 -11  21 -14   81.99   34.90
  21 -14 -11   59.69   16.50
 -14  11 -21   56.99   24.20
  21 -16 -11  119.29   19.70
  11 -21 -16   53.99   20.00
  16 -11 -21   87.19   21.00
 -21  16 -11   95.49   28.90
 -11  21 -16  108.29   34.80
 -16  11 -21  107.49   26.30
  21 -18 -11   63.99   18.30
 -11  21 -18   63.79   29.50
 -21  18 -11   45.10   28.90
  18 -11 -21   47.70   17.40
 -18  11 -21   45.90   23.80
  11 -21 -18   39.20   21.30
  12 -21   1  114.19   19.80
   1  12 -21  165.08   26.40
 -12  21   1  128.39   25.00
 -12  21   3    4.50   18.70
  12 -21   3    7.30   17.60
   3  12 -21   24.50   19.90
 -12  21  -3   42.30   25.80
  -3  12 -21   41.90   21.90
 -21   3 -12   39.60   23.90
  12 -21  -3   42.80   16.90
   5  12 -21  203.08   35.70
  12 -21   5  183.18   29.40
 -21   5 -12  292.07   45.80
 -12  21  -5  262.87   43.50
   7  12 -21  422.56   41.10
  12 -21   7  375.46   36.80
 -12  21  -7  275.47   49.10
 -21   7 -12  334.77   50.99
  -7  12 -21  309.17   44.30
  12 -21  -7  320.67   37.40
  21  -7 -12  320.57   30.60
  12 -21   9   40.40   20.00
  21  -9 -12   53.29   14.40
 -12  21  -9   36.30   27.10
  -9  12 -21   43.40   24.20
  12 -21  -9   33.30   18.40
 -21   9 -12   22.20   30.60
  12 -21  11  395.86   37.50
 -11  12 -21  347.87   45.90
 -21  11 -12  339.27   52.59
  12 -21 -11  299.87   38.50
 -12  21 -11  323.77   52.89
  21 -11 -12  319.77   32.70
  12 -21 -13  134.09   24.10
  21 -13 -12  105.89   18.90
 -21  13 -12  157.08   36.10
 -12  21 -13  160.28   37.70
  13 -12 -21  136.79   24.50
 -13  12 -21  122.59   28.10
 -21  15 -12   34.60   27.10
  15 -12 -21   31.20   20.60
 -15  12 -21   40.60   25.70
  21 -15 -12   37.90   17.30
  12 -21 -15   33.00   20.90
 -12  21 -15   20.90   28.70
 -17  12 -21  170.78   31.00
  17 -12 -21  170.78   30.20
  21 -17 -12  193.38   28.10
 -12  21 -17  198.08   36.90
 -21  17 -12  253.67   40.10
  12 -21 -17  186.88   27.70
  13 -21   0   39.00   17.30
 -13  21   0   77.49   24.90
   0  13 -21   40.20   21.00
 -13  21   2  104.39   23.00
   2  13 -21  119.99   25.20
  13 -21   2   65.59   17.50
  13 -21  -2   64.59   19.50
  -2  13 -21   70.99   23.60
 -21   2 -13   57.89   27.20
 -13  21  -2   61.79   23.90
  13 -21   4  113.59   21.00
   4  13 -21  128.89   25.80
  13 -21  -4  108.39   21.00
 -13  21  -4  125.79   30.50
  -4  13 -21  150.58   29.00
 -21   4 -13  106.79   27.30
   6  13 -21    9.60   21.20
  13 -21   6   11.10   16.70
 -13  21  -6    8.40   28.90
  13 -21  -6    1.80   20.00
 -21   6 -13    6.00   27.50
  -6  13 -21   17.00   21.20
  13 -21   8  366.26   39.40
  21  -8 -13  389.16   34.60
  -8  13 -21  412.76   48.00
 -13  21  -8  382.06   53.19
 -21   8 -13  391.16   53.59
  13 -21  -8  415.56   40.80
 -21  10 -13  183.38   36.60
 -10  13 -21  204.38   32.90
  21 -10 -13  188.68   25.30
  13 -21 -10  191.18   32.10
 -13  21 -10  223.08   38.00
  13 -21  12   90.09   22.30
  13 -21 -12  106.19   22.10
 -21  12 -13  121.19   32.20
 -13  21 -12   80.79   28.80
 -12  13 -21  106.59   26.40
  12 -13 -21  134.59   24.50
  21 -12 -13  136.39   18.80
 -21  14 -13  153.98   34.30
  14 -13 -21  129.89   24.40
 -13  21 -14  120.29   32.70
  13 -21 -14  141.59   25.20
 -14  13 -21  150.68   30.70
  21 -14 -13  135.69   20.20
  16 -13 -21   90.69   20.50
 -13  21 -16  120.39   32.30
  21 -16 -13  125.99   20.20
 -21  16 -13  142.39   34.70
 -16  13 -21  125.09   30.00
  13 -21 -16   85.69   20.00
   1  14 -21   12.70   21.40
  14 -21   1    8.10   15.90
 -14  21   1   16.90   20.60
 -14  21  -1   23.80   22.70
  -1  14 -21   19.10   21.20
  14 -21  -1   11.30   19.40
 -21   1 -14   25.40   23.70
   3  14 -21   98.59   24.90
  14 -21   3   71.39   18.00
 -14  21   3   98.89   22.60
  -3  14 -21  140.29   28.00
 -21   3 -14  116.49   31.30
 -14  21  -3  103.49   26.40
  14 -21  -3   93.89   21.20
   5  14 -21  165.28   29.50
  14 -21   5  111.99   21.90
   7  14 -21  421.36   43.10
  14 -21   7  355.56   34.90
 -21   7 -14  285.87   42.10
  14 -21  -7  259.67   36.10
  -7  14 -21  312.27   45.30
  21  -7 -14  304.57   29.90
 -14  21  -7  272.77   49.80
  14 -21   9  152.48   22.40
  21  -9 -14  130.79   23.20
 -21   9 -14  131.59   34.00
 -14  21  -9  135.99   32.70
  14 -21  -9  107.99   22.90
  -9  14 -21  135.49   29.70
  14 -21  11   14.30   19.00
 -21  11 -14   47.50   29.90
 -11  14 -21   82.79   28.00
  21 -11 -14   69.49   15.70
  11 -14 -21   56.09   22.70
 -14  21 -11   77.89   31.90
  14 -21 -11   64.19   22.20
 -13  14 -21  133.39   29.50
  21 -13 -14  118.89   18.80
  14 -21 -13  139.59   25.00
  13 -14 -21  121.29   24.20
 -21  13 -14  108.49   28.80
 -14  21 -13  171.98   38.60
  14 -21 -15   24.80   20.10
  15 -14 -21    8.50   16.90
  21 -15 -14   13.90   15.40
 -15  14 -21   19.40   23.20
 -21  15 -14   21.40   27.80
 -14  21 -15   18.30   26.70
 -21   0 -15   88.69   29.10
  15 -21   0   86.59   21.70
 -15  21   0   60.19   23.40
   0  15 -21   62.19   24.30
  15 -21   2   89.99   19.30
   2  15 -21  107.69   25.10
 -15  21   2  135.29   24.60
  -2  15 -21  175.98   29.30
  15 -21  -2  100.99   21.40
   4  15 -21  117.89   27.70
  15 -21   4  104.19   21.50
 -15  21  -4  157.08   33.10
  15 -21  -4  140.99   23.90
  -4  15 -21  107.99   26.50
 -21   4 -15  116.19   28.40
   6  15 -21  234.78   38.90
  15 -21   6  222.18   31.30
 -21   6 -15  229.68   37.00
  -6  15 -21  163.18   30.10
  15 -21  -6  183.78   32.70
  21  -6 -15  186.78   24.10
 -15  21  -6  225.88   36.80
  15 -21   8    7.40   17.80
  -8 -15 -21   11.70   11.60
 -15  21  -8  -18.40   26.30
  -8  15 -21    2.10   23.10
   8 -15 -21   -6.40   17.80
 -21   8 -15   23.70   29.70
  21  -8 -15   17.00   13.30
  15 -21  -8    7.70   18.50
 -21  10 -15  166.78   33.90
 -10  15 -21  176.48   32.50
 -15  21 -10  157.98   33.60
  21 -10 -15  153.78   24.20
  15 -21 -10   93.49   21.80
  10 -15 -21  129.49   24.90
 -15  21 -12   48.70   29.20
  12 -15 -21   33.70   21.70
 -21  12 -15   30.10   28.00
  21 -12 -15   36.80   14.70
 -12  15 -21   32.10   26.70
  15 -21 -12   12.30   19.30
 -14  15 -21   17.40   24.80
  21 -14 -15   15.20   16.30
 -15  21 -14   25.40   30.40
 -21  14 -15   35.60   26.00
  15 -21 -14   21.50   18.60
  14 -15 -21   23.30   20.90
 -21  -1 -16  177.88   30.30
 -16  21   1  158.98   26.70
 -16  21  -1  100.69   26.40
  -1  16 -21   95.79   26.00
  16 -21  -1   87.79   21.00
 -21   1 -16   77.09   25.40
 -21  -3 -16  104.89   25.70
  16 -21   3   99.19   21.60
   3  16 -21   68.69   23.90
  16 -21  -3   66.69   21.60
  -3  16 -21   56.39   25.80
 -16  21  -3   59.49   26.10
 -21   3 -16   42.50   24.70
  -5 -16 -21    0.80   12.60
  16 -21   5    6.90   17.90
   5  16 -21   -2.90   22.40
  21  -5 -16   -3.00    9.10
 -21   5 -16    3.20   23.90
  -5  16 -21   12.50   23.10
  16 -21  -5    3.60   16.60
 -16  21  -5  -11.30   27.40
  16 -21   7   42.80   17.50
   7  16 -21   75.19   23.00
  16 -21  -7   41.10   20.80
 -16  21  -7   38.60   26.20
  21  -7 -16   37.50   14.20
   7 -16 -21   64.69   23.00
 -21   7 -16   39.50   28.00
  -7  16 -21   67.49   26.40
  -9 -16 -21  121.39   20.20
  16 -21   9  121.59   20.70
 -16  21  -9  117.59   32.30
  16 -21  -9   68.59   22.50
  21  -9 -16  125.69   18.40
  -9  16 -21  124.59   30.00
 -21   9 -16  116.69   31.70
   9 -16 -21   87.09   25.00
  16 -21  11   74.59   21.10
 -16  21 -11  153.78   33.70
 -21  11 -16   96.39   28.50
 -11  16 -21  132.09   31.60
  11 -16 -21  113.79   25.60
  16 -21 -11   68.09   19.50
  21 -11 -16  137.59   18.60
 -21  13 -16  115.69   32.60
 -13  16 -21  130.99   31.00
  16 -21 -13  147.69   24.50
  13 -16 -21   98.89   22.30
 -16  21 -13   92.09   27.90
  21 -13 -16  108.69   17.90
   0  17 -21   43.70   24.00
  17 -21   0   55.89   19.70
 -17  21   0   37.70   23.30
 -21   0 -17   25.60   22.70
   0 -17 -21   31.10   15.50
  -2 -17 -21  251.87   28.10
  17 -21   2  201.58   31.30
   2  17 -21  272.27   35.90
 -17  21   2  258.47   36.80
 -21  -2 -17  188.68   30.50
 -17  21  -2  236.68   34.50
  17 -21  -2  196.08   32.60
  -2  17 -21  223.08   34.20
   2 -17 -21  179.58   30.70
 -21   2 -17  233.58   34.80
 -17  21   4   -4.50    5.00
  17 -21   4    3.70   15.90
  -4 -17 -21    7.80   13.60
 -21  -4 -17    8.40   22.80
   4  17 -21   12.70   22.60
  17 -21  -4   -3.30   16.60
 -21   4 -17    7.30   24.30
   4 -17 -21   21.40   19.70
  -4  17 -21   25.60   24.90
  21  -4 -17   -0.10    2.90
 -17  21  -4   21.80   25.90
 -21  -6 -17  819.12   67.89
   6  17 -21  828.02   68.89
  17 -21   6  781.52   62.29
  -6 -17 -21  831.02   59.29
   6 -17 -21  743.23   64.39
  21  -6 -17  778.32   59.59
 -21   6 -17  807.52   72.09
  -6  17 -21  769.72   71.69
 -17  21  -6  819.82   74.79
  -8 -17 -21  160.28   19.40
  17 -21   8  157.18   22.00
  21  -8 -17  156.78   24.00
 -17  21  -8  144.19   30.80
   8 -17 -21   98.89   22.60
  17 -21  -8  136.39   23.40
 -21   8 -17  135.09   29.10
  -8  17 -21  112.19   28.10
  17 -21  10  135.39   22.60
 -10  17 -21  106.99   28.70
  10 -17 -21  126.29   24.40
 -17  21 -10  182.68   35.80
 -21  10 -17  110.69   27.60
  17 -21 -10  147.69   23.30
  21 -10 -17  170.88   24.30
 -12  17 -21  153.38   30.90
  17 -21 -12  183.48   31.50
  12 -17 -21  206.38   27.40
  21 -12 -17  166.38   25.10
 -17  21 -12  143.99   32.90
 -21  12 -17  165.98   31.50
  18 -21   1    8.50   17.50
  -1 -18 -21   34.90   15.60
   1  18 -21   14.00   23.70
 -18  21   1   20.50   21.00
 -21  -1 -18   33.60   22.10
 -21   1 -18   27.10   23.60
  18 -21  -1   12.30   15.80
   1 -18 -21   42.60   18.30
  -1  18 -21   18.80   26.20
 -18  21  -1   28.90   23.20
 -21  -3 -18  400.56   45.50
   3  18 -21  382.56   47.90
  -3 -18 -21  365.86   35.50
  18 -21   3  372.36   39.10
 -18  21  -3  409.96   49.60
  -3  18 -21  395.76   50.19
  18 -21  -3  366.46   39.90
   3 -18 -21  430.96   40.50
 -21   3 -18  409.06   48.70
   5  18 -21  564.64   53.99
  18 -21   5  499.95   45.40
 -21  -5 -18  565.94   50.69
  -5 -18 -21  555.54   41.70
   5 -18 -21  485.95   47.60
 -21   5 -18  451.25   54.69
  -5  18 -21  479.65   56.79
  21  -5 -18  564.04   41.20
 -18  21  -5  457.45   57.79
  18 -21  -5  438.86   46.70
   7  18 -21  325.87   43.60
 -21  -7 -18  331.77   41.10
  18 -21   7  319.17   36.80
  -7 -18 -21  348.37   31.10
   7 -18 -21  410.26   41.40
  21  -7 -18  386.76   34.10
  18 -21  -7  367.86   39.40
 -21   7 -18  414.06   49.50
 -18  21  -7  401.86   52.69
  -7  18 -21  401.46   49.80
  18 -21   9  575.94   55.89
 -21   9 -18  721.43   66.69
 -18  21  -9  799.22   71.09
  18 -21  -9  735.43   58.49
  -9  18 -21  763.32   67.79
   9 -18 -21  710.33   59.29
  21  -9 -18  717.03   54.39
 -21  11 -18   60.79   27.70
 -18  21 -11   70.69   30.80
  11 -18 -21   27.30   17.20
 -11  18 -21   49.30   27.20
  18 -21 -11   64.39   21.30
  21 -11 -18   72.99   16.00
 -19  21   0   20.90   22.90
 -21   0 -19   43.00   23.20
  19 -21   0   12.10   16.90
   0 -19 -21   34.50   16.50
   0  19 -21    7.60   25.30
  19 -21   2   87.69   19.40
  -2 -19 -21  136.99   23.20
 -21  -2 -19  139.59   25.50
   2  19 -21  159.68   31.20
 -19  21   2  142.59   25.40
 -19  21  -2  116.39   27.80
  19 -21  -2   87.79   20.20
 -21   2 -19  127.69   27.20
   2 -19 -21  110.19   21.10
  -2  19 -21  113.69   29.80
  -4 -19 -21   17.60   13.20
   4  19 -21   34.00   24.40
 -21  -4 -19   29.30   19.70
  19 -21   4   17.00   16.30
 -21   4 -19   85.49   25.90
  19 -21  -4   75.59   20.70
   4 -19 -21   48.40   17.60
  -4  19 -21   67.59   28.10
 -19  21  -4   72.29   26.60
 -21  -6 -19  256.87   35.40
   6  19 -21  271.07   41.60
  19 -21   6  289.77   34.60
  -6 -19 -21  272.37   28.40
  -6  19 -21  363.56   48.50
 -19  21  -6  362.86   50.09
  19 -21  -6  368.66   36.70
 -21   6 -19  345.27   44.30
   6 -19 -21  335.57   37.40
  21  -6 -19  338.37   30.70
  19 -21   8   97.59   19.10
  21  -8 -19   66.89   15.60
   8 -19 -21   42.50   18.00
  19 -21  -8   88.29   21.70
 -21   8 -19   96.29   28.20
  -8  19 -21   82.79   28.50
 -19  21  -8   85.19   30.60
 -20  21   1   23.60   20.90
  -1 -20 -21   18.70   14.50
   1  20 -21   40.10   23.30
 -21  -1 -20    6.30   19.80
  20 -21   1   16.60   16.20
 -20  21  -1   40.50   23.40
  -1  20 -21   52.49   27.80
 -21   1 -20   63.99   22.50
  20 -21  -1   34.20   17.40
   1 -20 -21   42.60   15.80
 -21  -3 -20   85.79   21.00
   3  20 -21  128.19   28.70
  -3  20 -21   77.79   27.80
  20 -21  -3   52.89   17.40
 -21   3 -20   54.59   23.40
 -20  21  -3   90.59   28.40
   3 -20 -21   65.79   18.20
  20 -21   5  137.99   20.90
   5  20 -21  111.79   26.70
  -5 -20 -21  135.99   20.50
  20 -21  -5  177.38   28.60
  21  -5 -20  150.78   21.80
 -21   5 -20  184.78   30.10
   5 -20 -21  129.89   21.40
  -5  20 -21  190.88   33.90
 -20  21  -5  151.78   30.10
  21  -7 -20   51.49   14.80
  -7  20 -21   39.70   26.80
   7 -20 -21   38.30   17.50
  20 -21  -7   37.20   18.40
 -20  21  -7   50.09   28.70
 -21   7 -20   45.10   23.00
 -21   0 -21   -4.00   16.00
 -21  21   0   -1.50   19.90
   0 -21 -21   -1.00   14.00
   0  21 -21    3.60   22.60
  21 -21   0   -6.10   14.70
  -2 -21 -21  185.58   24.00
  21 -21   2  159.18   22.00
   2  21 -21  166.58   30.80
 -21   2 -21  164.38   27.00
   2 -21 -21  196.68   27.70
  -2  21 -21  148.79   30.10
  21 -21  -2  197.58   27.80
 -21  21  -2  202.88   30.90
   0 -22   0   12.60   12.10
   0  22   0   12.00   21.40
   0  22  -2   15.20   22.20
   0  22   2   -2.80   17.80
   0 -22  -2    2.10   11.70
   0 -22   2    7.60   12.10
   0  22   4   15.70   17.90
   0  22  -4   14.90   25.20
   0 -22   4   17.00   14.40
   0 -22  -4   27.90   13.30
   0 -22   6  419.06   36.10
   0  22   6  465.45   39.10
   0  22  -6  343.37   49.20
   0 -22  -6  410.16   36.30
   0 -22  -8   94.39   17.30
   0 -22   8  126.99   21.80
   0  22  -8   76.89   29.30
 -22  10   0    7.00   24.80
   0 -22 -10   45.80   15.70
   0  22 -10   28.10   27.90
   0 -22  10   40.50   15.20
 -12   0 -22   11.30   15.10
 -22  12   0   -3.90   23.50
   0  22 -12    3.10   24.60
  22 -12   0   -1.70   11.90
   0 -22 -12    9.90   15.00
  22 -14   0   -1.30   12.80
   0 -22 -14   -3.70   15.70
   0  22 -14   14.40   25.10
 -14   0 -22   -2.80   16.00
 -22  14   0    4.40   22.30
   0  22 -16   14.00   28.90
   0 -22 -16   43.00   16.30
 -22  16   0   28.20   22.70
  22 -16   0   24.50   15.50
 -16   0 -22   25.80   18.20
 -18   0 -22  170.78   30.10
   0  22 -18  232.08   38.00
 -22  18   0  223.78   37.70
  22 -18   0  177.68   27.00
   0 -22 -18  162.58   25.50
   0  22 -20   23.10   25.30
   0 -22 -20   34.50   15.50
 -22  20   0   33.00   21.90
  22 -20   0   10.70   14.40
  -1 -22  -1   73.29   14.20
   1  22  -1   60.39   22.30
   1 -22   1   99.19   15.70
  -1  22   1   75.09   22.60
  -1 -22  -3  146.39   22.70
   1  22  -3  153.38   30.70
  -1  22   3  153.98   24.70
   1 -22   3  157.08   23.90
  -1  22  -3  159.78   29.00
   1  22   3  214.58   28.30
   1 -22  -3  179.18   23.90
  -1 -22   3  201.88   23.00
   1 -22   5   -8.20   13.50
  -1 -22  -5   11.00   12.00
  -1  22   5   17.20   16.80
   1  22  -5   15.40   23.20
   1  22   5  -10.40   16.30
  -1 -22   5   -4.30   11.70
  -1  22  -5   -0.20   22.50
   1 -22  -5    1.50   13.30
   1  22  -7  115.59   27.10
   1 -22   7  167.68   23.90
  -1 -22  -7  164.08   22.20
  -1 -22   7  139.29   21.70
  -1  22  -7   76.29   27.50
   1 -22  -7  104.09   17.60
   1 -22   9  438.56   36.20
 -22   9   1  366.26   47.80
   1  22  -9  393.26   51.49
  -1 -22  -9  463.65   35.70
  -1  22  -9  318.87   50.49
  -1 -22   9  369.16   35.00
   1 -22  -9  368.96   35.50
 -22   9  -1  368.46   49.20
  -9   1 -22  367.36   36.10
 -22  11   1    7.50   25.00
  22 -11   1    8.60   11.50
  -1 -22 -11   -1.70   14.70
   1  22 -11  -17.80   28.80
 -11   1 -22   20.20   15.70
  22 -11  -1   25.50   11.40
   1 -22 -11   27.50   16.10
  -1  22 -11   18.50   25.70
 -22  11  -1   13.50   26.70
   1  22 -13   78.09   27.90
  22 -13   1  105.59   15.70
 -22  13   1  117.69   29.30
 -22  13  -1   68.19   25.90
   1 -22 -13   64.69   15.90
  -1  22 -13   59.69   30.50
 -13   1 -22   95.69   20.70
  22 -13  -1   57.09   14.20
  -1 -22 -15  100.79   17.70
  22 -15   1  116.69   17.70
 -15  -1 -22  146.09   33.90
 -22  15   1  102.99   25.60
   1  22 -15   82.19   33.20
   1 -22 -15  120.49   19.90
  22 -15  -1   86.99   16.10
 -15   1 -22   96.29   21.90
  -1  22 -15  102.19   31.70
 -22  15  -1   85.59   28.30
   1  22 -17  182.58   36.20
  22 -17   1  155.68   26.20
  -1 -22 -17  161.58   25.50
 -22  17   1  181.18   30.70
  22 -17  -1  173.98   26.70
  -1  22 -17  191.88   37.30
   1 -22 -17  196.48   27.90
 -22  17  -1  210.38   33.70
 -17   1 -22  188.68   27.70
 -22  19   1   27.90   21.60
  -1 -22 -19   14.40   14.10
  22 -19   1   18.30   15.50
   1  22 -19    4.70   23.90
  22 -19  -1   23.00   15.00
   1 -22 -19   28.80   16.30
 -22  19  -1   36.70   22.70
  -1  22 -19    6.10   25.50
 -19   1 -22   21.80   17.40
  -2 -22   0   -3.20   11.70
   2 -22   0    7.50   12.70
  -2  22   0    3.20   19.20
   2  22   0    8.80   19.20
   2 -22   2  561.54   47.90
  -2  22   2  622.24   54.89
  -2 -22  -2  567.54   46.60
   2  22  -2  531.75   57.79
  -2  22  -2  828.72   59.59
   2 -22   4    5.10   13.40
  -2 -22  -4   18.50   12.50
  -2  22   4   19.20   18.20
   2  22  -4   15.10   22.30
   2  22   4  -11.00   17.60
  -2  22  -4  -16.30   23.80
   2 -22  -4   11.00   15.30
  -2 -22   4    1.10   12.10
   2  22  -6  307.97   46.50
  -2 -22  -6  302.87   30.80
   2 -22   6  341.67   33.10
  -2  22  -6  454.75   47.90
  -2 -22  -8   32.90   14.50
   2 -22   8   16.10   15.60
   2  22  -8   10.00   26.80
 -22   8  -2   42.70   28.00
   2 -22  -8   49.90   17.00
  -2  22  -8   20.30   25.70
  -2 -22   8   39.20   14.20
  -8   2 -22   58.89   15.10
 -22  10   2  346.57   48.70
   2 -22  10  381.36   39.20
   2  22 -10  327.47   54.49
  -2 -22 -10  420.96   37.80
 -22  10  -2  450.15   52.69
  -2  22 -10  444.46   55.49
 -10   2 -22  476.65   41.60
   2 -22 -10  503.45   39.90
  22 -10  -2  534.35   35.50
   2  22 -12  101.79   33.40
 -22  12   2   69.29   24.10
  22 -12  -2   61.19   13.80
 -22  12  -2   70.19   30.00
 -12   2 -22   68.19   19.50
   2 -22 -12   64.69   16.40
  -2  22 -12   66.49   31.40
  22 -14   2  519.35   40.50
  -2 -22 -14  504.45   40.80
   2  22 -14  499.85   59.09
 -22  14   2  504.85   51.09
 -22  14  -2  451.85   55.29
  -2  22 -14  442.16   58.29
 -14   2 -22  467.15   46.90
  22 -14  -2  459.35   40.70
   2 -22 -14  490.95   42.80
  22 -16   2   48.70   15.40
  -2 -22 -16   60.09   15.40
 -22  16   2   27.60   22.60
   2  22 -16   31.90   27.80
  -2  22 -16   74.29   27.50
 -22  16  -2   82.09   26.00
 -16   2 -22  116.09   22.70
   2  22 -18  112.19   29.70
  22 -18   2  130.69   19.30
  -2 -22 -18  132.49   17.70
 -22  18   2  143.69   26.10
   2 -22 -18  100.39   19.90
 -22  18  -2   82.89   26.70
  22 -18  -2   90.09   18.20
  -2  22 -18  114.69   32.20
 -18   2 -22   88.39   22.90
  -2 -22 -20   13.60   13.30
   2  22 -20   12.50   25.60
  22 -20   2   11.50   15.20
 -20   2 -22   39.80   18.20
  -2  22 -20   65.99   28.70
 -22  20  -2   52.79   24.80
  22 -20  -2   41.80   15.20
   2 -22 -20   57.29   17.60
   3 -22   1  173.98   24.70
  -3 -22  -1  146.89   21.00
   3  22  -1  173.48   30.80
  -3  22   1  153.28   26.00
  -3 -22   1  155.88   21.10
  -3  22  -1  198.78   31.00
   3  22   1  221.48   31.60
   3 -22  -1  188.88   24.70
   3 -22   3  631.54   48.10
   3  22  -3  591.04   58.19
  -3 -22  -3  595.74   45.90
  -3  22   3  660.93   53.59
   3  22   3  618.04   54.89
  -3 -22   3  598.04   45.80
   3 -22  -3  588.64   47.90
  -3  22  -3  477.15   56.59
  -3 -22  -5  271.27   26.60
   3 -22   5  279.57   29.70
  -3  22   5  279.87   32.80
   3  22  -5  253.37   44.30
   3  22  -7  666.13   58.79
  -7   3 -22  499.85   44.90
  -3 -22   7  537.05   42.10
  -3  22  -7  436.76   56.19
   3 -22  -7  541.35   44.50
  -3 -22  -9  175.28   22.10
   3 -22   9  180.88   25.60
   3  22  -9   89.49   27.70
 -22   9   3  136.89   26.20
  -9   3 -22  143.89   21.80
 -22   9  -3  112.29   30.20
   3 -22  -9  129.99   19.90
  -3  22  -9   78.09   27.80
 -22  11   3  400.06   48.60
   3  22 -11  328.87   55.39
  22 -11   3  423.76   36.50
  -3 -22 -11  413.86   38.10
   3 -22  11  403.96   40.80
   3 -22 -11  518.75   41.20
 -22  11  -3  506.95   55.59
 -11   3 -22  544.35   44.70
  -3  22 -11  500.55   56.89
  22 -11  -3  507.15   37.50
 -22  13   3  103.19   26.10
  22 -13   3  125.59   21.50
  -3 -22 -13  114.39   17.70
   3  22 -13   94.19   31.00
  22 -13  -3  181.38   22.80
   3 -22 -13  160.58   27.10
 -13   3 -22  180.08   25.30
 -22  13  -3  183.18   34.40
  -3  22 -13  132.99   32.00
  -3 -22 -15   32.90   14.40
 -22  15   3   30.80   21.10
  22 -15   3   31.30   14.80
   3  22 -15   20.80   24.30
  22 -15  -3    9.90   14.50
 -15   3 -22   11.10   18.80
  -3  22 -15   29.00   32.90
 -22  15  -3   22.40   27.30
   3 -22 -15   10.20   15.20
  -3 -22 -17  206.78   25.30
   3  22 -17  205.58   35.80
 -22  17   3  215.38   35.90
  22 -17   3  196.08   27.00
 -17   3 -22  227.38   34.70
 -22  17  -3  216.18   33.00
   3 -22 -17  219.88   30.30
  22 -17  -3  200.78   28.00
  -3  22 -17  170.28   32.40
   3  22 -19  195.48   34.80
  22 -19   3  192.18   26.90
  -3 -22 -19  192.98   23.10
  22 -19  -3  168.68   26.70
  19  -3 -22  172.58   25.10
 -22  19  -3  211.58   33.60
  -3  22 -19  179.08   36.10
 -19   3 -22  147.29   26.30
   3 -22 -19  183.38   29.00
  -4 -22   0   19.90   11.30
   4 -22   0   21.90   14.60
  -4  22   0   18.50   21.30
   4  22   0   20.40   23.20
   4 -22   2    5.10   13.10
  -4 -22  -2    9.10   10.80
   4  22  -2    3.90   24.80
  -4  22   2   14.00   18.60
   4 -22  -2   -1.80   13.60
  -4  22  -2   -0.70   23.60
  -2   4 -22    0.50   10.50
  -4 -22   2   11.30   11.20
   4  22   2   -4.30   20.60
  -4   4 -22  119.29   21.60
  -4  22  -4  101.99   26.40
  -4 -22   4  132.69   19.60
   4 -22  -4  144.89   19.90
   4 -22   6  253.17   28.00
  -4 -22  -6  254.07   24.10
   4  22  -6  258.27   44.20
   4 -22  -6  195.58   28.50
  -4 -22   6  192.68   23.70
  -6   4 -22  203.58   27.90
   4  22  -8  245.88   40.30
  -4 -22  -8  314.67   29.50
   4 -22   8  318.67   33.60
  -4  22  -8  301.47   48.00
  -8   4 -22  362.56   35.80
   4 -22  -8  387.56   33.90
 -22   8  -4  299.77   48.80
  -4 -22 -10   58.39   14.00
 -22  10   4   47.20   21.40
   4 -22  10   76.19   19.20
   4  22 -10   47.10   28.80
  -4  22 -10   20.90   29.60
  22 -10  -4   37.60   12.10
 -10   4 -22   26.00   17.50
 -22  10  -4   20.10   24.70
   4 -22 -10   39.80   18.60
   4  22 -12   49.70   30.70
  -4 -22 -12   75.99   15.00
  22 -12   4   66.39   13.80
 -22  12   4   63.79   22.40
 -22  12  -4   69.99   30.00
  -4  22 -12   30.10   26.80
  22 -12  -4   59.59   14.60
   4 -22 -12   35.50   16.50
 -12   4 -22   54.39   20.80
  -4 -22 -14   37.10   13.60
  22 -14   4   19.10   14.20
 -22  14   4   30.40   21.50
   4  22 -14   25.60   29.10
  22 -14  -4   13.20   13.90
 -22  14  -4   12.30   27.70
 -14   4 -22   -0.80   19.00
  -4  22 -14   10.40   31.70
   4 -22 -14   14.80   16.40
 -22  16   4  295.27   37.50
  22 -16   4  242.28   29.30
  -4 -22 -16  290.27   27.40
   4  22 -16  274.07   48.10
  -4  22 -16  294.07   52.29
 -22  16  -4  254.47   45.60
   4 -22 -16  236.58   32.80
 -16   4 -22  278.37   38.00
  22 -16  -4  255.87   30.10
   4  22 -18  218.98   37.50
  -4 -22 -18  169.58   22.80
  22 -18   4  171.18   26.80
   4 -22 -18  199.08   30.40
  22 -18  -4  173.98   27.10
 -22  18  -4  218.28   35.20
  -4  22 -18  229.98   38.80
 -18   4 -22  195.98   29.40
   5 -22   1   20.90   16.20
  -5  22   1    6.70   21.20
   5  22  -1   15.20   23.70
  -5 -22  -1    9.00   10.70
   5 -22  -1   -1.90   14.20
   5  22   1    9.00   21.70
  -5  22  -1   -2.60   19.40
  -5 -22   1   10.70   10.10
  -1   5 -22   -0.30   11.30
  -5 -22  -3  254.37   24.40
   5  22  -3  242.88   36.30
  -5  22   3  271.97   35.80
   5 -22   3  253.47   29.60
  -5 -22  -5  448.96   36.20
  -5  22   5  366.86   38.50
   5  22  -5  414.26   52.39
   5 -22   5  461.25   40.20
  -5 -22   5  487.15   36.30
   5 -22  -5  502.55   40.40
  -5   5 -22  496.45   41.50
  -5  22  -5  420.06   51.39
   5  22  -7  165.18   32.80
  -5 -22  -7  188.48   21.60
   5 -22   7  192.58   27.40
  -5  22  -7  256.47   42.30
   5  22  -9  170.58   34.80
 -22   9   5  188.08   29.10
  -5 -22  -9  224.18   23.40
   5 -22   9  216.18   29.60
   5 -22  11   72.19   18.50
  -5 -22 -11   85.99   14.80
 -22  11   5   52.99   22.20
   5  22 -11   48.90   30.50
   5 -22 -11   55.19   18.20
  -5  22 -11   82.59   32.40
 -22  11  -5   59.79   29.20
 -11   5 -22   69.79   21.00
  22 -11  -5   70.29   14.50
   5  22 -13   53.09   27.40
  22 -13   5   63.39   14.30
 -22  13   5   56.49   21.10
 -13   5 -22   21.50   19.90
  22 -13  -5   33.20   14.80
   5 -22 -13   27.80   17.90
 -22  13  -5   37.10   28.70
  -5  22 -13   17.40   30.80
  22 -15   5  546.35   42.20
  -5 -22 -15  541.55   40.90
   5  22 -15  534.55   60.69
  -5  22 -15  484.05   61.79
   5 -22 -15  484.65   45.80
 -22  15  -5  499.05   57.69
  22 -15  -5  470.55   43.30
 -15   5 -22  489.25   50.19
  -5 -22 -17  155.78   21.10
   5  22 -17  140.99   32.00
  22 -17   5  143.89   25.60
 -17   5 -22  202.88   28.80
   5 -22 -17  171.88   30.30
 -22  17  -5  189.78   33.90
  22 -17  -5  155.18   26.90
  -5  22 -17  147.79   33.00
  -5 -22 -19  290.87   25.90
   5  22 -19  319.37   44.60
  22 -19   5  340.07   29.80
  -5  22 -19  297.17   42.60
 -19   5 -22  237.68   37.70
   5 -22 -19  227.38   33.60
 -22  19  -5  312.27   40.90
  22 -19  -5  223.88   31.10
  19  -5 -22  200.58   30.10
   6 -22   0  399.96   37.10
   0   6 -22  406.36   35.60
   6  22   0  391.76   47.00
  -6  22   0  371.26   44.60
  -6 -22   0  381.76   31.40
   2   6 -22  300.57   30.20
  -6 -22  -2  317.97   27.00
   6  22  -2  302.27   44.70
   6 -22   2  302.17   32.30
  -6  22   2  347.47   39.60
   6  22  -4  245.68   43.50
  -6  22   4  285.17   33.10
   6 -22   4  274.97   29.40
  -6 -22  -4  265.07   22.70
  -6 -22   4  192.88   22.80
  -4   6 -22  221.78   29.80
  -6  22  -4  202.38   34.30
   6 -22  -4  203.78   29.50
  -6 -22  -6 1880.91  135.29
   6  22  -6 1672.93  144.79
   6 -22   6 1929.21  137.29
  -6  22  -6 1920.21  144.79
  -6   6 -22 2149.19  140.49
   6 -22  -6 2202.88  137.89
   6  22  -8   18.00   28.70
 -22   8   6   15.90   21.10
   6 -22   8   19.80   16.20
  -6 -22  -8   26.10   11.10
  -8   6 -22   78.79   20.10
  -6  22  -8   73.59   31.20
 -22   8  -6   78.59   31.50
   6  22 -10   51.59   28.40
  -6  22 -10    7.00   28.90
   6 -22 -10   -1.90   15.70
 -22  10  -6   25.20   28.70
  22 -10  -6    8.30   11.90
 -10   6 -22    1.40   18.90
   6 -22  12  241.68   30.60
 -22  12   6  244.58   34.40
   6  22 -12  192.08   35.60
  22 -12   6  238.78   24.70
  -6 -22 -12  233.58   23.10
  22 -12  -6  195.58   25.60
 -22  12  -6  226.08   39.30
  -6  22 -12  131.59   32.10
   6 -22 -12  207.88   31.00
 -12   6 -22  193.08   34.30
  -6 -22 -14  301.87   28.40
   6  22 -14  284.57   51.59
  22 -14   6  297.57   30.60
 -22  14  -6  308.17   50.69
   6 -22 -14  297.37   35.30
  22 -14  -6  322.27   32.00
 -14   6 -22  327.07   41.20
  -6  22 -14  334.57   53.39
  22 -16   6   31.80   14.90
  -6 -22 -16   42.60   11.90
   6  22 -16   13.10   26.60
 -16   6 -22   19.50   21.90
  -6  22 -16   16.50   29.00
 -22  16  -6   40.40   30.10
  22 -16  -6   19.40   15.80
   6 -22 -16   12.60   18.70
   6  22 -18  616.64   62.09
  -6 -22 -18  686.83   53.29
  22 -18   6  603.94   48.90
  22 -18  -6  601.74   49.80
  -6  22 -18  662.53   67.49
   6 -22 -18  604.54   52.69
  18  -6 -22  609.44   50.59
 -18   6 -22  610.54   57.39
 -22  18  -6  546.25   62.99
   1   7 -22  179.08   25.60
   7 -22   1  164.68   26.50
  -7  22   1  211.08   28.70
  -7 -22  -1  165.48   17.60
   7  22  -1  117.69   27.60
   7 -22  -1  130.69   20.30
  -7 -22   1  128.69   17.70
  -7  22  -1  137.99   27.60
  -1   7 -22  152.68   25.90
  -7 -22  -3  738.93   51.09
   3   7 -22  740.83   55.59
   7  22  -3  714.63   66.19
   7 -22   3  754.02   55.49
  -7  22   3  746.43   59.89
  -3   7 -22  513.55   56.29
   7 -22   5  189.88   28.10
  -7 -22  -5  198.78   19.40
   7  22  -5  126.49   29.70
   7 -22  -7  126.79   20.80
  -7  22  -7  106.49   29.50
  -7   7 -22  127.09   23.20
 -22   7  -7   91.89   31.30
 -22   9   7  440.16   47.00
  -7 -22  -9  427.86   37.70
   7  22  -9  422.06   57.09
   7 -22   9  446.86   44.20
  -7  22  -9  515.65   58.79
  -9   7 -22  583.94   49.50
 -22   9  -7  508.15   57.79
  22  -9  -7  579.84   38.70
   7 -22  -9  541.75   44.80
   7  22 -11   61.09   30.80
   7 -22  11   80.49   20.40
  -7 -22 -11   96.09   14.00
   7 -22 -11  101.89   19.50
 -22  11  -7  122.09   31.70
 -11   7 -22  151.08   26.40
  22 -11  -7  138.69   21.50
  -7  22 -11  126.39   33.30
 -22  13  -7  185.68   34.00
  22 -13  -7  155.38   23.70
   7 -22 -13  100.69   20.10
  -7  22 -13  113.19   30.90
 -13   7 -22  145.99   26.30
  22 -15   7  251.37   27.70
   7  22 -15  311.47   41.40
   7 -22 -15  235.48   33.50
  22 -15  -7  238.38   28.60
  -7  22 -15  207.38   35.40
 -15   7 -22  233.28   38.30
 -22  15  -7  181.98   32.80
   7  22 -17  212.78   35.30
  22 -17   7  175.38   25.30
  -7  22 -17  175.58   36.70
 -17   7 -22  148.89   27.90
 -22  17  -7  230.38   37.40
  17  -7 -22  139.29   21.70
   7 -22 -17  153.08   25.40
  22 -17  -7  124.89   20.60
   8 -22   0   76.09   17.50
  -8  22   0   97.69   25.90
   0   8 -22   76.69   19.00
  -8 -22   0   81.19   11.10
  -8  22   2   17.50   20.00
  -8 -22  -2   17.30   13.10
   2   8 -22   28.60   15.60
   8 -22   2    9.00   15.10
   8  22  -2   12.20   22.90
  -2   8 -22   44.90   18.00
   8 -22  -2   49.40   16.80
  -8  22  -2   30.30   23.00
   4   8 -22  304.07   33.50
  -8  22   4  328.87   36.60
   8  22  -4  254.07   46.10
   8 -22   4  284.47   34.00
  -8  22  -4  343.67   45.20
   8 -22  -4  366.46   34.60
  -4   8 -22  342.87   37.80
   8 -22   6   23.10   18.90
   8  22  -6   27.40   25.30
   8 -22  -6   79.49   19.50
 -22   6  -8   63.39   29.50
  -8  22  -6   59.79   29.00
  -6   8 -22   71.29   20.40
   8 -22   8  166.58   27.70
 -22   8   8  176.08   25.30
   8  22  -8  104.39   29.60
   8 -22  10   32.10   18.60
   8  22 -10   37.70   29.20
   8 -22 -10   45.30   19.90
  22 -10  -8   38.20   13.30
  -8  22 -10   21.00   29.80
 -22  10  -8   37.90   31.70
 -10   8 -22   32.20   21.20
   8  22 -12   78.49   33.90
   8 -22  12   96.39   21.90
  -8  22 -12  141.39   35.20
 -12   8 -22  115.09   24.40
 -22  12  -8  112.09   30.50
  22 -12  -8  128.39   22.50
   8 -22 -12  106.49   20.00
   8  22 -14   64.49   25.70
   8 -22 -14   65.39   20.80
  22 -14  -8   52.39   16.00
 -22  14  -8   47.70   27.90
 -14   8 -22   57.59   22.30
  -8  22 -14   53.69   32.70
   8  22 -16   87.79   31.30
  -8  22 -16  124.59   34.30
 -16   8 -22  123.29   28.00
 -22  16  -8  125.99   32.60
  22 -16  -8  115.79   18.90
 -18   8 -22  137.49   27.70
  -8  22 -18  106.39   28.50
  18  -8 -22  135.09   21.00
   8 -22 -18  108.79   21.40
 -22  18  -8  130.79   32.30
  22 -18  -8  130.99   19.80
  -9  22   1  421.46   45.10
   9 -22   1  430.76   37.90
   1   9 -22  455.45   41.30
  -9  22  -1  332.87   45.30
   9 -22  -1  376.56   37.90
  -1   9 -22  370.26   40.90
   3   9 -22  169.98   28.80
   9 -22   3  177.58   27.50
  -9  22   3  197.38   31.70
   9 -22  -3  134.69   22.50
  -9  22  -3  114.69   27.70
  -3   9 -22  159.48   25.80
   9  22  -5  123.59   29.30
   9 -22   5  192.98   28.40
   5   9 -22  189.48   28.20
   9  22  -7  416.56   56.79
   9 -22   7  448.16   44.40
   9 -22  -7  522.55   45.00
 -22   7  -9  475.65   57.39
  -7   9 -22  588.64   50.29
  -9  22  -7  524.35   56.99
   9  22  -9   40.10   29.70
   9 -22   9   35.60   20.20
  -9  22  -9   35.50   27.40
  -9   9 -22   47.70   21.60
  22  -9  -9   61.79   13.00
   9 -22  -9   47.10   20.30
 -22   9  -9   70.89   32.40
   9 -22  11  297.07   36.20
   9  22 -11  294.27   49.10
  22 -11  -9  325.87   30.80
  -9  22 -11  348.27   53.69
   9 -22 -11  324.87   37.00
 -11   9 -22  354.46   43.70
 -22  11  -9  307.27   50.49
   9  22 -13   34.50   23.90
 -13   9 -22   15.00   22.40
 -22  13  -9   35.20   31.30
  -9  22 -13   14.30   27.30
  22 -13  -9    8.50   14.20
   9 -22 -13   17.80   17.50
  22 -15  -9  111.99   18.60
 -22  15  -9  140.29   34.90
   9 -22 -15   83.39   21.20
  -9  22 -15   83.89   30.60
 -15   9 -22  120.49   26.40
 -17   9 -22   50.29   22.00
  17  -9 -22   51.79   18.10
 -22  17  -9   80.89   31.90
  22 -17  -9   61.99   16.80
  -9  22 -17   42.90   26.00
   9 -22 -17   54.09   21.80
  10 -22   0   21.00   16.60
   0  10 -22   32.40   18.90
 -10  22   0    8.00   20.90
  10 -22   2  401.06   39.50
   2  10 -22  392.16   42.50
 -10  22   2  367.46   44.50
  10 -22  -2  448.86   40.50
 -10  22  -2  456.95   49.60
  -2  10 -22  492.35   45.30
 -10  22   4   -6.40   11.70
   4  10 -22   68.99   19.40
  10 -22   4   66.09   19.10
 -10  22  -4   19.90   23.40
  10 -22  -4   22.20   18.60
  -4  10 -22   41.00   20.40
 -10  22   6    4.10    5.80
  -6  10 -22    8.90   20.00
 -10  22  -6    8.90   27.90
 -22   6 -10   18.00   26.30
  10 -22  -6    7.30   18.80
  22  -6 -10    0.10    2.30
  10 -22   8   18.20   17.20
 -22   8 -10   26.00   26.10
 -10  22  -8   23.50   27.60
  -8  10 -22   23.50   22.00
  10 -22  -8   49.99   20.30
  10 -22  10  372.26   39.20
 -22  10 -10  394.76   53.99
 -10  22 -10  430.26   56.09
  22 -10 -10  395.26   34.50
  10 -22 -10  376.86   40.60
 -10  10 -22  402.36   45.00
  10 -22  12   15.00   18.30
  10 -22 -12   38.90   22.00
 -12  10 -22   30.20   21.80
  22 -12 -10   31.30   14.10
 -10  22 -12   43.20   28.60
 -22  12 -10   50.69   31.80
 -14  10 -22  427.26   50.79
 -10  22 -14  498.25   61.29
 -22  14 -10  452.65   56.39
  22 -14 -10  438.86   39.60
  16 -10 -22    7.30   18.40
  10 -22 -16   23.60   21.70
  22 -16 -10    8.20   15.20
 -10  22 -16   12.40   30.80
 -22  16 -10    5.70   25.50
 -16  10 -22   -0.60   20.80
 -11  22   1   -1.80   19.70
   1  11 -22  -17.90   18.10
  11 -22   1    8.70   18.20
  11 -22  -1   21.70   17.10
 -11  22  -1    6.30   22.10
  -1  11 -22    7.30   19.60
   3  11 -22  370.06   44.00
 -11  22   3  422.06   43.90
  11 -22   3  379.36   40.50
  11 -22  -3  474.35   41.60
 -11  22  -3  523.85   51.79
  11 -22   5   49.90   16.80
   5  11 -22   63.29   20.20
  11 -22  -5   48.90   18.50
 -11  22  -5   50.59   25.60
 -22   5 -11   50.29   30.30
  -5  11 -22   63.89   22.00
  11 -22   7   75.69   20.50
  11 -22  -7  106.49   21.00
 -22   7 -11   77.79   27.30
  -7  11 -22  144.59   26.80
 -11  22  -7  120.59   30.40
  11 -22   9  262.17   35.50
 -22   9 -11  340.57   51.59
  -9  11 -22  320.77   43.60
 -11  22  -9  355.66   52.49
  22  -9 -11  319.87   29.70
  11 -22  -9  320.57   37.20
  11 -22  11   16.40   17.30
 -11  22 -11    3.90   30.10
  11 -22 -11   28.70   20.20
 -11  11 -22   -3.90   21.30
  22 -11 -11   -7.20   13.40
 -22  11 -11    1.00   27.70
 -22  13 -11   96.39   29.70
  22 -13 -11  127.59   18.00
  11 -22 -13  122.19   23.80
 -11  22 -13  128.69   35.80
 -13  11 -22  139.39   28.00
  11 -22 -15  165.98   25.10
 -15  11 -22  182.58   30.90
  22 -15 -11  152.78   26.20
 -11  22 -15  140.89   33.00
  15 -11 -22  135.09   23.80
 -22  15 -11  195.68   36.80
   0  12 -22   -5.30   19.80
  12 -22   0   -8.10   16.20
 -12  22   0   -2.50   20.90
  12 -22   2   60.99   17.00
   2  12 -22  101.19   23.20
  -2  12 -22   81.89   23.60
 -12  22  -2   55.99   24.90
  12 -22  -2   47.50   17.50
   4  12 -22   54.89   21.20
  12 -22   4   32.70   16.50
 -22   4 -12   32.50   25.80
 -12  22  -4   56.89   27.60
  -4  12 -22   54.49   22.10
  12 -22  -4   48.70   17.60
  12 -22   6  221.28   31.20
   6  12 -22  215.98   33.10
  12 -22  -6  187.78   31.10
 -22   6 -12  162.68   35.00
  -6  12 -22  197.38   29.90
 -12  22  -6  183.28   32.80
  22  -8 -12  191.38   19.90
 -22   8 -12  108.89   32.60
 -12  22  -8  150.68   34.80
  12 -22  -8  133.39   24.10
  -8  12 -22  153.28   28.80
  12 -22  10   17.80   16.30
  12 -22 -10   44.90   21.40
 -22  10 -12   18.90   31.00
 -12  22 -10   30.30   26.50
 -10  12 -22   38.60   24.30
  22 -10 -12   33.30   13.70
  12 -22  12    1.90   18.00
  22 -12 -12   13.70   14.20
 -22  12 -12   30.10   31.10
 -12  22 -12   24.60   28.10
  12 -22 -12   10.80   21.20
 -12  12 -22   17.20   23.00
  22 -14 -12   51.89   15.60
 -14  12 -22   63.89   25.10
  12 -22 -14   80.09   21.60
  14 -12 -22   51.49   19.80
 -22  14 -12   82.89   31.80
 -12  22 -14   61.09   29.40
 -22  16 -12   14.50   29.10
  16 -12 -22   12.40   19.10
  12 -22 -16   15.20   19.90
 -12  22 -16   12.10   30.60
  22 -16 -12   29.00   15.80
 -16  12 -22   16.60   21.90
  13 -22   1   81.09   19.90
   1  13 -22  114.79   24.50
 -13  22   1   98.99   24.90
  13 -22  -1   67.89   21.20
  -1  13 -22   67.09   23.60
 -13  22  -1   52.39   23.60
  13 -22   3  105.09   22.40
 -13  22   3  117.59   23.70
   3  13 -22  120.39   25.70
 -22   3 -13  168.28   32.80
  -3  13 -22  165.48   27.40
  13 -22  -3  190.68   30.60
 -13  22  -3  151.08   28.70
   5  13 -22   60.19   22.20
  13 -22   5   47.20   17.80
 -13  22  -5   22.00   23.20
 -22   5 -13   30.70   25.10
  13 -22  -5    5.50   17.80
  -5  13 -22   30.90   21.40
  13 -22   7  199.48   29.50
  13 -22  -7  126.49   24.30
  -7  13 -22  137.09   26.90
 -22   7 -13  149.19   33.10
 -13  22  -7  113.99   28.40
  13 -22   9   40.40   16.90
 -13  22  -9    2.60   24.50
  13 -22  -9    7.30   17.90
  -9  13 -22    2.90   21.40
  22  -9 -13    8.00   12.70
 -22   9 -13   12.70   29.80
  13 -22  11  119.19   22.00
  13 -22 -11  110.49   23.50
 -22  11 -13  132.99   33.30
 -11  13 -22  121.49   28.40
 -13  22 -11  122.39   35.60
  22 -11 -13  138.49   22.60
 -13  22 -13  389.36   56.39
  13 -13 -22  359.36   40.70
 -22  13 -13  333.37   51.69
  22 -13 -13  337.67   33.20
  13 -22 -13  317.87   39.20
 -13  13 -22  330.57   45.90
  13 -22 -15  193.48   26.90
 -13  22 -15  195.38   39.20
 -15  13 -22  185.18   32.10
 -22  15 -13  229.68   38.70
  22 -15 -13  152.28   26.00
  15 -13 -22  176.38   26.30
 -22   0 -14    0.50   24.30
  14 -22   0    2.40   16.30
 -14  22   0   -6.10   21.50
   0  14 -22   12.00   22.30
 -14  22   2  519.65   48.70
   2  14 -22  530.25   50.69
  14 -22   2  489.75   43.90
  14 -22  -2  390.36   43.20
 -22   2 -14  462.05   55.09
  -2  14 -22  446.26   50.59
 -14  22  -2  448.66   52.19
 -14  22   4    1.40    4.80
  14 -22   4   21.90   19.50
   4  14 -22   23.40   21.50
  22  -4 -14    2.20    2.50
  -4  14 -22   12.50   22.20
 -14  22  -4   -4.50   22.50
  14 -22  -4    3.90   19.30
 -22   4 -14   -1.10   26.50
  14 -22   6  250.07   34.40
   6  14 -22  299.87   39.50
  -6  14 -22  295.17   43.30
  14 -22  -6  263.07   36.50
 -14  22  -6  322.27   48.80
 -22   6 -14  307.67   48.40
  14 -22   8   67.29   20.10
 -22   8 -14   56.49   29.00
  -8  14 -22   61.89   26.50
 -14  22  -8   52.69   30.20
  14 -22  -8   48.30   19.40
  22  -8 -14   79.99   14.00
  14 -22  10  390.16   41.60
  14 -22 -10  413.06   43.80
 -10  14 -22  461.05   51.39
 -14  22 -10  494.25   58.99
 -22  10 -14  456.55   56.89
  10 -14 -22  460.45   45.80
  22 -10 -14  447.96   37.60
 -22  12 -14   73.99   29.80
  12 -14 -22   70.09   22.20
 -12  14 -22   81.59   27.90
  14 -22 -12   61.29   22.60
  22 -12 -14   73.19   16.20
 -14  22 -12   40.60   28.40
 -14  22 -14  814.82   75.49
 -22  14 -14  721.73   71.89
  14 -22 -14  733.83   62.29
  14 -14 -22  786.22   62.49
  22 -14 -14  772.52   58.19
 -14  14 -22  745.73   69.29
 -15  22   1   91.09   24.50
   1  15 -22  108.89   26.90
 -22  -1 -15  101.99   28.70
  15 -22   1   58.49   18.30
 -15  22  -1   90.19   25.60
  15 -22  -1   95.29   21.70
  -1  15 -22   61.69   24.00
 -22   1 -15   68.59   25.20
 -15  22   3  -10.80    9.80
   3  15 -22   37.10   22.70
  15 -22   3   31.40   19.30
 -22   3 -15   -0.50   22.90
  -3  15 -22   -0.80   22.00
 -15  22  -3    4.10   24.40
  15 -22  -3    4.50   17.50
   5  15 -22  536.75   50.39
  15 -22   5  472.65   44.50
 -22   5 -15  491.45   57.19
  15 -22  -5  439.06   45.70
  -5  15 -22  478.75   52.79
 -15  22  -5  503.55   57.19
  15 -22   7  236.08   31.50
  15 -22  -7  225.48   33.90
  -7  15 -22  199.08   31.00
 -15  22  -7  158.08   31.10
 -22   7 -15  197.38   34.20
  15 -22   9   65.99   20.50
  -9 -15 -22   54.49   13.30
  22  -9 -15  125.39   16.60
 -15  22  -9   99.29   28.50
   9 -15 -22  107.79   24.50
  15 -22  -9   74.79   21.00
 -22   9 -15   99.19   29.70
  -9  15 -22  129.69   29.80
  15 -22  11  100.89   21.20
  22 -11 -15  159.98   23.50
  15 -22 -11  132.39   22.40
  11 -15 -22  168.28   27.10
 -22  11 -15  174.18   35.50
 -11  15 -22  175.78   30.90
 -15  22 -11  128.79   30.30
 -15  22 -13  221.68   39.80
 -13  15 -22  171.48   31.70
  22 -13 -15  193.88   25.80
  15 -22 -13  186.08   32.70
  13 -15 -22  156.88   25.20
 -22  13 -15  154.38   32.90
   0  16 -22   19.00   22.30
 -22   0 -16   35.20   24.80
  16 -22   0   23.90   18.90
 -16  22   0   39.10   23.00
   2  16 -22   38.80   24.20
 -22  -2 -16   78.09   27.90
 -16  22   2   60.29   22.30
 -16  22  -2  105.29   26.70
  -2  16 -22   97.99   25.10
 -22   2 -16  121.79   28.70
  16 -22  -2  107.69   21.70
  16 -22   4  261.47   32.90
 -22  -4 -16  249.78   40.40
   4  16 -22  256.37   40.90
 -22   4 -16  247.78   36.30
  16 -22  -4  237.68   35.00
  -4  16 -22  258.17   42.10
 -16  22  -4  308.17   45.50
  16 -22   6   11.20   16.60
   6  16 -22   27.30   21.50
  -6 -16 -22   18.40   13.40
 -16  22  -6    9.50   25.70
 -22   6 -16   42.30   28.10
  16 -22  -6   10.40   20.90
   6 -16 -22   34.00   20.90
  -6  16 -22   15.40   23.00
  -8 -16 -22   73.79   14.20
  16 -22   8   73.39   20.40
   8 -16 -22  153.58   26.00
  22  -8 -16  118.19   20.00
  -8  16 -22   85.09   25.50
 -16  22  -8  120.59   31.10
 -22   8 -16  115.69   31.20
  16 -22  -8  107.29   22.90
  16 -22  10   -1.00   15.90
 -22  10 -16   10.30   26.90
 -10  16 -22    7.60   22.90
  10 -16 -22    5.40   18.30
  16 -22 -10   11.30   19.90
  22 -10 -16    3.80   12.70
 -16  22 -10   11.60   28.30
 -16  22 -12   14.50   29.50
  22 -12 -16   -4.40   13.00
 -12  16 -22   12.00   23.80
  16 -22 -12   10.00   17.60
 -22  12 -16   34.00   28.60
  12 -16 -22    4.80   20.00
  17 -22   1   97.29   20.00
 -17  22   1  154.48   26.70
 -22  -1 -17  135.39   27.10
   1  17 -22  147.29   27.40
  -1 -17 -22  173.18   26.50
   1 -17 -22  192.48   28.00
 -17  22  -1  207.78   31.40
  -1  17 -22  153.28   28.50
 -22   1 -17  140.19   27.10
  17 -22  -1  138.59   22.30
  -3 -17 -22  186.38   27.40
 -22  -3 -17  205.48   36.90
  17 -22   3  207.28   32.00
   3  17 -22  244.98   34.30
  -3  17 -22  225.48   40.30
   3 -17 -22  212.18   32.50
 -22   3 -17  237.08   41.40
 -17  22  -3  284.87   37.50
  17 -22  -3  219.48   32.70
  -5 -17 -22  145.59   23.50
  17 -22   5  141.99   22.90
   5  17 -22  157.48   28.70
 -22  -5 -17  162.98   28.80
 -22   5 -17  197.78   33.40
  17 -22  -5  131.59   23.00
 -17  22  -5  187.58   33.10
  -5  17 -22  176.68   31.80
   5 -17 -22  163.48   25.30
  17 -22   7  175.98   23.80
 -22  -7 -17  158.28   26.30
  -7 -17 -22  153.78   19.80
  17 -22  -7  135.29   23.40
  -7  17 -22  177.38   31.30
 -22   7 -17  130.39   28.70
   7 -17 -22   86.79   21.70
 -17  22  -7  115.69   29.00
 -22  -9 -17   67.59   19.70
  17 -22   9   56.69   17.00
  -9  17 -22   87.79   28.60
   9 -17 -22   36.10   18.90
  22  -9 -17   68.39   14.60
 -22   9 -17   83.39   29.40
  17 -22  -9   54.99   19.40
 -17  22  -9   41.00   25.60
   0 -18 -22  175.98   27.80
 -22   0 -18  228.68   32.40
 -18  22   0  193.88   29.80
   0  18 -22  158.08   29.30
  18 -22   0  167.38   29.90
  -2 -18 -22  135.79   19.10
  18 -22   2  118.79   21.90
   2  18 -22   86.49   25.70
 -22  -2 -18  107.59   25.10
 -22   2 -18  103.19   27.60
   2 -18 -22   79.39   19.90
  -2  18 -22  120.49   29.40
  18 -22  -2   85.69   21.30
 -18  22  -2   88.79   26.30
 -22  -4 -18  166.78   27.40
   4  18 -22  188.08   31.10
  -4 -18 -22  179.08   24.30
   4 -18 -22  199.98   31.40
 -18  22  -4  198.08   32.40
 -22   4 -18  146.89   28.60
  18 -22  -4  130.79   22.90
  -4  18 -22  223.48   32.70
 -22  -6 -18  576.94   53.99
   6  18 -22  626.84   56.89
  -6 -18 -22  596.84   45.60
  18 -22   6  582.54   50.29
  18 -22  -6  591.84   51.49
   6 -18 -22  584.54   52.29
 -18  22  -6  623.04   61.99
  -6  18 -22  617.54   60.49
 -22   6 -18  583.54   59.49
  18 -22   8  106.29   20.70
 -22  -8 -18  118.49   23.10
 -22   8 -18  143.39   29.90
  18 -22  -8  170.88   24.60
  22  -8 -18  140.19   21.90
   8 -18 -22  159.78   25.40
 -18  22  -8  122.79   31.00
  -8  18 -22  100.19   27.40
 -19  22   1   22.70   19.90
   1  19 -22   26.40   22.60
 -22  -1 -19   19.30   20.50
  19 -22   1   15.00   16.30
  -1 -19 -22    6.30   14.30
  -1  19 -22   26.10   24.30
 -19  22  -1    9.10   22.00
   1 -19 -22   17.00   15.40
  19 -22  -1    2.20   14.70
 -22   1 -19   20.70   21.60
  -3 -19 -22  188.38   25.00
  19 -22   3  181.18   29.10
   3  19 -22  221.08   38.20
 -22  -3 -19  177.18   27.50
 -22   3 -19  130.19   27.60
  -3  19 -22  156.08   30.80
   3 -19 -22  167.98   29.70
  19 -22  -3  175.08   29.40
 -19  22  -3  221.78   32.90
  -5 -19 -22  290.77   26.70
 -22  -5 -19  263.27   33.60
   5  19 -22  337.87   41.70
  19 -22   5  288.57   32.90
  19 -22  -5  254.27   33.80
 -22   5 -19  224.68   41.10
 -19  22  -5  285.07   39.30
   5 -19 -22  243.68   33.80
  -5  19 -22  234.98   42.60
   0 -20 -22   23.50   14.80
 -20  22   0   15.20   20.20
 -22   0 -20   28.60   19.70
  20 -22   0   26.80   16.40
   0  20 -22   13.20   22.00
  20 -22   2   18.00   15.60
 -22  -2 -20    6.60   17.00
   2  20 -22   22.40   24.00
  -2 -20 -22    3.60   12.90
   2 -20 -22   45.50   16.80
 -22   2 -20   22.70   19.90
 -20  22  -2   65.99   24.80
  20 -22  -2   31.50   15.70
  -2  20 -22   27.90   24.00
   0  23  -1  231.18   38.20
   0  23   1  162.28   27.90
   0 -23  -1  214.08   25.20
   0 -23   1  231.98   25.70
   0  23  -3  253.87   43.00
   0  23   3  276.37   38.90
   0 -23   3  318.77   29.60
   0 -23  -3  275.27   29.50
   0  23   5    1.40   16.70
   0 -23  -5    3.00   14.20
   0 -23   5   17.50   13.40
   0  23  -5    9.90   26.30
   0 -23   7   31.40   13.80
   0  23  -7   25.00   28.30
   0 -23  -7   24.90   15.50
   0 -23   9  151.08   23.20
 -23   9   0   71.99   27.40
   0 -23  -9  109.79   18.30
   0  23  -9   81.59   30.10
 -23  11   0  474.35   53.89
   0 -23 -11  489.85   41.00
   0  23 -11  420.86   56.09
 -23  13   0  334.17   47.60
  23 -13   0  319.67   30.60
   0 -23 -13  340.27   32.90
   0  23 -13  312.87   53.19
   0  23 -15  373.86   54.39
   0 -23 -15  391.56   35.60
 -23  15   0  404.76   48.20
  23 -15   0  365.66   34.20
   0 -23 -17    2.50   13.50
  23 -17   0    5.40   13.30
   0  23 -17   17.60   26.20
 -23  17   0    3.80   22.10
   0 -23 -19   42.20   15.10
  23 -19   0   16.10   14.20
   0  23 -19   54.89   27.90
 -23  19   0   49.10   22.50
  -1 -23   0  205.48   25.70
   1  23   0  221.18   39.30
  -1  23   0  226.48   39.00
   1 -23   0  224.18   26.40
   1 -23   2   78.89   15.50
  -1 -23  -2   90.09   16.50
   1  23  -2   37.20   23.80
  -1  23   2   77.19   22.90
   1 -23  -2  143.49   22.40
  -1  23  -2  127.49   24.90
  -1 -23  -4  174.88   23.60
  -1  23   4  203.58   27.70
   1 -23   4  182.08   25.20
  -1  23  -4  117.59   28.90
  -1 -23   4  151.38   23.70
   1 -23  -4  173.88   25.00
   1  23   4  191.48   27.50
   1  23  -6  146.39   30.80
  -1  23  -6   62.99   28.20
   1 -23  -6   83.09   16.10
  -1 -23   6   75.79   16.10
  -1 -23  -8  110.59   16.70
   1 -23   8  112.19   17.60
 -23   8   1  111.39   29.70
   1  23  -8  108.39   32.20
   1 -23  -8   79.19   18.20
  -1  23  -8   32.60   25.80
 -23   8  -1   52.99   26.50
  -1 -23   8   78.19   17.40
  -1 -23 -10  132.09   19.10
   1  23 -10   84.19   31.70
 -23  10   1   73.19   25.40
   1 -23  10  117.89   19.50
 -23  10  -1   74.09   26.50
   1 -23 -10   97.79   17.20
  -1  23 -10  116.19   33.50
 -23  12   1  175.78   32.50
   1  23 -12  135.49   35.00
  -1 -23 -12  172.88   25.10
   1 -23 -12  189.98   26.50
 -23  12  -1  194.98   33.10
  -1  23 -12  215.68   37.30
   1  23 -14  215.88   38.30
  -1 -23 -14  176.58   26.50
 -23  14   1  188.68   33.00
  23 -14   1  165.58   25.20
  -1  23 -14  249.28   39.80
 -23  14  -1  257.87   43.20
   1 -23 -14  289.17   28.70
  23 -14  -1  253.27   26.00
 -23  16   1  228.68   38.90
  -1 -23 -16  189.48   24.60
  23 -16   1  194.48   24.70
   1  23 -16  248.78   39.70
  23 -16  -1  141.69   24.70
 -23  16  -1  197.58   33.90
  -1  23 -16  203.98   39.40
   1 -23 -16  163.58   26.30
   1  23 -18  126.39   28.40
  23 -18   1  150.38   19.10
  -1 -23 -18  135.59   18.40
 -23  18   1  129.99   26.50
  23 -18  -1  124.89   18.30
 -23  18  -1  141.79   29.00
   1 -23 -18  125.69   19.00
  -1  23 -18  120.99   31.60
   2  23  -1   79.89   27.40
  -2  23   1   47.40   21.40
   2 -23   1   75.99   17.00
  -2 -23  -1   82.69   15.30
  -2 -23  -3   61.79   14.00
   2 -23   3   69.69   17.50
   2  23  -3   40.50   24.10
  -2  23   3   57.39   20.20
  -2  23  -3  112.89   25.80
  -2 -23  -5   96.19   15.50
   2 -23   5   99.49   18.20
   2  23  -5   70.39   30.00
   2 -23  -5   71.09   16.30
  -2 -23   5   92.39   15.70
  -2  23  -5   65.39   25.60
  -2 -23  -7   45.10   13.80
   2  23  -7   44.10   27.10
   2 -23   7   61.09   17.60
   2 -23  -7   47.50   16.50
  -2 -23   7   29.30   13.30
  -2  23  -7   19.00   24.80
   2 -23   9  163.28   26.40
 -23   9   2  138.79   29.30
  -2 -23  -9  179.58   23.40
   2  23  -9  108.29   30.00
 -23   9  -2  250.37   43.60
   2 -23  -9  200.98   27.10
  -2  23  -9  165.78   31.80
   2  23 -11  164.28   36.40
 -23  11   2  137.29   28.30
  -2 -23 -11  182.28   25.00
 -23  11  -2  171.38   30.20
  -2  23 -11  155.28   31.50
  -2 -23 -13  192.88   23.10
   2  23 -13  195.38   33.30
   2 -23 -13  142.39   20.40
  23 -13  -2  120.39   21.00
 -13   2 -23  135.79   23.50
 -23  13  -2   93.89   27.60
  -2  23 -13  134.69   35.70
 -23  15   2  169.38   27.20
  23 -15   2  180.58   23.30
   2  23 -15  157.78   31.60
  -2 -23 -15  178.18   23.90
 -15   2 -23  140.09   23.90
   2 -23 -15  113.59   19.40
  23 -15  -2  136.09   23.60
 -23  15  -2  179.48   32.60
  -2  23 -15  120.59   32.80
  23 -17   2   41.10   15.10
  -2 -23 -17   44.00   14.80
   2  23 -17   31.70   28.50
 -23  17   2   33.10   21.60
 -23  17  -2   39.30   24.20
  -2  23 -17   66.59   32.90
  23 -17  -2   76.09   15.50
   3 -23   0  287.57   30.40
  -3  23   0  297.37   39.80
  -3 -23   0  273.87   27.30
   3  23   0  275.47   42.40
  -3 -23  -2   71.89   14.30
   3  23  -2   59.69   25.40
   3 -23   2   80.69   17.80
  -3  23   2   43.60   20.90
   3  23   2  127.19   24.20
   3 -23   4  278.47   29.40
  -3  23   4  252.47   34.00
  -3 -23  -4  257.37   25.70
   3  23  -4  181.28   32.50
  -3  23  -4  233.18   42.20
  -3 -23   4  214.18   25.40
   3 -23  -4  245.18   29.20
   3  23  -6  257.57   46.00
  -3 -23  -6  274.27   26.60
   3 -23   6  296.87   30.40
  -3 -23   6  240.58   26.80
   3 -23  -6  239.98   30.60
  -3  23  -6  251.07   38.70
 -23   8   3  232.68   40.80
   3 -23   8  257.77   29.50
  -3 -23  -8  234.28   25.30
   3  23  -8  234.48   38.70
   3 -23  -8  198.48   29.40
   3  23 -10   91.59   34.30
 -23  10   3   96.79   26.60
   3 -23  10   89.19   19.40
  -3 -23 -10  121.59   17.40
 -10   3 -23  165.68   22.60
 -23  10  -3  135.09   31.30
  -3  23 -10  163.18   36.00
   3 -23 -10  161.48   25.90
  -3 -23 -12  619.64   47.10
   3  23 -12  527.25   63.29
 -23  12   3  551.54   57.09
 -12   3 -23  565.24   50.89
   3 -23 -12  636.94   49.10
 -23  12  -3  565.54   61.59
  23 -12  -3  612.04   45.50
  -3  23 -12  529.65   63.89
  23 -14   3  148.59   22.00
  -3 -23 -14  161.08   22.80
 -23  14   3  146.79   26.20
   3  23 -14  139.49   31.80
   3 -23 -14  101.29   20.50
 -14   3 -23  108.59   22.50
  23 -14  -3  101.39   16.80
  -3  23 -14   82.79   31.10
 -23  14  -3   84.19   28.70
   3  23 -16  318.17   49.20
 -23  16   3  313.47   38.40
  23 -16   3  287.97   28.70
  -3 -23 -16  293.07   28.00
  -3  23 -16  195.78   36.10
 -16   3 -23  228.68   34.50
  23 -16  -3  253.57   28.30
   3 -23 -16  275.87   31.70
 -23  16  -3  186.58   33.30
   3  23 -18   68.69   30.00
  23 -18   3   57.19   15.40
 -23  18   3   73.09   24.40
  -3 -23 -18   47.20   13.40
  23 -18  -3   50.69   14.80
 -23  18  -3   41.00   25.80
 -18   3 -23   23.10   20.20
   3 -23 -18   38.60   15.90
  -3  23 -18   32.10   26.70
   4  23  -1  130.29   28.70
  -4 -23  -1  141.49   20.50
   4 -23   1  184.28   25.60
  -4  23   1  185.78   27.70
  -4  23  -1  119.99   25.70
   4  23   1  146.89   28.10
  -4 -23   1  137.59   20.30
   4 -23  -1  153.58   26.00
  -4  23   3  286.67   35.70
   4  23  -3  243.28   43.30
  -4 -23  -3  264.17   24.40
   4 -23   3  233.68   29.20
  -4 -23   3  230.38   24.30
  -4  23  -3  171.98   30.50
   4 -23  -3  229.18   29.10
   4  23   3  212.78   37.60
   4 -23   5  887.51   65.39
   4  23  -5  776.12   76.09
  -4 -23  -5  881.21   63.09
  -4  23  -5  775.42   74.89
   4 -23  -5  891.81   65.59
  -4 -23   5  917.91   62.99
   4  23  -7  163.18   34.50
   4 -23   7  197.48   26.90
  -4 -23  -7  193.88   22.60
   4 -23  -7  157.58   27.40
  -4  23  -7  115.89   32.30
  -7   4 -23  169.08   25.80
   4 -23   9  346.87   36.90
   4  23  -9  342.37   51.79
  -4 -23  -9  404.36   33.50
 -23   9   4  344.87   45.20
 -23   9  -4  358.46   50.89
  -9   4 -23  420.46   39.10
  -4  23  -9  342.77   53.29
   4 -23  -9  422.66   37.70
   4  23 -11  229.68   39.10
   4 -23  11  245.18   30.90
  -4 -23 -11  261.57   26.60
 -23  11   4  244.48   40.10
  -4  23 -11  261.07   41.90
 -23  11  -4  211.78   37.70
 -11   4 -23  258.57   33.70
   4 -23 -11  238.08   31.00
 -23  13   4   26.80   21.40
   4  23 -13    2.90   30.60
  23 -13  -4   81.39   15.10
 -23  13  -4   57.89   26.70
 -13   4 -23   61.39   19.60
   4 -23 -13   67.69   17.90
  -4  23 -13   82.09   33.90
  -4 -23 -15  193.68   25.30
 -23  15   4  203.18   30.60
   4  23 -15  204.48   38.10
  23 -15   4  192.98   26.50
 -15   4 -23  280.37   34.90
 -23  15  -4  300.57   45.80
  -4  23 -15  319.37   52.19
   4 -23 -15  302.17   31.50
   4  23 -17   81.29   30.40
  23 -17  -4   28.30   15.00
 -17   4 -23   37.10   18.90
 -23  17  -4   18.50   24.70
  -4  23 -17   39.30   30.90
   4 -23 -17   34.80   18.00
   5  23   0    9.60   22.60
  -5  23   0   11.50   20.40
  -5 -23   0    1.20   10.50
   5 -23   0   15.60   16.40
  -5 -23  -2  103.99   14.40
   5  23  -2  102.69   29.10
   5 -23   2   77.49   16.80
  -5  23   2  102.09   24.10
   5  23   2   99.99   26.40
   5 -23  -2   75.19   17.30
  -5  23  -2   93.49   27.50
  -5 -23   2   98.99   14.20
   5  23  -4  796.22   76.79
   5 -23   4  958.10   66.59
  -5  23   4  870.91   69.59
  -5 -23  -4  862.61   62.99
  -5  23  -4  787.32   74.69
  -5 -23   4  911.01   63.19
  -4   5 -23  846.62   66.19
   5 -23  -4  900.71   66.39
  -5 -23  -6  102.89   17.90
   5 -23   6   94.89   19.10
   5  23  -6  103.89   32.10
  -6   5 -23   94.39   18.50
   5 -23  -6   89.49   18.30
  -5  23  -6   84.49   27.10
 -23   8   5   89.39   23.90
   5  23  -8   91.19   33.20
  -5 -23  -8  107.79   19.40
   5 -23   8   93.89   19.70
   5 -23  -8  177.28   27.30
  -5  23  -8  186.68   34.40
 -23   8  -5  129.49   31.30
   5  23 -10   83.69   33.70
 -23  10   5   70.29   23.50
  -5 -23 -10   76.59   14.40
   5 -23  10   70.09   18.00
 -10   5 -23   79.79   20.40
 -23  10  -5   83.09   30.20
   5 -23 -10   74.09   18.50
  -5  23 -10   60.99   30.20
 -23  12   5   77.49   21.90
   5  23 -12   68.99   32.20
  -5 -23 -12   73.49   14.00
 -23  12  -5   47.30   31.10
  -5  23 -12   59.59   30.00
 -12   5 -23   32.80   19.90
  23 -12  -5   38.30   13.80
   5 -23 -12   35.30   19.00
   5  23 -14   58.39   28.80
  23 -14   5   57.69   14.50
 -23  14   5   90.99   19.90
  -5 -23 -14   59.39   13.70
  23 -14  -5   60.09   15.40
   5 -23 -14   52.09   18.20
 -23  14  -5   50.39   27.20
 -14   5 -23   64.99   20.60
  -5  23 -14   42.50   29.20
   5  23 -16  261.07   39.60
  23 -16   5  193.48   26.10
  -5 -23 -16  199.08   23.50
   5 -23 -16  189.68   30.90
  -5  23 -16  257.77   40.30
 -23  16  -5  282.07   38.80
  23 -16  -5  213.78   27.50
 -16   5 -23  210.38   34.20
   5  23 -18   87.29   27.00
  23 -18   5   92.99   16.60
  -5 -23 -18   95.09   14.50
  23 -18  -5   90.59   17.00
   5 -23 -18  105.09   20.40
  -5  23 -18  106.09   31.50
 -18   5 -23   72.49   20.10
  18  -5 -23  107.39   18.10
 -23  18  -5  121.29   29.90
   6 -23  -1   68.19   16.80
  -6  23  -1   51.69   24.10
  -1   6 -23   65.79   20.40
  -6 -23   1   80.59   12.60
   6  23  -3  246.58   36.80
   6 -23   3  262.87   31.10
  -6 -23  -3  276.37   24.00
  -6  23   3  281.57   35.90
  -3   6 -23  247.18   29.90
   6 -23  -3  224.68   31.10
  -6 -23   3  242.68   24.10
  -6  23  -3  232.28   41.70
   6 -23   5   77.19   18.00
   6  23  -5   87.09   29.00
  -6 -23  -5   94.69   16.70
   6 -23  -5   83.49   18.90
  -5   6 -23   99.59   19.30
  -6  23  -5   89.89   28.30
  -6 -23  -7  118.69   18.50
   6 -23   7  136.19   21.60
   6  23  -7   93.59   32.30
 -23   7  -6   92.49   29.00
  -6  23  -7   80.09   26.90
   6 -23  -7  164.28   22.80
  -7   6 -23  159.98   22.80
  -6 -23  -9  111.69   18.10
 -23   9   6  115.69   23.80
   6  23  -9   91.69   30.60
   6 -23   9  149.49   21.90
   6 -23  -9   76.39   18.90
  -9   6 -23   97.19   22.10
  -6  23  -9   92.09   32.40
 -23   9  -6  108.09   33.30
   6 -23  11  348.27   37.40
   6  23 -11  347.47   54.39
 -23  11   6  351.46   41.60
  -6 -23 -11  339.37   30.50
  23 -11  -6  367.66   30.40
   6 -23 -11  351.56   37.60
 -11   6 -23  363.06   40.50
  -6  23 -11  361.36   53.99
 -23  11  -6  376.96   52.89
   6  23 -13   37.50   31.20
  -6 -23 -13   44.50   12.00
 -23  13  -6   12.80   29.60
  23 -13  -6   10.70   13.80
  -6  23 -13   13.30   31.80
 -13   6 -23    7.70   18.50
   6 -23 -13   -8.80   18.30
   6  23 -15  303.77   40.90
  -6 -23 -15  269.87   26.60
  23 -15   6  270.67   27.30
   6 -23 -15  191.58   32.40
 -15   6 -23  199.08   35.00
  23 -15  -6  206.38   28.20
  -6  23 -15  270.77   42.00
  23 -17   6   91.09   16.10
   6  23 -17   99.49   30.20
   6 -23 -17   44.60   17.80
 -23  17  -6  143.39   31.70
  23 -17  -6   78.29   16.60
 -17   6 -23   76.59   21.20
  -6  23 -17   89.49   30.90
   0   7 -23   21.90   14.40
   7 -23   0   14.70   18.30
  -7  23   0   26.70   23.10
  -7 -23   0   23.00    9.70
  -7  23   2   27.90   20.10
  -7 -23  -2   45.60   10.20
   7 -23   2   61.89   19.10
   7  23  -2   34.90   25.60
   7 -23  -2   24.90   15.80
  -7  23  -2   23.90   21.30
  -2   7 -23   31.50   15.60
  -7 -23   2   41.40   10.50
   7  23  -4  135.29   30.00
  -7 -23  -4  185.08   18.70
   7 -23   4  189.78   27.70
  -4   7 -23  190.88   28.60
   7 -23  -4  136.39   21.60
  -7  23  -4  125.09   28.70
  -7 -23  -6  105.89   16.50
   7  23  -6   65.19   27.90
   7 -23   6  127.49   21.60
   7 -23  -6  165.08   23.00
  -6   7 -23  150.48   22.90
 -23   6  -7   82.89   27.70
  -7  23  -6  103.39   29.30
   7  23  -8   36.70   27.60
  -7  23  -8  198.08   33.50
   7  23 -10   68.29   29.30
   7 -23  10   63.79   17.80
 -23  10  -7   96.39   29.50
  -7  23 -10  168.38   34.80
   7  23 -12  148.89   35.90
  23 -12  -7  139.49   18.00
 -23  12  -7  128.89   34.60
   7 -23 -12  113.59   22.90
  -7  23 -12  120.09   34.10
 -12   7 -23  129.39   25.60
   7  23 -14   22.30   28.30
 -23  14  -7   41.90   29.80
  23 -14  -7    9.30   14.00
 -14   7 -23   16.10   19.20
  -7  23 -14   26.00   30.20
   7 -23 -14   14.00   16.60
   7  23 -16  355.56   50.19
  -7  23 -16  403.96   55.29
  23 -16  -7  339.67   34.30
 -23  16  -7  377.06   51.69
 -16   7 -23  326.27   41.20
   7 -23 -16  353.86   37.90
   8 -23   1   80.79   17.50
  -8  23   1  105.79   25.00
   1   8 -23  105.19   18.70
  -1   8 -23   69.69   18.70
  -8  23  -1   31.20   22.20
   8 -23  -1   69.39   19.50
   3   8 -23  245.48   31.70
   8  23  -3  226.28   35.40
  -8  23   3  251.97   34.60
   8 -23   3  256.47   30.10
   8 -23  -3  169.58   30.10
  -3   8 -23  185.68   31.50
  -8  23  -3  162.88   33.50
   8  23  -5   92.89   30.20
   8 -23   5  133.29   22.90
  -8  23  -5  134.29   28.90
  -5   8 -23  182.18   30.90
   8 -23  -5  195.58   29.40
  -7   8 -23  208.98   33.90
 -23   7  -8  234.28   39.90
  -8  23  -7  230.28   38.60
   8 -23   9   92.89   19.70
   8  23  -9  136.79   34.50
  -8  23  -9  172.58   30.90
 -23   9  -8  182.78   35.00
   8  23 -11  160.48   32.70
   8 -23  11  116.49   19.90
  23 -11  -8  149.09   20.50
   8 -23 -11   96.79   22.60
  -8  23 -11  101.59   33.80
 -11   8 -23  101.29   24.80
 -23  11  -8   79.59   31.10
   8  23 -13   42.30   24.40
 -23  13  -8   41.20   25.90
 -13   8 -23   52.29   22.40
  23 -13  -8   39.20   14.70
  -8  23 -13   61.69   33.10
   8 -23 -13   43.50   19.20
   8 -23 -15  102.59   21.20
 -23  15  -8   95.69   27.10
  23 -15  -8  142.99   24.30
  -8  23 -15  165.48   36.00
 -15   8 -23  147.99   26.00
  23 -17  -8  202.18   25.90
   8 -23 -17  184.78   31.10
  17  -8 -23  200.68   30.10
  -8  23 -17  158.78   32.70
 -23  17  -8  206.98   36.00
 -17   8 -23  189.98   34.10
   0   9 -23   96.99   20.60
  -9  23   0   90.19   24.20
   9 -23   0   80.49   18.40
  -9  23   2  166.08   27.90
   2   9 -23  178.58   25.30
   9 -23   2  152.88   28.40
  -2   9 -23  244.88   32.20
   9 -23  -2  245.48   30.60
  -9  23  -2  243.18   40.00
   4   9 -23  370.36   37.10
   9 -23   4  329.97   36.80
  -9  23  -4  358.96   48.70
  -4   9 -23  392.96   41.20
   9 -23  -4  383.66   37.30
   9  23  -6  106.49   31.00
   9 -23   6  137.19   22.80
  -9  23  -6  106.29   32.60
   9 -23  -6   88.89   20.90
 -23   6  -9   58.39   27.70
  -6   9 -23   93.69   22.40
   9  23  -8  119.59   32.90
   9 -23   8   93.29   20.50
 -23   8  -9  125.29   29.40
   9 -23  10   43.60   16.60
   9  23 -10   87.29   31.50
 -23  10  -9   23.30   28.00
   9 -23 -10   23.50   19.90
  -9  23 -10   16.50   30.70
 -10   9 -23   22.80   21.30
   9  23 -12  379.46   50.89
   9 -23  12  365.46   38.80
   9 -23 -12  334.77   39.00
  23 -12  -9  377.66   33.70
  -9  23 -12  410.26   56.79
 -12   9 -23  358.36   44.10
 -23  12  -9  391.86   55.29
  -9  23 -14   15.80   24.90
   9 -23 -14   18.80   19.10
 -23  14  -9   39.10   29.50
 -14   9 -23   38.00   22.30
  23 -14  -9   16.80   14.40
  16  -9 -23  449.26   41.90
  -9  23 -16  460.15   57.59
   9 -23 -16  416.16   42.30
 -16   9 -23  398.46   47.00
 -23  16  -9  446.56   55.29
  23 -16  -9  401.86   37.60
   1  10 -23  106.49   21.60
 -10  23   1   98.39   23.80
  10 -23   1   70.69   18.50
  -1  10 -23  111.59   22.50
  10 -23  -1  107.39   22.00
 -10  23  -1  100.19   25.50
 -10  23   3  110.29   23.40
   3  10 -23  112.69   21.70
  10 -23   3   77.29   18.60
  -3  10 -23  168.48   25.10
 -10  23  -3  128.09   28.20
  10 -23   5   61.19   19.30
  -5  10 -23   71.89   21.90
  10 -23  -5   53.79   18.90
 -23   5 -10   40.30   26.10
 -10  23  -5   57.89   26.60
  10 -23   7   91.89   21.40
  -7  10 -23  147.89   26.10
 -23   7 -10  139.89   34.30
 -10  23  -7  176.98   34.90
  10 -23   9   65.19   19.50
  10 -23  -9   15.40   18.40
 -10  23  -9   15.80   28.70
  -9  10 -23   22.60   21.60
 -23   9 -10   46.40   32.60
 -10  23 -11  205.08   38.20
  23 -11 -10  180.08   23.40
 -23  11 -10  191.18   37.60
  10 -23 -11  153.48   25.10
 -11  10 -23  170.98   28.70
  23 -13 -10   81.69   15.80
 -23  13 -10   63.49   28.10
 -10  23 -13   71.79   29.10
  10 -23 -13   43.60   18.40
 -13  10 -23   89.59   25.10
  15 -10 -23  106.49   20.90
  23 -15 -10  134.59   23.20
  10 -23 -15  121.89   22.20
 -15  10 -23  151.58   27.60
 -23  15 -10  167.48   34.00
   0  11 -23  498.95   46.90
 -11  23   0  429.96   49.60
  11 -23   0  453.25   43.20
  11 -23   2  168.58   31.10
   2  11 -23  187.18   27.80
 -11  23   2  181.08   28.20
  -2  11 -23  251.77   35.00
  11 -23  -2  255.17   32.40
 -11  23  -2  245.48   40.20
  11 -23   4  230.88   32.40
   4  11 -23  257.57   33.90
  11 -23  -4  201.38   32.50
 -11  23  -4  253.77   36.60
  -4  11 -23  263.67   37.20
 -23   4 -11  250.47   40.70
  11 -23   6  339.07   38.00
 -23   6 -11  347.77   51.79
 -11  23  -6  362.86   50.69
  11 -23  -6  336.97   38.60
  -6  11 -23  362.36   42.80
  11 -23  -8   78.99   21.90
 -23   8 -11   81.89   32.60
 -11  23  -8   79.89   31.10
  -8  11 -23   81.59   24.00
  11 -23  10  145.39   23.80
  11 -23 -10  165.98   25.50
 -11  23 -10  201.88   37.90
 -23  10 -11  161.08   34.00
 -10  11 -23  168.68   28.50
  23 -10 -11  177.98   19.70
 -23  12 -11  643.24   65.79
 -11  23 -12  654.03   68.39
 -12  11 -23  605.44   59.19
  23 -12 -11  617.84   48.50
  11 -23 -12  590.44   53.99
 -23  14 -11  312.37   41.80
  11 -23 -14  228.38   35.30
 -14  11 -23  250.07   40.10
 -11  23 -14  215.88   36.70
  23 -14 -11  258.07   28.30
  14 -11 -23  265.47   35.70
   1  12 -23  165.18   27.10
 -12  23   1  188.68   29.50
  -1  12 -23  208.98   36.10
  12 -23  -1  188.98   31.30
 -12  23  -1  192.48   31.10
 -12  23   3  551.84   49.30
   3  12 -23  605.24   52.59
  12 -23   3  500.95   49.00
  -3  12 -23  649.93   55.39
 -23   3 -12  592.64   62.39
  12 -23  -3  537.15   49.80
 -12  23  -3  568.04   58.99
  12 -23   5   90.79   20.50
   5  12 -23   83.89   20.90
 -12  23  -5   32.40   27.40
 -23   5 -12   33.90   29.60
  -5  12 -23   13.60   21.60
  12 -23  -5   44.70   21.00
  12 -23   7   88.69   19.10
 -23   7 -12  127.79   35.00
 -12  23  -7  163.48   34.70
  -7  12 -23  146.99   26.90
  12 -23  -7   85.69   20.50
  12 -23   9  369.56   39.30
 -23   9 -12  353.66   52.79
  -9  12 -23  391.76   45.30
  12 -23  -9  356.46   40.30
 -12  23  -9  400.96   54.79
  12 -23  11  641.64   52.49
  23 -11 -12  576.84   47.80
  12 -23 -11  593.44   54.09
 -11  12 -23  643.24   60.19
 -12  23 -11  680.73   67.49
 -23  11 -12  625.64   65.29
 -13  12 -23  230.18   39.20
  23 -13 -12  196.58   25.00
  12 -23 -13  199.58   33.70
  13 -12 -23  136.99   23.90
 -12  23 -13  242.58   39.00
 -23  13 -12  180.68   32.40
  13 -23   0  286.77   35.40
 -13  23   0  332.57   42.90
   0  13 -23  305.97   40.90
  13 -23   2  204.08   29.90
 -13  23   2  225.38   34.10
 -13  23  -2  151.08   30.30
  -2  13 -23  135.39   25.80
 -23   2 -13  121.09   32.10
  13 -23  -2   79.89   20.90
 -13  23  -4   60.89   26.10
  13 -23  -4   78.39   22.70
  -4  13 -23   90.59   25.30
 -23   4 -13  103.39   30.60
  13 -23   6   25.60   19.60
  13 -23  -6   16.90   20.50
 -23   6 -13    0.70   26.70
 -13  23  -6   17.30   27.20
  -6  13 -23   -0.70   21.60
  13 -23   8   44.70   19.40
  13 -23  -8   32.00   21.50
  -8  13 -23   37.50   22.60
 -13  23  -8   53.39   31.20
 -23   8 -13   80.39   31.40
  13 -23  10   68.19   19.90
 -13  23 -10   75.79   31.20
 -10  13 -23   74.09   24.10
  13 -23 -10   60.79   21.00
 -23  10 -13   93.99   30.50
  12 -13 -23  248.78   31.50
  23 -12 -13  202.08   26.10
 -23  12 -13  291.97   40.90
 -12  13 -23  239.68   34.60
 -13  23 -12  225.58   38.90
   1  14 -23  168.98   28.20
  14 -23   1  154.78   25.40
 -14  23   1  168.18   28.20
 -14  23  -1  253.27   39.70
 -23   1 -14  254.97   44.40
  14 -23   3  109.19   20.20
 -23   3 -14   77.29   29.20
  -3  14 -23  110.39   26.80
  14 -23  -3   93.99   21.60
 -14  23  -3  133.99   31.00
  14 -23   5   32.00   16.90
   5  14 -23   60.19   21.50
  14 -23  -5   53.09   21.00
  -5  14 -23   51.49   24.20
 -23   5 -14   38.80   28.20
 -14  23  -5   53.59   28.90
  14 -23   7   12.90   18.70
 -23   7 -14   19.70   24.80
  14 -23  -7    8.80   19.80
  -7  14 -23   29.10   22.80
 -14  23  -7   -0.30   27.60
  -9 -14 -23   23.40   11.60
  14 -23   9   17.60   18.20
  14 -23  -9   23.90   20.90
  -9  14 -23    9.20   23.40
 -23   9 -14   37.00   27.10
 -14  23  -9   17.80   28.00
  14 -23  11  255.37   33.00
 -23  11 -14  305.77   40.70
  11 -14 -23  271.47   37.50
 -11  14 -23  229.08   40.50
  23 -11 -14  254.27   27.30
 -14  23 -11  275.87   41.20
  14 -23 -11  237.88   35.60
 -23   0 -15  313.97   48.50
 -15  23   0  368.86   43.90
   0  15 -23  413.86   45.80
  15 -23   0  339.67   38.50
   2  15 -23  217.88   30.50
 -23  -2 -15  215.48   32.70
  15 -23   2  178.68   25.30
 -15  23   2  216.78   34.00
 -15  23  -2  174.78   31.90
  15 -23  -2  133.89   24.70
 -23   2 -15  153.88   33.20
  -2  15 -23  179.08   31.30
  15 -23   4  181.78   30.30
   4  15 -23  168.48   28.20
 -23   4 -15  265.67   45.10
  15 -23   6  214.98   31.50
 -15  23  -6  287.97   39.00
  15 -23  -6  192.28   33.80
 -23   6 -15  178.68   34.60
  -6  15 -23  184.38   31.40
  -8 -15 -23  192.98   20.50
  15 -23   8  182.58   29.40
 -23   8 -15  103.99   28.80
  15 -23  -8  124.79   23.90
   8 -15 -23  131.39   26.00
  -8  15 -23  142.59   28.70
 -15  23  -8  149.09   32.60
  15 -23  10  119.89   21.70
 -23  10 -15  151.18   31.50
  10 -15 -23   96.39   21.20
  23 -10 -15  156.98   21.80
  15 -23 -10  148.99   24.10
 -15  23 -10  125.79   32.20
 -10  15 -23  170.38   29.30
  16 -23   1  174.68   30.20
 -23  -1 -16  160.08   28.90
   1  16 -23  215.68   36.60
 -16  23   1  203.78   35.10
 -16  23  -1  170.08   30.00
 -23   1 -16  145.19   29.80
  -1  16 -23  169.98   30.00
  16 -23   3  283.67   34.30
 -23  -3 -16  280.87   42.60
   3  16 -23  280.37   39.10
 -16  23  -3  275.17   44.80
  -3  16 -23  277.87   41.00
  16 -23  -3  229.08   34.70
 -23   3 -16  230.38   35.60
  16 -23   5  185.48   30.40
 -23  -5 -16  167.48   28.40
  -5 -16 -23  183.78   23.90
   5  16 -23  171.48   28.20
  -5  16 -23  255.27   34.20
 -23   5 -16  154.98   29.80
 -16  23  -5  177.58   30.80
   5 -16 -23  172.88   25.90
  16 -23  -5  211.38   32.80
  -7 -16 -23  389.16   32.20
  16 -23   7  358.16   37.70
   7 -16 -23  355.96   41.80
  16 -23  -7  354.46   40.00
 -16  23  -7  371.76   51.69
  -7  16 -23  344.97   45.40
 -23   7 -16  349.87   49.80
  23  -9 -16  386.86   32.90
 -23   9 -16  427.46   52.29
   9 -16 -23  386.06   43.50
  16 -23  -9  425.36   42.70
  -9  16 -23  426.56   49.30
 -16  23  -9  446.96   55.19
  17 -23   0   -3.90   16.30
 -23   0 -17   11.00   21.80
 -17  23   0    1.80   20.10
   0 -17 -23  -13.60   16.00
   0  17 -23    2.40   21.50
  -2 -17 -23   40.80   16.10
   2  17 -23   32.00   23.60
 -23  -2 -17   59.29   24.80
  17 -23   2   37.80   19.80
  -2  17 -23   96.69   27.70
 -17  23  -2   84.99   26.70
   2 -17 -23   84.69   21.50
  17 -23  -2   70.79   21.30
 -23   2 -17   92.49   27.40
   4  17 -23   95.59   24.70
 -23  -4 -17   81.99   24.00
  -4 -17 -23   77.49   15.70
  17 -23   4   61.59   19.30
  17 -23  -4   28.10   20.10
 -17  23  -4   29.20   23.90
  -4  17 -23   39.20   24.60
 -23   4 -17   28.30   23.30
   4 -17 -23   44.90   21.10
  -6 -17 -23   93.59   15.30
 -23  -6 -17   87.19   23.60
  17 -23   6  100.89   21.00
 -17  23  -6  135.59   31.10
   6 -17 -23  104.99   24.20
 -23   6 -17   74.39   25.60
  17 -23  -6  103.09   22.00
  -6  17 -23   79.39   25.90
   8 -17 -23  181.68   32.80
 -23   8 -17  236.48   36.10
  17 -23  -8  185.68   32.10
 -17  23  -8  180.68   32.30
  -8  17 -23  215.38   33.30
  -1 -18 -23  161.08   20.90
 -18  23   1  152.68   26.20
 -23  -1 -18  110.79   25.70
   1  18 -23  138.79   27.60
  18 -23   1  150.18   23.30
  18 -23  -1  127.69   22.00
 -23   1 -18  145.29   28.30
 -18  23  -1  110.59   26.00
   1 -18 -23   98.99   19.40
  -1  18 -23  155.48   30.20
   3  18 -23   37.80   22.90
 -23  -3 -18   45.90   21.40
  18 -23   3   40.80   18.30
  -3 -18 -23   36.00   14.50
  -3  18 -23   40.90   24.50
 -18  23  -3   77.19   27.00
 -23   3 -18   32.90   23.10
   3 -18 -23   48.10   20.00
  18 -23  -3   55.99   18.70
 -23  -5 -18   72.69   22.40
  18 -23   5   84.49   20.00
  -5 -18 -23   85.09   15.00
   5  18 -23  101.69   24.40
 -23   5 -18  123.49   29.30
 -18  23  -5  124.09   29.20
  18 -23  -5  121.89   22.90
   5 -18 -23  105.69   22.00
  -5  18 -23   86.99   25.60
 -23   0 -19   46.60   21.80
   0 -19 -23   37.40   15.00
   0  19 -23   67.09   24.80
  19 -23   0   41.30   17.00
 -19  23   0   24.50   20.50
   0 -24   0 1181.38   84.29
   0  24   0 1154.98   92.09
   0  24  -2   83.59   28.20
   0  24   2   96.69   26.10
   0 -24   2   81.79   17.10
   0 -24  -2   57.39   14.50
   0 -24  -4  168.58   24.30
   0  24   4  153.78   25.50
   0 -24   4  142.19   24.00
   0  24  -4  162.98   32.10
   0  24  -6   42.10   25.40
   0 -24  -6   46.80   16.20
   0 -24   6   23.40   15.20
   0 -24   8  142.69   24.30
   0  24  -8   99.59   31.70
 -24   8   0  137.99   32.40
   0 -24  -8  127.39   19.10
 -24  10   0   10.10   26.70
   0  24 -10   19.90   30.90
   0 -24 -10   20.10   16.00
 -24  12   0 1204.98   98.89
   0 -24 -12 1275.97   89.89
   0  24 -12 1250.27  103.29
  24 -14   0  216.08   21.70
 -24  14   0  131.49   29.80
   0  24 -14  176.88   37.00
   0 -24 -14  154.08   25.70
   0  24 -16  727.93   67.59
   0 -24 -16  631.24   50.99
  24 -16   0  648.74   50.29
 -24  16   0  637.04   60.99
  -1  24   1  140.19   26.00
   1  24  -1  144.09   28.30
  -1 -24  -1  176.58   22.90
  -1  24  -1   98.99   25.40
  -1 -24   1  108.49   17.30
   1 -24  -1  112.99   17.80
   1  24   1  122.49   27.20
   1 -24   3  211.98   27.50
  -1  24   3  216.78   36.40
   1  24  -3  186.58   33.90
  -1 -24  -3  243.98   26.00
   1  24   3  195.58   35.70
  -1 -24   3  226.28   25.80
  -1  24  -3  214.28   33.70
   1 -24  -3  195.28   27.20
  -1 -24  -5  215.68   25.70
   1  24  -5  128.49   29.10
   1 -24   5  190.88   26.00
  -1  24  -5  179.98   34.80
   1 -24  -5  196.68   26.40
  -1 -24   5  168.78   24.60
   1 -24   7   54.19   15.80
   1  24  -7   41.10   28.50
   1 -24  -7  -11.50   15.60
  -1 -24   7   13.60   14.90
  -1  24  -7    7.20   27.80
   1 -24   9  150.18   25.30
   1  24  -9  131.29   33.30
 -24   9   1  119.49   28.90
  -1 -24  -9  135.39   23.10
 -24   9  -1   74.59   27.60
   1 -24  -9  132.89   20.00
  -1  24  -9   89.19   31.40
 -24  11   1  317.87   44.90
   1  24 -11  290.87   48.60
  -1 -24 -11  297.47   29.10
 -24  11  -1  183.98   33.00
   1 -24 -11  238.78   30.00
  -1  24 -11  194.28   34.70
  -1 -24 -13  262.17   28.10
   1  24 -13  231.58   39.40
 -24  13   1  280.97   42.80
 -24  13  -1  166.28   32.40
   1 -24 -13  182.78   28.30
  -1  24 -13  253.87   41.80
 -24  15   1  336.67   44.00
  24 -15   1  299.57   30.50
   1  24 -15  337.87   52.79
  -1 -24 -15  315.67   32.00
  24 -15  -1  325.77   30.70
   1 -24 -15  360.96   33.30
 -24  15  -1  373.56   46.50
  -1  24 -15  344.47   54.09
  -1 -24 -17   67.09   15.20
  24 -17   1   71.99   14.60
   1  24 -17   47.40   28.70
 -24  17   1   55.39   22.50
   1 -24 -17   26.50   15.00
  24 -17  -1   36.20   13.80
  -1  24 -17   11.80   24.70
 -24  17  -1   52.39   24.40
  -2  24   0   42.40   22.10
   2 -24   0   59.49   15.30
   2  24   0   63.49   27.50
  -2 -24   0   60.69   14.90
   2  24  -2   95.89   28.50
  -2 -24  -2  124.99   20.70
  -2  24   2  104.89   23.80
   2 -24   2  135.39   19.40
  -2 -24   2  117.59   17.50
   2 -24  -2   93.99   17.80
   2  24   2   90.19   25.20
  -2  24  -2   51.29   24.70
   2 -24   4   56.79   16.00
  -2 -24  -4   76.29   15.70
   2  24  -4   54.49   28.90
  -2  24   4   75.59   21.40
  -2  24  -4    8.10   25.60
   2  24   4   17.00   19.80
   2 -24  -6  103.09   18.00
  -2  24  -6   98.39   28.70
  -2 -24   6  140.99   18.10
   2  24  -8   13.60   28.30
 -24   8   2   15.90   24.40
  -2 -24  -8   18.50   13.80
   2 -24   8   21.00   17.40
  -2  24  -8   23.60   28.60
 -24   8  -2   16.30   29.10
  -2 -24   8   10.60   14.40
   2 -24  -8   23.00   15.20
   2  24 -10  181.28   36.30
   2 -24  10  234.78   29.40
 -24  10   2  234.48   33.70
  -2 -24 -10  221.58   26.40
 -24  10  -2  139.99   30.80
   2 -24 -10  193.98   28.40
  -2  24 -10  226.18   39.20
  -2 -24 -12  101.19   17.10
 -24  12   2   87.99   27.60
   2  24 -12  104.69   33.40
   2 -24 -12  122.29   19.70
 -24  12  -2  112.69   30.90
  -2  24 -12  103.49   32.40
 -24  14   2  166.88   27.40
   2  24 -14  176.18   36.90
  -2 -24 -14  176.18   23.40
 -24  14  -2   95.19   28.70
  24 -14  -2  138.39   20.80
  -2  24 -14   78.19   32.20
   2 -24 -14   97.59   20.00
 -24  16   2   83.89   23.50
  24 -16   2   99.39   16.00
  -2 -24 -16   88.29   16.30
   2  24 -16   75.99   28.60
   2 -24 -16   90.99   17.70
  24 -16  -2  100.79   16.20
 -24  16  -2  118.29   27.80
  -2  24 -16  121.79   34.10
  -3 -24  -1  220.18   24.60
   3  24  -1  169.88   32.50
  -3  24   1  235.18   31.90
   3 -24   1  237.58   28.60
   3  24   1  224.38   39.60
   3 -24  -1  214.28   28.10
  -3 -24   1  187.58   23.90
  -3  24  -1  166.18   29.00
   3  24  -3   94.89   28.60
  -3  24   3  137.69   25.40
  -3 -24  -3  126.19   20.60
   3 -24   3  121.19   19.20
   3  24  -5    4.60   25.50
  -3 -24  -5    1.70   12.50
  -3  24   5    1.80    3.90
   3 -24   5    4.20   16.80
  -3  24  -5   32.10   28.60
   3 -24  -5   33.00   15.30
   3  24  -7    9.10   28.10
  -3 -24  -7   10.30   12.90
   3 -24   7    8.50   15.90
   3 -24  -7    4.90   16.20
 -24   7  -3   13.30   28.20
  -3  24  -7   14.20   29.70
  -3 -24   7   21.80   14.00
   3 -24   9   10.20   14.90
 -24   9   3   20.90   24.80
  -3 -24  -9   26.40   14.00
   3  24  -9   28.70   24.50
   3 -24  -9   20.10   16.20
 -24   9  -3   18.00   29.40
  -3  24  -9   36.50   30.90
   3  24 -11  335.37   53.19
 -24  11   3  362.36   45.20
  -3 -24 -11  380.56   33.00
   3 -24 -11  335.07   36.30
 -24  11  -3  363.06   51.39
  -3  24 -11  332.67   54.09
 -24  13   3  214.38   39.80
  -3 -24 -13  264.17   29.10
   3  24 -13  299.57   51.69
 -24  13  -3  338.77   49.00
   3 -24 -13  308.57   32.80
  -3  24 -13  367.96   52.19
  24 -15   3  462.55   40.90
   3  24 -15  496.75   60.39
 -24  15   3  446.96   50.29
  -3 -24 -15  480.25   41.20
  24 -15  -3  551.54   41.50
 -24  15  -3  521.85   56.29
   3 -24 -15  553.54   44.50
  -3  24 -15  628.04   62.79
  -3 -24 -17  112.59   15.70
  24 -17   3  105.29   16.00
   3  24 -17   74.29   30.00
 -24  17   3   77.49   22.90
  24 -17  -3   80.79   15.50
  -3  24 -17   60.49   28.70
   3 -24 -17   80.49   17.70
 -24  17  -3   52.99   24.90
   4  24   0  160.58   30.70
  -4  24   0  127.49   25.80
   4 -24   0  135.09   20.20
  -4 -24   0  149.49   21.00
  -4 -24  -2   77.19   14.30
   4  24  -2   65.69   28.70
   4 -24   2   82.59   17.90
  -4  24   2   85.79   22.40
  -4  24  -2   25.70   23.90
   4  24   2   18.30   23.60
   4 -24   4  605.44   49.80
   4  24  -4  540.15   62.29
  -4 -24  -4  588.64   46.30
  -4  24   4  606.14   53.09
  -4  24  -4  670.83   61.29
  -4 -24  -6  360.96   29.20
   4 -24   6  321.27   33.30
   4  24  -6  322.77   49.80
  -4 -24   6  259.97   29.10
   4 -24  -6  236.78   33.10
 -24   8   4  111.79   26.50
   4 -24   8   94.69   19.20
  -4 -24  -8  123.59   20.80
   4  24  -8  149.29   35.80
  -4  24  -8  145.29   33.00
 -24   8  -4  186.88   35.90
   4 -24  -8  157.28   27.10
 -24  10   4  337.27   44.40
   4  24 -10  348.07   53.79
   4 -24  10  352.16   36.20
  -4 -24 -10  368.26   32.20
   4 -24 -10  344.67   36.90
  -4  24 -10  375.66   54.09
 -24  10  -4  343.57   52.39
 -24  12   4  244.08   39.30
   4  24 -12  230.58   40.50
  -4 -24 -12  228.58   27.50
   4 -24 -12  314.47   33.20
 -24  12  -4  379.86   49.70
  -4  24 -12  362.36   53.49
   4  24 -14  155.18   31.60
 -24  14  -4   69.99   30.10
  -4  24 -14   73.49   33.10
   4 -24 -14   59.79   17.80
  24 -14  -4   69.39   13.80
  -4 -24 -16  318.37   30.60
   4  24 -16  360.76   52.49
 -24  16   4  426.06   44.80
  24 -16   4  363.36   31.70
  24 -16  -4  330.87   32.30
 -24  16  -4  372.26   48.50
   4 -24 -16  327.37   35.80
  -4  24 -16  319.07   53.39
  -5 -24  -1  228.58   22.10
   5  24  -1  147.79   29.40
  -5  24   1  176.58   28.10
   5 -24   1  205.68   28.20
   5  24   1  176.08   29.40
  -5 -24   1  179.98   22.10
  -5  24  -1  153.38   28.70
   5 -24  -1  210.08   28.80
  -5  24   3   18.40   19.70
   5  24  -3   -1.50   26.40
   5 -24   3    4.40   16.30
  -5 -24  -3    8.00   11.30
   5 -24  -3   22.90   15.40
  -5 -24   3   42.80   12.80
  -5  24  -3   22.50   23.10
  -5 -24   5  594.24   44.00
   5 -24  -5  582.44   48.00
  -5  24  -5  467.85   58.69
  -5 -24  -7  145.39   21.30
   5  24  -7  157.48   36.00
   5 -24   7  169.28   28.50
 -24   7  -5  174.08   32.90
   5 -24  -7  235.98   29.90
  -5  24  -7  200.48   34.80
   5 -24   9   94.39   18.80
 -24   9   5  136.29   26.60
  -5 -24  -9  124.59   19.60
   5  24  -9  126.49   34.00
 -24  11   5  194.28   28.50
   5  24 -11  171.98   36.00
   5 -24  11  199.08   29.60
  -5 -24 -11  215.48   22.20
 -11   5 -24  155.28   27.40
  -5  24 -11  186.58   38.10
   5 -24 -11  134.89   23.10
 -24  11  -5  196.18   38.30
 -24  13   5  139.99   24.90
  -5 -24 -13  143.79   20.20
   5  24 -13  181.98   37.00
 -13   5 -24  130.19   25.80
  -5  24 -13  111.89   34.60
 -24  13  -5  154.38   34.30
   5 -24 -13  119.19   21.90
  24 -13  -5  129.19   17.90
  -5 -24 -15    8.10   11.00
   5  24 -15   -2.60   29.60
  24 -15  -5   13.50   12.90
  -5  24 -15   -3.30   28.60
   5 -24 -15    5.80   17.80
 -24  15  -5    1.20   26.00
  24 -17   5  213.58   24.50
   5  24 -17  250.27   37.20
  -5  24 -17  196.58   36.80
  24 -17  -5  161.68   23.50
   5 -24 -17  187.48   29.10
 -24  17  -5  196.78   33.40
  -6 -24   0   59.49   12.10
  -6  24   0   47.10   24.80
   6 -24   0   59.89   18.90
   6  24  -2  208.78   35.10
  -6  24   2  208.88   36.10
  -6 -24  -2  230.18   22.40
   6 -24   2  212.48   30.20
   6 -24   4  340.97   34.20
   6  24  -4  312.97   48.10
  -6 -24  -4  338.17   27.00
  -6  24  -4  230.08   38.20
   6 -24  -4  222.38   33.20
  -6  24  -6  163.98   30.40
 -24   6  -6  222.18   36.60
   6 -24   8  208.18   30.60
   6  24  -8  250.67   40.40
  -6 -24  -8  208.28   21.80
 -24   8   6  212.08   36.10
 -24   8  -6  146.79   31.40
   6 -24  -8  226.98   30.80
  -6  24  -8  181.68   34.60
  -8   6 -24  218.58   30.30
   6 -24  10  185.08   31.30
   6  24 -10  229.18   40.40
 -24  10   6  214.38   31.20
  -6 -24 -10  184.08   22.70
 -10   6 -24  268.47   33.30
 -24  10  -6  283.07   39.70
   6 -24 -10  259.37   32.10
  -6  24 -10  329.27   43.70
  -6 -24 -12  222.48   29.30
 -24  12   6  313.17   31.40
   6  24 -12  231.58   38.10
 -12   6 -24  210.48   33.90
 -24  12  -6  265.47   41.30
   6  24 -14   44.90   31.20
 -24  14  -6   61.59   29.40
  24 -14  -6   55.29   14.20
 -14   6 -24   41.00   19.70
  -6  24 -14   51.29   32.70
   6 -24 -14   64.39   20.10
   6  24 -16  275.37   47.80
  -6  24 -16  342.77   53.29
 -16   6 -24  274.17   39.00
  24 -16  -6  296.97   28.90
   6 -24 -16  285.17   34.20
 -24  16  -6  291.47   47.10
   7 -24   1   53.79   18.20
  -7  24   1   43.40   23.50
  -7 -24   1   18.90   10.00
   7 -24  -1    6.10   16.20
  -7  24  -1   14.90   22.10
  -7  24   3   20.80   18.60
   7  24  -3   10.70   27.00
  -7 -24  -3    3.20   10.40
   7 -24   3    9.10   17.80
   7 -24  -3   17.60   15.90
  -7  24  -3    1.80   21.80
   7  24  -5  104.49   29.10
   7 -24   5  122.29   20.40
  -7  24  -5  180.78   30.60
  -7   7 -24  315.37   35.60
 -24   7  -7  298.97   50.09
   7 -24  -7  302.77   35.70
  -7  24  -7  311.17   49.30
   7  24  -9   18.20   26.10
 -24   9   7    2.30   19.00
   7 -24   9    9.60   15.90
  -9   7 -24   19.00   17.60
  -7  24  -9   18.30   27.00
 -24   9  -7   14.80   29.90
   7 -24  -9   23.10   18.90
   7 -24  11  206.78   32.00
   7  24 -11  216.68   38.30
 -24  11  -7  281.47   48.30
  -7  24 -11  182.68   32.60
   7 -24 -11  224.38   32.40
 -11   7 -24  250.67   34.20
   7  24 -13  166.08   35.50
 -13   7 -24  129.39   24.30
  -7  24 -13  110.69   30.80
   7 -24 -13  103.19   21.90
 -24  13  -7  150.18   34.20
   7  24 -15   30.60   28.30
   7 -24 -15    8.30   18.90
  -7  24 -15   48.50   31.50
 -15   7 -24   27.20   18.30
 -24  15  -7   14.10   24.10
  24 -15  -7   38.10   13.80
   8 -24   0  167.38   24.70
  -8  24   0  137.29   28.60
  -8  24   2   12.90   20.30
   8 -24   2   25.10   17.90
  -8  24  -2   11.60   21.20
   8 -24  -2   18.70   18.00
  -2   8 -24   10.20   18.50
   8 -24   4  103.89   21.60
   8 -24  -4  156.28   23.10
  -4   8 -24  164.38   23.40
  -8  24  -4  115.09   29.50
   8  24  -6  149.39   31.50
   8 -24   6  205.48   31.20
  -6   8 -24  230.68   32.90
  -8  24  -6  240.18   37.10
   8 -24  -6  227.88   32.10
 -24   6  -8  265.47   41.00
 -24   8   8  145.79   25.60
   8  24  -8  103.09   30.50
   8 -24   8   98.19   19.60
   8 -24  -8   93.59   19.90
  -8   8 -24  108.59   22.80
 -24   8  -8  137.89   35.00
  -8  24  -8  142.49   34.90
   8 -24  10   23.00   18.40
   8  24 -10   26.00   29.70
   8 -24 -10   -4.60   18.00
  -8  24 -10   17.50   28.80
 -24  10  -8   17.80   30.10
 -10   8 -24    1.00   18.40
   8  24 -12  151.88   33.40
   8 -24 -12   88.29   21.50
 -24  12  -8  112.69   30.70
  -8  24 -12  108.69   30.00
 -12   8 -24  110.49   23.60
   8  24 -14   63.69   27.60
  -8  24 -14  153.48   36.20
  24 -14  -8  147.39   22.20
   8 -24 -14  113.19   20.60
 -14   8 -24  157.68   25.00
   9 -24   1  107.59   19.60
  -9  24   1  138.29   25.90
  -1   9 -24   98.59   20.70
   9 -24  -1   90.19   20.00
  -9  24  -1  108.19   27.70
   9 -24   3   12.40   16.10
  -9  24  -3   13.70   25.20
   9 -24  -3   21.10   16.80
  -3   9 -24   20.20   17.00
 -24   5  -9  192.28   36.20
   9 -24  -5  249.48   32.30
  -9  24  -5  174.78   31.00
  -5   9 -24  210.68   32.50
   9 -24   7    2.90   18.00
  -7   9 -24   18.80   18.40
 -24   7  -9   22.50   26.60
  -9  24  -7   35.30   30.00
   9 -24  -7   13.40   17.70
   9 -24   9  128.59   21.90
 -24   9  -9  217.68   36.30
   9 -24  -9  176.58   31.00
  -9   9 -24  168.88   26.60
  -9  24  -9  158.38   31.50
   9 -24  11  361.06   38.30
  -9  24 -11  358.26   53.39
   9 -24 -11  328.67   38.70
 -11   9 -24  369.56   41.80
  24 -13  -9  204.28   25.00
  -9  24 -13  221.38   39.10
 -13   9 -24  206.08   35.40
   9 -24 -13  194.68   32.80
 -24  13  -9  249.28   39.90
  24 -15  -9  139.99   22.50
 -24  15  -9  158.98   32.90
 -15   9 -24  124.09   23.30
  15  -9 -24  131.79   21.40
  -9  24 -15  122.79   32.00
   9 -24 -15  111.69   20.90
   0  10 -24   28.40   17.40
 -10  24   0   32.80   23.30
  10 -24   0   20.20   20.00
  10 -24   2  183.98   30.70
   2  10 -24  224.28   36.80
 -10  24   2  233.48   36.20
  10 -24  -2  215.68   32.40
 -10  24  -2  176.78   29.90
  -2  10 -24  226.68   31.90
  10 -24   4  273.87   35.80
  -4  10 -24  371.86   39.80
 -24   4 -10  327.17   52.49
  10 -24  -4  327.37   36.60
 -10  24  -4  358.46   48.40
  10 -24   6  188.38   32.50
 -10  24  -6  265.77   46.60
  -6  10 -24  292.17   37.20
 -24   6 -10  294.27   49.10
  10 -24  -6  238.08   34.20
  10 -24   8   33.40   20.00
  10 -24  -8    9.90   19.40
  -8  10 -24    0.50   19.00
 -24   8 -10    2.90   29.30
 -10  24  -8   -6.50   25.10
  10 -24  10  242.48   32.00
 -24  10 -10  247.08   37.90
  10 -24 -10  222.08   33.90
 -10  10 -24  240.08   35.90
 -10  24 -10  221.68   38.60
 -12  10 -24   37.40   21.10
 -10  24 -12   32.80   31.90
  10 -24 -12   11.40   18.70
 -24  12 -10   44.90   30.80
 -24  14 -10   68.79   26.80
 -14  10 -24   53.59   21.30
  24 -14 -10   90.59   15.90
  10 -24 -14   68.59   19.20
 -10  24 -14   78.19   28.50
  11 -24   1  265.57   34.60
 -11  24   1  337.27   40.30
   1  11 -24  302.67   34.90
  11 -24  -1  201.28   33.90
  -1  11 -24  254.07   36.20
 -11  24  -1  237.08   41.50
  11 -24   3  321.47   36.60
   3  11 -24  348.17   39.90
 -24   3 -11  328.37   50.69
 -11  24  -3  372.66   48.20
  11 -24  -3  318.57   38.30
  -3  11 -24  370.96   39.90
  11 -24   5  169.58   29.30
  11 -24  -5  171.18   26.20
 -11  24  -5  180.28   33.70
 -24   5 -11  108.59   28.70
  -5  11 -24  160.58   27.00
  11 -24   7  176.18   32.10
 -11  24  -7  276.47   47.10
 -24   7 -11  289.27   48.90
  -7  11 -24  253.67   37.40
  11 -24  -7  228.58   33.50
  11 -24   9  353.36   38.10
 -24   9 -11  367.06   53.09
 -11  24  -9  387.76   53.79
  11 -24  -9  333.37   39.90
  -9  11 -24  374.46   42.50
  11 -24  11  351.36   35.90
 -11  24 -11  289.57   52.49
  11 -24 -11  280.27   36.70
 -11  11 -24  275.47   39.80
 -24  11 -11  320.47   51.39
 -24  13 -11  198.88   33.90
 -13  11 -24  253.57   37.70
  11 -24 -13  292.47   35.70
  24 -13 -11  269.77   27.20
 -11  24 -13  289.77   41.90
 -12  24   0 1198.98   92.39
   0  12 -24 1215.48   90.19
  12 -24   0 1129.49   87.19
  12 -24   2   65.59   21.00
 -12  24   2  101.59   23.90
   2  12 -24   99.19   21.70
  -2  12 -24  116.19   24.20
 -24   2 -12   93.39   30.50
 -12  24  -2  112.59   27.00
  12 -24  -2  112.79   22.80
  12 -24   4  207.08   34.40
   4  12 -24  204.18   33.10
  -4  12 -24  324.97   39.00
 -12  24  -4  307.87   45.70
 -24   4 -12  303.87   48.10
  12 -24  -4  303.47   35.50
  12 -24   6  188.38   30.70
  12 -24  -6  172.78   26.00
 -12  24  -6  171.38   32.00
  -6  12 -24  184.08   28.90
 -24   6 -12  192.08   36.00
  12 -24   8  142.69   22.60
 -24   8 -12   83.09   27.10
  12 -24  -8  102.99   23.20
  -8  12 -24  112.39   25.20
 -12  24  -8  104.89   29.60
  12 -24  10   21.10   16.30
 -24  10 -12   32.20   31.20
 -12  24 -10   24.20   27.50
 -10  12 -24   31.20   21.20
  12 -24 -10   23.10   20.60
  12 -12 -24 1491.15  110.39
  24 -12 -12 1550.94  106.59
 -12  12 -24 1434.66  113.69
 -12  24 -12 1548.45  120.29
 -24  12 -12 1601.44  119.29
   1  13 -24  262.37   35.30
  13 -24   1  241.28   32.90
 -13  24   1  267.57   36.60
  -1  13 -24  205.98   30.20
 -24   1 -13  187.98   35.10
 -13  24  -1  194.48   30.80
  13 -24  -1  168.78   26.20
   3  13 -24  258.07   36.30
  13 -24   3  250.87   34.50
  -3  13 -24  286.07   39.30
  13 -24  -3  296.87   36.00
 -13  24  -3  331.17   43.70
 -24   3 -13  298.67   46.90
  13 -24   5   89.09   20.50
 -24   5 -13  162.58   35.10
  13 -24  -5   81.29   20.60
  -5  13 -24  123.09   25.80
 -13  24  -5  120.99   28.70
  13 -24   7   90.09   20.00
 -24   7 -13  187.98   35.50
  -7  13 -24  106.49   25.90
 -13  24  -7  172.08   34.10
  13 -24  -7  122.29   23.20
  13 -24   9  145.79   22.60
 -13  24  -9  246.08   37.60
 -24   9 -13  250.37   38.30
  -9  13 -24  157.38   27.20
  13 -24  -9  123.49   22.40
  13 -24  11  227.88   32.70
 -11  13 -24  258.27   39.30
  13 -24 -11  259.47   35.40
 -24  11 -13  293.97   48.80
 -13  24 -11  271.67   40.00
   0  14 -24  158.78   26.60
 -14  24   0  141.19   26.80
 -24   0 -14  110.79   30.40
   2  14 -24  190.28   31.70
  14 -24   2  117.59   21.50
  -2  14 -24   96.49   24.90
 -14  24  -2  102.59   27.70
 -24   2 -14   90.39   30.60
  14 -24  -2   81.99   21.90
  14 -24  -4   50.29   19.40
 -14  24  -4   55.79   27.90
  -4  14 -24   71.79   23.00
 -24   4 -14   61.99   28.00
  14 -24   6   34.40   20.10
 -14  24  -6   64.19   28.60
  14 -24  -6   59.89   22.00
 -24   6 -14   59.29   29.10
  -6  14 -24   69.79   24.30
  -8  14 -24  154.18   28.80
  14 -24  -8  170.28   26.00
 -14  24  -8  118.29   30.80
 -24   8 -14  155.98   32.60
  14 -24  10   69.39   18.10
 -14  24 -10   77.19   29.30
 -10  14 -24   64.29   23.30
  10 -14 -24   97.79   23.40
 -24  10 -14  121.79   32.60
  14 -24 -10   86.89   21.80
 -24  -1 -15  330.17   46.90
 -15  24   1  307.77   41.00
   1  15 -24  348.37   41.50
  15 -24   1  321.97   37.10
 -24   1 -15  349.27   47.40
  15 -24  -1  345.07   37.30
 -15  24  -1  326.67   43.80
  -1  15 -24  323.97   42.20
  15 -24   3  398.56   44.60
 -24  -3 -15  453.75   52.89
   3  15 -24  474.55   48.70
  15 -24  -3  518.35   46.20
  -3  15 -24  572.84   51.99
 -24   3 -15  504.25   56.39
 -15  24  -3  566.44   53.99
  15 -24   5   23.90   19.80
 -24   5 -15   15.20   26.40
 -15  24  -5  -17.40   24.00
  -5  15 -24    9.50   20.70
  15 -24  -5   -6.20   19.70
  15 -24   7   23.10   19.50
  -7 -15 -24   17.30   12.40
 -24   7 -15   27.10   26.90
  15 -24  -7   19.50   20.00
  -7  15 -24   27.20   22.70
   7 -15 -24   31.40   21.40
 -15  24  -7   29.10   26.10
  15 -24   9  129.09   22.00
  15 -24  -9  150.68   24.30
 -15  24  -9  211.78   35.30
 -24   9 -15  116.69   29.00
  -9  15 -24  127.79   26.50
   0  16 -24  651.13   58.99
  16 -24   0  656.33   54.19
 -16  24   0  636.64   58.69
 -24   0 -16  636.54   61.19
  -2 -16 -24   99.09   18.40
 -24  -2 -16  112.69   27.50
  16 -24   2   82.99   21.80
   2  16 -24   70.59   23.30
 -24   2 -16  111.09   27.50
  -2  16 -24   95.49   24.80
  16 -24  -2   74.59   18.00
 -16  24  -2   99.89   25.80
  16 -24   4  322.27   36.20
   4  16 -24  290.47   38.30
  -4 -16 -24  312.17   31.00
 -24  -4 -16  363.16   43.60
   4 -16 -24  310.17   37.50
  -4  16 -24  330.67   43.10
  16 -24  -4  311.27   37.20
 -24   4 -16  325.77   47.10
 -16  24  -4  353.36   46.40
  16 -24   6  273.57   34.40
 -24  -6 -16  259.17   39.80
  -6 -16 -24  261.47   27.70
  -6  16 -24  311.87   41.50
 -24   6 -16  282.87   46.60
   6 -16 -24  309.17   37.50
  16 -24  -6  315.87   36.50
 -16  24  -6  325.47   46.50
  17 -24   1   56.79   20.00
   1  17 -24   52.09   21.80
 -17  24   1   56.89   20.80
 -24  -1 -17   57.79   23.30
  -1 -17 -24   60.89   16.70
  17 -24  -1   24.20   17.40
 -24   1 -17   47.30   24.90
 -17  24  -1   44.20   22.70
   1 -17 -24   28.80   17.90
  -1  17 -24   38.10   21.70
  17 -24   3   87.19   20.20
  -3 -17 -24   77.69   16.10
 -24  -3 -17  106.39   26.20
   3  17 -24   84.89   21.60
  -3  17 -24   81.49   24.50
 -24   3 -17   61.29   23.70
  17 -24  -3   91.19   21.50
 -17  24  -3   71.29   25.50
   3 -17 -24   48.10   18.30
  17 -24   5  191.58   30.20
 -24  -5 -17  175.18   28.70
  -5 -17 -24  214.08   23.90
 -17  24  -5  231.98   34.90
 -24   5 -17  239.28   34.80
  -5  17 -24  165.18   29.20
   5 -17 -24  205.28   32.60
  17 -24  -5  176.28   31.90
   0  25   1   25.90   23.80
   0 -25  -1   22.90   14.20
   0 -25   1   28.40   14.60
   0  25  -1   18.20   24.20
   0 -25   3   88.59   17.50
   0 -25  -3  108.09   18.10
   0  25   3   91.59   24.20
   0  25  -3   49.60   26.70
   0 -25  -5   82.29   17.70
   0  25  -5   47.40   25.40
   0 -25   5   85.99   16.90
   0 -25   7    5.60   15.40
   0  25  -7    2.10   28.80
   0 -25  -7   -2.60   13.80
 -25   9   0   24.70   25.60
   0 -25  -9    4.10   15.30
   0  25  -9   -6.40   28.30
 -25  11   0   66.79   28.70
   0  25 -11   54.19   29.50
   0 -25 -11   66.69   17.30
   0 -25 -13   21.20   15.40
 -25  13   0   34.00   23.80
   0  25 -13   19.40   29.90
 -25  15   0  357.06   44.90
   0 -25 -15  355.96   33.30
   0  25 -15  356.96   53.99
  -1  25   0   23.80   21.90
  -1 -25   0   38.00   15.70
   1  25   0   29.70   25.10
   1 -25   0   21.00   15.70
   1 -25   2  408.66   40.50
  -1  25   2  379.16   49.30
   1  25  -2  336.57   53.29
  -1 -25  -2  397.26   39.80
   1 -25  -2  550.54   41.40
  -1  25  -2  562.94   53.89
  -1 -25   2  570.04   40.50
   1  25   2  550.04   51.39
  -1  25   4   58.29   20.70
   1 -25   4   54.39   16.00
  -1 -25  -4   59.89   15.60
   1  25  -4   31.70   24.10
  -1 -25   4   93.49   16.60
  -1  25  -4   79.69   27.30
   1  25   4   96.19   22.60
   1 -25  -4   67.39   16.50
   1 -25   6  319.07   31.80
   1  25  -6  300.77   48.80
  -1 -25  -6  319.37   29.90
  -1 -25   6  313.07   30.40
   1 -25  -6  268.27   31.30
  -1  25  -6  199.38   35.80
  -1 -25  -8   20.70   14.80
 -25   8   1   -5.70   23.80
   1 -25   8   16.70   16.20
   1  25  -8   33.80   29.90
   1 -25  -8   25.20   15.80
  -1  25  -8   19.40   29.70
 -25   8  -1   16.90   26.40
  -1 -25   8   39.60   14.80
 -25  10   1  658.03   68.39
   1  25 -10  724.33   73.29
  -1 -25 -10  670.43   57.59
   1 -25 -10  826.52   58.99
  -1  25 -10  863.01   75.09
 -25  10  -1  843.12   71.19
  -1 -25 -12   99.79   18.30
 -25  12   1   89.79   28.00
   1  25 -12  115.59   34.70
   1 -25 -12  118.99   18.70
  -1  25 -12  128.99   35.10
 -25  12  -1   91.89   27.70
  -1 -25 -14  671.43   52.99
   1  25 -14  693.43   68.99
 -25  14   1  695.53   62.09
  -1  25 -14  726.53   70.89
 -25  14  -1  675.03   63.69
   1 -25 -14  657.73   53.49
   1  25 -16  137.49   32.50
 -25  16   1  122.49   25.50
  -1 -25 -16  143.09   22.00
 -25  16  -1  103.09   26.30
   1 -25 -16  117.49   18.10
  -1  25 -16  113.79   32.70
   2  25  -1  345.87   48.10
  -2 -25  -1  391.06   33.80
   2 -25   1  353.16   35.70
  -2  25   1  372.36   45.00
  -2 -25  -3  163.98   24.60
  -2  25   3  179.28   29.00
   2  25  -3  173.98   34.00
   2 -25   3  140.49   21.60
  -2 -25   3  233.68   24.90
   2 -25  -3  246.18   28.10
  -2  25  -3  181.48   30.50
   2  25   3  223.38   37.30
   2  25  -5  497.65   57.19
   2 -25   5  554.54   43.40
  -2 -25  -5  526.45   41.40
  -2  25  -5  432.36   56.39
  -2 -25   5  477.45   41.50
   2 -25  -5  493.95   43.30
  -2 -25  -7   28.50   13.90
   2  25  -7   18.10   25.60
   2 -25   7   19.80   15.70
  -2 -25   7   38.00   14.60
  -2  25  -7   36.10   27.70
 -25   7  -2   23.30   28.40
   2 -25  -7   40.80   17.40
 -25   9   2   92.29   26.10
   2  25  -9  127.19   34.20
   2 -25   9  115.59   21.00
  -2 -25  -9  113.29   17.00
 -25   9  -2  137.69   32.90
  -2  25  -9  133.59   33.70
   2 -25  -9  101.29   18.80
   2  25 -11  393.56   57.19
  -2 -25 -11  425.76   39.90
 -25  11   2  428.16   51.29
   2 -25 -11  527.55   42.00
  -2  25 -11  562.84   60.79
 -25  11  -2  528.65   56.89
  -2 -25 -13  680.13   51.79
   2  25 -13  688.13   68.69
 -25  13   2  752.92   61.59
  -2  25 -13  650.53   69.19
 -25  13  -2  612.44   64.99
   2 -25 -13  624.94   52.99
  -2 -25 -15  266.77   26.40
   2  25 -15  300.37   49.70
 -25  15   2  267.77   38.20
 -25  15  -2  181.28   31.40
   2 -25 -15  196.78   28.40
  -2  25 -15  202.88   37.30
  -3 -25   0   90.19   15.60
   3 -25   0   70.09   17.10
  -3  25   0   48.30   22.90
   3  25   0   78.59   25.00
  -3  25   2  132.49   27.20
  -3 -25  -2  152.28   24.50
   3  25  -2  161.68   33.70
   3  25   2  215.48   30.90
  -3  25  -2  206.88   31.40
  -3 -25   2  220.88   23.50
   3 -25  -2  222.98   28.20
   3  25  -4   66.39   30.40
   3 -25   4   62.69   17.70
  -3 -25  -4   91.49   16.20
  -3 -25  -6   21.10   14.20
   3  25  -6   24.50   28.40
   3 -25   6   17.20   17.30
   3 -25  -6   19.20   16.60
  -3  25  -6   24.80   28.60
  -3 -25   6   31.20   13.40
 -25   8   3  114.59   28.30
   3 -25   8   92.69   19.60
   3  25  -8   95.19   31.60
  -3 -25  -8  125.29   21.80
 -25   8  -3   88.79   28.80
   3 -25  -8  142.69   21.50
  -3  25  -8   74.49   28.20
   3  25 -10  105.29   32.50
   3 -25  10   77.09   16.90
 -25  10   3   83.49   25.60
 -25  10  -3   31.20   28.50
  -3  25 -10   33.80   29.60
   3 -25 -10   35.80   18.60
 -25  12   3   45.80   23.20
   3  25 -12   45.00   33.20
  -3 -25 -12   40.00   14.10
  -3  25 -12   92.69   33.30
 -25  12  -3  119.29   31.50
 -25  14   3   82.29   22.80
   3  25 -14  107.89   33.40
  -3 -25 -14  117.99   20.30
  -3  25 -14  106.39   35.20
   3 -25 -14   88.09   18.20
 -25  14  -3  108.49   30.10
 -25  16   3  131.89   25.30
   3  25 -16  131.09   33.90
  -3 -25 -16  102.19   16.90
  25 -16  -3  179.88   20.80
  -3  25 -16  187.58   35.50
   3 -25 -16  182.08   25.70
  -4  25   1   61.79   22.90
   4 -25   1   74.09   19.00
  -4 -25  -1   62.19   14.40
   4  25  -1   32.50   24.50
   4 -25  -1   67.99   16.60
  -4 -25   1   98.39   15.10
   4  25   1   68.59   24.50
  -4  25  -1   78.69   24.40
   4 -25   3   63.69   19.00
  -4  25   3   74.09   21.90
   4  25  -3   71.99   31.00
  -4 -25  -3   77.49   14.50
  -4  25  -3    1.40   25.90
  -4 -25  -5  265.27   26.80
   4 -25   5  271.17   31.60
   4  25  -5  185.48   35.50
  -4  25  -5  264.27   46.90
   4 -25  -5  273.67   31.90
  -4 -25   5  283.57   27.30
   4 -25   7   32.90   18.20
   4  25  -7   26.70   31.40
  -4 -25  -7   22.10   12.70
 -25   7   4   29.30   25.10
 -25   7  -4   20.70   29.00
   4 -25  -7   39.10   18.30
  -4  25  -7   30.10   30.10
   4  25  -9  155.88   34.40
 -25   9   4  203.38   31.10
  -4 -25  -9  197.48   24.50
   4 -25  -9  263.47   31.00
  -4  25  -9  334.67   50.49
 -25   9  -4  275.87   47.50
  -4 -25 -11  101.59   15.30
   4  25 -11  126.29   34.90
 -25  11   4  106.39   25.70
  -4  25 -11   95.69   33.10
   4 -25 -11   53.79   20.00
 -25  11  -4   48.30   26.50
  -4 -25 -13  492.95   39.00
   4  25 -13  518.75   60.59
 -25  13   4  491.85   48.70
  -4  25 -13  467.35   59.59
   4 -25 -13  436.46   43.10
 -25  13  -4  526.45   57.19
  -4 -25 -15   93.89   14.80
   4  25 -15  132.79   34.40
 -25  15   4   98.19   22.70
   4 -25 -15  103.99   18.70
 -25  15  -4   97.89   26.90
  -4  25 -15  118.39   34.30
   5 -25   0   76.59   18.80
  -5 -25   0   71.29   13.20
   5  25   0   56.19   25.40
  -5  25   0   57.09   24.90
   5  25  -2  476.35   55.49
   5 -25   2  525.95   43.80
  -5 -25  -2  513.15   38.70
  -5  25   2  513.95   49.30
  -5 -25   2  472.85   38.70
   5 -25  -2  470.55   43.60
  -5  25  -2  402.36   52.49
   5  25  -4  287.77   41.10
   5 -25   4  275.27   32.80
  -5 -25  -4  274.57   26.40
  -5 -25   4  264.17   26.70
   5 -25  -4  279.17   32.80
  -5  25  -4  227.38   35.90
   5 -25   6   47.00   18.10
  -5 -25  -6   49.30   12.90
   5  25  -6   56.19   32.30
  -5  25  -6   11.00   27.60
 -25   6  -5    5.70   25.20
   5 -25  -6   44.20   19.90
  -5 -25  -8   30.90   11.90
 -25   8   5   31.20   22.50
   5 -25   8   15.50   17.80
   5  25  -8    6.20   31.70
 -25   8  -5   31.50   29.20
   5 -25  -8   16.70   16.50
  -5  25  -8   48.30   28.50
 -25  10   5  555.74   51.59
   5  25 -10  488.05   61.69
   5 -25  10  479.05   44.90
  -5 -25 -10  525.85   40.30
   5 -25 -10  477.45   45.20
  -5  25 -10  560.14   61.99
   5  25 -12   21.20   27.90
 -25  12   5   31.60   19.60
  -5 -25 -12   21.00   11.30
  -5  25 -12    4.70   30.50
 -25  12  -5   20.20   24.70
   5 -25 -12   22.70   16.40
   5  25 -14  583.34   63.89
   5 -25 -14  563.84   48.70
  -5  25 -14  591.74   65.49
 -25  14  -5  570.34   60.79
  -6 -25  -1  336.27   27.30
  -6  25   1  319.17   40.80
   6 -25   1  329.87   35.00
  -6  25  -1  249.08   43.60
  -6 -25   1  293.97   27.40
   6 -25  -1  272.67   34.40
  -6  25   3   18.70   18.70
  -6 -25  -3   12.00   10.40
   6  25  -3    9.20   27.90
   6 -25   3   10.80   18.90
   6 -25  -3   11.50   17.60
  -6 -25   3   22.00   11.70
  -6  25  -3   36.30   27.00
   6 -25   5   60.49   20.10
  -6 -25  -5   43.70   11.80
   6  25  -5   26.70   26.40
   6 -25  -5   23.70   16.10
  -6  25  -5   25.90   29.10
   6  25  -7  259.87   39.90
 -25   7   6  237.88   38.70
   6 -25   7  219.98   31.80
  -6 -25  -7  217.38   23.50
  -6  25  -7  333.97   48.60
 -25   7  -6  329.27   49.50
   6  25  -9   -8.40   29.00
 -25   9   6    7.00   20.00
   6 -25   9   20.80   18.10
   6 -25  -9   13.70   16.80
  -6  25  -9   21.60   29.00
 -25   9  -6   13.10   30.30
 -25  11   6  204.48   31.70
   6  25 -11  118.89   30.30
   6 -25 -11  150.28   23.20
 -25  11  -6   95.89   28.50
  -6  25 -11  147.29   35.90
   6  25 -13   11.60   27.10
 -25  13  -6    3.90   24.20
   6 -25 -13    5.50   16.70
  25 -13  -6    2.80    2.60
  -6  25 -13   22.30   32.40
   6  25 -15   12.30   25.20
 -25  15  -6    6.60   25.20
   6 -25 -15    6.90   17.70
  -6  25 -15   31.90   27.40
  -7  25   0    3.50   23.40
   7 -25   0    2.40   17.70
   7 -25   2   30.20   17.00
  -7  25   2   34.80   20.30
  -7  25  -2   28.10   26.10
   7 -25  -2   24.20   17.90
   7  25  -4   19.40   29.00
   7 -25   4   27.10   18.10
   7 -25  -4   43.40   19.00
  -7  25  -4   21.90   24.00
   7  25  -6  278.67   42.00
   7 -25   6  213.98   33.10
  -7  25  -6  320.17   48.60
 -25   6  -7  321.97   50.89
   7 -25  -6  313.17   34.90
   7  25  -8  141.19   34.70
 -25   8   7  107.99   23.00
   7 -25   8   85.89   19.80
   7 -25  -8   48.20   20.20
 -25   8  -7   67.69   30.50
  -7  25  -8   64.19   32.30
   7 -25  10  102.39   21.30
   7  25 -10  108.79   32.20
  -7  25 -10  119.69   30.10
 -25  10  -7  210.78   38.40
   7  25 -12   21.20   24.60
   7 -25 -12    3.10   18.20
 -25  12  -7   -2.40   25.60
  25 -12  -7   -1.80    3.10
  -7  25 -12    3.70   31.60
   7  25 -14  425.06   54.69
 -25  14  -7  441.46   53.79
   7 -25 -14  406.46   41.40
  -7  25 -14  444.16   58.99
   8 -25   1    4.30   18.50
  -8  25   1   26.10   21.70
   8 -25  -1   39.80   19.70
  -8  25  -1   34.60   23.30
   8 -25   3  102.89   21.70
  -8  25  -3  105.99   27.40
   8 -25  -3  135.79   22.40
   8 -25   5   16.50   17.80
  -8  25  -5   43.30   26.40
   8 -25  -5   35.70   20.40
 -25   5  -8   22.90   29.20
 -25   7   8  142.49   24.00
   8 -25   7  123.59   22.40
   8  25  -7  178.28   35.70
  -8  25  -7   79.89   32.50
 -25   7  -8   90.09   34.80
   8  25  -9   63.29   28.90
   8 -25   9   58.09   18.30
   8 -25  -9   22.80   18.60
  -8  25  -9   40.80   29.40
 -25   9  -8   49.50   32.60
   8  25 -11   13.60   22.90
   8 -25  11   10.50   18.90
  -8  25 -11   50.19   29.40
 -25  11  -8   19.20   30.40
   8 -25 -11   31.30   19.90
 -25  13  -8  133.39   31.40
   8 -25 -13   97.39   19.90
  -8  25 -13  146.09   34.80
   9 -25   0   13.90   17.50
  -9  25   0   18.90   22.20
   9 -25   2   77.69   19.50
  -9  25   2  102.99   24.10
  -9  25  -2  127.09   29.70
   9 -25  -2   80.99   19.00
   9 -25   4  172.58   31.40
  -9  25  -4  261.17   44.20
   9 -25  -4  243.68   33.50
 -25   4  -9  291.27   49.30
 -25   6   9   -6.00    7.40
   9 -25   6    7.60   17.00
 -25   6  -9   18.00   25.60
   9 -25  -6   27.00   19.30
  -9  25  -6    0.90   23.90
   9 -25   8   45.90   17.80
  -9  25  -8   51.49   29.20
   9 -25  -8   34.70   21.10
 -25   8  -9   42.80   29.50
  -8   9 -25   38.50   22.40
   9 -25  10  135.39   23.30
   9 -25 -10   86.49   20.80
 -10   9 -25  143.39   27.80
  -9  25 -10  164.38   35.40
 -25  10  -9  184.78   35.80
 -12   9 -25    0.10   24.60
 -25  12  -9   -2.00   24.10
  -9  25 -12   14.50   23.90
  25 -12  -9   -1.60    4.90
   9 -25 -12   16.60   17.30
 -10  25   1  660.63   63.29
  10 -25   1  630.24   58.59
 -10  25  -1  843.22   66.59
  10 -25  -1  782.72   58.99
  10 -25   3   58.09   17.20
 -10  25  -3   38.10   25.30
  10 -25  -3   30.10   18.50
 -25   3 -10   30.10   28.80
  10 -25   5  444.96   45.10
 -25   5 -10  530.85   58.79
  -5  10 -25  497.75   55.39
  10 -25  -5  484.35   45.70
 -10  25  -5  540.55   55.99
 -10  25  -7  132.29   29.40
  -7  10 -25  214.38   32.60
 -25   7 -10  214.98   39.40
  10 -25  -7  181.18   32.10
  10 -25   9   76.19   19.10
 -10  25  -9  165.88   34.70
  -9  10 -25  121.79   23.20
 -25   9 -10  109.59   30.10
  10 -25  -9  149.19   24.60
  10 -25  11  465.65   46.60
 -11  10 -25  512.55   49.30
  10 -25 -11  538.25   48.30
 -25  11 -10  599.64   60.29
 -10  25 -11  547.75   61.19
 -11  25   0   41.70   22.70
  11 -25   0   56.39   19.20
 -11  25   2  480.65   46.80
  11 -25   2  376.56   43.60
 -11  25  -2  519.85   52.09
  11 -25  -2  487.75   44.60
 -25   2 -11  472.55   56.39
  11 -25   4   55.79   18.40
  -4  11 -25   65.69   20.20
  11 -25  -4   56.49   19.60
 -11  25  -4   53.09   25.60
 -25   4 -11   61.29   31.10
  11 -25   6  113.39   22.30
 -25   6 -11  131.39   35.00
 -11  25  -6  139.99   31.60
  11 -25  -6  133.69   25.00
  -6  11 -25  153.18   25.80
  11 -25   8   -7.10   16.20
  -8  11 -25   31.00   19.90
 -11  25  -8   40.40   28.50
  11 -25  -8   23.10   21.10
 -25   8 -11   16.90   23.80
  11 -25  10  475.05   46.70
 -11  25 -10  599.54   61.19
  11 -25 -10  530.25   48.40
 -10  11 -25  500.65   49.60
 -25  10 -11  596.24   62.49
 -12  11 -25  104.79   22.20
  11 -25 -12  132.49   23.90
 -25  12 -11  157.78   34.50
 -11  25 -12  132.59   30.50
  12 -25   1   63.99   19.40
 -12  25   1  108.49   24.30
  12 -25  -1  107.29   21.10
  -1  12 -25  118.49   29.80
 -12  25  -1   97.69   25.80
 -25   1 -12  109.69   32.50
 -12  25  -3  134.89   29.40
  -3  12 -25   97.49   22.60
  12 -25  -3   55.39   19.80
 -25   3 -12  121.79   33.20
  12 -25   5    7.50   17.50
  12 -25  -5   29.80   17.80
 -25   5 -12   24.40   28.80
 -12  25  -5   33.10   25.90
  -5  12 -25   31.80   19.40
  12 -25   7    6.70   16.50
  -7  12 -25  -10.20   18.70
 -12  25  -7   -9.40   26.60
 -25   7 -12    0.90   26.70
  12 -25  -7    5.90   19.20
  12 -25   9   16.00   17.70
 -12  25  -9    4.10   27.90
  -9  12 -25   -9.40   17.80
 -25   9 -12   -3.40   29.30
  12 -25  -9    3.20   17.50
 -11  12 -25   94.29   21.60
  12 -25 -11   86.59   19.80
 -25  11 -12   82.49   27.10
 -12  25 -11  111.49   27.00
 -13  25   0   28.10   21.40
   0  13 -25    5.60   28.40
 -25   0 -13   21.10   26.50
  13 -25   0   28.40   19.60
  13 -25   2  643.24   52.79
  13 -25  -2  570.94   52.69
 -13  25  -2  602.14   58.29
  -2  13 -25  651.63   55.99
  13 -25   4  457.65   43.60
 -25   4 -13  461.75   57.09
  13 -25  -4  414.36   44.90
  -4  13 -25  481.05   47.40
 -13  25  -4  515.45   53.59
  13 -25   6    6.70   19.10
  13 -25  -6    5.50   18.80
 -13  25  -6   12.80   26.50
 -25   6 -13   18.70   25.70
  -6  13 -25   26.30   20.00
  13 -25   8   66.09   21.00
 -13  25  -8  134.29   32.40
  -8  13 -25   86.89   22.90
 -25   8 -13  124.99   30.80
  13 -25  -8  117.99   22.40
  14 -25   1  621.14   55.19
   1  14 -25  755.72   69.89
 -14  25   1  674.93   59.79
 -25  -1 -14  686.93   65.29
 -14  25  -1  637.44   60.49
  -1  14 -25  661.83   57.89
 -25   1 -14  669.33   64.69
  14 -25   3   79.99   19.70
  -3  14 -25  109.29   24.00
  14 -25  -3   93.09   22.10
 -25   3 -14   90.69   30.00
 -14  25  -3  107.49   27.70
  14 -25   5  596.24   49.00
 -14  25  -5  610.14   59.49
  14 -25  -5  526.75   49.70
  -5  14 -25  521.95   51.69
  14 -25   7  376.86   40.20
  14 -25  -7  452.75   42.90
 -14  25  -7  435.26   53.19
 -25   7 -14  449.66   54.59
  -7  14 -25  413.96   44.20
   0  15 -25  361.36   39.80
  15 -25   0  335.87   37.60
 -15  25   0  353.56   41.50
 -25   0 -15  327.47   46.60
  15 -25   2  269.07   32.40
 -25  -2 -15  272.37   41.90
 -15  25  -2  219.68   39.40
 -25   2 -15  212.38   34.70
  -2  15 -25  182.08   33.20
  15 -25  -2  181.38   31.70
  15 -25   4  126.89   22.70
 -25  -4 -15   74.89   24.70
  -4  15 -25   93.29   23.00
  15 -25  -4   75.19   18.70
 -15  25  -4  103.79   27.30
 -25   4 -15  144.09   31.50
  -6 -15 -25   12.90   12.40
  15 -25   6   17.00   17.10
  -6  15 -25   17.70   18.10
  15 -25  -6   19.70   20.00
   6 -15 -25   14.60   21.10
 -25   6 -15    3.70   24.60
 -15  25  -6    5.80   24.30
  16 -25   1   85.89   18.80
  -1 -16 -25  141.49   24.10
   1  16 -25  136.89   23.50
 -25  -1 -16  124.69   27.10
 -25   1 -16  116.09   27.20
  16 -25  -1  130.69   22.70
  -1  16 -25   90.19   22.40
   1 -16 -25   82.09   18.90
 -16  25  -1  130.39   25.30
 -25  -3 -16  106.99   26.60
  -3 -16 -25  100.49   18.50
  -3  16 -25  167.68   26.10
   3 -16 -25  151.48   22.60
  16 -25  -3  202.08   29.80
 -25   3 -16  196.88   32.10
 -16  25  -3  210.58   30.40
   0 -26   0  224.28   29.00
   0  26   0  251.17   36.20
   0  26  -2   27.60   25.50
   0  26   2   41.90   23.80
   0 -26   2   46.80   15.70
   0 -26  -2   48.60   16.30
   0  26  -4  567.54   60.89
   0 -26  -4  600.24   47.40
   0 -26   4  582.04   47.70
   0 -26   6   10.60   15.10
   0 -26  -6   10.80   14.10
   0  26  -6   12.20   28.30
   0 -26  -8  115.39   17.50
   0  26  -8  136.59   35.40
 -26   8   0  148.79   32.70
   0 -26   8   80.59   17.60
   0  26 -10    3.30   29.80
 -26  10   0  -11.60   23.30
   0 -26 -10   -1.80   13.70
   0 -26 -12  211.08   26.90
   0  26 -12  291.87   41.40
 -26  12   0  174.78   30.80
   0 -26 -14  -11.20   13.10
 -26  14   0  -12.60   20.50
   0  26 -14  -10.10   27.80
  -1 -26  -1  319.97   34.10
  -1  26   1  317.27   45.80
   1  26  -1  314.37   47.40
   1 -26   1  327.67   35.20
   1 -26  -1  391.56   35.80
  -1 -26   1  431.26   34.00
   1  26   1  394.26   46.30
  -1  26  -1  403.56   48.50
   1  26  -3  144.59   32.10
  -1  26   3  129.89   25.50
   1 -26   3  151.58   20.80
  -1 -26  -3  136.59   19.40
   1 -26  -3  139.09   20.10
   1  26   3  111.59   25.30
  -1  26  -3  105.69   31.10
  -1 -26   3  103.89   18.50
   1 -26   5  265.57   32.20
   1  26  -5  227.68   38.00
  -1 -26  -5  245.78   30.10
  -1 -26   5  371.66   31.60
  -1  26  -5  355.96   48.50
   1 -26  -5  380.36   33.20
  -1 -26  -7   -6.00   14.00
 -26   7   1    0.20   23.30
   1 -26   7    2.80   14.00
   1  26  -7   -7.30   26.20
  -1 -26   7   28.60   15.40
   1 -26  -7   19.80   14.30
 -26   7  -1   -0.30   26.20
  -1  26  -7   21.20   24.30
 -26   9   1  297.17   44.90
   1  26  -9  318.47   50.29
  -1 -26  -9  292.07   29.40
  -1  26  -9  292.57   50.09
 -26   9  -1  199.88   34.90
   1 -26  -9  267.77   30.30
 -26  11   1  145.19   29.30
  -1 -26 -11  117.19   18.20
   1  26 -11  102.29   31.50
 -26  11  -1  174.78   33.70
   1 -26 -11  131.69   18.90
  -1  26 -11  122.49   32.30
  -1 -26 -13  827.42   62.09
 -26  13   1  806.12   71.29
   1  26 -13  869.21   77.59
   1 -26 -13  810.72   62.69
 -26  13  -1  875.21   73.49
  -1  26 -13  860.91   78.79
  -2 -26   0   40.90   14.00
  -2  26   0   53.39   24.50
   2  26   0   19.90   23.90
   2 -26   0   46.60   17.70
  -2 -26  -2  387.36   35.20
  -2  26   2  401.06   45.90
   2 -26   2  379.36   37.10
   2  26  -2  378.46   49.99
   2 -26  -2  405.26   37.00
  -2  26  -2  384.96   49.30
  -2 -26   2  392.06   34.70
   2  26   2  378.26   46.40
   2  26  -4  347.97   48.00
   2 -26  -4  214.38   29.20
  -2  26  -4  253.37   38.10
  -2 -26   4  208.08   26.70
   2 -26   6   85.99   19.90
  -2 -26  -6   72.89   16.50
   2  26  -6  107.49   34.00
  -2  26  -6  126.09   31.70
   2 -26  -6  129.49   19.10
  -2 -26   6  144.99   21.60
 -26   8   2   13.30   25.80
  -2 -26  -8   19.70   14.10
   2 -26   8   11.40   14.60
   2  26  -8   24.70   30.90
  -2  26  -8   61.69   26.30
 -26   8  -2   77.29   28.40
   2  26 -10  343.57   53.69
 -26  10   2  300.67   46.00
  -2 -26 -10  331.77   32.70
  -2  26 -10  502.65   54.99
 -26  12   2   55.79   23.60
  -2 -26 -12   57.89   14.80
   2  26 -12   97.39   33.60
   2 -26 -12   75.49   17.30
  -2  26 -12   49.20   30.30
 -26  12  -2   53.59   25.40
 -26  14   2  754.22   64.99
   2  26 -14  785.92   74.29
  -2 -26 -14  770.62   56.99
 -26  14  -2  779.42   69.29
   2 -26 -14  752.72   58.29
  -3 -26  -1  118.49   21.10
   3 -26   1  127.39   20.80
  -3  26   1  153.68   27.70
   3  26  -1  128.89   30.30
  -3 -26   1  119.69   17.70
   3 -26  -1  108.79   20.00
   3  26   1   99.79   27.20
  -3  26  -1  127.89   29.70
  -3  26   3  305.67   40.10
   3  26  -3  300.37   49.20
  -3 -26  -3  313.27   31.10
   3 -26   3  330.47   34.30
  -3  26  -3  332.77   47.70
  -3 -26   3  337.87   31.00
   3 -26  -3  324.97   34.10
  -3 -26  -5  114.29   16.60
   3  26  -5  132.39   34.50
  -3 -26   5   70.39   15.60
   3 -26  -5   94.29   18.90
  -3  26  -5   64.59   28.10
   3  26  -7  121.89   30.50
   3 -26   7   63.89   17.00
 -26   7   3  112.89   28.70
  -3  26  -7   59.49   30.50
 -26   7  -3   81.59   29.90
   3 -26  -7   54.09   16.30
   3 -26   9  154.08   22.60
  -3 -26  -9  151.28   22.40
   3  26  -9  230.28   39.50
 -26   9   3  171.58   30.10
 -26   9  -3  121.29   29.40
   3 -26  -9  132.19   20.80
  -3  26  -9  145.59   35.80
   3  26 -11  224.88   38.90
 -26  11   3  216.08   32.80
  -3 -26 -11  215.58   25.30
 -26  11  -3  298.87   47.40
   3 -26 -11  284.27   30.20
  -3  26 -11  209.88   36.10
 -26  13   3   89.49   22.80
   3  26 -13   89.89   30.10
   3 -26 -13   41.20   16.60
 -26  13  -3   48.90   27.50
  -3  26 -13   50.69   31.80
   4  26   0  595.14   58.89
  -4 -26   0  574.74   45.60
  -4  26   0  571.14   57.79
   4 -26   0  626.84   49.90
   4  26  -2  326.77   46.80
  -4 -26  -2  315.37   27.60
   4 -26   2  339.37   33.30
  -4  26   2  326.57   40.40
  -4 -26   2  215.58   27.20
   4 -26  -2  206.18   32.10
  -4 -26  -4   74.79   14.40
   4  26  -4   63.69   27.80
   4 -26   4   55.59   16.80
  -4  26  -4   41.80   26.30
   4 -26  -4   36.00   17.60
  -4 -26   4   47.10   13.50
   4 -26   6  166.18   28.40
   4  26  -6  140.09   32.90
  -4 -26  -6  137.39   21.50
 -26   6  -4  219.88   37.20
   4 -26  -6  173.68   28.10
  -4  26  -6  202.98   35.30
   4 -26   8   84.19   20.10
 -26   8   4   81.89   24.60
   4  26  -8   71.89   31.40
  -4 -26  -8   91.79   15.00
   4 -26  -8  125.99   20.10
 -26   8  -4   92.99   26.90
  -4  26  -8   90.19   27.90
  -4 -26 -10  121.09   20.60
 -26  10   4  126.69   27.60
   4  26 -10  149.19   35.80
   4 -26 -10  203.08   27.90
  -4  26 -10  193.08   35.70
 -26  10  -4  160.88   34.10
 -26  12   4  330.57   40.50
   4  26 -12  352.36   53.69
  -4 -26 -12  346.47   28.90
   4 -26 -12  288.27   34.10
 -26  12  -4  279.47   49.20
  -4  26 -12  310.67   52.59
 -26  14   4  245.78   43.50
   4  26 -14  287.47   50.59
   4 -26 -14  288.87   31.50
 -26  14  -4  306.17   45.00
  -4  26 -14  289.97   51.19
  -5  26   1  278.07   40.70
   5  26  -1  293.87   45.20
   5 -26   1  237.28   33.60
  -5 -26  -1  252.77   26.90
  -5  26  -1  344.47   43.60
  -5 -26   1  338.97   27.70
   5 -26  -1  353.06   34.10
   5  26  -3  115.89   30.90
  -5 -26  -3  115.39   17.80
   5 -26   3  129.79   20.50
   5 -26  -3   60.89   17.50
  -5 -26   3   82.29   14.30
  -5  26  -3   55.19   24.40
  -5 -26  -5  406.26   33.70
   5  26  -5  413.36   53.49
   5 -26   5  356.66   39.10
  -5  26  -5  393.56   52.29
   5 -26  -5  452.25   39.80
   5 -26   7   40.50   17.40
 -26   7   5   57.59   23.40
   5  26  -7   60.59   32.20
  -5 -26  -7   59.59   12.70
 -26   7  -5   31.00   31.60
  -5  26  -7   37.10   28.20
   5 -26  -7   12.00   16.10
  -5 -26  -9  172.38   19.50
   5  26  -9  156.88   32.70
 -26   9   5  174.18   28.00
   5 -26   9  151.48   22.20
   5 -26  -9  112.19   21.00
  -5  26  -9  164.58   35.20
 -26   9  -5  136.09   31.50
   5  26 -11   69.49   31.10
 -26  11   5   75.29   22.40
   5 -26 -11   65.89   18.50
  -5  26 -11   73.09   33.80
 -26  11  -5   93.69   31.70
   5  26 -13  458.85   58.89
 -26  13  -5  529.25   57.39
  -5  26 -13  504.25   59.19
   5 -26 -13  465.75   43.00
   6 -26   0   15.00   19.00
  -6 -26   0   15.10   10.20
  -6  26   0   17.30   22.00
  -6 -26  -2   81.49   15.00
  -6  26   2   84.79   23.30
   6 -26   2   59.59   18.10
  -6  26  -2   94.59   25.80
   6 -26  -2  132.39   21.50
   6  26  -4  178.88   35.20
   6 -26   4  156.78   23.90
   6 -26  -4  173.18   29.60
  -6  26  -4  210.78   36.00
   6 -26   6  276.07   31.40
   6  26  -6  281.57   47.30
   6 -26  -6  189.88   31.00
  -6  26  -6  151.08   31.80
 -26   6  -6  236.58   40.00
 -26   8   6   21.90   20.10
   6 -26   8   14.40   15.70
   6  26  -8   30.80   32.10
   6 -26  -8   15.50   16.30
  -6  26  -8    8.40   29.50
 -26   8  -6   13.20   30.70
 -26  10   6  167.58   25.40
   6 -26  10  175.38   28.20
 -26  10  -6   49.00   29.50
   6 -26 -10   99.29   22.00
  -6  26 -10  103.79   30.90
   6  26 -12   92.09   28.30
   6 -26 -12  153.58   22.60
 -26  12  -6  150.08   34.60
  -6  26 -12  132.09   33.30
  -7  26   1   -2.70   19.90
   7 -26   1    7.80   19.10
   7 -26  -1   12.50   18.90
  -7  26  -1    9.60   21.50
   7 -26   3   54.99   17.40
   7 -26  -3   45.70   18.70
  -7  26  -3   99.79   29.10
   7 -26   5   46.30   18.40
  -7  26  -5   12.00   27.50
 -26   5  -7   11.50   28.70
   7 -26  -5   28.40   18.80
   7  26  -7  101.49   31.40
   7 -26   7   64.29   18.70
 -26   7   7   91.59   22.60
   7 -26  -7   52.79   18.80
  -7  26  -7   80.89   32.20
 -26   7  -7   70.59   33.40
   7 -26   9   21.90   17.20
   7  26  -9   52.99   30.00
 -26   9  -7   68.19   33.20
  -7  26  -9   31.30   31.70
   7 -26  -9   32.10   19.80
   7  26 -11    4.60   24.00
 -26  11  -7   22.10   27.20
   7 -26 -11   -0.40   17.80
  -7  26 -11   -0.40   30.70
  -8  26   0   69.49   23.60
   8 -26   0  120.69   22.50
  -8  26   2   14.30   19.10
   8 -26   2   18.80   18.30
  -8  26  -2   49.99   23.60
   8 -26  -2   67.89   19.40
   8 -26   4   74.89   20.90
  -8  26  -4  124.59   30.60
   8 -26  -4  129.99   23.30
 -26   4  -8  137.19   35.10
   8 -26   6   21.30   18.30
 -26   6   8   15.00   19.40
 -26   6  -8   11.10   24.30
   8 -26  -6    1.30   17.90
  -8  26  -6    7.80   24.60
   8 -26   8  210.18   32.90
   8 -26  -8  255.37   34.00
 -26   8  -8  301.37   50.19
  -8  26  -8  304.27   48.90
   8 -26  10   60.19   19.70
 -26  10  -8   57.99   31.60
  -8  26 -10   52.69   28.50
   8 -26 -10   35.90   19.40
   8 -26 -12  172.78   30.90
  -8  26 -12  272.37   41.00
 -26  12  -8  151.78   30.80
  -9  26   1  293.07   38.30
   9 -26   1  260.87   33.30
   9 -26  -1  239.48   33.40
  -9  26  -1  258.47   41.40
   9 -26   3  118.69   21.90
   9 -26  -3  144.79   24.10
 -26   3  -9  124.39   33.70
  -9  26  -3  151.78   30.70
   9 -26   5  128.79   22.20
   9 -26  -5  162.78   25.20
 -26   5  -9  174.08   35.30
  -9  26  -5  185.18   33.10
   9 -26   7   25.00   18.20
  -9  26  -7   36.60   26.30
   9 -26  -7   29.50   18.30
 -26   7  -9   36.00   27.80
   9 -26   9  217.78   32.50
 -26   9  -9  276.87   39.50
  -9  26  -9  282.17   49.40
   9 -26  -9  270.17   34.80
   9 -26 -11  358.86   39.10
 -26  11  -9  359.66   52.19
  -9  26 -11  388.56   54.29
 -10  26   0   -4.90   21.10
  10 -26   0    8.30   19.20
  10 -26   2  317.37   39.90
 -10  26   2  313.07   37.80
 -10  26  -2  471.85   47.70
 -26   2 -10  511.45   55.69
  10 -26  -2  435.66   40.40
  10 -26   4   88.09   20.50
 -10  26  -4  157.78   29.40
 -26   4 -10  117.39   29.10
  10 -26  -4  167.88   24.40
 -10  26  -6   96.09   30.20
 -26   6 -10   80.39   27.50
  10 -26  -6   56.59   18.40
  10 -26   8   61.89   19.60
 -10  26  -8   35.30   28.10
  10 -26  -8   33.30   17.60
 -26   8 -10   51.69   31.50
  10 -26  10  383.26   37.10
 -26  10 -10  322.77   51.39
 -10  26 -10  388.86   51.79
  10 -26 -10  315.07   38.50
  11 -26   1   72.49   19.00
 -11  26   1  135.49   25.60
 -26   1 -11  174.58   35.60
  11 -26  -1  127.79   22.40
 -11  26  -1  110.49   26.10
  11 -26   3  181.98   33.10
 -26   3 -11  305.97   41.00
  11 -26  -3  240.48   33.50
 -11  26  -3  300.57   42.90
  11 -26   5   64.99   19.70
 -26   5 -11  104.49   32.70
  11 -26  -5   51.59   20.10
 -11  26  -5   58.79   26.40
  11 -26   7    8.30   18.90
  11 -26  -7   10.50   16.50
 -11  26  -7    0.60   22.30
 -26   7 -11   29.60   30.90
  11 -26   9  291.97   36.40
 -26   9 -11  344.67   52.29
 -11  26  -9  383.66   50.29
  11 -26  -9  369.46   38.50
 -26   0 -12  144.69   28.60
  12 -26   0  121.09   20.90
 -12  26   0  215.08   35.30
  12 -26  -2   77.79   21.60
 -26   2 -12   43.30   26.40
 -12  26  -2   95.69   26.10
  12 -26   4  314.47   35.90
  12 -26  -4  311.27   36.30
 -12  26  -4  283.97   44.70
 -26   4 -12  313.37   49.90
  12 -26   6   69.89   18.70
 -26   6 -12  120.09   30.50
  12 -26  -6   88.89   21.00
 -12  26  -6   83.99   25.30
  12 -26   8  158.78   28.40
 -26   8 -12  145.99   31.00
  12 -26  -8  196.88   31.30
 -12  26  -8  152.48   31.00
 -13  26   1  894.71   68.49
 -26  -1 -13  843.92   74.89
 -13  26  -1  842.42   70.29
  13 -26  -1  757.52   64.99
 -26   1 -13  812.42   75.49
  13 -26   3   55.99   18.00
 -13  26  -3   33.90   23.20
 -26   3 -13   48.10   29.70
  13 -26  -3   26.60   19.90
  13 -26   5  434.16   42.80
  13 -26  -5  442.36   43.90
 -26   5 -13  453.85   55.79
 -13  26  -5  504.25   52.09
 -14  26   0   -0.80   18.90
  14 -26   0    5.90   19.10
 -26   0 -14    6.50   24.90
  14 -26   2  772.72   61.89
 -26  -2 -14  815.22   70.79
  14 -26  -2  765.42   62.49
 -14  26  -2  810.42   68.49
 -26   2 -14  764.52   72.19
  14 -26   4  267.97   34.50
  14 -26  -4  330.07   35.80
 -14  26  -4  293.67   42.20
 -26   4 -14  268.97   47.30
   0 -27   1  429.46   38.60
   0  27  -1  429.26   51.89
   0  27   1  409.56   49.00
   0 -27  -1  457.15   38.60
   0 -27   3  830.62   63.29
   0  27   3  821.32   69.99
   0  27  -3  879.91   76.19
   0 -27  -3  851.61   63.39
   0  27  -5   29.20   28.50
   0 -27   5   51.69   15.90
   0 -27  -5   27.60   14.90
   0  27  -7    0.70   26.50
   0 -27   7   17.90   14.40
 -27   7   0   25.60   26.50
   0 -27  -7    0.00   14.20
   0  27  -9  217.18   36.40
   0 -27  -9  202.28   26.00
 -27   9   0  162.08   31.40
 -27  11   0  640.54   61.09
   0  27 -11  622.14   65.49
   0 -27 -11  617.74   48.70
   1  27   0  418.06   49.99
  -1  27   0  420.06   49.40
   1 -27   0  446.56   38.70
  -1 -27   0  418.16   37.40
   1  27  -2   80.19   27.80
  -1 -27  -2   93.29   17.10
   1 -27   2   73.39   16.30
  -1  27   2   92.79   24.50
   1 -27  -2   38.00   17.60
  -1  27  -2   25.10   23.80
   1  27   2   33.10   22.20
  -1 -27  -4  281.77   29.40
   1 -27   4  233.38   31.00
   1  27  -4  315.57   41.40
  -1 -27   4  260.77   28.70
   1 -27  -4  290.97   30.90
  -1  27  -4  307.77   47.00
   1  27  -6   93.69   31.20
   1 -27   6   68.39   16.40
 -27   6   1   83.79   30.20
  -1 -27  -6   86.19   17.30
  -1  27  -6  113.19   26.80
 -27   6  -1  142.09   30.50
   1 -27   8  119.89   19.20
   1  27  -8  109.89   32.20
 -27   8   1  108.59   28.50
  -1 -27  -8   92.79   16.80
 -27   8  -1   63.09   26.10
  -1  27  -8   55.89   28.00
   1 -27  -8   74.09   17.40
 -27  10   1   31.70   25.70
   1  27 -10   37.40   29.90
  -1 -27 -10   14.60   13.60
 -27  10  -1    5.80   24.90
   1 -27 -10   -1.20   14.50
  -1  27 -10   -1.90   26.40
   1  27 -12  409.36   53.89
 -27  12   1  420.86   45.60
  -1 -27 -12  418.76   32.20
   1 -27 -12  271.57   32.70
 -27  12  -1  270.97   46.60
  -1  27 -12  267.87   50.39
   2  27  -1   68.49   26.30
  -2  27   1   70.89   25.30
  -2 -27  -1   94.79   16.30
   2 -27   1   71.39   17.80
  -2  27  -1   28.60   24.10
   2  27   1   20.80   23.20
   2 -27   3   75.49   17.20
  -2  27   3  111.09   22.40
  -2 -27  -3   87.09   16.60
   2  27  -3   61.99   26.80
  -2 -27   3   77.99   16.00
   2 -27  -3   84.39   17.60
  -2  27  -3   92.49   29.90
   2 -27   5  114.19   19.00
  -2 -27  -5  128.19   21.80
   2  27  -5  162.78   35.30
   2 -27  -5  116.99   18.60
  -2  27  -5   86.79   28.00
  -2 -27   5  100.39   17.20
   2  27  -7   -4.90   25.60
   2 -27   7    0.70   14.40
 -27   7   2   -0.90   24.40
  -2 -27  -7    3.20   12.90
 -27   7  -2   36.50   28.30
  -2  27  -7    2.10   25.90
   2 -27  -7   14.80   15.20
   2  27  -9   16.60   30.90
 -27   9   2   22.00   24.30
  -2 -27  -9    8.70   13.10
  -2  27  -9    1.60   29.80
 -27   9  -2   -7.30   28.50
   2 -27  -9   -5.50   14.20
  -2 -27 -11   72.49   15.00
   2  27 -11   84.39   31.70
 -27  11   2   77.29   25.20
   2 -27 -11  103.09   17.40
 -27  11  -2  145.49   31.10
  -2  27 -11   73.99   26.50
  -3  27   0  856.91   73.19
   3 -27   0  851.11   65.19
  -3 -27   0  854.41   62.69
   3  27   0  838.72   73.69
  -3 -27  -2   85.29   15.30
   3 -27   2   80.19   18.20
   3  27  -2   85.79   27.50
  -3  27   2   70.19   23.20
  -3  27  -2  117.89   29.00
   3 -27  -2   58.69   17.20
  -3 -27   2   72.09   15.00
   3 -27   4  437.46   42.00
  -3 -27  -4  487.45   39.20
   3  27  -4  467.95   55.99
  -3 -27   4  496.45   38.90
  -3  27  -4  439.86   53.69
   3 -27  -4  466.05   41.70
   3  27  -6   13.60   28.90
   3 -27   6    9.50   15.00
 -27   6   3   23.50   24.30
  -3 -27  -6   11.30   13.00
   3 -27  -6    7.80   17.40
 -27   6  -3   24.10   28.70
  -3  27  -6    8.80   25.90
   3 -27   8  162.98   28.20
   3  27  -8  204.48   38.40
  -3 -27  -8  173.98   23.20
 -27   8   3  211.18   32.40
  -3  27  -8  169.98   31.30
   3 -27  -8  236.38   28.80
 -27   8  -3  202.48   34.60
  -3 -27 -10  143.09   20.80
 -27  10   3  142.09   27.80
   3  27 -10  219.28   38.60
 -27  10  -3  114.49   28.90
   3 -27 -10  181.28   22.50
  -3  27 -10  147.39   33.30
   3  27 -12  511.45   58.79
  -3 -27 -12  477.65   37.10
 -27  12   3  504.95   48.20
   3 -27 -12  414.06   40.70
 -27  12  -3  442.06   53.39
  -3  27 -12  407.36   56.69
   4  27  -1  241.08   44.10
   4 -27   1  270.47   32.50
  -4 -27  -1  263.57   26.20
  -4  27   1  309.47   39.90
  -4 -27   1  277.87   26.50
   4 -27  -1  250.37   32.50
  -4  27  -1  229.28   41.80
   4 -27   3  476.65   43.00
   4  27  -3  539.15   54.79
  -4 -27  -3  440.36   38.10
   4 -27  -3  493.35   42.60
  -4 -27   3  460.05   38.40
  -4  27  -3  481.05   53.19
   4  27  -5  169.58   33.00
  -4 -27  -5  120.29   19.70
   4 -27   5  124.09   20.80
  -4  27  -5   87.99   28.20
 -27   5  -4  124.19   33.70
   4 -27  -5   81.99   19.00
   4 -27   7   39.40   18.10
  -4 -27  -7   37.00   12.60
 -27   7   4   39.30   23.00
   4  27  -7   28.50   28.20
   4 -27  -7   53.89   18.40
 -27   7  -4   56.69   30.40
  -4  27  -7   41.60   25.80
   4  27  -9  312.37   42.40
 -27   9   4  239.38   39.30
  -4 -27  -9  235.48   23.70
   4 -27   9  246.88   30.10
 -27   9  -4  164.98   34.10
  -4  27  -9  205.78   37.40
   4 -27  -9  203.78   29.50
 -27  11   4  369.36   41.00
   4  27 -11  378.66   52.79
   4 -27 -11  290.17   33.90
  -4  27 -11  318.77   52.29
 -27  11  -4  288.27   48.90
   5 -27   0   30.10   17.80
  -5 -27   0   40.80   12.00
  -5  27   0   48.40   22.00
  -5  27   2  145.99   26.50
  -5 -27  -2  126.19   18.50
   5 -27   2  129.19   22.70
   5 -27  -2  126.19   22.10
  -5 -27   2  114.09   18.90
  -5  27  -2  124.69   28.10
  -5 -27  -4  124.89   17.30
   5 -27   4   83.19   18.10
   5  27  -4  119.49   28.30
   5 -27  -4   72.79   17.90
  -5  27  -4   77.49   26.50
   5 -27   6  279.17   35.40
 -27   6   5  351.56   44.30
   5  27  -6  329.87   50.19
   5 -27  -6  355.76   35.90
  -5  27  -6  340.37   49.70
 -27   6  -5  361.76   51.49
   5 -27   8   44.30   16.00
   5  27  -8   26.80   26.40
 -27   8   5   72.29   23.50
   5 -27  -8   35.60   16.70
  -5  27  -8   14.10   29.30
 -27   8  -5    7.60   27.90
   5  27 -10  159.08   34.60
 -27  10   5  135.79   26.00
   5 -27 -10  155.28   22.00
  -5  27 -10  173.18   34.10
 -27  10  -5  187.68   35.30
  -6  27  -1  191.58   30.80
   6 -27  -1  125.39   20.70
  -6  27   3   -1.60    6.40
   6 -27   3   -0.50   16.80
   6 -27  -3    7.10   18.10
  -6  27  -3   14.70   22.60
   6 -27   5  295.67   34.40
   6  27  -5  320.97   48.60
 -27   5  -6  340.07   52.99
   6 -27  -5  341.67   36.00
  -6  27  -5  312.77   46.50
   6 -27   7   63.19   18.00
   6  27  -7  133.79   32.70
 -27   7   6   76.79   22.00
  -6  27  -7   51.79   29.20
 -27   7  -6   10.40   24.70
 -27   9   6   83.79   22.20
   6  27  -9   47.30   25.10
   6 -27   9   57.29   16.70
 -27   9  -6   31.50   25.80
  -6  27  -9   83.09   31.30
   6 -27  -9   51.19   18.40
   6  27 -11  279.97   47.80
  -6  27 -11  286.87   49.40
   6 -27 -11  283.07   33.50
 -27  11  -6  318.57   49.00
   7 -27   0   14.90   18.30
  -7  27   0   12.00   20.80
   7 -27   2    7.10   18.00
  -7  27  -2   22.80   24.10
   7 -27  -2   24.10   15.80
   7 -27   4   27.30   17.90
  -7  27  -4   48.60   25.90
   7 -27  -4   40.00   18.20
 -27   4  -7   70.29   29.80
 -27   6   7   76.49   21.60
   7 -27   6   57.79   17.30
 -27   6  -7   27.60   27.60
  -7  27  -6   32.20   25.30
   7 -27  -6   18.90   17.90
 -27   8   7   26.40   18.30
   7 -27   8   23.70   15.00
 -27   8  -7   21.60   25.80
   7 -27  -8    0.00   17.10
  -7  27  -8   11.40   28.90
  -7  27 -10   76.89   28.30
 -27  10  -7   67.89   26.00
   7 -27 -10   56.49   17.40
   8 -27   1   92.19   20.80
  -8  27   1   78.69   22.80
  -8  27  -1   86.89   25.30
   8 -27  -1   59.29   18.70
 -27   3  -8  211.28   37.00
   8 -27  -3  211.78   31.60
  -8  27  -3  181.48   30.80
 -27   5   8   57.79   20.80
   8 -27   5   70.19   19.90
   8 -27  -5   22.50   19.30
 -27   5  -8   37.30   29.80
  -8  27  -5   28.10   25.10
   8 -27   7   26.00   18.20
 -27   7  -8   28.80   28.20
   8 -27  -7    7.70   19.60
  -8  27  -7   -2.30   24.50
   8 -27   9   31.80   18.60
 -27   9  -8   78.39   27.10
  -8  27  -9   57.69   27.70
   8 -27  -9   59.29   17.50
   9 -27   0  183.38   30.30
  -9  27   0  205.48   36.00
   9 -27   2    0.60   16.30
 -27   2  -9   -9.90   26.30
  -9  27  -2   15.70   22.50
   9 -27  -2   -3.20   19.30
   9 -27   4  218.18   31.10
  -9  27  -4  200.68   32.50
   9 -27  -4  176.98   31.40
 -27   4  -9  209.58   35.80
   9 -27   6   67.99   18.20
   9 -27  -6   35.90   17.10
 -27   6  -9   35.20   27.40
  -9  27  -6   54.29   28.20
 -27   8  -9   74.99   30.40
  -9  27  -8   61.59   27.80
   9 -27  -8   75.29   18.80
  10 -27   1    3.20   18.50
 -10  27   1   23.80   19.20
  10 -27  -1   -1.00   17.80
 -10  27  -1    2.70   20.90
  10 -27   3  135.49   23.60
 -27   3 -10  154.08   34.80
 -10  27  -3  140.79   28.10
  10 -27  -3  163.48   24.50
  10 -27   5  117.79   20.80
 -27   5 -10  133.09   28.10
  10 -27  -5  128.89   21.40
 -10  27  -5  137.39   29.90
 -27   7 -10   63.19   27.70
 -10  27  -7   76.59   28.00
  10 -27  -7   97.19   21.40
 -11  27   0  591.94   55.39
  11 -27   0  590.24   51.19
 -27   0 -11  644.64   63.29
  11 -27  -2   83.99   20.10
 -27   2 -11  140.89   32.10
 -11  27  -2  120.09   26.40
  11 -27   4  329.17   35.20
 -11  27  -4  287.07   43.40
 -27   4 -11  286.37   49.99
  11 -27   6  281.57   34.70
  11 -27  -6  301.87   36.20
 -11  27  -6  330.27   46.60
 -27   6 -11  297.07   49.80
  12 -27   1  350.06   36.00
 -27  -1 -12  396.76   48.90
  12 -27  -1  276.37   36.10
 -12  27  -1  285.67   41.90
 -27   1 -12  319.67   43.30
  12 -27   3  483.15   42.10
  12 -27  -3  427.86   42.50
 -27   3 -12  459.55   55.39
 -12  27  -3  421.46   48.80
   0 -28   0  204.18   26.50
   0  28   0  235.38   39.80
   0 -28  -2   59.79   16.80
   0 -28   2   64.59   15.90
   0  28  -2   75.39   28.60
   0 -28  -4  242.88   28.70
   0 -28   4  248.18   27.80
   0  28  -4  284.87   39.20
   0 -28  -6  174.98   25.20
   0  28  -6  189.38   34.80
 -28   6   0  190.88   34.00
   0 -28   6  168.68   24.70
 -28   8   0   76.79   26.30
   0  28  -8   73.19   31.20
   0 -28  -8   85.89   16.20
 -28  10   0   88.59   27.30
   0 -28 -10   99.89   16.70
   0  28 -10  112.49   32.70
   1  28  -1  247.18   42.50
  -1 -28  -1  261.27   30.70
   1 -28   1  267.87   31.80
  -1  28   1  262.87   41.00
   1 -28  -1  396.06   32.60
   1  28   1  380.36   43.30
  -1  28  -1  381.66   45.70
  -1 -28  -3  326.87   31.30
   1 -28   3  344.87   32.60
   1  28  -3  311.67   46.20
   1 -28  -3  284.27   31.70
  -1 -28   3  272.17   29.70
  -1  28  -3  284.87   47.40
   1  28  -5   15.60   26.10
   1 -28   5   -3.40   14.10
  -1 -28  -5    6.30   13.50
  -1  28  -5    3.80   27.40
   1 -28  -5   13.00   14.90
  -1 -28   5   20.40   14.20
   1 -28   7   22.50   14.70
  -1 -28  -7   17.70   13.70
 -28   7   1    9.70   22.60
   1  28  -7   27.60   29.90
 -28   7  -1   11.30   26.60
   1 -28  -7   27.50   14.50
  -1  28  -7   20.40   24.60
   1  28  -9  120.19   31.50
  -1 -28  -9  127.39   22.00
 -28   9   1  149.39   30.60
 -28   9  -1  240.28   41.40
  -2 -28   0   67.59   14.80
   2 -28   0   60.99   17.10
  -2  28   0   50.49   23.90
   2  28   0   54.49   24.10
  -2  28   2  615.34   59.49
   2 -28   2  637.64   53.19
  -2 -28  -2  642.44   51.09
   2  28  -2  649.93   64.19
  -2 -28   2  705.43   51.59
   2 -28  -2  735.63   53.69
  -2  28  -2  688.53   64.29
  -2 -28  -4   85.09   16.10
   2  28  -4   72.99   26.90
   2 -28   4  111.59   19.60
  -2  28  -4   54.49   25.30
   2 -28  -4   99.29   18.80
  -2 -28   4   74.39   15.50
   2 -28   6   16.00   16.10
   2  28  -6   11.50   26.10
 -28   6   2   23.00   24.00
  -2 -28  -6   30.30   13.70
  -2  28  -6   13.30   24.10
   2 -28  -6    1.60   14.30
 -28   6  -2   17.10   27.90
 -28   8   2   46.70   24.70
  -2 -28  -8   38.10   13.20
   2  28  -8   21.10   27.60
   2 -28  -8   49.20   15.70
  -2  28  -8   15.40   26.50
 -28   8  -2   38.50   26.10
   2  28 -10  283.77   47.70
   2 -28 -10  151.88   24.90
 -28  10  -2  164.38   31.70
  -2  28 -10  163.38   33.60
  -3  28   1  322.17   41.10
   3  28  -1  331.47   44.70
  -3 -28  -1  324.67   28.90
   3 -28   1  322.47   33.30
  -3  28  -1  311.37   44.50
  -3 -28   1  290.17   28.90
   3 -28  -1  278.27   33.40
  -3 -28  -3  284.37   27.70
   3 -28   3  265.17   31.90
   3  28  -3  286.17   44.90
  -3 -28   3  282.07   27.80
  -3  28  -3  318.97   45.20
   3 -28  -3  301.47   32.60
  -3 -28  -5  185.68   23.60
   3 -28   5  196.58   28.40
   3  28  -5  205.48   34.70
  -3  28  -5  243.68   43.50
 -28   5  -3  253.87   37.60
   3 -28  -5  228.68   28.90
 -28   7   3  251.57   41.00
  -3 -28  -7  258.77   26.40
   3  28  -7  296.27   39.80
   3 -28   7  270.57   30.90
 -28   7  -3  282.57   46.30
  -3  28  -7  255.67   46.80
   3 -28  -7  288.17   30.70
   3  28  -9   34.60   30.20
 -28   9   3   40.80   22.50
  -3 -28  -9   46.60   12.30
   3 -28  -9   41.40   15.50
 -28   9  -3   23.40   27.10
  -3  28  -9   38.60   28.00
  -4  28   0  265.37   41.20
   4 -28   0  261.07   31.90
  -4 -28   0  251.27   25.10
   4 -28   2  117.49   20.70
  -4 -28  -2   85.79   14.20
  -4  28   2   90.39   22.30
   4 -28  -2   80.19   18.50
  -4  28  -2  112.29   27.70
  -4 -28   2   77.09   14.10
  -4 -28  -4  486.95   37.30
   4  28  -4  504.65   55.19
   4 -28   4  444.46   41.90
  -4  28  -4  456.75   52.89
   4 -28  -4  449.66   41.50
   4  28  -6   66.59   27.20
  -4 -28  -6   95.19   14.70
 -28   6   4   88.99   24.90
   4 -28   6   76.59   18.20
   4 -28  -6  117.29   18.20
  -4  28  -6  124.59   30.60
 -28   6  -4  112.79   31.30
   4 -28   8  298.67   33.10
 -28   8   4  307.87   41.70
   4  28  -8  275.87   48.80
 -28   8  -4  318.87   49.60
  -4  28  -8  321.87   48.80
   4 -28  -8  351.26   34.00
  -5  28   1   21.20   21.20
   5 -28   1   -3.00   16.80
  -5  28  -1   17.50   22.20
   5 -28  -1   15.10   16.10
   5 -28   3  198.28   30.50
   5 -28  -3  247.28   31.00
  -5  28  -3  246.68   40.90
   5  28  -5  119.89   27.60
 -28   5   5  150.28   27.50
   5 -28   5  167.88   22.60
  -5  28  -5   89.99   26.50
 -28   5  -5   82.59   29.70
   5 -28  -5  112.69   20.70
   5  28  -7   53.99   28.80
 -28   7   5   48.50   21.50
   5 -28   7   43.00   17.20
   5 -28  -7   33.60   18.20
  -5  28  -7   42.10   27.40
 -28   7  -5   29.80   26.80
  -5  28  -9   26.40   28.80
   5 -28  -9   27.60   16.40
 -28   9  -5   53.99   25.00
   6 -28   0  147.79   22.70
  -6  28   0  173.48   27.50
   6 -28   2   37.60   17.20
  -6  28   2    5.70   12.20
  -6  28  -2    7.50   21.30
   6 -28  -2   11.00   17.40
   6 -28   4   98.49   21.50
   6 -28  -4  131.79   21.40
  -6  28  -4  115.69   27.10
 -28   4  -6  170.18   36.60
   6 -28   6    3.00   16.50
 -28   6   6   13.50   19.80
  -6  28  -6   46.30   26.20
   6 -28  -6   21.50   16.30
 -28   6  -6   20.60   26.40
   6 -28   8   -5.70   15.20
 -28   8   6    9.10   18.20
  -6  28  -8   15.50   28.00
 -28   8  -6   23.50   28.90
   6 -28  -8   11.30   16.70
   7 -28   1    6.30   16.10
  -7  28   1   20.10   20.00
   7 -28  -1   23.30   17.60
  -7  28  -1   35.20   21.70
   7 -28   3  259.27   32.70
  -7  28  -3  298.77   42.40
   7 -28  -3  253.87   32.50
 -28   3  -7  272.37   39.90
   7 -28   5   64.59   19.40
 -28   5   7   70.09   20.90
  -7  28  -5   21.20   23.60
 -28   5  -7   32.40   27.10
   7 -28  -5   29.80   18.10
 -28   7   7   71.99   20.70
   7 -28   7   61.69   17.10
 -28   7  -7   13.80   28.90
  -7  28  -7    8.70   23.10
   7 -28  -7   15.20   17.30
  -8  28   0   65.99   21.90
   8 -28   0   47.60   16.80
   8 -28   2   18.70   16.50
  -8  28  -2   35.00   23.50
 -28   2  -8   39.90   30.70
   8 -28  -2   37.00   18.60
   8 -28   4  268.67   33.50
 -28   4   8  259.27   37.10
   8 -28  -4  299.97   34.00
  -8  28  -4  311.47   43.20
 -28   4  -8  332.47   50.49
   8 -28   6    6.60   17.60
   8 -28  -6    0.10   17.80
 -28   6  -8   33.60   27.10
  -8  28  -6    5.10   23.10
  -9  28   1  156.68   34.00
   9 -28  -1  207.08   30.30
  -9  28  -1  213.08   36.70
   9 -28   3   30.50   16.40
   9 -28  -3   54.09   20.30
 -28   3  -9   39.80   30.00
  -9  28  -3   41.40   22.90
 -28   5  -9   19.50   23.90
   9 -28  -5   30.20   16.10
  -9  28  -5   41.00   23.60
  10 -28   0   77.29   19.50
 -28   0 -10   60.19   27.00
 -10  28   0  120.09   24.10
  10 -28  -2  168.28   29.60
 -10  28  -2  201.78   29.30
 -28   2 -10  126.99   29.40
   0 -29   1  130.29   21.90
   0  29  -1  113.69   27.10
   0 -29  -1  132.99   22.80
   0 -29   3    1.90   12.90
   0 -29  -3   13.80   14.00
   0  29  -3   10.30   23.90
   0 -29  -5   43.90   14.80
 -29   5   0   68.49   29.10
   0 -29   5   41.10   14.80
   0  29  -5   51.09   26.20
 -29   7   0   84.69   25.80
   0 -29  -7  107.19   16.80
   0  29  -7  123.59   31.60
  -1 -29   0  125.99   22.30
  -1  29   0  141.59   26.90
   1 -29   0  140.09   19.50
   1 -29   2  371.76   35.10
  -1 -29  -2  397.56   34.20
   1  29  -2  356.96   48.00
  -1 -29   2  380.06   34.20
   1 -29  -2  398.26   35.50
  -1  29  -2  392.86   48.10
   1  29  -4   11.90   24.30
  -1 -29  -4    7.40   13.30
   1 -29   4   -3.50   13.40
   1 -29  -4   14.80   14.70
  -1  29  -4    9.50   25.40
  -1 -29   4    7.60   12.80
 -29   6   1   -0.70   22.40
   1 -29   6    0.90   14.00
   1  29  -6   17.10   26.20
  -1 -29  -6   13.80   13.20
 -29   6  -1   15.50   26.90
  -1  29  -6   30.60   28.20
   1 -29  -6   -9.40   13.10
  -2  29   1  352.86   43.00
   2 -29   1  346.67   35.00
  -2 -29  -1  366.56   32.60
  -2 -29   1  394.36   32.60
   2 -29  -1  380.36   35.60
  -2  29  -1  371.26   45.10
  -2 -29  -3  220.28   24.10
   2 -29   3  236.88   28.40
   2  29  -3  223.38   33.10
  -2  29  -3  227.68   34.80
  -2 -29   3  201.08   24.20
   2 -29  -3  221.58   27.80
  -2 -29  -5  202.08   23.30
 -29   5   2  213.08   33.40
   2 -29   5  196.38   26.20
   2  29  -5  226.98   35.70
   2 -29  -5  206.78   26.70
 -29   5  -2  246.58   37.70
  -2  29  -5  180.58   32.10
   3 -29   0   -3.60   14.80
  -3  29   0    9.80   21.00
  -3 -29   0    7.80   11.30
  -3 -29  -2  218.08   23.30
   3 -29   2  213.78   28.30
  -3  29   2  306.27   40.10
  -3  29  -2  220.28   33.10
  -3 -29   2  195.68   23.00
   3 -29  -2  210.18   28.60
   3  29  -4  292.87   38.50
  -3 -29  -4  232.58   23.80
   3 -29   4  220.08   28.80
 -29   4  -3  232.08   35.80
  -3  29  -4  238.28   42.40
   3 -29  -4  255.77   29.00
   3  29  -6  414.46   50.29
 -29   6   3  413.46   46.40
   3 -29   6  377.46   36.60
  -3 -29  -6  381.86   32.30
 -29   6  -3  400.16   50.79
  -3  29  -6  421.96   50.19
   3 -29  -6  374.36   36.20
   4 -29   1   -0.80   14.60
  -4  29   1   -6.00   18.50
  -4  29  -1   14.50   22.10
  -4 -29   1   22.60   18.40
   4 -29  -1   11.60   16.90
   4 -29   3  232.28   30.00
  -4  29  -3  246.58   42.10
   4 -29  -3  255.97   30.40
   4  29  -5  100.69   28.40
   4 -29   5  121.39   20.50
 -29   5   4  123.29   26.10
  -4  29  -5  169.78   31.80
 -29   5  -4  174.98   36.30
   4 -29  -5  161.18   21.40
   5 -29   0   42.30   17.90
  -5  29   0   59.09   22.30
   5 -29   2  184.58   27.70
  -5  29  -2  182.58   29.70
   5 -29  -2  196.18   28.60
   5 -29   4  119.99   20.80
  -5  29  -4  155.08   30.50
 -29   4  -5  179.78   35.50
   5 -29  -4  114.79   19.60
   6 -29   1   17.30   16.80
  -6  29   1   -0.30   28.20
   6 -29  -1    1.40   15.90
  -6  29  -1    5.10   19.70
   6 -29   3  392.16   37.20
 -29   3  -6  377.76   52.59
   6 -29  -3  367.26   37.20
  -6  29  -3  392.26   46.80
   7 -29   0   98.09   20.10
  -7  29   0   86.19   23.10
   0   0   0    0.00    0.00

_computing_structure_solution     'SHELXT 2014/5 (Sheldrick, 2014)'
;
_shelx_hkl_checksum              35156
_shelx_fab_file
;
-12 -22 -12 -7.5080 5.3866
-12 -21 -13 -11.6816 -27.2345
-12 -20 -14 18.7338 4.9472
-12 -19 -13 -5.2104 20.1396
-12 -18 -14 -9.8035 4.1353
-12 -17 -15 4.5365 25.0490
-12 -17 -13 7.8412 2.4835
-12 -16 -14 -8.5171 26.4195
-12 -15 -15 8.1275 23.8004
-12 -14 -14 20.0404 0.0046
-12 -13 -13 19.9437 40.8668
-12 -12 -12 19.7970 10.5049
-11 -24 -13 2.6344 -8.4204
-11 -24 -11 -5.8973 -7.3915
-11 -23 -14 -3.8590 -12.7676
-11 -23 -12 7.1119 -10.0854
-11 -22 -15 -10.2977 14.4618
-11 -22 -13 10.8164 8.7400
-11 -22 -11 7.2998 1.9283
-11 -21 -16 8.4654 14.5594
-11 -21 -14 5.2907 8.6495
-11 -21 -12 -5.0090 0.8360
-11 -20 -15 -3.8321 1.8105
-11 -20 -13 2.4830 9.6741
-11 -19 -16 -24.7783 -5.5262
-11 -19 -14 -14.6170 -7.6673
-11 -19 -12 4.2410 5.7296
-11 -18 -17 -2.0610 1.5264
-11 -18 -15 -5.1541 -9.1749
-11 -18 -13 -8.1200 15.1592
-11 -17 -16 -12.5374 -10.2753
-11 -17 -12 -11.2105 13.5626
-11 -16 -15 9.1429 -7.5686
-11 -16 -13 8.2813 3.6092
-11 -16 -11 -3.5044 1.7089
-11 -15 -12 -3.6547 -15.8148
-11 -14 -13 -18.4537 5.5996
-11 -13 -12 10.4471 -20.5723
-10 -26 -10 -5.8957 5.7784
-10 -25 -11 8.0384 -3.0566
-10 -24 -14 10.4962 -2.8517
-10 -24 -12 20.8201 2.3990
-10 -24 -10 0.9223 4.9312
-10 -23 -15 -1.6499 1.5608
-10 -23 -13 6.6323 4.0453
-10 -23 -11 9.0973 19.5232
-10 -22 -16 -1.0430 3.9624
-10 -22 -14 -14.8221 6.2209
-10 -22 -12 1.0230 2.1844
-10 -22 -10 11.8896 9.5984
-10 -21 -17 6.9310 6.8665
-10 -20 -18 -10.0165 1.4703
-10 -20 -16 -12.2632 3.7003
-10 -20 -12 0.9653 -16.3090
-10 -20 -10 -0.3725 9.1438
-10 -19 -15 -8.5992 22.1163
-10 -19 -13 -4.2262 -7.2132
-10 -19 -11 26.1557 13.0501
-10 -18 -16 6.9285 -4.1157
-10 -18 -14 9.1617 5.2435
-10 -18 -12 3.9493 6.8870
-10 -18 -10 10.5452 -21.1746
-10 -17 -17 -7.0039 -14.4426
-10 -17 -15 -5.4598 21.3069
-10 -17 -11 -25.6799 -7.7449
-10 -16 -16 -13.2560 20.6408
-10 -16 -14 -17.0958 13.0025
-10 -16 -12 1.9360 -1.9834
-10 -16 -10 5.3949 -1.1772
-10 -15 -15 -8.8517 9.6258
-10 -15 -13 48.9028 5.0304
-10 -15 -11 24.6793 -3.5973
-10 -14 -14 0.2278 4.2316
-10 -14 -12 -8.8749 -1.4327
-10 -14 -10 -33.3219 -13.2853
-10 -13 -11 -42.4904 21.9616
-10 -12 -12 21.7412 27.2532
-10 -12 -10 2.5977 4.6209
-10 -11 -11 -4.3564 -6.3640
-10 -10 -10 -104.4734 63.8101
-9 -26 -11 13.3070 1.9706
-9 -26 -9 10.5732 13.3686
-9 -25 -12 2.4865 0.5552
-9 -25 -10 -5.9624 5.4349
-9 -24 -15 -7.8577 4.0088
-9 -24 -13 -8.4182 -5.5110
-9 -24 -11 -12.0134 -1.3301
-9 -24 -9 -29.0623 -12.3886
-9 -23 -14 9.9634 -3.8711
-9 -23 -12 0.5435 -21.4769
-9 -23 -10 13.7913 3.5240
-9 -22 -17 1.1974 11.3026
-9 -22 -15 -7.3246 -7.8778
-9 -22 -13 1.3968 23.4892
-9 -22 -11 7.8515 10.3671
-9 -22 -9 -0.7111 -4.6696
-9 -21 -18 -8.0642 4.6959
-9 -21 -16 -9.6186 -3.7194
-9 -21 -14 7.0135 -8.5918
-9 -21 -12 4.4983 -21.7849
-9 -21 -10 9.8207 -15.7134
-9 -20 -19 -9.5406 2.4085
-9 -20 -17 -10.3478 -3.7383
-9 -20 -15 5.0571 -4.9654
-9 -20 -13 7.9849 6.8496
-9 -20 -11 4.7272 5.2433
-9 -20 -9 -8.7466 3.3709
-9 -19 -18 -4.2685 -7.5792
-9 -19 -16 -20.3676 -3.6990
-9 -19 -14 10.0063 11.0846
-9 -19 -12 -16.7459 10.4624
-9 -19 -10 14.2348 -18.1521
-9 -18 -17 8.7288 -15.4291
-9 -18 -15 -3.4017 -21.6223
-9 -18 -13 15.2564 -9.8195
-9 -18 -11 -2.2316 5.5526
-9 -18 -9 -4.9318 16.3873
-9 -17 -16 7.9068 -1.5186
-9 -17 -14 8.0359 12.4218
-9 -17 -12 -15.5944 -2.9488
-9 -17 -10 -20.1237 -8.0368
-9 -16 -15 18.4637 8.2789
-9 -16 -13 -17.1173 -5.8437
-9 -16 -11 30.8394 -18.8755
-9 -16 -9 -2.3649 -6.6541
-9 -15 -14 32.7602 -6.6666
-9 -15 -12 23.8375 24.4752
-9 -15 -10 9.3790 -2.0889
-9 -14 -13 16.7986 -4.1645
-9 -14 -11 -31.6639 -30.2755
-9 -14 -9 -37.9201 -15.4509
-9 -13 -12 14.2081 -23.0837
-9 -13 -10 -33.1237 -1.7369
-9 -12 -11 0.2257 -0.5597
-9 -12 -9 10.6660 -0.7470
-9 -11 -10 8.1311 -15.3635
-9 -10 -9 7.8819 -50.2911
-8 -27 -9 -11.5737 -3.6735
-8 -26 -12 -0.3160 11.2759
-8 -26 -10 -4.3994 3.6579
-8 -26 -8 6.8349 -4.3848
-8 -25 -13 10.1204 -8.1458
-8 -25 -11 -2.9508 1.3661
-8 -25 -9 1.3252 1.0527
-8 -24 -14 8.8562 -12.9495
-8 -24 -12 6.6592 6.3037
-8 -24 -10 4.3145 -10.4466
-8 -24 -8 -5.2387 3.1288
-8 -23 -15 -17.4765 6.4778
-8 -23 -13 14.5977 -9.2718
-8 -23 -11 -0.8302 2.1011
-8 -23 -9 -4.1801 9.7569
-8 -22 -18 1.7137 -15.6862
-8 -22 -16 -4.4080 2.9681
-8 -22 -14 2.7232 -0.5537
-8 -22 -12 -9.4987 -0.1158
-8 -22 -10 23.7791 6.5045
-8 -22 -8 40.4064 22.3520
-8 -21 -19 3.1257 2.1187
-8 -21 -17 -0.7515 -0.2876
-8 -21 -15 5.5564 5.6704
-8 -21 -13 -5.4450 8.2639
-8 -21 -11 3.3967 -5.2953
-8 -21 -9 -17.1706 -11.0707
-8 -20 -20 -0.3720 -2.5567
-8 -20 -18 -10.1086 -5.1672
-8 -20 -16 -4.4042 -6.8525
-8 -20 -14 1.3174 5.6640
-8 -20 -12 8.7190 -22.5215
-8 -20 -10 0.0179 -3.0663
-8 -20 -8 17.6855 -8.8410
-8 -19 -19 2.1192 5.1738
-8 -19 -17 -2.4457 -2.7813
-8 -19 -15 17.0090 -9.6309
-8 -19 -13 -16.7044 2.4745
-8 -19 -11 0.5995 5.6725
-8 -19 -9 -3.3654 -12.3279
-8 -18 -18 -11.1310 -21.4160
-8 -18 -16 16.3543 10.1209
-8 -18 -14 27.6836 -0.8521
-8 -18 -12 4.6080 4.4392
-8 -18 -10 15.7544 -17.7940
-8 -18 -8 -2.6897 -7.7688
-8 -17 -17 8.1240 -26.0277
-8 -17 -15 -3.2518 -17.4696
-8 -17 -13 -3.0961 12.4085
-8 -17 -11 8.5942 -3.1027
-8 -17 -9 -5.6463 -0.6015
-8 -16 -16 -30.8452 -21.5185
-8 -16 -14 11.6324 -6.5653
-8 -16 -12 12.7284 2.2519
-8 -16 -10 -8.2506 -3.9868
-8 -16 -8 21.0676 3.4477
-8 -15 -15 8.6986 -6.2981
-8 -15 -13 -43.3401 -0.4216
-8 -15 -11 -25.2056 46.8926
-8 -15 -9 19.1283 35.4946
-8 -14 -14 11.1568 16.8818
-8 -14 -12 34.3534 22.3979
-8 -14 -10 18.1170 2.1055
-8 -14 -8 -26.5629 5.6400
-8 -13 -13 -28.0702 -4.6898
-8 -13 -11 -16.4620 -17.6419
-8 -13 -9 0.4179 9.1901
-8 -12 -12 19.3338 15.0135
-8 -12 -10 34.9897 3.0117
-8 -12 -8 23.3174 -24.4169
-8 -11 -11 -20.1866 -40.0314
-8 -11 -9 10.7650 -10.8526
-8 -10 -10 -0.2026 117.6747
-8 -10 -8 -21.3523 40.5754
-8 -9 -9 57.4298 -61.2811
-8 -8 -8 -90.9736 -13.1276
-7 -28 -7 -8.1313 1.9163
-7 -27 -8 4.8464 -4.1113
-7 -26 -11 13.0102 2.3794
-7 -26 -9 2.8498 -7.2092
-7 -26 -7 -9.7530 -4.1757
-7 -25 -14 -2.7338 -3.3386
-7 -25 -12 4.3752 7.2115
-7 -25 -10 1.5397 4.0778
-7 -25 -8 33.8666 -8.7330
-7 -24 -15 1.1094 1.0814
-7 -24 -13 -29.3776 1.4117
-7 -24 -11 -1.5597 17.1621
-7 -24 -9 -2.0764 -0.0280
-7 -23 -16 3.8322 6.7949
-7 -23 -14 3.2747 12.7214
-7 -23 -12 -0.8929 7.4578
-7 -23 -10 24.0825 4.7790
-7 -23 -8 18.3292 6.9578
-7 -22 -17 -1.5712 0.5770
-7 -22 -15 -6.9194 -14.2671
-7 -22 -13 -32.1820 -6.6517
-7 -22 -11 7.5748 18.5586
-7 -22 -9 -6.3027 0.0006
-7 -21 -18 1.9555 11.5843
-7 -21 -16 4.7451 0.1352
-7 -21 -14 -2.0189 17.9444
-7 -21 -12 9.9970 17.5579
-7 -21 -10 -3.7614 -10.5201
-7 -21 -8 -12.4050 -8.7230
-7 -20 -19 1.4314 -12.1248
-7 -20 -17 -18.6037 -0.1019
-7 -20 -15 -12.2840 -15.7964
-7 -20 -13 14.7151 -12.1999
-7 -20 -11 -21.9591 8.6445
-7 -20 -9 12.8511 -4.6919
-7 -20 -7 4.7789 -13.4930
-7 -19 -18 5.4733 -0.7194
-7 -19 -16 -26.7298 7.3719
-7 -19 -14 -30.4518 12.0714
-7 -19 -12 20.6023 5.7622
-7 -19 -10 29.6343 4.5933
-7 -19 -8 21.0988 10.3999
-7 -18 -17 17.0668 -1.5523
-7 -18 -15 21.6393 24.3803
-7 -18 -13 -16.8042 -8.4303
-7 -18 -11 7.7027 -7.3579
-7 -18 -9 -20.4692 -0.8724
-7 -18 -7 2.1504 -55.2324
-7 -17 -14 -5.1374 -26.2165
-7 -17 -12 -13.2961 -34.7928
-7 -17 -10 11.9953 -15.9406
-7 -17 -8 -16.3014 9.8477
-7 -16 -15 -22.9491 11.3958
-7 -16 -13 12.6931 -21.1027
-7 -16 -11 -24.6213 -1.9076
-7 -16 -9 -10.8225 -39.9966
-7 -16 -7 4.2407 13.4452
-7 -15 -14 17.6913 -0.0900
-7 -15 -12 8.6692 -9.8768
-7 -15 -10 10.5203 -8.7677
-7 -15 -8 -28.0867 -15.5951
-7 -14 -13 19.7690 -6.4796
-7 -14 -11 -9.9320 -17.6974
-7 -14 -9 -19.7413 5.8884
-7 -14 -7 -7.9085 15.7412
-7 -13 -12 28.0861 6.3753
-7 -13 -10 -39.7283 13.3411
-7 -13 -8 -39.6091 21.9663
-7 -12 -11 -1.8524 27.5817
-7 -12 -9 8.0479 18.3673
-7 -12 -7 -33.5898 32.3039
-7 -11 -10 1.2886 11.6364
-7 -11 -8 -50.6271 42.3808
-7 -10 -9 -65.7802 -27.6701
-7 -10 -7 44.1609 33.7578
-7 -9 -8 -6.7779 -9.5928
-7 -8 -7 43.1304 27.8997
-6 -28 -8 0.0316 1.4541
-6 -28 -6 -5.3205 5.3251
-6 -27 -11 4.6812 4.2585
-6 -27 -9 -9.0054 -9.1076
-6 -27 -7 7.5559 -27.6639
-6 -26 -12 3.5027 4.2374
-6 -26 -10 -10.7124 -9.7780
-6 -26 -8 12.3442 13.2714
-6 -26 -6 -7.7649 36.5905
-6 -25 -15 -9.6004 -12.2089
-6 -25 -13 4.3301 -3.6195
-6 -25 -11 12.0406 -5.9166
-6 -25 -9 -10.7721 10.3878
-6 -25 -7 0.6426 -1.5243
-6 -24 -16 -11.6651 3.5231
-6 -24 -14 6.7369 -4.0029
-6 -24 -12 -0.6637 12.1654
-6 -24 -10 -3.7733 -2.5655
-6 -24 -8 -5.3930 16.3084
-6 -23 -17 -7.4954 -4.2368
-6 -23 -15 1.0445 -4.3805
-6 -23 -13 -3.5591 5.2610
-6 -23 -11 3.2474 2.1187
-6 -23 -9 -18.7603 9.2673
-6 -23 -7 -0.8153 6.1289
-6 -22 -18 4.3548 7.9356
-6 -22 -16 -1.8340 -13.8673
-6 -22 -14 16.7796 3.4203
-6 -22 -12 -9.3069 -13.2201
-6 -22 -10 18.9306 4.3004
-6 -22 -8 5.8506 2.1549
-6 -22 -6 -9.0856 3.0098
-6 -21 -19 -17.3148 -9.2677
-6 -21 -17 8.6443 -6.8805
-6 -21 -15 4.9314 0.9088
-6 -21 -13 -6.8389 2.1860
-6 -21 -11 -3.2895 24.7800
-6 -21 -9 10.1238 9.4822
-6 -21 -7 -2.1966 2.7326
-6 -20 -20 9.2036 17.7019
-6 -20 -18 0.0531 1.8338
-6 -20 -16 13.2802 3.1697
-6 -20 -14 -0.9015 9.5092
-6 -20 -12 -8.9203 -5.4370
-6 -20 -10 16.0082 -31.0534
-6 -20 -8 -13.6576 -10.9573
-6 -19 -19 -2.5773 -5.5468
-6 -19 -17 6.7361 -5.7555
-6 -19 -15 12.8435 5.4119
-6 -19 -13 5.1738 16.0932
-6 -19 -11 13.3825 -3.8376
-6 -19 -9 -15.6820 11.9278
-6 -19 -7 -8.7615 -17.7217
-6 -18 -18 -1.3067 -17.7846
-6 -18 -16 4.0662 7.7489
-6 -18 -14 3.9620 14.1888
-6 -18 -12 1.6987 2.0930
-6 -18 -10 5.8398 -3.6757
-6 -18 -8 1.3158 -7.8774
-6 -18 -6 2.4416 4.7409
-6 -17 -17 -24.7098 -13.4149
-6 -17 -15 -3.8599 -3.3522
-6 -17 -13 -0.3968 -4.8058
-6 -17 -11 10.7271 3.0096
-6 -17 -9 20.5078 -17.9498
-6 -17 -7 3.4729 -22.6271
-6 -16 -16 -2.4192 -21.4794
-6 -16 -14 8.2544 2.4071
-6 -16 -12 -1.8052 6.8832
-6 -16 -10 9.5218 -3.8680
-6 -16 -8 -4.6001 19.7447
-6 -16 -6 15.0515 -1.3996
-6 -15 -15 6.2333 -10.0470
-6 -15 -13 -8.5703 -15.1272
-6 -15 -11 -12.5250 15.9266
-6 -15 -9 35.2924 16.9077
-6 -15 -7 -39.3432 -23.0892
-6 -14 -14 0.4759 -23.0094
-6 -14 -12 -13.6860 -8.3161
-6 -14 -10 -4.0799 -16.7896
-6 -14 -8 11.4516 -2.9977
-6 -14 -6 20.9294 42.1208
-6 -13 -13 -3.5552 -31.8523
-6 -13 -11 -14.4429 -24.7736
-6 -13 -9 5.6518 -24.0172
-6 -13 -7 30.5387 1.2401
-6 -12 -12 -21.5130 8.5153
-6 -12 -10 2.4223 11.6615
-6 -12 -8 53.4427 -17.0801
-6 -12 -6 7.5237 -63.2974
-6 -11 -11 -80.7900 -66.6160
-6 -11 -9 -17.6486 -56.3973
-6 -11 -7 22.7655 -4.8230
-6 -10 -10 26.0150 15.9012
-6 -10 -8 24.9513 -50.4040
-6 -10 -6 -37.7243 -65.6739
-6 -9 -9 73.0141 -51.8674
-6 -9 -7 -28.3264 54.0486
-6 -8 -8 -81.0057 -36.9092
-6 -8 -6 -49.7677 -66.1867
-6 -7 -7 -51.2738 -20.3698
-6 -6 -6 -96.1150 102.3119
-5 -28 -7 18.5882 4.4203
-5 -28 -5 18.6352 19.3574
-5 -27 -10 -3.9358 -2.2158
-5 -27 -8 6.4585 7.5453
-5 -27 -6 3.5464 6.4527
-5 -26 -13 14.5788 1.8067
-5 -26 -11 -12.9028 19.2969
-5 -26 -9 3.1686 4.3015
-5 -26 -7 -9.5758 11.7012
-5 -26 -5 -24.2809 -28.0071
-5 -25 -14 9.1821 7.4762
-5 -25 -12 5.9583 -14.5759
-5 -25 -10 -7.6970 -8.0890
-5 -25 -8 1.2160 -0.7354
-5 -25 -6 -8.8460 5.2207
-5 -24 -17 -2.9666 -8.6230
-5 -24 -15 6.7647 3.3822
-5 -24 -13 6.9322 1.4836
-5 -24 -11 8.8284 7.6342
-5 -24 -9 27.6404 16.9208
-5 -24 -7 2.3041 -20.2438
-5 -23 -18 -0.9037 -2.4350
-5 -23 -16 -1.6673 7.9983
-5 -23 -14 -7.6780 16.3443
-5 -23 -12 0.8861 -7.7547
-5 -23 -10 -14.6868 -14.6206
-5 -23 -8 -0.8812 -25.2886
-5 -23 -6 -1.4574 14.0046
-5 -22 -19 16.1131 3.2885
-5 -22 -17 7.1043 4.3733
-5 -22 -15 -2.2161 0.7285
-5 -22 -13 -20.1962 -5.1322
-5 -22 -11 0.8956 10.7892
-5 -22 -9 2.5677 -19.7228
-5 -22 -7 -25.4049 -6.1111
-5 -22 -5 20.6309 38.9391
-5 -21 -20 -4.3719 -5.1331
-5 -21 -18 -3.6864 3.0234
-5 -21 -16 -5.2102 -20.5214
-5 -21 -14 9.8642 -13.3228
-5 -21 -12 9.7792 2.2846
-5 -21 -10 19.1793 1.4530
-5 -21 -8 -13.8532 -14.0023
-5 -21 -6 -2.8573 -19.2762
-5 -20 -19 -13.7427 -0.0546
-5 -20 -17 -19.0911 6.9796
-5 -20 -15 -2.8668 15.7167
-5 -20 -13 -1.3745 -16.9216
-5 -20 -11 -10.0023 26.7145
-5 -20 -9 -8.9646 -27.4532
-5 -20 -7 -25.3300 14.3360
-5 -20 -5 -20.5534 -3.4700
-5 -19 -18 -0.1237 -16.3774
-5 -19 -16 12.1938 -1.8062
-5 -19 -14 -19.8077 -3.7145
-5 -19 -12 4.0909 14.3862
-5 -19 -10 8.0296 -7.1125
-5 -19 -8 -34.4542 10.2826
-5 -19 -6 8.1408 1.2612
-5 -18 -17 12.2134 14.6410
-5 -18 -15 10.7584 7.5948
-5 -18 -13 22.6026 -17.9909
-5 -18 -11 -12.4992 -4.8229
-5 -18 -9 13.9897 -1.5813
-5 -18 -7 -11.2620 13.9419
-5 -18 -5 -48.7496 -62.4909
-5 -17 -16 8.3603 6.1079
-5 -17 -14 10.9471 2.1722
-5 -17 -12 -5.7161 -5.7230
-5 -17 -10 -5.8419 -4.4020
-5 -17 -8 -19.1919 19.4223
-5 -17 -6 -14.7469 -12.1028
-5 -16 -15 13.1140 2.7751
-5 -16 -13 -5.3809 -9.0581
-5 -16 -11 21.7906 -4.9989
-5 -16 -9 -17.9973 6.3984
-5 -16 -7 65.8015 -8.2628
-5 -16 -5 -26.7331 -53.7164
-5 -15 -14 0.3477 -11.5283
-5 -15 -12 -6.3002 14.9988
-5 -15 -10 0.5697 19.9535
-5 -15 -8 2.1086 23.0128
-5 -15 -6 -2.4469 0.0922
-5 -14 -13 30.9133 -15.4188
-5 -14 -11 -28.5825 33.4264
-5 -14 -9 -13.6042 -25.3887
-5 -14 -7 -9.3942 21.7932
-5 -14 -5 15.4388 77.7909
-5 -13 -12 -9.0229 -7.2692
-5 -13 -10 31.2631 17.6949
-5 -13 -8 -14.5874 -24.7653
-5 -13 -6 31.8076 15.1237
-5 -12 -11 6.2127 -13.5124
-5 -12 -9 -14.4568 2.1768
-5 -12 -7 -10.4797 -26.8539
-5 -12 -5 82.0831 86.9355
-5 -11 -10 -3.4741 16.1010
-5 -11 -8 27.7756 59.5993
-5 -11 -6 22.9525 42.9678
-5 -10 -9 1.3027 22.3175
-5 -10 -7 -17.5719 4.6168
-5 -10 -5 46.4248 35.0405
-5 -9 -8 -50.1688 4.0410
-5 -9 -6 4.0690 -67.7283
-5 -8 -7 -1.4085 9.1249
-5 -8 -5 -33.3633 -60.9864
-5 -7 -6 20.4536 -16.5587
-5 -6 -5 -51.7874 -72.8695
-4 -29 -5 -4.2553 -12.3297
-4 -28 -8 0.4600 9.0848
-4 -28 -6 -11.9877 16.5854
-4 -28 -4 3.3547 -15.7410
-4 -27 -11 1.9062 -1.1501
-4 -27 -9 0.8980 -10.6258
-4 -27 -7 8.0219 -15.1641
-4 -27 -5 14.7276 -7.3562
-4 -26 -14 6.5904 0.0204
-4 -26 -12 18.0026 -6.6387
-4 -26 -10 5.4675 -7.6634
-4 -26 -8 12.3974 -1.5604
-4 -26 -6 11.5597 4.8775
-4 -26 -4 15.9355 7.3459
-4 -25 -15 -15.8929 6.8137
-4 -25 -13 -27.1925 0.1349
-4 -25 -11 15.9251 -18.6553
-4 -25 -9 -14.9372 15.3537
-4 -25 -7 3.9993 -11.9282
-4 -25 -5 4.1693 -5.1646
-4 -24 -16 -5.8901 -10.4002
-4 -24 -14 1.5474 9.9156
-4 -24 -12 13.6438 2.2432
-4 -24 -10 -1.6147 -5.4691
-4 -24 -8 2.9257 4.1234
-4 -24 -6 20.2188 -39.4152
-4 -24 -4 -3.8604 -0.8479
-4 -23 -17 -1.2399 -0.6053
-4 -23 -15 -13.0577 9.4665
-4 -23 -13 -9.1997 -7.0882
-4 -23 -11 -5.6154 -12.6832
-4 -23 -9 9.0449 7.3551
-4 -23 -7 29.4381 -18.6467
-4 -23 -5 -4.2775 -14.0889
-4 -22 -18 -7.4553 0.0607
-4 -22 -16 -5.9650 4.2570
-4 -22 -14 -4.6045 2.8111
-4 -22 -12 17.5039 0.6196
-4 -22 -10 13.3015 -15.7408
-4 -22 -8 -15.1663 16.9820
-4 -22 -6 -31.3697 2.0587
-4 -21 -19 8.8423 -5.8936
-4 -21 -17 6.7987 -17.6448
-4 -21 -15 -7.2517 -3.6483
-4 -21 -13 -10.0608 3.3790
-4 -21 -11 -21.2428 11.6595
-4 -21 -9 2.1781 2.1486
-4 -21 -7 1.7099 -22.2725
-4 -21 -5 -11.5772 -19.6198
-4 -20 -20 13.3624 -7.3214
-4 -20 -18 13.7446 2.6362
-4 -20 -16 8.9151 7.9284
-4 -20 -14 -10.9879 4.1622
-4 -20 -12 -15.3531 -11.6146
-4 -20 -10 15.3363 -10.3634
-4 -20 -8 3.8320 -6.1316
-4 -20 -6 22.7281 -6.6508
-4 -20 -4 -28.5052 1.7300
-4 -19 -19 -0.9610 -5.8340
-4 -19 -17 7.4092 0.5272
-4 -19 -15 -0.2911 6.0215
-4 -19 -13 -5.8106 -15.8214
-4 -19 -11 -14.1018 13.8025
-4 -19 -9 -10.8145 -8.5656
-4 -19 -7 -8.5539 -11.5589
-4 -19 -5 10.1201 0.3644
-4 -18 -18 11.2970 -2.2493
-4 -18 -16 7.4770 15.1371
-4 -18 -14 -1.1315 21.5012
-4 -18 -12 -7.0528 18.1671
-4 -18 -10 8.3853 4.6020
-4 -18 -8 5.4001 -20.5966
-4 -18 -6 -7.2664 35.8154
-4 -18 -4 -11.6847 16.2616
-4 -17 -17 -9.9180 0.0473
-4 -17 -15 -5.6331 15.7026
-4 -17 -13 10.9799 5.0963
-4 -17 -11 2.1841 -10.6303
-4 -17 -9 31.7225 -15.0908
-4 -17 -7 -4.4699 -13.8348
-4 -17 -5 29.6965 2.7046
-4 -16 -16 24.2140 -31.5753
-4 -16 -14 -18.2471 -50.1927
-4 -16 -12 22.5671 30.3498
-4 -16 -10 -7.3510 17.4932
-4 -16 -8 -14.8785 -1.9044
-4 -16 -6 10.6862 0.6980
-4 -16 -4 -2.2940 -36.6931
-4 -15 -15 34.0707 42.2508
-4 -15 -13 18.5390 -11.6656
-4 -15 -11 -3.9442 -27.9105
-4 -15 -9 -1.2988 -12.3360
-4 -15 -7 11.4965 18.3153
-4 -15 -5 -63.7509 17.6850
-4 -14 -12 14.9645 -0.3090
-4 -14 -10 -4.1123 -14.7134
-4 -14 -8 16.2519 -17.9441
-4 -14 -6 49.5002 -21.7539
-4 -14 -4 -14.4381 29.0644
-4 -13 -13 60.7520 4.6176
-4 -13 -11 -18.1404 -13.0400
-4 -13 -9 12.6257 34.0453
-4 -13 -7 -35.0105 25.0366
-4 -13 -5 -49.4300 -32.8430
-4 -12 -12 24.3555 35.4012
-4 -12 -10 -19.6917 -4.2019
-4 -12 -8 -2.9478 10.4648
-4 -12 -6 -41.7656 -1.3254
-4 -12 -4 38.9921 26.4269
-4 -11 -9 -9.8965 -15.9189
-4 -11 -7 -41.5257 32.2916
-4 -11 -5 6.4666 -28.9545
-4 -10 -10 14.4587 10.5957
-4 -10 -8 -28.2672 4.1573
-4 -10 -6 -62.3086 -30.2606
-4 -10 -4 -35.5094 -28.4165
-4 -9 -9 20.5418 10.3364
-4 -9 -7 -50.6730 -22.1605
-4 -9 -5 8.8770 0.3898
-4 -8 -8 80.4370 17.7818
-4 -8 -6 34.8275 52.1394
-4 -8 -4 -57.1663 5.0041
-4 -7 -7 -31.4019 -7.8736
-4 -7 -5 -8.5578 -20.9567
-4 -6 -6 1.2779 33.1924
-4 -6 -4 -99.5040 43.1876
-4 -5 -5 119.9840 -2.0502
-3 -29 -6 10.1117 12.3893
-3 -29 -4 1.6440 -1.5939
-3 -28 -9 -2.0166 -13.8491
-3 -28 -7 11.1341 -2.0204
-3 -28 -5 18.6227 -1.5924
-3 -28 -3 -4.1836 -8.6639
-3 -27 -12 0.3757 17.9581
-3 -27 -10 12.9943 21.2647
-3 -27 -8 -9.1679 4.3237
-3 -27 -6 -8.6104 17.7206
-3 -27 -4 -2.7061 -8.0934
-3 -26 -13 2.6267 -4.7397
-3 -26 -11 -8.6605 5.4541
-3 -26 -9 -6.7568 4.2917
-3 -26 -7 -6.1649 -2.0851
-3 -26 -5 23.5463 0.0493
-3 -26 -3 -6.6485 -25.4111
-3 -25 -16 -2.7804 -3.2920
-3 -25 -14 -2.3863 -2.9792
-3 -25 -12 -10.9360 -10.5928
-3 -25 -10 6.7048 8.7291
-3 -25 -8 -6.1196 4.0219
-3 -25 -6 -7.8919 22.3841
-3 -25 -4 -23.8843 3.4940
-3 -24 -17 -9.3072 8.8294
-3 -24 -15 5.2284 12.0116
-3 -24 -13 9.9189 1.0848
-3 -24 -11 -5.5134 -27.3222
-3 -24 -9 -0.6413 10.7886
-3 -24 -7 -5.9149 -2.5361
-3 -24 -5 2.7906 10.4362
-3 -24 -3 1.2171 41.9458
-3 -23 -18 -6.8750 4.9496
-3 -23 -16 -6.6689 2.3636
-3 -23 -14 -9.7494 16.1376
-3 -23 -12 -3.5273 -16.4543
-3 -23 -10 -10.3395 3.5546
-3 -23 -8 25.3558 -7.2396
-3 -23 -6 -2.5280 -3.8960
-3 -23 -4 -10.2177 5.7749
-3 -22 -19 16.8816 4.7380
-3 -22 -17 9.2284 -11.2041
-3 -22 -15 -2.4482 -3.0676
-3 -22 -13 12.7589 -0.0017
-3 -22 -11 -2.5214 -9.4754
-3 -22 -9 4.4154 -13.6693
-3 -22 -7 -9.9879 8.9352
-3 -22 -5 18.4802 -5.9377
-3 -22 -3 25.2973 8.9640
-3 -21 -20 -8.8826 20.5725
-3 -21 -18 -2.0293 14.4960
-3 -21 -16 -10.9770 -12.0965
-3 -21 -14 0.6002 -5.7356
-3 -21 -12 9.9979 25.0840
-3 -21 -10 10.7284 23.8200
-3 -21 -8 15.5513 -35.3028
-3 -21 -6 -20.2072 -6.1995
-3 -21 -4 -12.4798 1.5358
-3 -20 -19 3.0009 -5.5587
-3 -20 -17 22.6346 -3.6224
-3 -20 -15 3.1506 23.3189
-3 -20 -13 -1.6039 18.8278
-3 -20 -11 -15.4693 6.3297
-3 -20 -9 13.2478 -13.1506
-3 -20 -7 7.8157 -8.6850
-3 -20 -5 12.9999 4.7086
-3 -20 -3 -21.8829 -16.2813
-3 -19 -18 13.4538 24.5101
-3 -19 -16 29.4335 -8.1474
-3 -19 -14 -29.8225 35.3150
-3 -19 -12 -1.2449 22.3999
-3 -19 -10 17.1307 5.9386
-3 -19 -8 -30.1507 -17.5661
-3 -19 -6 11.5582 3.4439
-3 -18 -15 -6.7567 12.8596
-3 -18 -13 -6.7664 -29.3777
-3 -18 -11 2.1225 -14.6633
-3 -18 -9 -5.6895 -7.0044
-3 -18 -7 -2.1654 76.1894
-3 -18 -5 -13.5966 -66.9317
-3 -18 -3 41.3950 64.4282
-3 -17 -16 -22.7067 14.4266
-3 -17 -14 -6.5211 -2.2833
-3 -17 -12 -21.2347 -13.7436
-3 -17 -10 -9.2864 -7.9983
-3 -17 -8 -16.5650 -25.1432
-3 -17 -6 -2.1218 36.5402
-3 -17 -4 28.7036 -16.3221
-3 -16 -15 -30.0259 -4.0555
-3 -16 -13 15.4480 10.2903
-3 -16 -11 14.0352 38.3081
-3 -16 -9 -14.1339 -23.4205
-3 -16 -7 27.9007 31.3701
-3 -16 -5 14.7399 24.1194
-3 -16 -3 -6.4455 22.9087
-3 -15 -14 16.6926 -6.6104
-3 -15 -12 -12.4023 17.6034
-3 -15 -10 5.0039 16.4261
-3 -15 -8 -13.8710 15.9262
-3 -15 -6 28.0249 16.6336
-3 -15 -4 -2.3746 -7.7026
-3 -14 -13 -1.9787 -19.0801
-3 -14 -11 19.9555 -12.4970
-3 -14 -9 -0.8518 -2.3962
-3 -14 -7 -26.6752 8.5139
-3 -14 -5 18.7909 0.0037
-3 -14 -3 10.3409 11.7481
-3 -13 -12 13.8254 -41.5887
-3 -13 -10 18.6922 -9.6624
-3 -13 -8 -60.9345 -19.2194
-3 -13 -6 30.3878 -35.2473
-3 -13 -4 12.7918 28.3265
-3 -12 -11 -25.0413 -8.5439
-3 -12 -9 10.8278 6.8347
-3 -12 -7 -34.1817 -10.7796
-3 -12 -5 -2.0587 -2.5627
-3 -12 -3 -15.3293 -29.7197
-3 -11 -10 -19.2045 -7.0560
-3 -11 -8 9.2780 32.0411
-3 -11 -6 -0.2697 -9.7306
-3 -11 -4 2.5915 -8.3154
-3 -10 -9 22.8886 0.5922
-3 -10 -7 -3.4565 -55.1538
-3 -10 -5 7.8019 1.5036
-3 -10 -3 -16.8617 -16.0081
-3 -9 -8 7.5468 -3.4370
-3 -9 -6 -24.8715 40.6458
-3 -9 -4 19.4639 16.2784
-3 -8 -7 1.5009 -42.9007
-3 -8 -5 14.3238 -4.5579
-3 -8 -3 37.6277 23.3656
-3 -7 -6 0.9615 -4.1290
-3 -7 -4 25.2687 23.1436
-3 -6 -5 14.4505 -61.4232
-3 -6 -3 -16.0071 86.9809
-3 -5 -4 -24.5886 19.3994
-3 -4 -3 42.1055 -55.1947
-2 -29 -5 -14.9286 1.6551
-2 -29 -3 10.6356 1.6011
-2 -28 -10 9.5438 8.3013
-2 -28 -8 10.9408 6.3333
-2 -28 -6 -3.7965 -11.8825
-2 -28 -4 -6.6442 -5.8210
-2 -28 -2 -14.6433 7.8222
-2 -27 -11 -6.4998 7.1248
-2 -27 -9 -10.3857 0.2352
-2 -27 -7 2.8365 0.2854
-2 -27 -5 31.5344 21.0194
-2 -27 -3 25.0241 1.1028
-2 -26 -14 -0.1961 -1.2792
-2 -26 -12 1.1464 -2.0545
-2 -26 -10 -6.5026 -5.6500
-2 -26 -8 12.9613 -7.3541
-2 -26 -6 9.7233 3.0340
-2 -26 -4 16.8526 10.2780
-2 -26 -2 19.1384 -2.2188
-2 -25 -15 0.2048 -5.8375
-2 -25 -13 -6.9234 -13.2081
-2 -25 -11 8.9486 0.7788
-2 -25 -9 5.6301 7.3866
-2 -25 -7 -12.0190 4.2126
-2 -25 -5 14.0947 2.6623
-2 -25 -3 19.3109 -6.9749
-2 -24 -16 2.0759 -7.9563
-2 -24 -14 4.1683 -14.0661
-2 -24 -12 2.5969 14.5728
-2 -24 -10 -5.3746 -4.6823
-2 -24 -8 13.7224 2.8159
-2 -24 -6 20.5979 5.4629
-2 -24 -4 29.4084 -17.2096
-2 -24 -2 15.4682 -1.7692
-2 -23 -17 -3.5597 5.4778
-2 -23 -15 4.5622 2.6077
-2 -23 -13 30.0823 1.4558
-2 -23 -11 10.8158 -12.0306
-2 -23 -9 -2.0606 1.6260
-2 -23 -7 1.8204 12.1957
-2 -23 -5 -23.2256 -17.6427
-2 -23 -3 -13.2161 1.2952
-2 -22 -20 -15.5472 -0.6582
-2 -22 -18 -10.2596 5.0208
-2 -22 -16 10.9145 -1.9173
-2 -22 -14 -5.5551 9.2691
-2 -22 -12 3.6708 11.4163
-2 -22 -10 -11.4954 3.9352
-2 -22 -8 15.7233 19.9187
-2 -22 -6 32.2052 -12.2835
-2 -22 -4 -17.6295 26.0838
-2 -22 -2 -59.9554 15.6019
-2 -21 -21 15.1873 7.0030
-2 -21 -19 -4.8721 -0.8253
-2 -21 -17 2.9459 -8.4497
-2 -21 -15 -7.0902 2.1786
-2 -21 -13 17.6512 7.5479
-2 -21 -11 12.8720 -8.1685
-2 -21 -9 -13.5308 -13.7978
-2 -21 -7 -1.7723 3.4348
-2 -21 -5 -5.3107 -8.9952
-2 -21 -3 -3.5113 -11.2034
-2 -20 -20 -11.1814 6.6689
-2 -20 -18 11.8153 -24.0349
-2 -20 -16 -18.8051 13.0968
-2 -20 -14 1.0289 -0.1467
-2 -20 -12 0.4481 -9.2796
-2 -20 -10 -18.3936 24.8613
-2 -20 -8 9.2322 8.6023
-2 -20 -6 15.9557 -18.2124
-2 -20 -4 41.5202 7.0530
-2 -19 -19 0.2553 18.4242
-2 -19 -17 -13.6586 4.9243
-2 -19 -15 -21.9033 14.4119
-2 -19 -13 0.5837 -6.2214
-2 -19 -11 -7.5663 9.5349
-2 -19 -9 22.2779 -2.3519
-2 -19 -7 13.0202 -4.6215
-2 -19 -5 -29.8693 -16.4589
-2 -19 -3 -10.2049 9.6391
-2 -18 -16 9.5165 17.0473
-2 -18 -14 20.9006 0.1470
-2 -18 -12 15.6839 -3.1667
-2 -18 -10 16.8980 14.9787
-2 -18 -8 -12.6980 -3.6509
-2 -18 -6 19.6159 5.4507
-2 -18 -4 -24.7957 -3.6537
-2 -17 -17 -1.5760 15.1651
-2 -17 -13 -14.6817 13.7064
-2 -17 -11 -0.1650 -2.8381
-2 -17 -9 12.4637 4.0158
-2 -17 -7 7.4040 17.0597
-2 -17 -3 -16.2920 -13.8871
-2 -16 -16 41.3795 1.3860
-2 -16 -14 40.9278 -18.4528
-2 -16 -12 7.2023 2.0002
-2 -16 -10 63.1236 11.0618
-2 -16 -8 -12.4427 -6.2238
-2 -16 -6 -0.8229 14.5109
-2 -16 -4 -16.2083 11.3280
-2 -16 -2 16.3116 46.3014
-2 -15 -15 41.7417 26.3882
-2 -15 -13 19.0196 9.3356
-2 -15 -11 -31.3379 -10.9055
-2 -15 -9 9.0416 -1.3205
-2 -15 -7 -4.1990 10.6877
-2 -15 -5 -16.8960 -11.2145
-2 -15 -3 19.6642 13.8682
-2 -14 -14 17.2135 -36.4786
-2 -14 -12 21.1072 19.9071
-2 -14 -10 -74.6325 21.6143
-2 -14 -8 33.5295 4.7960
-2 -14 -6 -4.8304 -30.0395
-2 -14 -4 62.7085 -38.1987
-2 -14 -2 51.5842 -22.8373
-2 -13 -11 -7.4622 18.9898
-2 -13 -9 -69.4042 -7.1238
-2 -13 -7 25.0985 13.8795
-2 -13 -5 -50.4165 -5.8673
-2 -13 -3 41.7466 30.0420
-2 -12 -12 -21.4735 -6.3864
-2 -12 -10 -22.2113 -42.0582
-2 -12 -8 10.4273 22.0855
-2 -12 -6 24.8395 -2.0662
-2 -12 -4 -20.3686 -2.7101
-2 -12 -2 27.8205 -56.8583
-2 -11 -11 72.9766 -47.6884
-2 -11 -9 50.9645 16.6334
-2 -11 -7 37.6150 35.8044
-2 -11 -5 30.9852 -23.3770
-2 -11 -3 14.9658 -16.9210
-2 -10 -10 -124.6875 -75.1136
-2 -10 -8 -46.1055 18.5612
-2 -10 -6 -22.2047 -40.6341
-2 -10 -4 16.1152 -19.9897
-2 -10 -2 -12.3530 29.4357
-2 -9 -9 52.9128 -9.3333
-2 -9 -7 63.6632 -37.7445
-2 -9 -5 53.4261 44.8628
-2 -9 -3 -46.0144 -55.9889
-2 -8 -8 -23.8823 46.7452
-2 -8 -6 37.8763 31.9832
-2 -8 -4 -0.3429 -21.7520
-2 -8 -2 -19.8711 14.4212
-2 -7 -7 -78.4450 -98.8259
-2 -7 -5 2.3867 2.2356
-2 -7 -3 -104.8533 -108.9361
-2 -6 -6 -5.6494 38.1491
-2 -6 -4 91.3184 74.5360
-2 -6 -2 48.2718 105.3128
-2 -5 -5 -121.3373 29.5968
-2 -5 -3 -167.7997 -92.3521
-2 -4 -4 -31.0743 -48.6058
-2 -4 -2 212.0940 226.4816
-2 -3 -3 -154.7591 -19.1592
-1 -29 -6 16.9312 7.9909
-1 -29 -4 17.4394 -10.4830
-1 -29 -2 46.0547 -32.8044
-1 -28 -9 -11.8183 5.1070
-1 -28 -7 10.5221 -4.8177
-1 -28 -5 9.2746 10.2618
-1 -28 -3 11.7250 -20.4039
-1 -28 -1 55.7045 -8.5307
-1 -27 -12 -8.2470 13.5978
-1 -27 -10 2.3012 -11.2037
-1 -27 -8 -34.9092 -13.9282
-1 -27 -6 2.1896 -5.9536
-1 -27 -4 -1.3199 -7.8878
-1 -27 -2 27.2498 17.1121
-1 -26 -13 -15.7049 1.2636
-1 -26 -11 32.2659 -5.5932
-1 -26 -9 18.8593 0.3950
-1 -26 -7 2.6706 -0.9429
-1 -26 -5 30.3677 -18.1301
-1 -26 -3 -9.3479 -27.8006
-1 -26 -1 6.4375 1.3594
-1 -25 -16 1.3217 9.4257
-1 -25 -14 -29.6235 11.6697
-1 -25 -12 -16.5550 -8.1040
-1 -25 -10 38.8155 -15.2236
-1 -25 -8 12.8788 11.0630
-1 -25 -6 5.6261 16.0230
-1 -25 -4 14.3746 3.4257
-1 -25 -2 -27.0596 14.3314
-1 -24 -17 -12.0326 -0.2672
-1 -24 -15 16.1514 17.8976
-1 -24 -13 -7.9981 -19.2079
-1 -24 -11 13.9482 -23.1919
-1 -24 -9 -4.1579 -17.0611
-1 -24 -7 -8.7222 4.3774
-1 -24 -5 20.3920 -0.3708
-1 -24 -3 14.7929 37.1302
-1 -24 -1 -13.9739 -10.5174
-1 -23 -18 -3.9981 -9.0723
-1 -23 -16 1.7988 16.3614
-1 -23 -14 24.7495 -8.2506
-1 -23 -12 -3.7712 -19.7043
-1 -23 -10 -5.6809 11.2214
-1 -23 -8 5.6319 -7.8667
-1 -23 -6 20.1660 -5.5139
-1 -23 -4 16.1454 13.8151
-1 -23 -2 2.6772 -11.9246
-1 -22 -19 -10.5291 -0.9029
-1 -22 -17 -38.1598 8.0594
-1 -22 -15 11.4005 -1.9829
-1 -22 -13 17.3267 -8.5170
-1 -22 -11 4.4036 -5.5394
-1 -22 -9 7.0590 -3.3444
-1 -22 -7 24.7841 -32.2621
-1 -22 -5 -11.7123 1.1245
-1 -22 -3 21.2711 -7.1117
-1 -22 -1 -29.1243 20.4035
-1 -21 -20 -8.3675 -9.6776
-1 -21 -18 -0.7421 6.6599
-1 -21 -16 -6.9584 -18.0413
-1 -21 -14 -7.1166 0.7376
-1 -21 -12 9.5364 -23.4384
-1 -21 -10 -12.7481 14.8473
-1 -21 -8 2.2115 -30.5462
-1 -21 -6 2.1570 -5.8937
-1 -21 -4 -16.1911 -3.4800
-1 -21 -2 26.2000 8.6383
-1 -20 -19 -10.7593 10.4504
-1 -20 -17 0.6329 -4.9867
-1 -20 -13 -21.1149 5.9591
-1 -20 -11 0.8514 -1.6408
-1 -20 -9 27.8580 -21.7392
-1 -20 -7 7.7630 -5.9651
-1 -20 -5 -15.4311 -30.6410
-1 -20 -3 -14.0376 22.2094
-1 -20 -1 1.1898 -15.6712
-1 -19 -18 16.4758 10.2348
-1 -19 -16 15.1390 -10.8950
-1 -19 -14 -19.2959 7.3907
-1 -19 -12 2.9891 12.0504
-1 -19 -10 22.6757 -17.8502
-1 -19 -8 56.1734 2.2472
-1 -19 -6 19.7114 15.0914
-1 -19 -4 5.6920 -25.2643
-1 -19 -2 4.3503 -1.6415
-1 -18 -17 13.0993 -2.7370
-1 -18 -15 -2.6227 -27.1238
-1 -18 -13 3.1254 6.7070
-1 -18 -11 -14.4119 -24.7894
-1 -18 -9 28.3035 16.9870
-1 -18 -7 6.9165 28.2357
-1 -18 -5 55.8745 -12.1657
-1 -18 -3 5.0865 5.6332
-1 -18 -1 -4.5542 -12.9353
-1 -17 -16 -1.4132 -30.2862
-1 -17 -14 68.7962 8.3144
-1 -17 -12 12.7493 4.1873
-1 -17 -10 -64.8352 6.0726
-1 -17 -8 12.8451 -1.4704
-1 -17 -6 -18.8785 7.2461
-1 -17 -4 -4.0477 -21.1266
-1 -17 -2 83.9754 -92.7581
-1 -16 -15 -20.8263 -14.4100
-1 -16 -13 26.9209 19.8776
-1 -16 -11 10.3462 42.9118
-1 -16 -9 -36.6312 -13.2554
-1 -16 -7 -0.6102 6.1988
-1 -16 -5 38.1310 -22.8398
-1 -16 -3 64.9220 -36.2116
-1 -16 -1 -14.3888 18.7777
-1 -15 -14 15.6974 -2.6946
-1 -15 -12 18.1197 65.0736
-1 -15 -10 -5.7327 -6.8604
-1 -15 -8 -33.2572 -19.0846
-1 -15 -6 36.3207 17.3263
-1 -15 -4 17.9496 -83.4441
-1 -15 -2 -38.4138 21.1737
-1 -14 -13 3.7746 -11.3395
-1 -14 -11 74.1469 -11.5741
-1 -14 -9 29.8688 -15.3735
-1 -14 -5 29.8234 20.9351
-1 -14 -3 -48.4393 -7.9094
-1 -14 -1 11.6191 -3.3317
-1 -13 -12 -12.9259 -23.1177
-1 -13 -10 87.4858 -0.4749
-1 -13 -8 -25.9154 13.1837
-1 -13 -6 -22.9355 -17.5940
-1 -13 -4 28.8834 34.0718
-1 -13 -2 -18.8138 2.0461
-1 -12 -11 -13.7561 -69.3825
-1 -12 -9 29.0580 40.9317
-1 -12 -7 -40.5646 10.8545
-1 -12 -5 58.1098 -13.9464
-1 -12 -3 44.0194 49.3600
-1 -12 -1 -11.7638 18.2125
-1 -11 -10 -46.5429 48.2370
-1 -11 -8 -37.4979 33.1413
-1 -11 -6 -12.4204 19.7323
-1 -11 -2 -46.3659 33.1517
-1 -10 -9 -19.9276 1.8547
-1 -10 -7 24.2768 -41.6174
-1 -10 -5 -5.9866 12.9880
-1 -10 -3 28.1318 40.7154
-1 -10 -1 -55.2329 22.3391
-1 -9 -8 18.4217 2.4469
-1 -9 -6 -7.8610 -29.6903
-1 -9 -4 -57.5399 54.3992
-1 -8 -7 91.2236 -5.6104
-1 -8 -5 34.9263 -48.9157
-1 -8 -3 -55.9781 34.5616
-1 -8 -1 -98.5468 -37.1381
-1 -7 -6 25.3311 17.7720
-1 -7 -4 17.3002 -6.4513
-1 -7 -2 -90.6978 6.9856
-1 -6 -5 -41.8611 54.8132
-1 -6 -3 8.5790 -111.1216
-1 -6 -1 71.4865 -97.8460
-1 -5 -4 -4.9650 5.6957
-1 -5 -2 16.7804 -77.4630
-1 -4 -3 68.7473 -36.8176
-1 -4 -1 -4.2942 -251.8017
-1 -3 -2 83.7631 112.3310
0 2 2 149.3838 17.0001
0 3 3 -107.0791 -15.5040
0 4 0 -268.5972 29.1557
0 4 2 -76.9927 -4.9190
0 4 4 207.1650 -14.1708
0 5 1 -142.3712 -4.3381
0 5 3 -83.7224 -1.6249
0 5 5 239.1817 7.6552
0 6 2 -136.7179 -6.9131
0 6 4 -152.4816 7.5728
0 6 6 53.2594 10.6576
0 7 1 -4.9880 -2.3936
0 7 3 -65.9206 -5.1693
0 7 5 -50.2480 8.2721
0 7 7 32.1331 6.7109
0 8 0 -132.5745 20.1200
0 8 2 -69.1291 -0.3174
0 8 4 11.9905 -10.1098
0 8 6 3.2945 5.0529
0 8 8 66.3478 -10.1932
0 9 1 20.5654 19.2555
0 9 3 -19.6078 -10.1552
0 9 5 -4.8154 -9.9563
0 9 7 -16.2913 -4.8765
0 9 9 10.4316 -5.2860
0 10 0 60.4185 0.7597
0 10 2 36.1388 5.1006
0 10 4 -43.0804 -4.0660
0 10 6 83.0313 -8.5226
0 10 8 -40.9482 1.2062
0 10 10 -17.2555 9.8509
0 11 1 -29.4432 -22.7639
0 11 3 -49.0334 22.2540
0 11 5 -12.1152 -4.6710
0 11 7 58.6239 -3.0293
0 11 9 -48.8015 15.7475
0 11 11 47.8747 -18.0203
0 12 0 -61.6982 -46.7707
0 12 2 -3.9957 4.7175
0 12 4 -3.0212 22.1152
0 12 6 -46.9988 -14.6353
0 12 8 24.9842 14.9924
0 12 10 -25.2176 2.6918
0 12 12 67.8939 -42.8643
0 13 1 30.8101 -15.4929
0 13 3 18.0676 13.4169
0 13 5 -39.0419 -0.3156
0 13 7 -11.6895 -3.2148
0 13 9 -53.1999 11.1593
0 13 11 2.7371 -9.0054
0 13 13 -24.2440 -8.6201
0 14 0 15.1497 15.9657
0 14 2 38.5080 -0.0539
0 14 4 -0.2873 -9.3171
0 14 6 8.0770 0.2587
0 14 8 -40.4228 -4.4826
0 14 10 -9.8463 4.9111
0 14 12 -42.3012 10.9480
0 14 14 12.2837 -2.4610
0 15 1 -12.9452 28.3271
0 15 3 22.1795 -23.3642
0 15 5 20.3466 -2.1752
0 15 7 -34.8704 0.4140
0 15 9 5.0267 -14.8800
0 15 11 27.2347 22.3727
0 15 13 -28.1922 13.4857
0 15 15 20.9209 -30.3982
0 16 0 -54.1549 29.8323
0 16 2 56.0718 -4.9256
0 16 4 20.1016 -11.8017
0 16 6 9.5464 12.7392
0 16 8 25.7938 -10.8215
0 16 10 18.0643 -3.7519
0 16 12 -2.8373 23.2341
0 16 14 -7.5805 -7.1093
0 16 16 26.4835 -14.2211
0 17 1 35.7816 -2.4278
0 17 3 -1.6306 -4.0444
0 17 5 -20.4187 10.4324
0 17 7 2.4054 8.5765
0 17 9 -30.2670 -9.3756
0 17 11 -0.7440 -2.6873
0 17 13 -3.9675 2.0633
0 17 15 -14.6439 -0.8230
0 17 17 19.3050 9.7164
0 18 0 26.7533 -14.4474
0 18 2 -6.3053 -4.7819
0 18 4 -43.2317 10.8649
0 18 6 -9.8810 9.3721
0 18 8 -10.8400 3.6684
0 18 10 -10.9940 -8.4843
0 18 12 -2.4017 -13.7029
0 18 14 -7.9144 2.3748
0 18 16 -26.3817 9.8877
0 18 18 15.6826 4.1455
0 19 1 -1.4080 -6.4067
0 19 3 -2.8719 3.0398
0 19 5 -6.7249 4.7504
0 19 7 -15.8727 4.4332
0 19 9 13.1764 -0.7099
0 19 11 1.4896 -7.2031
0 19 13 -0.2961 -3.2254
0 19 15 3.5374 2.8834
0 19 17 -14.1206 3.3718
0 19 19 14.5599 0.3615
0 20 0 35.8003 10.7762
0 20 2 -7.1015 1.1415
0 20 4 50.0730 -5.0749
0 20 6 -19.5991 -2.3812
0 20 8 9.9753 -3.6356
0 20 10 -0.1652 2.4831
0 20 12 -0.6516 9.5438
0 20 14 14.8180 -1.6313
0 20 16 9.1846 -7.4274
0 20 18 -2.1533 -0.1067
0 20 20 3.1427 -0.8717
0 21 1 13.6981 13.1789
0 21 3 7.5554 -4.2105
0 21 5 25.9169 -10.0816
0 21 7 -8.1026 -8.5933
0 21 9 2.9332 0.6152
0 21 11 -7.0937 13.2091
0 21 13 -14.4709 7.7353
0 21 15 14.5553 -8.6920
0 21 17 3.4711 -8.6882
0 21 19 5.3281 -1.5821
0 21 21 0.9994 5.1639
0 22 0 -11.7158 -4.5951
0 22 2 -13.4679 4.6265
0 22 4 11.0165 -1.0682
0 22 6 -0.2815 -12.5476
0 22 8 22.6215 1.2617
0 22 10 -8.0827 8.6741
0 22 12 -0.3291 -1.4514
0 22 14 -15.0010 2.8097
0 22 16 22.0232 -1.5951
0 22 18 8.6600 -9.4570
0 22 20 -8.4655 2.9796
0 23 1 -17.2308 -18.7138
0 23 3 -26.3683 16.5931
0 23 5 13.0083 -2.8838
0 23 7 4.3154 -5.8292
0 23 9 -6.1616 16.2385
0 23 11 9.8502 -14.3792
0 23 13 17.4700 -10.8175
0 23 15 -5.1705 18.7424
0 23 17 -1.0849 -3.2508
0 23 19 -10.9335 -7.6728
0 24 0 75.7691 -34.5218
0 24 2 23.5715 2.7132
0 24 4 1.2425 15.9584
0 24 6 -7.0953 -8.3175
0 24 8 -2.7510 11.9001
0 24 10 -10.2047 -1.0836
0 24 12 28.9749 -28.1431
0 24 14 -4.5486 9.2439
0 24 16 -1.3895 19.2520
0 25 1 -1.2295 -10.1161
0 25 3 8.4468 7.3980
0 25 5 -7.5282 2.0472
0 25 7 -20.2432 1.3982
0 25 9 -5.7489 3.5232
0 25 11 -15.1843 -10.2210
0 25 13 3.4271 -6.5297
0 25 15 -4.0262 10.2644
0 26 0 -19.4681 18.8559
0 26 2 -1.7017 -2.0134
0 26 4 28.4546 -8.4684
0 26 6 10.6924 6.1102
0 26 8 23.8365 -5.4178
0 26 10 -0.7404 -1.7651
0 26 12 -9.0827 15.0010
0 26 14 0.4246 -2.8729
0 27 1 -22.3411 24.1727
0 27 3 22.6944 -19.1713
0 27 5 0.6248 -0.9191
0 27 7 5.2224 2.0719
0 27 9 28.1725 -14.3713
0 27 11 -14.9054 20.1778
0 28 0 -62.9508 26.5800
0 28 2 14.3033 -2.8718
0 28 4 7.8588 -11.8635
0 28 6 -6.8883 9.4374
0 28 8 16.0682 -9.3581
0 28 10 0.6197 -5.1436
0 29 1 -6.9916 -1.2767
0 29 3 3.9322 -3.7806
0 29 5 -8.3891 6.4271
0 29 7 -2.8275 7.1198
1 4 1 -4.2942 251.8017
1 4 3 68.7473 36.8176
1 5 2 16.7804 77.4630
1 5 4 -4.9650 -5.6957
1 6 1 71.4865 97.8460
1 6 3 8.5790 111.1216
1 6 5 -41.8611 -54.8132
1 7 2 -90.6978 -6.9856
1 7 4 17.3002 6.4513
1 7 6 25.3311 -17.7720
1 8 1 -98.5468 37.1381
1 8 3 -55.9781 -34.5616
1 8 5 34.9263 48.9157
1 8 7 91.2236 5.6104
1 9 2 -54.5504 -32.2517
1 9 6 -7.8610 29.6903
1 9 8 18.4217 -2.4469
1 10 1 -55.2329 -22.3391
1 10 3 28.1318 -40.7154
1 10 5 -5.9866 -12.9880
1 10 7 24.2768 41.6174
1 10 9 -19.9276 -1.8547
1 11 2 -46.3659 -33.1517
1 11 4 -10.8275 -38.8505
1 11 6 -12.4204 -19.7323
1 11 8 -37.4979 -33.1413
1 11 10 -46.5429 -48.2370
1 12 1 -11.7638 -18.2125
1 12 5 58.1098 13.9464
1 12 7 -40.5646 -10.8545
1 12 9 29.0580 -40.9317
1 12 11 -13.7561 69.3825
1 13 2 -18.8138 -2.0461
1 13 4 28.8834 -34.0718
1 13 6 -22.9355 17.5940
1 13 8 -25.9154 -13.1837
1 13 10 87.4858 0.4749
1 13 12 -12.9259 23.1177
1 14 1 11.6191 3.3317
1 14 3 -48.4393 7.9094
1 14 5 29.8234 -20.9351
1 14 7 -31.3630 -0.9162
1 14 9 29.8688 15.3735
1 14 11 74.1469 11.5741
1 14 13 3.7746 11.3395
1 15 2 -38.4138 -21.1737
1 15 4 17.9496 83.4441
1 15 6 36.3207 -17.3263
1 15 8 -33.2572 19.0846
1 15 12 18.1197 -65.0736
1 15 14 15.6974 2.6946
1 16 1 -14.3888 -18.7777
1 16 3 64.9220 36.2116
1 16 5 38.1310 22.8398
1 16 7 -0.6102 -6.1988
1 16 9 -36.6312 13.2554
1 16 11 10.3462 -42.9118
1 16 13 26.9209 -19.8776
1 16 15 -20.8263 14.4100
1 17 2 83.9754 92.7581
1 17 4 -4.0477 21.1266
1 17 6 -18.8785 -7.2461
1 17 8 12.8451 1.4704
1 17 10 -64.8352 -6.0726
1 17 12 12.7493 -4.1873
1 17 14 68.7962 -8.3144
1 17 16 -1.4132 30.2862
1 18 1 -4.5542 12.9353
1 18 3 5.0865 -5.6332
1 18 5 55.8745 12.1657
1 18 7 6.9165 -28.2357
1 18 9 28.3035 -16.9870
1 18 11 -14.4119 24.7894
1 18 13 3.1254 -6.7070
1 18 15 -2.6227 27.1238
1 18 17 13.0993 2.7370
1 19 2 4.3503 1.6415
1 19 4 5.6920 25.2643
1 19 6 19.7114 -15.0914
1 19 8 56.1734 -2.2472
1 19 10 22.6757 17.8502
1 19 12 2.9891 -12.0504
1 19 14 -19.2959 -7.3907
1 19 16 15.1390 10.8950
1 19 18 16.4758 -10.2348
1 20 1 1.1898 15.6712
1 20 3 -14.0376 -22.2094
1 20 5 -15.4311 30.6410
1 20 7 7.7630 5.9651
1 20 9 27.8580 21.7392
1 20 11 0.8514 1.6408
1 20 13 -21.1149 -5.9591
1 20 15 2.6414 -17.9150
1 20 17 0.6329 4.9867
1 20 19 -10.7593 -10.4504
1 21 2 26.2000 -8.6383
1 21 4 -16.1911 3.4800
1 21 6 2.1570 5.8937
1 21 8 2.2115 30.5462
1 21 10 -12.7481 -14.8473
1 21 12 9.5364 23.4384
1 21 14 -7.1166 -0.7376
1 21 16 -6.9584 18.0413
1 21 18 -0.7421 -6.6599
1 21 20 -8.3675 9.6776
1 22 3 21.2711 7.1117
1 22 5 -11.7123 -1.1245
1 22 7 24.7841 32.2621
1 22 9 7.0590 3.3444
1 22 11 4.4036 5.5394
1 22 13 17.3267 8.5170
1 22 15 11.4005 1.9829
1 22 17 -38.1598 -8.0594
1 22 19 -10.5291 0.9029
1 23 2 2.6772 11.9246
1 23 4 16.1454 -13.8151
1 23 6 20.1660 5.5139
1 23 8 5.6319 7.8667
1 23 10 -5.6809 -11.2214
1 23 12 -3.7712 19.7043
1 23 14 24.7495 8.2506
1 23 16 1.7988 -16.3614
1 23 18 -3.9981 9.0723
1 24 1 -13.9739 10.5174
1 24 3 14.7929 -37.1302
1 24 5 20.3920 0.3708
1 24 7 -8.7222 -4.3774
1 24 9 -4.1579 17.0611
1 24 11 13.9482 23.1919
1 24 13 -7.9981 19.2079
1 24 15 16.1514 -17.8976
1 24 17 -12.0326 0.2672
1 25 2 -27.0596 -14.3314
1 25 4 14.3746 -3.4257
1 25 6 5.6261 -16.0230
1 25 8 12.8788 -11.0630
1 25 10 38.8155 15.2236
1 25 12 -16.5550 8.1040
1 25 14 -29.6235 -11.6697
1 25 16 1.3217 -9.4257
1 26 1 6.4375 -1.3594
1 26 3 -9.3479 27.8006
1 26 5 30.3677 18.1301
1 26 7 2.6706 0.9429
1 26 9 18.8593 -0.3950
1 26 11 32.2659 5.5932
1 26 13 -15.7049 -1.2636
1 27 2 27.2498 -17.1121
1 27 4 -1.3199 7.8878
1 27 6 2.1896 5.9536
1 27 8 -34.9092 13.9282
1 27 10 2.3012 11.2037
1 27 12 -8.2470 -13.5978
1 28 1 55.7045 8.5307
1 28 3 11.7250 20.4039
1 28 5 9.2746 -10.2618
1 28 7 10.5221 4.8177
1 28 9 -11.8183 -5.1070
1 29 2 46.0547 32.8044
1 29 4 17.4394 10.4830
1 29 6 16.9312 -7.9909
2 3 3 -154.7591 19.1592
2 5 3 -167.7997 92.3521
2 6 2 48.2718 -105.3128
2 6 4 91.3184 -74.5360
2 6 6 -5.6494 -38.1491
2 7 7 -78.4450 98.8259
2 8 4 -0.3429 21.7520
2 8 6 37.8763 -31.9832
2 9 3 -46.0144 55.9889
2 9 7 63.6632 37.7445
2 9 9 52.9128 9.3333
2 10 2 -12.3530 -29.4357
2 10 4 16.1152 19.9897
2 10 6 -22.2047 40.6341
2 10 10 -124.6875 75.1136
2 11 3 14.9658 16.9210
2 11 5 30.9852 23.3770
2 11 7 37.6150 -35.8044
2 11 9 50.9645 -16.6334
2 11 11 72.9766 47.6884
2 12 4 -20.3686 2.7101
2 12 6 24.8395 2.0662
2 12 8 10.4273 -22.0855
2 12 10 -22.2113 42.0582
2 12 12 -21.4735 6.3864
2 13 3 41.7466 -30.0420
2 13 7 25.0985 -13.8795
2 13 9 -69.4042 7.1238
2 13 11 -7.4622 -18.9898
2 13 13 -31.6715 -8.3890
2 14 2 51.5842 22.8373
2 14 4 62.7085 38.1987
2 14 6 -4.8304 30.0395
2 14 8 33.5295 -4.7960
2 14 10 -74.6325 -21.6143
2 14 12 21.1072 -19.9071
2 14 14 17.2135 36.4786
2 15 3 19.6642 -13.8682
2 15 5 -16.8960 11.2145
2 15 7 -4.1990 -10.6877
2 15 9 9.0416 1.3205
2 15 11 -31.3379 10.9055
2 15 13 19.0196 -9.3356
2 15 15 41.7417 -26.3882
2 16 2 16.3116 -46.3014
2 16 4 -16.2083 -11.3280
2 16 6 -0.8229 -14.5109
2 16 8 -12.4427 6.2238
2 16 10 63.1236 -11.0618
2 16 12 7.2023 -2.0002
2 16 14 40.9278 18.4528
2 16 16 41.3795 -1.3860
2 17 3 -16.2920 13.8871
2 17 5 8.8228 -2.0494
2 17 7 7.4040 -17.0597
2 17 9 12.4637 -4.0158
2 17 11 -0.1650 2.8381
2 17 13 -14.6817 -13.7064
2 17 15 16.1943 -31.9533
2 17 17 -1.5760 -15.1651
2 18 2 6.8106 1.1835
2 18 4 -24.7957 3.6537
2 18 6 19.6159 -5.4507
2 18 8 -12.6980 3.6509
2 18 10 16.8980 -14.9787
2 18 12 15.6839 3.1667
2 18 14 20.9006 -0.1470
2 18 16 9.5165 -17.0473
2 18 18 2.6186 -1.3482
2 19 3 -10.2049 -9.6391
2 19 5 -29.8693 16.4589
2 19 7 13.0202 4.6215
2 19 9 22.2779 2.3519
2 19 11 -7.5663 -9.5349
2 19 13 0.5837 6.2214
2 19 15 -21.9033 -14.4119
2 19 17 -13.6586 -4.9243
2 19 19 0.2553 -18.4242
2 20 2 24.9068 -7.9893
2 20 4 41.5202 -7.0530
2 20 6 15.9557 18.2124
2 20 8 9.2322 -8.6023
2 20 10 -18.3936 -24.8613
2 20 12 0.4481 9.2796
2 20 14 1.0289 0.1467
2 20 16 -18.8051 -13.0968
2 20 18 11.8153 24.0349
2 20 20 -11.1814 -6.6689
2 21 3 -3.5113 11.2034
2 21 5 -5.3107 8.9952
2 21 7 -1.7723 -3.4348
2 21 9 -13.5308 13.7978
2 21 11 12.8720 8.1685
2 21 13 17.6512 -7.5479
2 21 15 -7.0902 -2.1786
2 21 17 2.9459 8.4497
2 21 19 -4.8721 0.8253
2 21 21 15.1873 -7.0030
2 22 2 -59.9554 -15.6019
2 22 4 -17.6295 -26.0838
2 22 6 32.2052 12.2835
2 22 8 15.7233 -19.9187
2 22 10 -11.4954 -3.9352
2 22 12 3.6708 -11.4163
2 22 14 -5.5551 -9.2691
2 22 16 10.9145 1.9173
2 22 18 -10.2596 -5.0208
2 22 20 -15.5472 0.6582
2 23 3 -13.2161 -1.2952
2 23 5 -23.2256 17.6427
2 23 7 1.8204 -12.1957
2 23 9 -2.0606 -1.6260
2 23 11 10.8158 12.0306
2 23 13 30.0823 -1.4558
2 23 15 4.5622 -2.6077
2 23 17 -3.5597 -5.4778
2 24 2 15.4682 1.7692
2 24 4 29.4084 17.2096
2 24 6 20.5979 -5.4629
2 24 8 13.7224 -2.8159
2 24 10 -5.3746 4.6823
2 24 12 2.5969 -14.5728
2 24 14 4.1683 14.0661
2 24 16 2.0759 7.9563
2 25 3 19.3109 6.9749
2 25 5 14.0947 -2.6623
2 25 7 -12.0190 -4.2126
2 25 9 5.6301 -7.3866
2 25 11 8.9486 -0.7788
2 25 13 -6.9234 13.2081
2 25 15 0.2048 5.8375
2 26 2 19.1384 2.2188
2 26 4 16.8526 -10.2780
2 26 6 9.7233 -3.0340
2 26 8 12.9613 7.3541
2 26 10 -6.5026 5.6500
2 26 12 1.1464 2.0545
2 26 14 -0.1961 1.2792
2 27 3 25.0241 -1.1028
2 27 5 31.5344 -21.0194
2 27 7 2.8365 -0.2854
2 27 9 -10.3857 -0.2352
2 27 11 -6.4998 -7.1248
2 28 2 -14.6433 -7.8222
2 28 4 -6.6442 5.8210
2 28 6 -3.7965 11.8825
2 28 8 10.9408 -6.3333
2 28 10 9.5438 -8.3013
2 29 3 10.6356 -1.6011
2 29 5 -14.9286 -1.6551
3 4 3 42.1055 55.1947
3 6 3 -16.0071 -86.9809
3 6 5 14.4505 61.4232
3 7 6 0.9615 4.1290
3 8 3 37.6277 -23.3656
3 9 4 19.4639 -16.2784
3 9 6 -24.8715 -40.6458
3 9 8 7.5468 3.4370
3 10 3 -16.8617 16.0081
3 10 5 7.8019 -1.5036
3 10 9 22.8886 -0.5922
3 11 4 2.5915 8.3154
3 11 6 -0.2697 9.7306
3 11 8 9.2780 -32.0411
3 11 10 -19.2045 7.0560
3 12 3 -15.3293 29.7197
3 12 5 -2.0587 2.5627
3 12 7 -34.1817 10.7796
3 12 9 10.8278 -6.8347
3 12 11 -25.0413 8.5439
3 13 4 12.7918 -28.3265
3 13 6 30.3878 35.2473
3 13 8 -60.9345 19.2194
3 13 10 18.6922 9.6624
3 13 12 13.8254 41.5887
3 14 3 10.3409 -11.7481
3 14 7 -26.6752 -8.5139
3 14 9 -0.8518 2.3962
3 14 11 19.9555 12.4970
3 14 13 -1.9787 19.0801
3 15 4 -2.3746 7.7026
3 15 6 28.0249 -16.6336
3 15 8 -13.8710 -15.9262
3 15 10 5.0039 -16.4261
3 15 12 -12.4023 -17.6034
3 15 14 16.6926 6.6104
3 16 3 -6.4455 -22.9087
3 16 5 14.7399 -24.1194
3 16 7 27.9007 -31.3701
3 16 9 -14.1339 23.4205
3 16 11 14.0352 -38.3081
3 16 13 15.4480 -10.2903
3 16 15 -30.0259 4.0555
3 17 4 28.7036 16.3221
3 17 6 -2.1218 -36.5402
3 17 8 -16.5650 25.1432
3 17 10 -9.2864 7.9983
3 17 12 -21.2347 13.7436
3 17 14 -6.5211 2.2833
3 17 16 -22.7067 -14.4266
3 18 3 41.3950 -64.4282
3 18 5 -13.5966 66.9317
3 18 7 -2.1654 -76.1894
3 18 9 -5.6895 7.0044
3 18 11 2.1225 14.6633
3 18 13 -6.7664 29.3777
3 18 15 -6.7567 -12.8596
3 19 4 22.0176 -8.9139
3 19 6 11.5582 -3.4439
3 19 8 -30.1507 17.5661
3 19 10 17.1307 -5.9386
3 19 12 -1.2449 -22.3999
3 19 14 -29.8225 -35.3150
3 19 16 29.4335 8.1474
3 19 18 13.4538 -24.5101
3 20 3 -21.8829 16.2813
3 20 5 12.9999 -4.7086
3 20 7 7.8157 8.6850
3 20 9 13.2478 13.1506
3 20 11 -15.4693 -6.3297
3 20 13 -1.6039 -18.8278
3 20 15 3.1506 -23.3189
3 20 17 22.6346 3.6224
3 20 19 3.0009 5.5587
3 21 4 -12.4798 -1.5358
3 21 6 -20.2072 6.1995
3 21 8 15.5513 35.3028
3 21 10 10.7284 -23.8200
3 21 12 9.9979 -25.0840
3 21 14 0.6002 5.7356
3 21 16 -10.9770 12.0965
3 21 18 -2.0293 -14.4960
3 21 20 -8.8826 -20.5725
3 22 3 25.2973 -8.9640
3 22 7 -9.9879 -8.9352
3 22 9 4.4154 13.6693
3 22 11 -2.5214 9.4754
3 22 13 12.7589 0.0017
3 22 15 -2.4482 3.0676
3 22 17 9.2284 11.2041
3 22 19 16.8816 -4.7380
3 23 4 -10.2177 -5.7749
3 23 6 -2.5280 3.8960
3 23 8 25.3558 7.2396
3 23 10 -10.3395 -3.5546
3 23 12 -3.5273 16.4543
3 23 14 -9.7494 -16.1376
3 23 16 -6.6689 -2.3636
3 23 18 -6.8750 -4.9496
3 24 5 2.7906 -10.4362
3 24 7 -5.9149 2.5361
3 24 9 -0.6413 -10.7886
3 24 11 -5.5134 27.3222
3 24 13 9.9189 -1.0848
3 24 15 5.2284 -12.0116
3 24 17 -9.3072 -8.8294
3 25 4 -23.8843 -3.4940
3 25 6 -7.8919 -22.3841
3 25 8 -6.1196 -4.0219
3 25 10 6.7048 -8.7291
3 25 12 -10.9360 10.5928
3 25 14 -2.3863 2.9792
3 25 16 -2.7804 3.2920
3 26 3 -6.6485 25.4111
3 26 5 23.5463 -0.0493
3 26 7 -6.1649 2.0851
3 26 9 -6.7568 -4.2917
3 26 11 -8.6605 -5.4541
3 26 13 2.6267 4.7397
3 27 4 -2.7061 8.0934
3 27 6 -8.6104 -17.7206
3 27 8 -9.1679 -4.3237
3 27 10 12.9943 -21.2647
3 27 12 0.3757 -17.9581
3 28 3 -4.1836 8.6639
3 28 5 18.6227 1.5924
3 28 7 11.1341 2.0204
3 28 9 -2.0166 13.8491
3 29 4 1.6440 1.5939
3 29 6 10.1117 -12.3893
4 6 4 -99.5040 -43.1876
4 6 6 1.2779 -33.1924
4 7 7 -31.4019 7.8736
4 8 4 -57.1663 -5.0041
4 8 6 34.8275 -52.1394
4 9 5 8.8770 -0.3898
4 9 7 -50.6730 22.1605
4 9 9 20.5418 -10.3364
4 10 4 -35.5094 28.4165
4 10 6 -62.3086 30.2606
4 10 10 14.4587 -10.5957
4 11 5 6.4666 28.9545
4 11 7 -41.5257 -32.2916
4 11 9 -9.8965 15.9189
4 12 4 38.9921 -26.4269
4 12 6 -41.7656 1.3254
4 12 8 -2.9478 -10.4648
4 12 10 -19.6917 4.2019
4 12 12 24.3555 -35.4012
4 13 5 -49.4300 32.8430
4 13 7 -35.0105 -25.0366
4 13 9 12.6257 -34.0453
4 13 11 -18.1404 13.0400
4 13 13 60.7520 -4.6176
4 14 6 49.5002 21.7539
4 14 8 16.2519 17.9441
4 14 10 -4.1123 14.7134
4 14 12 14.9645 0.3090
4 14 14 11.6452 -1.5152
4 15 5 -63.7509 -17.6850
4 15 7 11.4965 -18.3153
4 15 9 -1.2988 12.3360
4 15 11 -3.9442 27.9105
4 15 13 18.5390 11.6656
4 15 15 34.0707 -42.2508
4 16 4 -2.2940 36.6931
4 16 6 10.6862 -0.6980
4 16 8 -14.8785 1.9044
4 16 10 -7.3510 -17.4932
4 16 12 22.5671 -30.3498
4 16 14 -18.2471 50.1927
4 16 16 24.2140 31.5753
4 17 5 29.6965 -2.7046
4 17 7 -4.4699 13.8348
4 17 9 31.7225 15.0908
4 17 11 2.1841 10.6303
4 17 13 10.9799 -5.0963
4 17 15 -5.6331 -15.7026
4 17 17 -9.9180 -0.0473
4 18 4 -11.6847 -16.2616
4 18 6 -7.2664 -35.8154
4 18 8 5.4001 20.5966
4 18 10 8.3853 -4.6020
4 18 12 -7.0528 -18.1671
4 18 14 -1.1315 -21.5012
4 18 16 7.4770 -15.1371
4 18 18 11.2970 2.2493
4 19 5 10.1201 -0.3644
4 19 7 -8.5539 11.5589
4 19 9 -10.8145 8.5656
4 19 11 -14.1018 -13.8025
4 19 13 -5.8106 15.8214
4 19 15 -0.2911 -6.0215
4 19 17 7.4092 -0.5272
4 19 19 -0.9610 5.8340
4 20 4 -28.5052 -1.7300
4 20 6 22.7281 6.6508
4 20 8 3.8320 6.1316
4 20 10 15.3363 10.3634
4 20 12 -15.3531 11.6146
4 20 14 -10.9879 -4.1622
4 20 16 8.9151 -7.9284
4 20 18 13.7446 -2.6362
4 20 20 13.3624 7.3214
4 21 5 -11.5772 19.6198
4 21 7 1.7099 22.2725
4 21 9 2.1781 -2.1486
4 21 11 -21.2428 -11.6595
4 21 13 -10.0608 -3.3790
4 21 15 -7.2517 3.6483
4 21 17 6.7987 17.6448
4 21 19 8.8423 5.8936
4 22 4 -34.1042 4.1726
4 22 6 -31.3697 -2.0587
4 22 8 -15.1663 -16.9820
4 22 10 13.3015 15.7408
4 22 12 17.5039 -0.6196
4 22 14 -4.6045 -2.8111
4 22 16 -5.9650 -4.2570
4 22 18 -7.4553 -0.0607
4 23 5 -4.2775 14.0889
4 23 7 29.4381 18.6467
4 23 9 9.0449 -7.3551
4 23 11 -5.6154 12.6832
4 23 13 -9.1997 7.0882
4 23 15 -13.0577 -9.4665
4 23 17 -1.2399 0.6053
4 24 4 -3.8604 0.8479
4 24 6 20.2188 39.4152
4 24 8 2.9257 -4.1234
4 24 10 -1.6147 5.4691
4 24 12 13.6438 -2.2432
4 24 14 1.5474 -9.9156
4 24 16 -5.8901 10.4002
4 25 5 4.1693 5.1646
4 25 7 3.9993 11.9282
4 25 9 -14.9372 -15.3537
4 25 11 15.9251 18.6553
4 25 13 -27.1925 -0.1349
4 25 15 -15.8929 -6.8137
4 26 4 15.9355 -7.3459
4 26 6 11.5597 -4.8775
4 26 8 12.3974 1.5604
4 26 10 5.4675 7.6634
4 26 12 18.0026 6.6387
4 26 14 6.5904 -0.0204
4 27 5 14.7276 7.3562
4 27 7 8.0219 15.1641
4 27 9 0.8980 10.6258
4 27 11 1.9062 1.1501
4 28 4 3.3547 15.7410
4 28 6 -11.9877 -16.5854
4 28 8 0.4600 -9.0848
4 29 5 -4.2553 12.3297
5 8 5 -33.3633 60.9864
5 9 6 4.0690 67.7283
5 9 8 -50.1688 -4.0410
5 10 5 46.4248 -35.0405
5 10 9 1.3027 -22.3175
5 11 6 22.9525 -42.9678
5 11 10 -3.4741 -16.1010
5 12 5 82.0831 -86.9355
5 12 7 -10.4797 26.8539
5 12 9 -14.4568 -2.1768
5 12 11 6.2127 13.5124
5 13 6 31.8076 -15.1237
5 13 8 -14.5874 24.7653
5 13 10 31.2631 -17.6949
5 13 12 -9.0229 7.2692
5 14 9 -13.6042 25.3887
5 14 11 -28.5825 -33.4264
5 14 13 30.9133 15.4188
5 15 6 -2.4469 -0.0922
5 15 8 2.1086 -23.0128
5 15 10 0.5697 -19.9535
5 15 12 -6.3002 -14.9988
5 15 14 0.3477 11.5283
5 16 5 -26.7331 53.7164
5 16 7 65.8015 8.2628
5 16 9 -17.9973 -6.3984
5 16 11 21.7906 4.9989
5 16 13 -5.3809 9.0581
5 16 15 13.1140 -2.7751
5 17 6 -14.7469 12.1028
5 17 8 -19.1919 -19.4223
5 17 10 -5.8419 4.4020
5 17 12 -5.7161 5.7230
5 17 14 10.9471 -2.1722
5 17 16 8.3603 -6.1079
5 18 5 -48.7496 62.4909
5 18 7 -11.2620 -13.9419
5 18 9 13.9897 1.5813
5 18 11 -12.4992 4.8229
5 18 13 22.6026 17.9909
5 18 15 10.7584 -7.5948
5 18 17 12.2134 -14.6410
5 19 6 8.1408 -1.2612
5 19 8 -34.4542 -10.2826
5 19 10 8.0296 7.1125
5 19 12 4.0909 -14.3862
5 19 14 -19.8077 3.7145
5 19 16 12.1938 1.8062
5 19 18 -0.1237 16.3774
5 20 5 -20.5534 3.4700
5 20 7 -25.3300 -14.3360
5 20 9 -8.9646 27.4532
5 20 11 -10.0023 -26.7145
5 20 13 -1.3745 16.9216
5 20 15 -2.8668 -15.7167
5 20 17 -19.0911 -6.9796
5 20 19 -13.7427 0.0546
5 21 6 -2.8573 19.2762
5 21 8 -13.8532 14.0023
5 21 10 19.1793 -1.4530
5 21 12 9.7792 -2.2846
5 21 14 9.8642 13.3228
5 21 16 -5.2102 20.5214
5 21 18 -3.6864 -3.0234
5 21 20 -4.3719 5.1331
5 22 5 20.6309 -38.9391
5 22 7 -25.4049 6.1111
5 22 11 0.8956 -10.7892
5 22 13 -20.1962 5.1322
5 22 15 -2.2161 -0.7285
5 22 17 7.1043 -4.3733
5 22 19 16.1131 -3.2885
5 23 6 -1.4574 -14.0046
5 23 8 -0.8812 25.2886
5 23 10 -14.6868 14.6206
5 23 12 0.8861 7.7547
5 23 14 -7.6780 -16.3443
5 23 16 -1.6673 -7.9983
5 23 18 -0.9037 2.4350
5 24 5 14.3606 6.3087
5 24 7 2.3041 20.2438
5 24 9 27.6404 -16.9208
5 24 11 8.8284 -7.6342
5 24 13 6.9322 -1.4836
5 24 15 6.7647 -3.3822
5 24 17 -2.9666 8.6230
5 25 6 -8.8460 -5.2207
5 25 8 1.2160 0.7354
5 25 10 -7.6970 8.0890
5 25 12 5.9583 14.5759
5 25 14 9.1821 -7.4762
5 26 5 -24.2809 28.0071
5 26 7 -9.5758 -11.7012
5 26 9 3.1686 -4.3015
5 26 11 -12.9028 -19.2969
5 26 13 14.5788 -1.8067
5 27 6 3.5464 -6.4527
5 27 8 6.4585 -7.5453
5 27 10 -3.9358 2.2158
5 28 5 18.6352 -19.3574
5 28 7 18.5882 -4.4203
5 28 9 12.0667 1.1905
6 6 6 -96.1150 -102.3119
6 8 8 -81.0057 36.9092
6 10 8 24.9513 50.4040
6 10 10 26.0150 -15.9012
6 11 7 22.7655 4.8230
6 11 9 -17.6486 56.3973
6 12 8 53.4427 17.0801
6 12 10 2.4223 -11.6615
6 12 12 -21.5130 -8.5153
6 13 7 30.5387 -1.2401
6 13 9 5.6518 24.0172
6 13 11 -14.4429 24.7736
6 13 13 -3.5552 31.8523
6 14 8 11.4516 2.9977
6 14 10 -4.0799 16.7896
6 14 12 -13.6860 8.3161
6 14 14 0.4759 23.0094
6 15 7 -39.3432 23.0892
6 15 9 35.2924 -16.9077
6 15 11 -12.5250 -15.9266
6 15 13 -8.5703 15.1272
6 15 15 6.2333 10.0470
6 16 6 15.0515 1.3996
6 16 8 -4.6001 -19.7447
6 16 10 9.5218 3.8680
6 16 12 -1.8052 -6.8832
6 16 14 8.2544 -2.4071
6 16 16 -2.4192 21.4794
6 17 7 3.4729 22.6271
6 17 9 20.5078 17.9498
6 17 11 10.7271 -3.0096
6 17 13 -0.3968 4.8058
6 17 15 -3.8599 3.3522
6 17 17 -24.7098 13.4149
6 18 6 2.4416 -4.7409
6 18 8 1.3158 7.8774
6 18 10 5.8398 3.6757
6 18 12 1.6987 -2.0930
6 18 14 3.9620 -14.1888
6 18 16 4.0662 -7.7489
6 18 18 -1.3067 17.7846
6 19 7 -8.7615 17.7217
6 19 9 -15.6820 -11.9278
6 19 11 13.3825 3.8376
6 19 13 5.1738 -16.0932
6 19 15 12.8435 -5.4119
6 19 17 6.7361 5.7555
6 19 19 -2.5773 5.5468
6 20 6 33.1121 9.3417
6 20 8 -13.6576 10.9573
6 20 10 16.0082 31.0534
6 20 12 -8.9203 5.4370
6 20 14 -0.9015 -9.5092
6 20 16 13.2802 -3.1697
6 20 18 0.0531 -1.8338
6 20 20 9.2036 -17.7019
6 21 7 -2.1966 -2.7326
6 21 9 10.1238 -9.4822
6 21 11 -3.2895 -24.7800
6 21 13 -6.8389 -2.1860
6 21 15 4.9314 -0.9088
6 21 17 8.6443 6.8805
6 21 19 -17.3148 9.2677
6 22 6 -9.0856 -3.0098
6 22 8 5.8506 -2.1549
6 22 10 18.9306 -4.3004
6 22 12 -9.3069 13.2201
6 22 14 16.7796 -3.4203
6 22 16 -1.8340 13.8673
6 22 18 4.3548 -7.9356
6 23 7 -0.8153 -6.1289
6 23 9 -18.7603 -9.2673
6 23 11 3.2474 -2.1187
6 23 13 -3.5591 -5.2610
6 23 15 1.0445 4.3805
6 23 17 -7.4954 4.2368
6 24 6 -18.5827 9.3457
6 24 8 -5.3930 -16.3084
6 24 10 -3.7733 2.5655
6 24 12 -0.6637 -12.1654
6 24 14 6.7369 4.0029
6 24 16 -11.6651 -3.5231
6 25 7 0.6426 1.5243
6 25 9 -10.7721 -10.3878
6 25 11 12.0406 5.9166
6 25 13 4.3301 3.6195
6 25 15 -9.6004 12.2089
6 26 6 -7.7649 -36.5905
6 26 8 12.3442 -13.2714
6 26 10 -10.7124 9.7780
6 26 12 3.5027 -4.2374
6 27 7 7.5559 27.6639
6 27 9 -9.0054 9.1076
6 27 11 4.6812 -4.2585
6 28 6 -5.3205 -5.3251
6 28 8 0.0316 -1.4541
7 8 7 43.1304 -27.8997
7 11 8 -50.6271 -42.3808
7 11 10 1.2886 -11.6364
7 12 7 -33.5898 -32.3039
7 12 9 8.0479 -18.3673
7 12 11 -1.8524 -27.5817
7 13 8 -39.6091 -21.9663
7 13 10 -39.7283 -13.3411
7 13 12 28.0861 -6.3753
7 14 7 -7.9085 -15.7412
7 14 9 -19.7413 -5.8884
7 14 11 -9.9320 17.6974
7 14 13 19.7690 6.4796
7 15 8 -28.0867 15.5951
7 15 10 10.5203 8.7677
7 15 12 8.6692 9.8768
7 15 14 17.6913 0.0900
7 16 7 4.2407 -13.4452
7 16 9 -10.8225 39.9966
7 16 11 -24.6213 1.9076
7 16 13 12.6931 21.1027
7 16 15 -22.9491 -11.3958
7 17 8 -16.3014 -9.8477
7 17 10 11.9953 15.9406
7 17 12 -13.2961 34.7928
7 17 14 -5.1374 26.2165
7 17 16 15.0823 -7.8581
7 18 7 2.1504 55.2324
7 18 9 -20.4692 0.8724
7 18 11 7.7027 7.3579
7 18 13 -16.8042 8.4303
7 18 15 21.6393 -24.3803
7 18 17 17.0668 1.5523
7 19 8 21.0988 -10.3999
7 19 10 29.6343 -4.5933
7 19 12 20.6023 -5.7622
7 19 14 -30.4518 -12.0714
7 19 16 -26.7298 -7.3719
7 19 18 5.4733 0.7194
7 20 7 4.7789 13.4930
7 20 9 12.8511 4.6919
7 20 11 -21.9591 -8.6445
7 20 13 14.7151 12.1999
7 20 15 -12.2840 15.7964
7 20 17 -18.6037 0.1019
7 20 19 1.4314 12.1248
7 21 8 -12.4050 8.7230
7 21 10 -3.7614 10.5201
7 21 12 9.9970 -17.5579
7 21 14 -2.0189 -17.9444
7 21 16 4.7451 -0.1352
7 21 18 1.9555 -11.5843
7 21 20 2.2177 11.4690
7 22 7 -33.0560 3.5618
7 22 9 -6.3027 -0.0006
7 22 11 7.5748 -18.5586
7 22 13 -32.1820 6.6517
7 22 15 -6.9194 14.2671
7 22 17 -1.5712 -0.5770
7 23 8 18.3292 -6.9578
7 23 10 24.0825 -4.7790
7 23 12 -0.8929 -7.4578
7 23 14 3.2747 -12.7214
7 23 16 3.8322 -6.7949
7 24 7 -38.3573 17.0275
7 24 9 -2.0764 0.0280
7 24 11 -1.5597 -17.1621
7 24 13 -29.3776 -1.4117
7 24 15 1.1094 -1.0814
7 25 8 33.8666 8.7330
7 25 10 1.5397 -4.0778
7 25 12 4.3752 -7.2115
7 25 14 -2.7338 3.3386
7 26 7 -9.7530 4.1757
7 26 9 2.8498 7.2092
7 26 11 13.0102 -2.3794
7 27 8 4.8464 4.1113
7 27 10 3.0467 -4.2376
7 28 7 -8.1313 -1.9163
8 9 9 57.4298 61.2811
8 10 8 -21.3523 -40.5754
8 10 10 -0.2026 -117.6747
8 11 9 10.7650 10.8526
8 11 11 -20.1866 40.0314
8 12 8 23.3174 24.4169
8 12 10 34.9897 -3.0117
8 12 12 19.3338 -15.0135
8 13 9 0.4179 -9.1901
8 13 11 -16.4620 17.6419
8 13 13 -28.0702 4.6898
8 14 10 18.1170 -2.1055
8 14 12 34.3534 -22.3979
8 14 14 11.1568 -16.8818
8 15 9 19.1283 -35.4946
8 15 11 -25.2056 -46.8926
8 15 13 -43.3401 0.4216
8 15 15 8.6986 6.2981
8 16 8 21.0676 -3.4477
8 16 10 -8.2506 3.9868
8 16 12 12.7284 -2.2519
8 16 14 11.6324 6.5653
8 16 16 -30.8452 21.5185
8 17 9 -5.6463 0.6015
8 17 11 8.5942 3.1027
8 17 13 -3.0961 -12.4085
8 17 15 -3.2518 17.4696
8 17 17 8.1240 26.0277
8 18 8 -2.6897 7.7688
8 18 10 15.7544 17.7940
8 18 12 4.6080 -4.4392
8 18 14 27.6836 0.8521
8 18 16 16.3543 -10.1209
8 18 18 -11.1310 21.4160
8 19 9 -3.3654 12.3279
8 19 11 0.5995 -5.6725
8 19 13 -16.7044 -2.4745
8 19 15 17.0090 9.6309
8 19 17 -2.4457 2.7813
8 19 19 2.1192 -5.1738
8 20 8 17.6855 8.8410
8 20 10 0.0179 3.0663
8 20 12 8.7190 22.5215
8 20 14 1.3174 -5.6640
8 20 16 -4.4042 6.8525
8 20 18 -10.1086 5.1672
8 20 20 -0.3720 2.5567
8 21 9 -17.1706 11.0707
8 21 11 3.3967 5.2953
8 21 13 -5.4450 -8.2639
8 21 15 5.5564 -5.6704
8 21 17 -0.7515 0.2876
8 21 19 3.1257 -2.1187
8 22 10 23.7791 -6.5045
8 22 12 -9.4987 0.1158
8 22 14 2.7232 0.5537
8 22 16 -4.4080 -2.9681
8 22 18 1.7137 15.6862
8 23 9 -4.1801 -9.7569
8 23 11 -0.8302 -2.1011
8 23 13 14.5977 9.2718
8 23 15 -17.4765 -6.4778
8 23 17 -4.0023 -5.2994
8 24 8 -5.2387 -3.1288
8 24 10 4.3145 10.4466
8 24 12 6.6592 -6.3037
8 24 14 8.8562 12.9495
8 25 9 1.3252 -1.0527
8 25 11 -2.9508 -1.3661
8 25 13 10.1204 8.1458
8 26 8 6.8349 4.3848
8 26 10 -4.3994 -3.6579
8 26 12 -0.3160 -11.2759
8 27 9 -11.5737 3.6735
9 10 9 7.8819 50.2911
9 11 10 8.1311 15.3635
9 12 9 10.6660 0.7470
9 12 11 0.2257 0.5597
9 13 10 -33.1237 1.7369
9 13 12 14.2081 23.0837
9 14 9 -37.9201 15.4509
9 14 11 -31.6639 30.2755
9 14 13 16.7986 4.1645
9 15 10 9.3790 2.0889
9 15 12 23.8375 -24.4752
9 15 14 32.7602 6.6666
9 16 9 -2.3649 6.6541
9 16 11 30.8394 18.8755
9 16 13 -17.1173 5.8437
9 16 15 18.4637 -8.2789
9 17 10 -20.1237 8.0368
9 17 12 -15.5944 2.9488
9 17 14 8.0359 -12.4218
9 17 16 7.9068 1.5186
9 18 9 -4.9318 -16.3873
9 18 11 -2.2316 -5.5526
9 18 13 15.2564 9.8195
9 18 15 -3.4017 21.6223
9 18 17 8.7288 15.4291
9 19 10 14.2348 18.1521
9 19 12 -16.7459 -10.4624
9 19 14 10.0063 -11.0846
9 19 16 -20.3676 3.6990
9 19 18 -4.2685 7.5792
9 20 9 -8.7466 -3.3709
9 20 11 4.7272 -5.2433
9 20 13 7.9849 -6.8496
9 20 15 5.0571 4.9654
9 20 17 -10.3478 3.7383
9 20 19 -9.5406 -2.4085
9 21 10 9.8207 15.7134
9 21 12 4.4983 21.7849
9 21 14 7.0135 8.5918
9 21 16 -9.6186 3.7194
9 21 18 -8.0642 -4.6959
9 22 9 -0.7111 4.6696
9 22 11 7.8515 -10.3671
9 22 13 1.3968 -23.4892
9 22 15 -7.3246 7.8778
9 22 17 1.1974 -11.3026
9 23 10 13.7913 -3.5240
9 23 12 0.5435 21.4769
9 23 14 9.9634 3.8711
9 23 16 -4.7636 7.2980
9 24 9 -29.0623 12.3886
9 24 11 -12.0134 1.3301
9 24 13 -8.4182 5.5110
9 24 15 -7.8577 -4.0088
9 25 10 -5.9624 -5.4349
9 25 12 2.4865 -0.5552
9 26 9 10.5732 -13.3686
9 26 11 13.3070 -1.9706
10 10 10 -104.4734 -63.8101
10 11 11 -4.3564 6.3640
10 12 10 2.5977 -4.6209
10 12 12 21.7412 -27.2532
10 13 11 -42.4904 -21.9616
10 13 13 -13.2815 -18.3027
10 14 10 -33.3219 13.2853
10 14 12 -8.8749 1.4327
10 14 14 0.2278 -4.2316
10 15 11 24.6793 3.5973
10 15 13 48.9028 -5.0304
10 15 15 -8.8517 -9.6258
10 16 10 5.3949 1.1772
10 16 12 1.9360 1.9834
10 16 14 -17.0958 -13.0025
10 16 16 -13.2560 -20.6408
10 17 11 -25.6799 7.7449
10 17 13 -14.7351 2.4811
10 17 15 -5.4598 -21.3069
10 17 17 -7.0039 14.4426
10 18 10 10.5452 21.1746
10 18 12 3.9493 -6.8870
10 18 14 9.1617 -5.2435
10 18 16 6.9285 4.1157
10 18 18 -1.7434 -5.4735
10 19 11 26.1557 -13.0501
10 19 13 -4.2262 7.2132
10 19 15 -8.5992 -22.1163
10 19 17 -2.8295 -0.8771
10 19 19 21.2725 -6.3832
10 20 10 -0.3725 -9.1438
10 20 12 0.9653 16.3090
10 20 14 -0.7053 -7.4216
10 20 16 -12.2632 -3.7003
10 20 18 -10.0165 -1.4703
10 21 11 14.3124 9.3305
10 21 13 -6.8385 12.2532
10 21 15 -6.2595 19.5295
10 21 17 6.9310 -6.8665
10 22 10 11.8896 -9.5984
10 22 12 1.0230 -2.1844
10 22 14 -14.8221 -6.2209
10 22 16 -1.0430 -3.9624
10 23 11 9.0973 -19.5232
10 23 13 6.6323 -4.0453
10 23 15 -1.6499 -1.5608
10 24 10 0.9223 -4.9312
10 24 12 20.8201 -2.3990
10 24 14 10.4962 2.8517
10 25 11 8.0384 3.0566
10 26 10 -5.8957 -5.7784
11 12 11 13.6983 -24.4865
11 13 12 10.4471 20.5723
11 14 11 4.7755 -53.8309
11 14 13 -18.4537 -5.5996
11 15 12 -3.6547 15.8148
11 15 14 -17.3323 1.7757
11 16 11 -3.5044 -1.7089
11 16 13 8.2813 -3.6092
11 16 15 9.1429 7.5686
11 17 12 -11.2105 -13.5626
11 17 14 -11.9653 -1.3489
11 17 16 -12.5374 10.2753
11 18 11 13.3088 -4.1154
11 18 13 -8.1200 -15.1592
11 18 15 -5.1541 9.1749
11 18 17 -2.0610 -1.5264
11 19 12 4.2410 -5.7296
11 19 14 -14.6170 7.6673
11 19 16 -24.7783 5.5262
11 19 18 -3.0942 -6.7807
11 20 11 -26.6616 -4.2339
11 20 13 2.4830 -9.6741
11 20 15 -3.8321 -1.8105
11 20 17 3.6607 -11.4752
11 20 19 12.3397 11.0287
11 21 12 -5.0090 -0.8360
11 21 14 5.2907 -8.6495
11 21 16 8.4654 -14.5594
11 21 18 0.9409 0.0019
11 22 11 7.2998 -1.9283
11 22 13 10.8164 -8.7400
11 22 15 -10.2977 -14.4618
11 23 12 7.1119 10.0854
11 23 14 -3.8590 12.7676
11 24 11 -5.8973 7.3915
11 24 13 2.6344 8.4204
11 25 12 -10.8750 6.6260
12 12 12 19.7970 -10.5049
12 13 13 19.9437 -40.8668
12 14 12 -10.1546 10.4156
12 14 14 20.0404 -0.0046
12 15 13 20.1373 9.4974
12 15 15 8.1275 -23.8004
12 16 12 -1.7349 -32.7271
12 16 14 -8.5171 -26.4195
12 16 16 5.7664 -28.2268
12 17 13 7.8412 -2.4835
12 17 15 4.5365 -25.0490
12 17 17 -16.3277 2.6230
12 18 12 -6.9707 23.4075
12 18 14 -9.8035 -4.1353
12 18 16 3.7247 -9.5367
12 18 18 5.4604 7.4690
12 19 13 -5.2104 -20.1396
12 19 15 -11.4955 -11.5324
12 19 17 16.0272 5.4852
12 19 19 9.2650 7.0874
12 20 12 5.4471 14.7330
12 20 14 18.7338 -4.9472
12 20 16 3.6240 7.3444
12 20 18 -3.5420 0.5062
12 21 13 -11.6816 27.2345
12 21 15 -8.8310 14.9325
12 21 17 -1.3456 -2.9743
12 22 12 -7.5080 -5.3866
12 22 14 -8.3756 -4.8296
12 22 16 -4.8899 7.7947
12 23 13 4.8291 -3.4062
12 24 12 17.8144 11.3291
13 14 13 -29.6399 1.0738
13 15 14 -44.5953 6.4420
13 16 13 26.9605 1.6512
13 16 15 14.8774 -0.1408
13 17 14 -25.3246 -7.4783
13 17 16 3.7248 -1.1647
13 18 13 -9.1563 2.2294
13 18 15 -7.6996 2.0983
13 18 17 -7.2535 -7.4375
13 19 14 -4.2714 -7.7440
13 19 16 -1.2382 -7.5202
13 19 18 6.1251 -0.0636
13 20 13 12.1702 -13.7123
13 20 15 8.6588 -12.3824
13 20 17 -4.0765 2.7424
13 21 14 -6.2419 0.7106
13 21 16 1.8103 -8.2071
13 22 13 4.7989 5.8531
13 22 15 4.8520 2.7037
14 14 14 -6.4608 9.7538
14 15 15 -27.8240 -19.4288
14 16 14 -14.2073 -9.8229
14 16 16 -5.1906 -11.0871
14 17 15 -8.7321 3.4610
14 17 17 6.0335 16.7597
14 18 14 -6.0109 7.3813
14 18 16 0.0196 -3.4873
14 18 18 15.3554 11.5015
14 19 15 1.3796 -6.9070
14 19 17 -2.4933 1.0942
14 20 14 -0.4074 -14.7484
14 20 16 5.0678 5.4141
14 21 15 1.2030 6.8184
14 22 14 -4.0706 -10.5652
15 16 15 -1.0347 4.0391
15 17 16 3.5171 2.7212
15 18 15 -3.1896 -3.4082
15 18 17 5.6458 3.2671
15 19 16 3.3718 9.0075
15 20 15 8.3470 9.1639
16 16 16 33.0530 -8.4317
16 17 17 -18.6364 8.2747
16 18 16 0.0464 30.9219
0 0 0 0.0 0.0
;
_shelx_fab_checksum              28157
_olex2_submission_special_instructions 'No special instructions were received'
loop_
_space_group_symop_operation_xyz
'x, y, z'
'-x, -y, z'
'-x, y, -z'
'x, -y, -z'
'z, x, y'
'z, -x, -y'
'-z, -x, y'
'-z, x, -y'
'y, z, x'
'-y, z, -x'
'y, -z, -x'
'-y, -z, x'
'y, x, z'
'-y, -x, z'
'y, -x, -z'
'-y, x, -z'
'x, z, y'
'-x, z, -y'
'-x, -z, y'
'x, -z, -y'
'z, y, x'
'z, -y, -x'
'-z, y, -x'
'-z, -y, x'
'x+1/2, y+1/2, z+1/2'
'-x+1/2, -y+1/2, z+1/2'
'-x+1/2, y+1/2, -z+1/2'
'x+1/2, -y+1/2, -z+1/2'
'z+1/2, x+1/2, y+1/2'
'z+1/2, -x+1/2, -y+1/2'
'-z+1/2, -x+1/2, y+1/2'
'-z+1/2, x+1/2, -y+1/2'
'y+1/2, z+1/2, x+1/2'
'-y+1/2, z+1/2, -x+1/2'
'y+1/2, -z+1/2, -x+1/2'
'-y+1/2, -z+1/2, x+1/2'
'y+1/2, x+1/2, z+1/2'
'-y+1/2, -x+1/2, z+1/2'
'y+1/2, -x+1/2, -z+1/2'
'-y+1/2, x+1/2, -z+1/2'
'x+1/2, z+1/2, y+1/2'
'-x+1/2, z+1/2, -y+1/2'
'-x+1/2, -z+1/2, y+1/2'
'x+1/2, -z+1/2, -y+1/2'
'z+1/2, y+1/2, x+1/2'
'z+1/2, -y+1/2, -x+1/2'
'-z+1/2, y+1/2, -x+1/2'
'-z+1/2, -y+1/2, x+1/2'
loop_
_atom_site_label
_atom_site_type_symbol
_atom_site_fract_x
_atom_site_fract_y
_atom_site_fract_z
_atom_site_U_iso_or_equiv
_atom_site_adp_type
_atom_site_occupancy
_atom_site_site_symmetry_order
_atom_site_calc_flag
_atom_site_refinement_flags_posn
_atom_site_refinement_flags_adp
_atom_site_refinement_flags_occupancy
_atom_site_disorder_assembly
_atom_site_disorder_group
Fe1 Fe 0.33301(4) 0.41079(6) 0.33301(4) 0.0192(6) Uani 1 2 d S TU P . .
O1 O 0.3582(2) 0.3582(2) 0.3582(2) 0.0113(13) Uani 1 6 d S TU P . .
O2 O 0.3918(2) 0.4438(2) 0.3244(2) 0.0414(19) Uani 1 1 d . U . . .
O3 O 0.1736(9) 0.5655(10) 0.2579(15) 0.194(16) Uani 0.5 1 d D U P A -1
O4 O 0.3343(3) 0.3854(2) 0.2669(2) 0.052(2) Uani 1 1 d . . . . .
N1 N 0.3036(3) 0.4686(4) 0.3036(3) 0.045(3) Uani 1 2 d DS TU P . .
N2 N 0.2378(9) 0.5727(4) 0.2325(9) 0.050(4) Uani 0.5 1 d D U P A -1
H2 H 0.2531 0.5810 0.2092 0.060 Uiso 0.5 1 calc R U P A -1
C1 C 0.4313(3) 0.4313(3) 0.3223(4) 0.0180(18) Uani 1 2 d S TU P . .
C2 C 0.4668(3) 0.4668(3) 0.3228(5) 0.030(3) Uani 1 2 d S TU P . .
C3 C 0.4559(4) 0.5109(5) 0.3235(5) 0.084(5) Uani 1 1 d . . . . .
H3 H 0.4256 0.5194 0.3239 0.101 Uiso 1 1 calc R U . . .
C4 C 0.2019(9) 0.6010(10) 0.2438(10) 0.121(9) Uani 0.5 1 d D U P A -1
C5 C 0.2526(6) 0.5340(8) 0.2526(6) 0.109(8) Uani 1 2 d DS TU P . .
C6 C 0.2429(5) 0.5240(7) 0.2983(5) 0.143(8) Uani 1 1 d D U . . .
H6 H 0.2189 0.5388 0.3123 0.172 Uiso 1 1 calc R U . . .
C7 C 0.2679(5) 0.4929(6) 0.3233(5) 0.112(5) Uani 1 1 d D U . . .
H7 H 0.2608 0.4881 0.3536 0.135 Uiso 1 1 calc R U . . .
C8 C 0.3547(3) 0.3547(3) 0.2511(4) 0.0155(18) Uani 1 2 d S TU P . .
C14 C 0.2072(5) 0.6469(6) 0.1765(6) 0.086(9) Uani 0.311(8) 1 d DG U P A -1
H14 H 0.2348 0.6335 0.1692 0.103 Uiso 0.621(15) 1 calc R U P A -1
C11 C 0.1912(6) 0.6826(6) 0.1512(5) 0.086(7) Uani 0.621(15) 1 d G U P A -1
H11 H 0.2080 0.6933 0.1268 0.104 Uiso 0.621(15) 1 calc R U P A -1
C10 C 0.1505(6) 0.7023(5) 0.1620(6) 0.087(6) Uani 0.621(15) 1 d G U P A -1
C9 C 0.1258(5) 0.6864(6) 0.1981(7) 0.069(8) Uani 0.311(8) 1 d G U P A -1
H9 H 0.0982 0.6998 0.2054 0.083 Uiso 0.621(15) 1 calc R U P A -1
C12 C 0.1418(5) 0.6508(7) 0.2234(6) 0.108(9) Uani 0.621(15) 1 d DG U P A -1
H12 H 0.1250 0.6400 0.2478 0.129 Uiso 0.621(15) 1 calc R U P A -1
C13 C 0.1825(5) 0.6310(6) 0.2126(6) 0.115(9) Uani 0.621(15) 1 d DG U P A -1
loop_
_atom_site_aniso_label
_atom_site_aniso_U_11
_atom_site_aniso_U_22
_atom_site_aniso_U_33
_atom_site_aniso_U_23
_atom_site_aniso_U_13
_atom_site_aniso_U_12
Fe1 0.0202(7) 0.0172(10) 0.0202(7) -0.0024(6) -0.0033(9) -0.0024(6)
O1 0.0113(13) 0.0113(13) 0.0113(13) 0.0002(8) 0.0002(8) 0.0002(8)
O2 0.017(3) 0.044(4) 0.063(5) 0.016(4) 0.000(3) 0.000(3)
O3 0.092(13) 0.164(18) 0.33(4) 0.12(2) 0.082(17) 0.054(13)
O4 0.084(6) 0.033(4) 0.037(4) 0.007(3) -0.031(4) -0.015(4)
N1 0.055(5) 0.023(6) 0.055(5) 0.005(4) -0.029(6) 0.005(4)
N2 0.050(4) 0.050(4) 0.051(4) 0.0002(14) -0.0001(14) 0.0001(14)
C1 0.0180(18) 0.0180(18) 0.018(2) 0.0006(9) 0.0006(9) -0.0003(13)
C2 0.019(4) 0.019(4) 0.051(9) -0.004(4) -0.004(4) 0.001(5)
C3 0.028(7) 0.101(12) 0.122(13) 0.027(10) 0.007(8) -0.020(7)
C4 0.103(12) 0.126(14) 0.133(16) 0.051(12) 0.053(12) 0.060(11)
C5 0.120(9) 0.086(11) 0.120(9) 0.036(8) 0.010(11) 0.036(8)
C6 0.141(14) 0.155(15) 0.134(11) 0.065(11) 0.036(10) 0.089(13)
C7 0.117(9) 0.099(9) 0.121(9) 0.017(7) 0.007(7) 0.045(7)
C8 0.0155(18) 0.0155(18) 0.016(2) -0.0005(10) -0.0005(10) 0.0002(14)
C14 0.081(12) 0.071(12) 0.105(12) 0.006(9) 0.004(8) 0.010(9)
C11 0.079(9) 0.072(10) 0.108(11) 0.005(8) 0.017(8) 0.023(7)
C10 0.088(9) 0.081(9) 0.094(10) 0.024(8) 0.018(7) 0.037(7)
C9 0.069(8) 0.069(8) 0.069(8) -0.0001(14) -0.0001(14) 0.0003(14)
C12 0.086(11) 0.109(14) 0.128(15) 0.048(13) 0.027(11) 0.031(10)
C13 0.085(11) 0.110(14) 0.151(15) 0.046(12) 0.026(10) 0.036(10)
loop_
_atom_type_symbol
_atom_type_description
_atom_type_scat_dispersion_real
_atom_type_scat_dispersion_imag
_atom_type_scat_source
C C 0.0181 0.0091 'International Tables Vol C Tables 4.2.6.8 and 6.1.1.4'
H H 0.0000 0.0000 'International Tables Vol C Tables 4.2.6.8 and 6.1.1.4'
Fe Fe -1.1336 3.1974 'International Tables Vol C Tables 4.2.6.8 and 6.1.1.4'
N N 0.0311 0.0180 'International Tables Vol C Tables 4.2.6.8 and 6.1.1.4'
O O 0.0492 0.0322 'International Tables Vol C Tables 4.2.6.8 and 6.1.1.4'
loop_
_geom_angle_atom_site_label_1
_geom_angle_atom_site_label_2
_geom_angle_atom_site_label_3
_geom_angle
_geom_angle_site_symmetry_1
_geom_angle_site_symmetry_3
_geom_angle_publ_flag
O1 Fe1 O2 96.3(3) . . ?
O1 Fe1 O2 96.3(3) . 21 ?
O1 Fe1 O4 93.7(3) . 21 ?
O1 Fe1 O4 93.7(3) . . ?
O1 Fe1 N1 178.4(5) . . ?
O2 Fe1 O2 89.1(4) . 21 ?
O2 Fe1 O4 169.7(3) . 21 ?
O2 Fe1 O4 92.3(3) 21 21 ?
O2 Fe1 O4 92.3(3) . . ?
O2 Fe1 O4 169.7(3) 21 . ?
O2 Fe1 N1 84.9(3) 21 . ?
O2 Fe1 N1 84.9(3) . . ?
O4 Fe1 O4 84.6(5) 21 . ?
O4 Fe1 N1 85.1(3) 21 . ?
O4 Fe1 N1 85.1(3) . . ?
Fe1 O1 Fe1 119.96(3) . 9 ?
Fe1 O1 Fe1 119.96(3) . 5 ?
Fe1 O1 Fe1 119.96(3) 9 5 ?
C1 O2 Fe1 133.2(7) . . ?
C8 O4 Fe1 130.7(7) . . ?
C7 N1 Fe1 123.8(6) 21 . ?
C7 N1 Fe1 123.8(6) . . ?
C7 N1 C7 111.1(12) 21 . ?
C4 N2 H2 114.9 . . ?
C5 N2 H2 114.9 . . ?
C5 N2 C4 130(3) . . ?
O2 C1 O2 124.7(11) 13 . ?
O2 C1 C2 117.4(6) 13 . ?
O2 C1 C2 117.4(6) . . ?
C3 C2 C1 121.2(7) . . ?
C3 C2 C1 121.2(7) 13 . ?
C3 C2 C3 117.6(13) . 13 ?
C2 C3 C3 121.2(7) . 14_665 ?
C2 C3 H3 119.4 . . ?
C3 C3 H3 119.4 14_665 . ?
N2 C4 O3 94(2) . . ?
N2 C4 C13 122.3(19) . . ?
C13 C4 O3 115(3) . . ?
N2 C5 C6 122(2) . . ?
N2 C5 C6 113.2(18) . 21 ?
C6 C5 C6 110.0(17) . 21 ?
C5 C6 H6 118.7 . . ?
C7 C6 C5 122.5(11) . . ?
C7 C6 H6 118.7 . . ?
N1 C7 H7 119.4 . . ?
C6 C7 N1 121.3(9) . . ?
C6 C7 H7 119.4 . . ?
O4 C8 O4 128.5(12) . 13 ?
C11 C14 H14 120.0 . . ?
C11 C14 C13 120.0 . . ?
C13 C14 H14 120.0 . . ?
C14 C11 H11 120.0 . . ?
C14 C11 C10 120.0 . . ?
C10 C11 H11 120.0 . . ?
C9 C10 C11 120.0 . . ?
C10 C9 H9 120.0 . . ?
C10 C9 C12 120.0 . . ?
C12 C9 H9 120.0 . . ?
C9 C12 H12 120.0 . . ?
C13 C12 C9 120.0 . . ?
C13 C12 H12 120.0 . . ?
C14 C13 C4 120.6(10) . . ?
C12 C13 C4 118.3(10) . . ?
C12 C13 C14 120.0 . . ?
loop_
_geom_bond_atom_site_label_1
_geom_bond_atom_site_label_2
_geom_bond_distance
_geom_bond_site_symmetry_2
_geom_bond_publ_flag
Fe1 O1 1.8967(19) . ?
Fe1 O2 2.030(6) 21 ?
Fe1 O2 2.030(6) . ?
Fe1 O4 2.114(7) 21 ?
Fe1 O4 2.114(7) . ?
Fe1 N1 2.125(11) . ?
O1 Fe1 1.8967(19) 5 ?
O1 Fe1 1.8967(19) 9 ?
O2 C1 1.238(8) . ?
O3 C4 1.42(2) . ?
O4 C8 1.196(9) . ?
N1 C7 1.417(10) . ?
N1 C7 1.417(10) 21 ?
N2 H2 0.8700 . ?
N2 C4 1.41(2) . ?
N2 C5 1.37(2) . ?
C1 O2 1.238(8) 13 ?
C1 C2 1.497(18) . ?
C2 C3 1.358(17) . ?
C2 C3 1.358(17) 13 ?
C3 C3 1.40(3) 14_665 ?
C3 H3 0.9400 . ?
C4 C13 1.42(2) . ?
C5 C6 1.428(15) . ?
C5 C6 1.428(15) 21 ?
C6 H6 0.9400 . ?
C6 C7 1.405(15) . ?
C7 H7 0.9400 . ?
C8 O4 1.196(9) 13 ?
C14 H14 0.9400 . ?
C14 C11 1.3900 . ?
C14 C13 1.3900 . ?
C11 H11 0.9400 . ?
C11 C10 1.3900 . ?
C10 C9 1.3900 . ?
C9 H9 0.9400 . ?
C9 C12 1.3900 . ?
C12 H12 0.9400 . ?
C12 C13 1.3900 . ?
loop_
_geom_torsion_atom_site_label_1
_geom_torsion_atom_site_label_2
_geom_torsion_atom_site_label_3
_geom_torsion_atom_site_label_4
_geom_torsion
_geom_torsion_site_symmetry_1
_geom_torsion_site_symmetry_2
_geom_torsion_site_symmetry_3
_geom_torsion_site_symmetry_4
_geom_torsion_publ_flag
Fe1 O2 C1 O2 2(2) . . . 13 ?
Fe1 O2 C1 C2 -170.6(8) . . . . ?
Fe1 O4 C8 O4 -13(2) . . . 13 ?
Fe1 N1 C7 C6 -165.0(16) . . . . ?
O2 Fe1 O1 Fe1 -132.8(6) 21 . . 9 ?
O2 Fe1 O1 Fe1 43.1(7) 21 . . 5 ?
O2 Fe1 O1 Fe1 132.8(6) . . . 5 ?
O2 Fe1 O1 Fe1 -43.1(7) . . . 9 ?
O2 C1 C2 C3 175.7(13) . . . 13 ?
O2 C1 C2 C3 2.9(19) 13 . . 13 ?
O2 C1 C2 C3 -175.7(13) 13 . . . ?
O2 C1 C2 C3 -2.9(19) . . . . ?
O3 C4 C13 C14 -139(2) . . . . ?
O3 C4 C13 C12 54(4) . . . . ?
O4 Fe1 O1 Fe1 134.4(6) 21 . . 9 ?
O4 Fe1 O1 Fe1 49.6(7) . . . 9 ?
O4 Fe1 O1 Fe1 -134.4(6) . . . 5 ?
O4 Fe1 O1 Fe1 -49.6(7) 21 . . 5 ?
N2 C4 C13 C14 -25(4) . . . . ?
N2 C4 C13 C12 167(2) . . . . ?
N2 C5 C6 C7 -160(2) . . . . ?
C1 C2 C3 C3 -179.3(8) . . . 14_665 ?
C3 C2 C3 C3 2(2) 13 . . 14_665 ?
C4 N2 C5 C6 -158(3) . . . 21 ?
C4 N2 C5 C6 -23(4) . . . . ?
C5 N2 C4 O3 -36(4) . . . . ?
C5 N2 C4 C13 -160(3) . . . . ?
C5 C6 C7 N1 -2(4) . . . . ?
C6 C5 C6 C7 -24(4) 21 . . . ?
C7 N1 C7 C6 28(3) 21 . . . ?
C14 C11 C10 C9 0.0 . . . . ?
C11 C14 C13 C4 -168(3) . . . . ?
C11 C14 C13 C12 0.0 . . . . ?
C11 C10 C9 C12 0.0 . . . . ?
C10 C9 C12 C13 0.0 . . . . ?
C9 C12 C13 C4 168(2) . . . . ?
C9 C12 C13 C14 0.0 . . . . ?
C13 C14 C11 C10 0.0 . . . . ?
loop_
_smtbx_masks_void_nr
_smtbx_masks_void_average_x
_smtbx_masks_void_average_y
_smtbx_masks_void_average_z
_smtbx_masks_void_volume
_smtbx_masks_void_count_electrons
_smtbx_masks_void_content
1 -0.623 -0.817 -0.760 18258.8 2305.5 ?
