#------------------------------------------------------------------------------
#$Date: 2021-11-03 22:01:22 +0200 (Wed, 03 Nov 2021) $
#$Revision: 270224 $
#$URL: file:///home/coder/svn-repositories/cod/cif/4/51/90/4519085.cif $
#------------------------------------------------------------------------------
#
# This file is available in the Crystallography Open Database (COD),
# http://www.crystallography.net/
#
# All data on this site have been placed in the public domain by the
# contributors.
#
data_4519085
loop_
_publ_author_name
'Wang, Lu'
'Wang, Kecheng'
'An, Hao-Tian'
'Huang, Hongliang'
'Xie, Lin-Hua'
'Li, Jian-Rong'
_publ_section_title
;
 A Hydrolytically Stable Cu(II)-Based Metal-Organic Framework with Easily
 Accessible Ligands for Water Harvesting.
;
_journal_issue                   41
_journal_name_full               'ACS applied materials &amp; interfaces'
_journal_page_first              49509
_journal_page_last               49518
_journal_paper_doi               10.1021/acsami.1c15240
_journal_volume                  13
_journal_year                    2021
_chemical_formula_sum            'C14 H12 Cu2 N10 O11'
_chemical_formula_weight         623.42
_space_group_crystal_system      tetragonal
_space_group_IT_number           88
_space_group_name_Hall           '-I 4ad'
_space_group_name_H-M_alt        'I 41/a :2'
_atom_sites_solution_hydrogens   geom
_audit_creation_method           SHELXL-2018/1
_cell_angle_alpha                90
_cell_angle_beta                 90
_cell_angle_gamma                90
_cell_formula_units_Z            8
_cell_length_a                   15.7418(2)
_cell_length_b                   15.7418(2)
_cell_length_c                   22.3494(6)
_cell_measurement_reflns_used    2686
_cell_measurement_temperature    293(2)
_cell_measurement_theta_max      72.0450
_cell_measurement_theta_min      5.5810
_cell_volume                     5538.28(18)
_computing_cell_refinement       'CrysAlisPro 1.171.40.53 (Rigaku OD, 2019)'
_computing_data_collection       'CrysAlisPro 1.171.40.53 (Rigaku OD, 2019)'
_computing_data_reduction        'CrysAlisPro 1.171.40.53 (Rigaku OD, 2019)'
_computing_structure_refinement  'SHELXL-2018/1 (Sheldrick, 2018)'
_diffrn_ambient_temperature      293(2)
_diffrn_detector_area_resol_mean 5.1688
_diffrn_measured_fraction_theta_full 0.990
_diffrn_measured_fraction_theta_max 0.973
_diffrn_measurement_device_type  'SuperNova, Dual, Cu at home/near, AtlasS2'
_diffrn_measurement_method       '\w scans'
_diffrn_radiation_type           CuK\a
_diffrn_radiation_wavelength     1.54178
_diffrn_reflns_av_R_equivalents  0.0590
_diffrn_reflns_av_unetI/netI     0.0633
_diffrn_reflns_Laue_measured_fraction_full 0.990
_diffrn_reflns_Laue_measured_fraction_max 0.973
_diffrn_reflns_limit_h_max       18
_diffrn_reflns_limit_h_min       -19
_diffrn_reflns_limit_k_max       17
_diffrn_reflns_limit_k_min       -14
_diffrn_reflns_limit_l_max       22
_diffrn_reflns_limit_l_min       -26
_diffrn_reflns_number            9152
_diffrn_reflns_point_group_measured_fraction_full 0.990
_diffrn_reflns_point_group_measured_fraction_max 0.973
_diffrn_reflns_theta_full        67.679
_diffrn_reflns_theta_max         73.030
_diffrn_reflns_theta_min         5.621
_diffrn_source                   'micro-focus sealed X-ray tube'
_exptl_absorpt_coefficient_mu    2.496
_exptl_absorpt_correction_T_max  1.00000
_exptl_absorpt_correction_T_min  0.80670
_exptl_absorpt_correction_type   multi-scan
_exptl_absorpt_process_details
; 
CrysAlisPro 1.171.40.53 (Rigaku Oxford Diffraction, 2019) 
Empirical absorption correction using spherical harmonics, 
 implemented in SCALE3 ABSPACK scaling algorithm. 
;
_exptl_crystal_colour            green
_exptl_crystal_density_diffrn    1.495
_exptl_crystal_description       block
_exptl_crystal_F_000             2496
_refine_diff_density_max         0.771
_refine_diff_density_min         -0.423
_refine_diff_density_rms         0.105
_refine_ls_extinction_method     none
_refine_ls_goodness_of_fit_ref   1.083
_refine_ls_hydrogen_treatment    constr
_refine_ls_matrix_type           full
_refine_ls_number_parameters     223
_refine_ls_number_reflns         2703
_refine_ls_number_restraints     368
_refine_ls_restrained_S_all      1.074
_refine_ls_R_factor_all          0.1098
_refine_ls_R_factor_gt           0.0700
_refine_ls_shift/su_max          0.002
_refine_ls_shift/su_mean         0.000
_refine_ls_structure_factor_coef Fsqd
_refine_ls_weighting_details
'w=1/[\s^2^(Fo^2^)+(0.1000P)^2^] where P=(Fo^2^+2Fc^2^)/3'
_refine_ls_weighting_scheme      calc
_refine_ls_wR_factor_gt          0.1671
_refine_ls_wR_factor_ref         0.1885
_reflns_Friedel_coverage         0.000
_reflns_number_gt                1714
_reflns_number_total             2703
_reflns_threshold_expression     'I > 2\s(I)'
_cod_data_source_file            am1c15240_si_002.cif
_cod_data_source_block           BUT-205w
_cod_original_cell_volume        5538.3(2)
_cod_original_sg_symbol_H-M      'I 41/a'
_cod_database_code               4519085
_shelx_shelxl_version_number     2018/1
_shelx_space_group_comment
; 
The symmetry employed for this shelxl refinement is uniquely defined 
by the following loop, which should always be used as a source of 
symmetry information in preference to the above space-group names. 
They are only intended as comments. 
;
_shelx_res_file
; 
TITL shelxt_a.res in I4(1)/a 
    shelx.res 
    created by SHELXL-2018/1 at 16:47:30 on 18-Feb-2021 
CELL  1.54178  15.7418  15.7418  22.3494   90.000   90.000   90.000 
ZERR     8.00   0.0002   0.0002   0.0006    0.000    0.000    0.000 
LATT   2 
SYMM  1/2 - X, - Y, 1/2 + Z 
SYMM  3/4 - Y, 1/4 + X, 1/4 + Z 
SYMM  3/4 + Y, 3/4 - X, 3/4 + Z 
SFAC  C    H    N    O    CU 
UNIT  112 96 80 88 16 
MERG   2 
OMIT     1   1   2 
OMIT     1   4   1 
OMIT     3   4   7 
OMIT     8  12  16 
OMIT     5  14  17 
OMIT     5  15  16 
OMIT     2   2   0 
OMIT     7  18   3 
OMIT    -4   6   2 
OMIT     3   3   6 
OMIT     2   2   2 
OMIT     1   3   2 
OMIT    -4   8   8 
OMIT    -3   6   1 
OMIT    -4   5   7 
OMIT    -4  17   7 
OMIT   -11  13  12 
OMIT     0   1   1 
OMIT     1   7   2 
OMIT    -6  12  18 
OMIT    -8  13  17 
OMIT     1  17   8 
OMIT    -7  11  20 
OMIT     1   5   2 
OMIT     0   1   3 
OMIT    -1   4   5 
OMIT    -7  13  18 
OMIT     0  19   5 
OMIT    -6  18   6 
OMIT   -10  11  15 
OMIT     0   2  26 
OMIT    -2  13   3 
OMIT    -5   8  23 
OMIT     1   1  10 
acta 
sadi c4 c5 c5 c7 c7 n3 n3 c6 c6 n2 n2 c4 
sadi c4 c7 c5 n3 c7 c6 n3 n2 c6 c4 n2 c5 
flat c4 c5 c7 n3 c6 n2 n4 
sadi n4 c5 n4 n3 
sadi c4 c5 c5 c7' c7' n3' n3' c6' c6' n2' n2' c4 
sadi c4 c7' c5 n3' c7' c6' n3' n2' c6' c4 n2' c5 
flat c4 c5 c7' n3' c6' n2' n4' 
sadi n4' c5 n4' n3' 
sadi c7 n4 c7' n4' 
delu 
simu 
FMAP   2 
PLAN   20 
BOND   $H 
LIST   6 
L.S.  40 
WGHT    0.100000 
FVAR       0.18065 
C1    1    0.610550    0.707333    0.298801    11.00000    0.04285    0.07115 = 
         0.05103    0.00932   -0.00466   -0.00561 
C2    1    0.519925    0.705006    0.320367    11.00000    0.04236    0.09963 = 
         0.08337    0.00888   -0.00441   -0.00811 
AFIX  23 
H2A   2    0.518195    0.681860    0.360572    11.00000   -1.20000 
H2B   2    0.486910    0.668002    0.294605    11.00000   -1.20000 
AFIX   0 
C3    1    0.867347    0.653228    0.368843    11.00000    0.05288    0.05005 = 
         0.03916    0.00947   -0.01511    0.00127 
AFIX  43 
H3    2    0.875861    0.688492    0.401686    11.00000   -1.20000 
AFIX   0 
C4    1    0.825240    0.613276    0.284484    11.00000    0.04193    0.04351 = 
         0.04592    0.00896   -0.00403    0.00354 
C5    1    0.868720    0.547883    0.311094    11.00000    0.07157    0.04215 = 
         0.04497    0.00323   -0.00885    0.00979 
PART    1 
C6    1    0.818722    0.539250    0.195859    10.50000    0.06136    0.04709 = 
         0.06766   -0.01922   -0.02174    0.01219 
AFIX  43 
H6    2    0.799875    0.534081    0.156590    10.50000   -1.20000 
AFIX   0 
C7    1    0.889439    0.477585    0.277854    10.50000    0.11754    0.06211 = 
         0.06214   -0.00568   -0.01849    0.04299 
N2    3    0.797567    0.609611    0.226562    10.50000    0.06272    0.03827 = 
         0.04253   -0.00192   -0.00318    0.00773 
N3    3    0.865518    0.476287    0.218943    10.50000    0.08661    0.05829 = 
         0.05462   -0.01742   -0.01247    0.02443 
N4    3    0.935443    0.411854    0.300475    10.50000    0.15710    0.08264 = 
         0.09201   -0.01460   -0.03123    0.08080 
AFIX  93 
H4A   2    0.949284    0.369915    0.277825    10.50000   -1.20000 
H4B   2    0.950685    0.412241    0.337426    10.50000   -1.20000 
AFIX   0 
PART    2 
C6'   1    0.782699    0.527059    0.206461    10.50000    0.08640    0.05126 = 
         0.06916   -0.01260   -0.02260    0.01481 
AFIX  43 
H6'   2    0.753463    0.518695    0.170784    10.50000   -1.20000 
AFIX   0 
C7'   1    0.867003    0.469742    0.283497    10.50000    0.14940    0.04928 = 
         0.06153   -0.00100   -0.04207    0.01920 
N2'   3    0.780818    0.604533    0.232227    10.50000    0.06344    0.04982 = 
         0.06072   -0.01341   -0.02625    0.01343 
N3'   3    0.825098    0.462008    0.230438    10.50000    0.11403    0.04758 = 
         0.06526   -0.01347   -0.03467    0.01505 
N4'   3    0.908036    0.401146    0.306215    10.50000    0.23793    0.03815 = 
         0.09732   -0.00830   -0.08369    0.03747 
AFIX  93 
H4'1  2    0.907337    0.353686    0.287163    10.50000   -1.20000 
H4'2  2    0.934742    0.405128    0.339666    10.50000   -1.20000 
AFIX   0 
PART    0 
N1    3    0.824623    0.678916    0.320285    11.00000    0.04162    0.04214 = 
         0.03844    0.00750   -0.01093    0.00686 
N5    3    0.896761    0.574267    0.367122    11.00000    0.05456    0.04751 = 
         0.03531    0.00775   -0.01218    0.00021 
O1    4    0.660655    0.746783    0.331880    11.00000    0.04075    0.08360 = 
         0.05353   -0.00866   -0.00202   -0.00712 
O2    4    0.627425    0.679179    0.247947    11.00000    0.05399    0.07089 = 
         0.04594   -0.00026   -0.00701   -0.01608 
CU1   5    0.773595    0.791854    0.304965    11.00000    0.04182    0.04131 = 
         0.03325   -0.00153   -0.01277    0.00258 
PART    1 
O1WA  4    0.883599    0.378008    0.167016    10.50000    0.16960 
PART    2 
O1WB  4    0.771598    0.319248    0.174153    10.50000    0.28740 
PART    3 
O1WC  4    0.943873    0.380354    0.128022    10.25000    0.18785 
PART    4 
O2WA  4    1.000000    0.250000    0.243215    10.35000    0.29658 
PART    5 
O2WB  4    0.881678    0.207591    0.266137    10.35000    0.25904 
PART    6 
O2WC  4    0.938564    0.230802    0.249498    10.15000    0.16758 
PART    7 
O3W   4    0.915284    0.406680    0.062555    10.50000    0.26178 
PART    8 
O4W   4    0.821267    0.384457   -0.040535    10.25000    0.28816 
PART   9 
O5W   4    0.745049    0.393775    0.084582    10.25000    0.21130 
PART   10 
O6W   4    0.760439    0.391573    0.033151    10.25000    0.21812 
PART    11 
O7W   4    0.801676    0.193803    0.269033    10.15000    0.21159 
HKLF    4 
  
  
  
  
REM  shelxt_a.res in I4(1)/a 
REM R1 =  0.0700 for    1714 Fo > 4sig(Fo)  and  0.1098 for all    2703 data 
REM    223 parameters refined using    368 restraints 
  
END 
  
WGHT      0.1167      0.0000 
  
REM Highest difference peak  0.771,  deepest hole -0.423,  1-sigma level  0.105 
Q1    1   0.5379  0.6408  0.3330  11.00000  0.05    0.77 
Q2    1   0.8036  0.3545  0.1875  11.00000  0.05    0.50 
Q3    1   0.7178  0.3995  0.1210  11.00000  0.05    0.45 
Q4    1   0.8747  0.4028 -0.0614  11.00000  0.05    0.44 
Q5    1   0.7547  0.3326  0.0596  11.00000  0.05    0.42 
Q6    1   0.8257  0.1503  0.2723  11.00000  0.05    0.39 
Q7    1   0.6750  0.3966  0.1406  11.00000  0.05    0.38 
Q8    1   0.9557  0.3455  0.1690  11.00000  0.05    0.37 
Q9    1   0.8106  0.7158  0.3133  11.00000  0.05    0.35 
Q10   1   0.8059  0.1834  0.3005  11.00000  0.05    0.35 
Q11   1   0.7779  0.8011  0.2511  11.00000  0.05    0.34 
Q12   1   0.7881  0.2292  0.2947  11.00000  0.05    0.34 
Q13   1   0.6236  0.6322  0.2234  11.00000  0.05    0.34 
Q14   1   0.6647  0.6762  0.2147  11.00000  0.05    0.33 
Q15   1   0.5194  0.5556  0.3174  11.00000  0.05    0.33 
Q16   1   0.7664  0.4186  0.0507  11.00000  0.05    0.32 
Q17   1   0.7821  0.7928  0.3571  11.00000  0.05    0.32 
Q18   1   0.7659  0.6226  0.2202  11.00000  0.05    0.31 
Q19   1   0.8180  0.3211  0.0985  11.00000  0.05    0.31 
Q20   1   0.8981  0.4939  0.3127  11.00000  0.05    0.31 
;
_shelx_res_checksum              16741
_shelx_hkl_file
; 
   0   0   2   -0.05    1.59 
   0   0   4 2333.31   23.59 
   0   0   6   -0.20    4.43 
   0   0  -8 5804.30   66.21 
   0   0 -10   -2.93    8.15 
   0   0 -12 1323.79   41.91 
   0   0 -14    0.68    7.81 
   0   0 -16 1289.08   37.66 
   0   0 -16 1211.95   47.95 
   0   0 -18   -4.79    9.15 
   0   0 -20  130.63   15.98 
   0   0 -22    3.55    8.79 
   0   0 -24    7.61    7.80 
   0   0 -24    6.58    7.38 
   0   1   1 2784.61   22.22 
  -1   0  -1 2807.16   16.14 
   0   1  -3  791.37   16.76 
  -1   0   3  792.45   15.78 
   0   1   3  765.18   14.87 
  -1   0  -3  756.41   12.91 
   1   0   3  767.38    9.65 
   1   0   5  346.47    8.87 
  -1   0   5  366.62   13.15 
  -1   0  -5  371.10   13.25 
   0   1   5  358.88   12.53 
   0   1  -5  362.74   15.17 
   0   1   7 1023.13   23.56 
  -1   0  -7 1066.77   26.03 
   0   1  -7 1080.99   28.80 
   1   0   7 1009.37   18.06 
   0   1   9  284.31   14.79 
   0   1  -9  302.42   18.58 
  -1   0  -9  308.05   16.92 
   0   1 -11  359.55   22.30 
   0  -1 -11  379.19   21.43 
  -1   0 -11  359.35   20.40 
   1   0 -11  366.32   22.72 
   0   1 -13   17.86    9.18 
   0  -1 -13   22.66    8.91 
   1   0 -13   19.12   10.27 
  -1   0 -13   26.35    9.10 
   0   1 -15  447.22   29.42 
   1   0 -15  446.10   29.70 
   0  -1 -15  484.87   29.28 
   1   0 -17  218.38   17.84 
   0  -1 -17  204.33   17.22 
  -1   0 -17  198.71   17.11 
   0   1 -17  188.70   16.35 
   1   0 -17  192.67   22.47 
   0   1 -19   40.21   11.02 
   0  -1 -19   47.93   12.09 
  -1   0 -19   42.96   11.24 
   1   0 -19   38.83   11.30 
  -1   0 -21   39.19   10.59 
   0   1 -21   39.37   10.88 
   1   0 -21   37.15   11.47 
   0  -1 -21   35.82   11.53 
   1   0 -23   -4.11    8.61 
  -1   0 -23   -0.72    8.32 
  -1   0 -23    2.01    7.01 
   0  -1 -23   -1.29    8.39 
   0  -1 -25    7.40    6.31 
   1   0 -25   -0.61    6.26 
   1   0 -25    2.53    6.27 
  -1   1   0    2.24    2.65 
  -1   1   0    0.62    2.17 
   1   1   2  155.83    6.87 
  -1   1   2  149.72    7.32 
  -1   1  -2  148.61    6.77 
  -1   1   4    5.98    5.94 
  -1   1  -4    6.08    5.20 
   1   1   4    5.70    4.27 
   1   1   6  382.99   13.08 
  -1   1   6  402.98   15.92 
  -1   1  -6  397.83   16.11 
  -1  -1  -8  287.57   14.67 
  -1   1  -8  289.61   16.50 
  -1   1   8  298.32   15.58 
   1   1   8  283.67   13.00 
   1   1  -8  295.97   17.66 
  -1   1  10  192.61   14.21 
  -1  -1 -10  189.71   14.50 
  -1   1 -10  187.04   15.41 
   1   1 -10  192.92   17.03 
   1   1  10  184.98   11.97 
   1  -1 -12   -0.66    8.40 
  -1   1 -12    3.36    7.98 
  -1  -1 -12    3.72    7.12 
   1   1 -12    1.46    9.60 
   1   1 -14   77.05   14.49 
  -1   1 -14   66.40   12.43 
   1  -1 -14   69.79   13.46 
   1  -1 -16    2.47    7.92 
  -1   1 -16   11.45    9.24 
   1   1 -16    7.22    8.09 
   1   1 -16    0.07   10.34 
   1  -1 -16    3.63    9.21 
  -1   1 -16    4.30    7.94 
  -1  -1 -16   -0.48    7.98 
  -1   1 -18   15.64   10.06 
   1  -1 -18   15.83    9.78 
   1   1 -18   11.09    9.41 
  -1  -1 -18   22.03    9.92 
  -1  -1 -20    3.52    9.06 
   1  -1 -20   -0.79    9.35 
   1   1 -20   -2.46    8.93 
  -1   1 -20   -0.03    8.62 
  -1  -1 -22   -3.96    9.40 
   1  -1 -22   11.37    9.72 
  -1   1 -22   -0.40    7.93 
  -1   1 -22    0.63    8.01 
  -1  -1 -22   16.78    9.75 
   1   1 -22    1.57    8.72 
  -1  -1 -24   48.13    9.53 
   1   1 -24   34.23    9.26 
   1  -1 -24   58.31   10.88 
   1  -1 -26    0.89    5.04 
   1   2   1  490.00    9.20 
   1   2   1  487.91   13.54 
   1   2  -1  475.18   12.86 
  -2   1   1  513.30   13.79 
  -2   1  -1  499.21   13.11 
   1   2   3    0.85    5.61 
   1   2  -3   -0.23    5.71 
  -2   1  -3    1.04    4.20 
  -2   1   3    0.18    6.15 
  -2   1  -5    6.04    5.39 
   1   2  -5    6.70    7.66 
  -2   1   5    5.44    6.86 
   1   2   5    5.36    5.96 
  -2   1  -7   35.62    7.39 
   1   2  -7   34.93    9.81 
  -2   1   7   34.85    8.77 
   1   2   7   29.20    7.11 
  -2   1  -9  946.73   28.51 
   1   2   9  906.70   25.89 
   1   2  -9  975.90   33.15 
  -1  -2  -9  952.69   26.41 
   1   2  11  104.31   10.91 
  -1  -2 -11  115.65   12.15 
  -2   1 -11   99.01   12.05 
   1   2 -11  114.61   15.21 
  -2   1 -13  120.10   14.12 
   1   2 -13  131.41   16.90 
  -1  -2 -15   31.88    9.14 
   1   2 -15   25.98   12.04 
  -2   1 -15   42.31   10.58 
   2  -1 -15   34.73   12.84 
   2  -1 -15   23.58    8.66 
   1   2 -17  224.31   17.67 
  -1  -2 -17  265.95   19.08 
  -2   1 -17  225.12   17.26 
   2  -1 -17  210.50   23.63 
  -2   1 -17  264.88   18.81 
   1   2 -17  195.09   22.94 
   2  -1 -17  262.40   18.85 
  -2   1 -19  117.82   14.19 
   1   2 -19  140.80   15.70 
   2  -1 -19  132.22   15.94 
  -1  -2 -19  122.96   15.74 
   1   2 -21   24.57   10.07 
  -1  -2 -21   16.27   10.22 
   2  -1 -21   25.27   11.12 
  -2   1 -21   17.37    8.76 
  -1  -2 -23  115.27   13.36 
   2  -1 -23  120.12   14.21 
   1   2 -23  102.89   12.61 
   2  -1 -25   68.74    9.16 
  -1  -2 -25   63.04    9.31 
   2  -1 -25   69.26   10.34 
   0   2   0  229.10    8.04 
   0   2   0  227.51    8.62 
   0   2  -2 5081.71   41.81 
   0   2   2 5143.25   42.35 
  -2   0  -2 5078.23   30.99 
   2   0   4  392.24    9.07 
   0   2  -4  396.16   15.49 
   0   2   4  389.41   14.38 
  -2   0  -4  368.26   10.58 
   0   2   6 1094.47   25.28 
   2   0   6 1043.40   15.34 
  -2   0  -6 1063.01   21.74 
   2   0   8   13.00    3.58 
   0   2   8   12.15    7.45 
   0   2  -8   12.09    8.50 
  -2   0  -8   10.30    5.81 
   0   2  10 1225.70   33.02 
   0   2 -10 1292.82   38.98 
  -2   0 -10 1242.36   32.63 
   0  -2 -12  242.09   18.26 
   2   0 -12  232.15   20.30 
   0   2  12  243.65   16.81 
   0   2 -12  235.53   20.16 
  -2   0 -12  238.29   17.22 
   0   2 -14  251.99   22.84 
   0  -2 -14  260.53   20.97 
   2   0 -14  285.53   24.73 
   0   2 -16   46.97   10.17 
  -2   0 -16   37.62   10.06 
   2   0 -16   25.41   12.39 
   0  -2 -16   38.06    9.84 
   0   2 -16   39.37   12.93 
   2   0 -16   32.53    9.79 
  -2   0 -16   33.98    9.84 
   0   2 -16   30.66    8.73 
   0   2 -18  458.90   23.90 
   2   0 -18  442.30   24.75 
   0  -2 -18  465.57   25.31 
  -2   0 -18  477.34   24.61 
   0  -2 -20    2.27    9.52 
   2   0 -20   -2.34    9.51 
  -2   0 -20    4.55    8.32 
   0   2 -20    9.82    8.64 
   2   0 -22   37.19   11.29 
  -2   0 -22   27.31    9.50 
   0  -2 -22   38.87   12.03 
   0   2 -22   21.30    9.02 
   0  -2 -24    4.38    7.71 
   2   0 -24    8.68    7.97 
   0   2 -24    7.91    6.43 
   0  -2 -26   30.05    7.50 
   2   0 -26    3.54    4.58 
  -1   2  -1 4631.54   33.40 
  -1   2   1 4665.24   39.57 
  -1   2  -1 4665.54   39.39 
  -1   2   3  446.41   15.11 
  -1   2  -3  467.03    8.81 
  -1   2  -3  447.90   14.55 
  -1   2   5  246.02   12.92 
  -1   2  -5  244.65   13.28 
   2   1   5  242.13   10.31 
  -2  -1  -5  236.90    8.00 
  -2  -1  -7 1506.73   25.40 
  -1   2   7 1533.94   33.63 
  -1   2  -7 1543.44   34.06 
   2   1   7 1524.97   25.79 
   2   1   9  743.23   19.74 
  -2  -1  -9  813.16   23.09 
  -1   2   9  814.61   27.40 
  -1   2  -9  788.54   28.40 
  -1   2 -11  338.49   21.72 
  -2  -1 -11  343.74   18.00 
   2   1 -11  364.02   24.00 
  -1   2  11  337.08   19.87 
  -1   2 -13  317.65   22.91 
   2   1 -13  358.42   26.54 
   2   1 -15   49.95    9.70 
  -1   2 -15   51.10   12.82 
   1  -2 -15   43.30   10.09 
   2   1 -15   64.76   14.88 
   1  -2 -15   39.93   11.51 
  -2  -1 -15   42.20    9.66 
   2   1 -17   52.98   14.73 
   2   1 -17   51.99   11.42 
  -1   2 -17   45.95   10.35 
  -2  -1 -17   55.98   11.89 
   1  -2 -17   43.28   10.79 
  -1   2 -17   51.89   12.60 
  -2  -1 -19   36.05   11.29 
   1  -2 -19   32.00   11.48 
  -1   2 -19   32.84    9.85 
   1  -2 -21    7.46   10.20 
  -2  -1 -21    7.86    9.51 
  -1   2 -21    6.19    8.45 
  -2  -1 -21   16.98    8.78 
   2   1 -21    7.82    9.44 
  -2  -1 -23   58.46   11.14 
   1  -2 -23   88.01   13.21 
   2   1 -23   66.70   12.15 
   2   1 -25    1.33    5.20 
   2   1 -25    0.01    6.33 
   1  -2 -25    5.36    6.80 
  -2  -1 -25   -1.35    4.93 
  -2   2   0 3959.65   37.65 
   2   2   0 3954.81   32.99 
  -2   2   0 4018.52   41.06 
  -2   2  -2    9.86    5.85 
  -2   2  -2    6.57    3.90 
  -2   2   2   10.00    6.25 
  -2   2   4  134.56   11.23 
  -2   2  -4  131.21   10.08 
   2   2   4  126.96    9.60 
  -2   2   6   78.72   10.73 
  -2  -2  -6   84.45    5.41 
  -2   2  -6   85.24   10.49 
   2   2   6   77.89    8.66 
  -2   2  -8 2209.05   43.02 
   2   2   8 2181.30   37.49 
  -2  -2  -8 2195.70   31.53 
  -2   2   8 2350.09   46.16 
   2   2  -8 2300.04   49.38 
   2   2 -10    5.94    9.70 
  -2   2  10    3.17    7.62 
  -2  -2 -10    1.32    4.86 
   2   2  10   -0.25    5.66 
  -2   2 -10    3.07    7.35 
   2   2 -12  218.97   20.81 
  -2   2 -12  199.78   17.62 
  -2   2 -14   93.84   14.56 
   2   2 -14   83.17   16.00 
   2  -2 -16  411.18   22.06 
   2   2 -16  370.06   21.02 
  -2  -2 -16  408.05   22.34 
   2  -2 -16  364.34   29.39 
   2   2 -16  369.46   30.24 
  -2   2 -16  383.13   20.54 
   2   2 -18   11.87    9.33 
   2  -2 -18    9.12    9.56 
   2   2 -18   12.07   12.02 
  -2   2 -18   38.55   12.73 
  -2  -2 -18   11.06    9.24 
  -2  -2 -20  171.78   16.88 
   2   2 -20  174.52   16.64 
  -2  -2 -20  191.08   17.66 
   2  -2 -20  221.59   19.29 
   2  -2 -22  116.73   14.58 
  -2  -2 -22  108.50   13.84 
   2   2 -22   86.52   13.49 
   2  -2 -24   19.80    8.61 
  -2  -2 -24   23.34    8.40 
   2   2 -24   12.68    7.66 
  -2  -2 -26    0.29    3.95 
   2  -2 -26    3.20    5.41 
  -3   2  -1  639.34   19.38 
  -3   2  -1  666.49   17.45 
   2   3  -1  665.46   17.99 
   2   3   1  619.15   13.37 
  -3   2   3  257.87   14.53 
  -3   2  -3  241.89   12.61 
   2   3   3  271.21   14.52 
   2   3  -3  252.50   14.56 
  -3   2   5  466.72   20.32 
   2   3   5  436.80   18.27 
  -3   2  -5  430.72   17.63 
   2   3  -5  460.16   20.74 
   2   3   7  855.35   26.00 
  -3   2   7  881.97   29.48 
  -2  -3  -7  785.86   15.35 
  -3   2  -7  837.56   26.14 
   2   3  -7  881.70   30.87 
  -3   2   9   25.33    9.16 
  -3   2  -9   26.23    8.29 
   2   3  -9   18.95   10.02 
   2   3   9   17.34    6.91 
  -3   2 -11    1.65    7.38 
   2   3 -11    7.18    9.93 
   2   3  11    4.09    6.26 
   2   3 -13    5.62    9.53 
  -3   2 -13    2.57    7.28 
  -3   2 -15   -5.26   10.37 
   3  -2 -15   15.34    8.42 
   2   3 -15   22.65   12.43 
  -3   2 -15   24.77   11.01 
   2   3 -15   18.11    8.33 
  -2  -3 -15   20.81    8.99 
  -2  -3 -17   36.69   10.84 
  -3   2 -17   49.45   13.28 
   3  -2 -17   32.56   13.81 
   3  -2 -17   27.79   10.36 
   2   3 -17   53.04   16.15 
   2   3 -17   39.76   10.54 
   3  -2 -19   27.59   11.06 
  -3   2 -19   16.54   10.21 
  -2  -3 -19   18.23   10.41 
   2   3 -19   20.15    9.82 
   3  -2 -21    7.08   10.32 
  -2  -3 -21    6.44    9.18 
   2   3 -21   11.72    9.00 
   3  -2 -23   12.57    9.36 
  -2  -3 -23   10.58    8.50 
   2   3 -23    2.98    7.10 
   3  -2 -25    1.18    6.58 
  -2  -3 -25    3.69    6.58 
   1   3   0    0.48    4.70 
   1   3   0   -1.20    6.27 
   1   3  -2   53.42    7.74 
   1   3   2   53.78    5.23 
  -3   1  -2   55.04    7.03 
   1   3   2   60.02    8.33 
  -3   1   4    5.62    7.40 
   1   3   4    5.78    7.14 
   1   3  -4    4.14    7.32 
  -3   1  -4    3.42    5.27 
   1   3   6  856.12   25.02 
   1   3  -6  853.68   27.82 
  -3   1  -6  815.22   21.71 
   1   3  -8  157.78   14.83 
   1   3   8  154.81   13.14 
  -3   1  -8  155.57   11.73 
  -3   1 -10    2.03    6.00 
   1   3 -10    5.28    9.10 
   1   3  10   -3.25    6.74 
   1   3 -12  377.50   25.59 
   1   3  12  376.73   21.06 
  -3   1 -12  382.18   21.51 
   1   3 -14   36.73   11.62 
   1   3 -16   63.50   15.22 
   1   3 -16   48.62   10.53 
   3  -1 -16   48.94   14.91 
   1   3 -16   49.24   10.15 
  -3   1 -16   71.98   12.82 
  -1  -3 -16   55.89   11.17 
  -3   1 -16   97.00   15.69 
  -3   1 -16   53.72   10.69 
   3  -1 -16   49.40   10.56 
   3  -1 -18   14.31    9.78 
   3  -1 -18    7.30   11.47 
   1   3 -18    5.14    8.45 
   1   3 -18   13.40   10.53 
  -1  -3 -18   15.23   10.27 
  -3   1 -18    7.93    8.91 
   3  -1 -20   27.72   11.00 
  -1  -3 -20   33.52   11.78 
   1   3 -20   44.19   11.57 
   3  -1 -22   88.44   14.15 
  -1  -3 -22   86.17   13.20 
   1   3 -22   65.77   11.62 
  -1  -3 -22   90.02   13.26 
  -1  -3 -24   61.69   10.17 
   3  -1 -24   55.75   10.51 
  -1  -3 -26    1.52    5.38 
   3  -1 -26    2.04    5.05 
   0   3  -1  289.39   11.90 
   0   3   1  287.80   12.75 
   0   3   1  289.79   11.14 
   0   3  -1  284.54   12.10 
   0   3  -3 1193.69   21.03 
   0   3   3 1231.48   26.32 
  -3   0  -3 1199.30   18.91 
   0   3  -3 1201.41   26.05 
   0   3   5  594.46   20.35 
  -3   0  -5  562.17   14.61 
   0   3  -5  558.87   20.79 
   3   0   5  560.83   13.05 
   0   3  -7  884.01   28.40 
  -3   0  -7  824.38   20.21 
   0   3   7  885.51   26.82 
  -3   0  -9 1050.21   26.65 
   0   3  -9 1074.35   34.67 
   0   3   9 1050.85   31.31 
   0   3  11  222.38   16.77 
   0   3 -11  242.14   19.25 
  -3   0 -11  229.92   15.00 
   0   3  13  427.88   24.13 
   0   3 -13  474.45   29.93 
   0   3 -15   10.01   10.45 
  -3   0 -15   26.15   10.23 
  -3   0 -15   47.87   11.51 
   3   0 -15   19.83    8.69 
   3   0 -15   13.40   12.67 
   0  -3 -15   13.61    8.20 
   0  -3 -17   69.54   12.16 
   0   3 -17   45.99   10.44 
   3   0 -17   58.35   11.51 
   3   0 -17   42.58   14.86 
   0   3 -17   47.01   13.65 
  -3   0 -17   59.94   11.41 
   0   3 -17   58.35   12.04 
   3   0 -19  167.63   17.04 
   0  -3 -19  167.31   17.06 
  -3   0 -19  160.12   15.10 
   0   3 -19  167.58   15.36 
  -3   0 -19  164.78   16.02 
   0   3 -21    3.74    7.93 
  -3   0 -21    5.42    8.33 
   0  -3 -21    5.92   10.16 
   3   0 -21    8.78    9.79 
   3   0 -23    4.33    8.71 
   0  -3 -23    1.89    9.04 
   0  -3 -23    4.05    8.29 
   0  -3 -25    4.56    6.65 
   3   0 -25   -1.03    6.64 
  -1   3   0    2.40    5.28 
  -1   3   0    0.69    5.63 
  -1   3   2 5373.86   51.82 
  -1   3  -2 5254.91   51.33 
  -1   3  -2 5288.09   43.06 
  -1   3   4  907.83   24.76 
  -1   3  -4  872.43   15.72 
  -1   3  -4  886.46   23.90 
  -3  -1  -6  777.28   14.30 
  -1   3  -6  781.54   11.63 
   3   1   6  801.83   19.03 
  -1   3  -6  837.83   26.11 
  -1   3   6  833.45   25.42 
  -1   3   8  255.92   16.84 
   3   1   8  237.21   11.37 
  -3  -1  -8  223.65   10.37 
  -1   3  -8  241.80   16.53 
  -1   3 -10    5.90    7.82 
  -1   3  10    0.60    7.22 
  -3  -1 -10    0.51    4.43 
  -1   3  12   40.63   10.12 
  -1   3 -12   42.54   11.52 
   3   1 -12   51.26   13.55 
  -1   3 -14  805.14   38.64 
   1  -3 -14  810.37   36.70 
   3   1 -14  844.64   42.92 
   3   1 -16   29.52   13.81 
   1  -3 -16   41.70   10.19 
  -1   3 -16    4.75    9.56 
  -1   3 -16   42.60   13.39 
   3   1 -16   39.83   10.16 
  -3  -1 -16   32.56    9.84 
  -3  -1 -18   23.74   10.45 
   3   1 -18   35.36   11.27 
  -3  -1 -18   29.64    9.73 
  -1   3 -18   48.17   12.14 
   3   1 -18   37.26   14.20 
   1  -3 -18   34.04   11.21 
   1  -3 -20   16.81   12.02 
   3   1 -20   19.82   10.08 
  -3  -1 -20   24.23   10.24 
  -3  -1 -22   92.89   12.98 
   3   1 -22  129.43   14.37 
   1  -3 -22  136.99   15.45 
   1  -3 -24   14.89    8.69 
   1  -3 -24    5.45    8.03 
   3   1 -24    5.90    7.20 
  -3  -1 -24    3.89    6.11 
   3   1 -26   -1.17    5.19 
   1  -3 -26   -3.14    5.30 
  -2   3  -1 2278.45   31.01 
  -2   3  -1 2275.30   34.96 
  -2   3   1 2291.85   34.22 
  -2   3   3   24.07    8.33 
  -2   3  -3   17.64    7.38 
  -2   3  -3   14.43    4.37 
  -2   3   5 1431.19   33.30 
   3   2   5 1433.46   28.95 
  -2   3  -5 1430.90   32.42 
   3   2   7  692.39   21.36 
  -2   3   7  735.47   26.56 
  -2   3  -7  695.44   25.71 
   3   2  -9   20.34   10.04 
  -2   3   9   16.02    9.27 
  -2   3  -9   10.59    8.28 
   3   2   9   14.98    6.53 
  -2   3 -11   66.60   12.57 
   3   2 -11   83.15   14.76 
  -2   3  11   80.46   12.92 
  -2   3 -13  156.02   17.40 
   3   2 -13  170.41   20.75 
   2  -3 -15  545.96   24.27 
  -2   3 -15  555.94   24.76 
   3   2 -15  501.81   23.75 
   3   2 -15  529.63   36.17 
  -2   3 -15  519.67   32.30 
  -2   3 -15  479.77   21.89 
   2  -3 -15  500.75   32.01 
  -3  -2 -15  498.15   23.81 
   3   2 -17   93.51   13.26 
   2  -3 -17   90.75   13.22 
   3   2 -17   80.68   18.18 
  -2   3 -17   85.96   13.14 
  -3  -2 -17   86.44   13.01 
   3   2 -19   46.64   11.32 
   2  -3 -19   46.65   11.33 
  -2   3 -19   68.99   13.71 
  -3  -2 -19   51.65   12.00 
  -3  -2 -19   48.59   11.72 
  -3  -2 -21  266.40   19.32 
   3   2 -21  274.14   19.06 
   2  -3 -21  258.55   20.07 
   3   2 -23    4.88    8.15 
  -3  -2 -23   15.14    8.26 
   2  -3 -23   13.66    9.59 
   2  -3 -25    3.36    6.72 
   3   2 -25   -0.49    5.71 
  -3  -2 -25   -0.44    5.25 
  -3   3   0    5.78    6.75 
   3   3   0   -1.15    5.16 
  -3   3   2   65.14    9.28 
  -3   3  -2   70.97    7.73 
   3   3  -2   63.82    9.15 
   3   3   2   63.35    4.02 
  -3   3  -2   58.65    8.99 
  -3   3  -4 1313.09   31.50 
   3   3  -4 1302.07   32.62 
  -3   3   4 1313.03   32.22 
   3   3   4 1290.33   31.01 
  -3   3  -6  101.32   11.44 
   3   3   6  103.78   11.15 
   3   3  -6  106.86   13.59 
  -3   3   6   90.61   12.60 
  -3   3  -8  165.64   14.79 
   3   3   8  165.98   13.34 
  -3   3   8  177.23   16.42 
   3   3  -8  163.96   17.15 
  -3   3  10    9.09    8.55 
   3   3 -10   11.39   10.10 
   3   3  10   12.54    6.94 
  -3   3 -10   16.56    8.48 
  -3   3 -12  562.58   29.36 
   3   3 -12  567.42   33.61 
  -3   3 -14  155.28   14.37 
  -3   3 -14  136.97   17.09 
   3  -3 -14  133.17   13.35 
  -3   3 -14  136.14   13.72 
   3   3 -14  139.76   20.18 
  -3  -3 -14  125.14   12.66 
  -3   3 -16  196.54   15.61 
   3  -3 -16  195.73   22.89 
   3   3 -16  243.87   17.71 
  -3  -3 -16  242.84   18.14 
   3   3 -16  251.65   27.22 
  -3   3 -16  297.62   20.52 
   3  -3 -16  246.70   18.31 
  -3   3 -18   25.98   12.22 
   3   3 -18    5.66    9.06 
  -3  -3 -18   11.69   10.31 
   3  -3 -18    3.97   10.16 
   3   3 -18    3.49   10.95 
  -3  -3 -18   13.34    9.96 
   3  -3 -20   75.68   13.38 
   3   3 -20   58.11   11.16 
  -3  -3 -20   60.35   12.70 
   3   3 -22   34.49    9.70 
  -3  -3 -22   56.77   11.63 
   3  -3 -22   63.25   12.60 
  -3  -3 -24   82.07   10.43 
   3  -3 -24   84.10   11.47 
   3  -3 -26   -0.09    5.12 
  -3  -3 -26   -0.40    3.81 
  -4   3  -1  181.37   12.05 
   3   4   1  161.29    8.84 
   3   4  -1  161.29   11.62 
  -4   3   1  171.38   13.20 
  -4   3   3   66.29   11.20 
   3   4  -3   66.56   10.49 
  -4   3  -3   69.06    9.83 
   3   4   3   66.85   11.14 
  -4   3   5 1126.76   33.88 
   3   4   5 1084.49   31.91 
  -4   3  -5 1053.78   30.09 
   3   4  -5 1138.77   34.24 
   3   4   7  202.59   15.73 
   3   4  -7  210.72   18.34 
  -4   3   7  207.33   17.59 
  -4   3  -7  212.42   16.22 
   3   4   9  380.77   21.21 
   3   4  -9  401.62   25.46 
  -4   3   9  420.83   25.06 
  -4   3  -9  401.86   22.76 
   3   4  11 1163.16   37.03 
  -4   3 -11 1240.65   41.80 
   3   4 -11 1264.68   46.81 
   3   4 -13   58.00   15.34 
  -4   3 -13   69.53   13.10 
  -3  -4 -15   48.79   10.71 
   3   4 -15   49.67   14.78 
  -4   3 -15   55.75   11.36 
   3   4 -15   48.08    9.85 
  -4   3 -15   55.78   10.70 
  -3  -4 -15   53.82   10.65 
   4  -3 -15   49.33   10.72 
   3   4 -17  453.22   36.47 
   4  -3 -17  498.43   25.35 
   3   4 -17  472.03   23.68 
  -3  -4 -17  496.49   25.51 
  -4   3 -17  457.18   23.13 
  -4   3 -17  544.76   26.50 
   4  -3 -17  406.80   34.31 
  -4   3 -19  238.06   18.50 
   4  -3 -19  238.52   19.70 
   3   4 -19  233.92   17.51 
  -3  -4 -19  247.30   19.28 
  -3  -4 -21    3.37    9.21 
   3   4 -21    6.30    8.29 
   4  -3 -21    3.97    9.56 
  -3  -4 -23   94.69   12.55 
   3   4 -23   68.87   10.07 
   4  -3 -23   85.41   12.60 
   4  -3 -25   62.32    9.15 
  -3  -4 -25   62.34    8.88 
   2   4   0  204.45   11.27 
   2   4   0  211.12   13.99 
   2   4  -2    2.40    6.49 
  -4   2   2    2.87    7.25 
   2   4   2    1.87    3.91 
   2   4   2    0.51    7.79 
   2   4   4   82.48   10.98 
  -4   2  -4   79.54    9.15 
   2   4  -4   72.95   10.57 
  -4   2   4   74.31   11.11 
  -4   2   6  810.29   29.03 
   2   4   6  788.28   26.96 
   2   4  -6  833.92   29.52 
  -4   2  -6  770.88   24.71 
   2   4  -8    3.71    9.15 
  -4   2  -8   10.49    6.97 
   2   4   8    8.17    7.64 
  -4   2 -10  752.13   29.03 
   2   4 -10  808.41   34.90 
   2   4  10  724.12   28.96 
  -4   2 -12  152.29   15.36 
   2   4  12  135.05   14.04 
   2   4 -12  146.46   18.58 
   4  -2 -14    6.45    7.40 
  -4   2 -14   -4.94    8.63 
  -2  -4 -14    1.60    7.49 
   2   4 -14    2.37   10.04 
  -4   2 -14   -8.82    9.44 
   2   4 -16  131.36   20.41 
   2   4 -16  127.90   13.81 
   4  -2 -16  142.64   14.68 
  -4   2 -16  144.71   15.99 
  -4   2 -16  142.56   14.57 
   4  -2 -16  126.00   20.09 
  -2  -4 -16  132.92   14.51 
   2   4 -18   88.96   19.62 
  -4   2 -18  132.37   15.19 
  -2  -4 -18  124.60   15.37 
   4  -2 -18  124.03   15.33 
   2   4 -18  118.12   13.50 
   4  -2 -20   85.17   14.03 
   2   4 -20   91.24   12.56 
  -2  -4 -20   84.82   13.99 
   4  -2 -22   -3.24    9.77 
   2   4 -22    0.12    6.98 
  -2  -4 -22   -3.67    9.69 
  -2  -4 -24   12.56    7.96 
   4  -2 -24   17.69    8.48 
  -2  -4 -26   22.71    6.96 
   4  -2 -26   27.68    6.22 
   1   4   1   69.61    7.52 
   1   4  -1   71.83    8.74 
   1   4  -1   70.62    9.38 
   1   4   1   64.74    9.47 
   1   4   3    3.72    7.97 
   1   4  -3    4.43    6.93 
  -4   1  -5    9.67    5.41 
   1   4   5   17.36    8.59 
   1   4  -5    8.08    7.93 
   1   4  -7 1047.73   33.42 
  -4   1  -7 1061.54   27.10 
   1   4   7 1078.53   32.07 
  -4   1  -9  461.30   20.10 
   1   4   9  482.81   23.42 
   1   4  -9  480.21   25.37 
   1   4 -11   83.77   14.65 
   1   4  11   84.20   12.09 
  -4   1 -11   86.16   10.93 
   1   4  13  265.44   20.17 
   1   4 -13  264.21   23.27 
   4  -1 -15  243.24   25.43 
  -4   1 -15  275.89   18.19 
  -1  -4 -15  244.63   17.74 
   1   4 -15  223.75   23.95 
   4  -1 -15  234.28   17.26 
  -4   1 -15  218.29   16.09 
  -4   1 -17   43.64   11.72 
   4  -1 -17   39.50   10.98 
  -4   1 -17   70.47   16.00 
   4  -1 -17   25.54   14.25 
   1   4 -17   33.27   13.63 
  -1  -4 -17   25.81   11.07 
  -1  -4 -19   47.19   12.01 
   1   4 -19   31.95    9.57 
   4  -1 -19   38.48   11.49 
  -1  -4 -21  198.66   17.81 
   4  -1 -21  192.58   17.97 
  -1  -4 -21  191.33   18.06 
   4  -1 -23  112.46   13.36 
  -1  -4 -23  106.91   13.30 
  -1  -4 -25   -0.22    6.35 
   4  -1 -25    7.41    7.10 
   0   4   0   42.72    8.19 
   0   4   0   39.23    8.26 
   0   4   2  708.28   19.23 
   0   4  -2  721.29   21.67 
   0   4   2  690.34   22.50 
   0   4  -2  693.78   19.63 
   0   4  -4  123.68   11.60 
   0   4   4  135.73   12.24 
   0   4  -4  131.52    9.58 
   0   4  -6    3.75    8.42 
  -4   0  -6    0.23    4.34 
   4   0   6    1.28    3.48 
   0   4  -6   -0.63    4.80 
   0   4   6    3.93    7.57 
   0   4  -8 2123.94   47.78 
  -4   0  -8 2009.00   33.83 
   0   4   8 2087.04   45.55 
   0   4  10   30.41    9.43 
  -4   0 -10   26.94    6.28 
   0   4 -10   27.55   10.00 
   0   4  12   23.25    9.11 
   0   4 -12   15.48    9.82 
   0  -4 -14    0.33    6.91 
   0   4 -14    0.65    9.64 
   4   0 -14    3.48    6.94 
  -4   0 -14   12.02   10.22 
   4   0 -14    0.21   10.81 
  -4   0 -16   42.46   10.20 
  -4   0 -16   56.74   11.80 
  -4   0 -16   36.64    8.80 
   4   0 -16   32.64   13.47 
   0   4 -16   10.38    9.98 
  -4   0 -16   84.69   14.76 
   0  -4 -16   39.38   10.55 
   0   4 -16   43.60   14.04 
   4   0 -16   50.11   10.80 
  -4   0 -18   -0.98    7.82 
   0   4 -18   26.11   14.45 
   0  -4 -18    4.58    9.12 
   4   0 -18   -9.60   14.00 
   0   4 -18   33.85   10.24 
   4   0 -18    6.38    9.24 
   0  -4 -20  174.43   17.33 
   4   0 -20  151.85   16.57 
   0  -4 -22    4.10    9.22 
   4   0 -22   -5.20    9.68 
   0  -4 -22   -2.85    9.66 
   0  -4 -24   31.85    9.20 
   4   0 -24   21.46    8.94 
   0  -4 -26    7.00    5.38 
   4   0 -26    2.29    4.70 
   4   0 -26    6.35    5.45 
  -1   4   1   18.17    7.06 
  -1   4  -1   21.56    7.04 
  -1   4   1   21.19    7.67 
  -1   4  -1   26.32    7.83 
  -1   4  -3 1968.66   37.42 
  -1   4  -3 2026.16   31.13 
  -1   4   3 2060.93   38.59 
  -1   4  -5  136.46    8.49 
  -1   4  -5  135.79   12.74 
  -1   4   5  127.78   13.08 
  -1   4  -7   77.34    5.29 
   4   1   7   77.94    7.54 
  -1   4  -7   78.52   11.71 
  -4  -1  -7   68.96    5.11 
  -1   4   7   78.89   11.79 
  -1   4  -9 1014.52   35.44 
  -1   4   9 1049.88   34.98 
  -1   4 -11  356.94   23.72 
  -1   4  11  361.80   22.83 
   4   1 -13  119.79   18.43 
  -1   4 -13  115.69   16.30 
  -1   4  13  108.98   15.10 
   4   1 -15  140.02   14.08 
  -1   4 -15  151.03   14.11 
  -4  -1 -15  114.88   12.79 
   4   1 -15  125.93   20.02 
  -1   4 -15  133.93   19.68 
  -4  -1 -15  120.66   12.77 
   1  -4 -15  124.55   13.55 
  -4  -1 -17   46.53   11.21 
   4   1 -17   35.36   14.75 
  -1   4 -17   43.03   14.23 
   4   1 -17   47.83   10.87 
  -1   4 -17   23.84    9.46 
   1  -4 -17   44.76   11.35 
  -1   4 -19   43.13   10.78 
   1  -4 -19   40.65   11.65 
   4   1 -19   33.13   11.04 
  -4  -1 -19   32.91   10.22 
  -4  -1 -21   19.71    9.13 
   1  -4 -21   29.83   11.37 
   4   1 -21   31.54   11.10 
   4   1 -23   16.03    9.08 
   1  -4 -23    0.47    8.84 
   1  -4 -23   11.16    9.39 
  -4  -1 -23    7.05    7.07 
   4   1 -25   74.22    9.56 
   1  -4 -25   92.94   10.45 
  -2   4   0  341.49   16.66 
  -2   4   0  338.18   16.03 
  -2   4  -2 3643.48   51.25 
  -2   4   2 3604.25   50.53 
  -2   4  -2 3588.06   43.33 
  -2   4   4   82.08   11.02 
  -2   4  -4   77.59    7.16 
  -2   4  -4   79.15   10.90 
  -2   4   6 1045.27   32.07 
   4   2   6 1045.77   27.09 
  -2   4  -6 1072.35   32.35 
  -2   4  -8   30.77    9.30 
   4   2   8   29.35    7.38 
  -2   4   8   33.65   10.55 
  -2   4 -10 1111.61   38.76 
  -2   4  10 1119.97   38.63 
   4   2 -12   35.89   13.42 
  -2   4  12   36.10   11.11 
  -2   4 -12   25.52   10.43 
  -4  -2 -14    2.55    7.04 
   4   2 -14   -1.89    7.49 
   2  -4 -14    1.43    7.68 
  -2   4  14    4.05    8.73 
  -2   4 -14   -9.20   10.24 
  -2   4 -14   17.38   11.06 
  -4  -2 -14    6.06    7.71 
   4   2 -14    6.59   11.46 
  -2   4 -14   -5.98    8.29 
  -2   4 -16   72.01   12.13 
   4   2 -16   76.72   17.95 
   4   2 -16   74.12   12.10 
  -2   4 -16   54.61   14.61 
  -4  -2 -16   75.72   12.10 
   2  -4 -16   73.80   12.13 
   4   2 -18  286.75   19.81 
  -4  -2 -18  297.16   20.36 
   4   2 -18  237.48   28.49 
   2  -4 -18  294.93   21.37 
  -2   4 -18  303.61   18.93 
   2  -4 -20  157.24   17.36 
  -4  -2 -20  136.92   15.28 
   4   2 -20  163.85   16.69 
   4   2 -22   10.46    9.51 
   2  -4 -22    2.50    9.34 
  -4  -2 -22    6.78    8.00 
   2  -4 -24   29.14    9.15 
   4   2 -24   21.30    8.19 
  -4  -2 -24   14.19    7.16 
   2  -4 -24   22.87    9.18 
   4   2 -26    9.96    4.76 
   2  -4 -26   26.55    6.57 
   4   3   1   97.24    7.51 
  -3   4   1   93.77   11.13 
  -3   4  -1   93.69    9.62 
  -3   4  -1  101.71   11.71 
  -3   4  -3 1706.54   37.72 
  -3   4  -3 1700.63   29.75 
  -3   4   3 1703.66   38.01 
   4   3   5  136.14   12.77 
  -3   4  -5  136.34   13.82 
  -3   4  -5  121.25    7.21 
  -3   4   5  123.78   13.95 
  -3   4  -7  363.88   20.82 
   4   3  -7  357.58   22.39 
  -3   4   7  321.39   20.62 
   4   3   7  331.44   17.84 
   4   3  -9   17.73   10.66 
  -3   4  -9   20.40    9.36 
  -3   4   9   24.55   10.44 
   4   3   9   16.76    6.96 
   4   3 -11   24.12   12.46 
  -3   4 -11   15.87    9.74 
  -3   4  11   18.30    9.65 
  -3   4  13  134.32   17.49 
  -3   4 -13  143.52   17.70 
   4   3 -13  147.85   20.90 
   4   3 -15  216.71   25.72 
   4   3 -15  214.37   16.70 
   3  -4 -15  219.82   17.05 
  -3   4 -15  206.85   16.59 
  -3   4 -15  186.96   22.38 
  -3   4 -15  219.22   17.82 
  -4  -3 -15  197.36   16.26 
   4   3 -17    6.56   13.51 
  -4  -3 -17   10.21    9.47 
   3  -4 -17    3.58    9.38 
  -3   4 -17  -12.88   12.72 
   4   3 -17    8.05    9.23 
   4   3 -19    6.81    8.62 
  -3   4 -19   35.03   12.30 
   3  -4 -19    2.67   10.26 
  -4  -3 -19   13.68   10.67 
  -4  -3 -21    5.46    8.93 
   4   3 -21   10.45    8.83 
   3  -4 -21    4.54    9.70 
  -4  -3 -23   35.25    9.83 
   4   3 -23   25.93    8.83 
   3  -4 -23   43.98   10.57 
   4   3 -25    1.50    5.01 
   3  -4 -25   -1.50    6.29 
  -4  -3 -25   -0.76    4.69 
   4   4   0  296.04   13.66 
  -4   4   0  299.66   16.71 
  -4   4  -2  455.64   21.61 
   4   4   2  384.91   10.50 
   4   4  -2  456.68   20.42 
  -4   4  -2  452.41   18.66 
  -4   4   2  453.27   21.53 
  -4   4   4  133.10   14.92 
   4   4  -4  121.34   13.90 
  -4   4  -4  131.28   13.34 
   4   4   4  132.34   14.18 
  -4   4  -6    5.57    8.54 
   4   4   6    4.09    7.90 
   4   4  -6   10.14    9.42 
  -4   4   6   -2.53    8.54 
   4   4   8   88.52   12.10 
  -4   4   8   96.91   14.53 
   4   4  -8  106.31   16.52 
  -4   4  -8   88.38   12.88 
  -4   4 -10  598.29   30.11 
   4   4  10  540.99   25.49 
   4   4 -10  587.41   33.09 
  -4   4  10  579.63   30.96 
   4   4 -12   91.37   16.46 
  -4   4 -12   91.25   15.28 
  -4   4 -14   17.24    9.15 
   4  -4 -14   13.84    8.36 
  -4   4 -14   21.95   11.08 
   4   4 -14   24.74    9.08 
  -4  -4 -14   20.48    8.92 
   4   4 -14   17.24   12.06 
  -4   4 -14    4.14    8.46 
   4   4 -16  267.96   18.66 
   4   4 -16  233.18   26.97 
  -4  -4 -16  288.03   19.75 
  -4   4 -16  256.23   17.62 
   4  -4 -16  266.09   19.72 
  -4   4 -16  294.61   20.35 
  -4  -4 -18  110.08   14.68 
  -4   4 -18  108.92   14.13 
   4  -4 -18  100.19   14.56 
   4   4 -18   91.88   12.86 
   4  -4 -20   49.69   12.21 
  -4   4 -20   68.69   13.88 
   4   4 -20   45.92   10.26 
  -4  -4 -20   43.67   11.86 
   4   4 -22   44.89   10.35 
   4  -4 -22   68.27   12.21 
  -4  -4 -22   65.17   11.78 
   4  -4 -24    2.73    7.44 
   4   4 -24   -1.77    5.16 
  -4  -4 -24   -1.87    6.78 
   4  -4 -26   20.69    5.66 
  -5   4   1   15.98    8.55 
   4   5  -1   14.14    7.10 
   4   5   1   14.26    5.50 
  -5   4  -1    9.50    7.39 
   4   5  -3    4.35    7.24 
   4   5   3   12.63    9.61 
  -5   4   3   11.87    9.12 
  -5   4  -3    8.45    7.90 
   4   5  -5   14.58    9.25 
  -5   4  -5   15.38    8.44 
   4   5   5   16.25    9.68 
  -5   4   5   12.58    9.26 
  -5   4  -7   53.32   11.54 
  -5   4   7   46.37   12.38 
   4   5  -7   53.58   12.47 
   4   5   7   41.06   11.17 
  -5   4   9  178.41   18.85 
   4   5  -9  200.60   20.18 
   4   5   9  170.82   16.52 
  -5   4  -9  185.38   17.93 
   4   5  11   23.34    9.47 
   4   5 -11   34.64   12.36 
  -5   4 -11   26.63    9.51 
   4   5 -13   38.22   13.13 
  -4  -5 -13   52.98   10.12 
   5  -4 -13   39.20    9.16 
  -5   4 -13   54.93   11.00 
  -5   4 -13   67.27   13.61 
  -5   4 -13   45.80    9.65 
   4   5 -13   41.66    9.02 
   4   5 -15    2.47    7.83 
   5  -4 -15   -6.95    8.89 
   4   5 -15   -2.80   12.20 
  -4  -5 -15    0.86    7.89 
  -5   4 -15   -5.02   10.96 
  -5   4 -17   25.71   14.17 
   4   5 -17   15.22   13.49 
   4   5 -17    1.03    7.79 
   5  -4 -17    7.99    9.40 
  -4  -5 -17    2.99    9.26 
  -4  -5 -19    2.11    9.99 
   4   5 -19   12.45    8.61 
   5  -4 -19   11.00   10.88 
  -4  -5 -21   16.21   10.52 
   4   5 -21    8.63    7.79 
   5  -4 -21    4.59   10.33 
   5  -4 -23    4.60    8.82 
  -4  -5 -23    4.79    8.17 
  -4  -5 -25    3.84    5.62 
   5  -4 -25    2.08    5.73 
   5  -4 -25    0.79    5.91 
   3   5   0   -0.04    8.16 
   3   5   0   -1.21    5.50 
  -5   3   2   30.18    9.84 
   3   5   2   25.61   10.15 
   3   5  -2   27.87    8.07 
   3   5   2   23.06    5.15 
   3   5  -4  251.79   17.66 
  -5   3   4  257.62   18.58 
   3   5   4  264.54   18.34 
  -5   3  -4  258.99   16.92 
   3   5  -6  777.72   30.62 
  -5   3  -6  727.16   27.70 
   3   5   6  731.70   29.71 
  -5   3   6  766.70   31.06 
   3   5   8  173.01   16.07 
  -5   3  -8  172.94   15.23 
   3   5  -8  159.92   17.22 
   3   5 -10  120.07   16.70 
  -5   3 -10  102.20   13.13 
   3   5  10  101.77   13.62 
   3   5  12  160.10   16.57 
   3   5 -12  171.05   20.14 
  -5   3 -12  157.38   16.75 
  -3  -5 -14  189.36   15.30 
   5  -3 -14  203.10   16.36 
   3   5 -14  169.45   14.11 
   3   5 -14  207.14   23.73 
  -5   3 -14  225.54   16.74 
   3   5 -16  143.37   21.84 
  -3  -5 -16  142.35   15.10 
   5  -3 -16  141.20   15.34 
  -5   3 -16  122.01   15.28 
   3   5 -16  133.63   13.51 
  -5   3 -16  113.07   12.78 
  -3  -5 -18   -1.51    9.51 
   5  -3 -18   21.89   11.01 
   3   5 -18    5.52    8.74 
  -5   3 -18   15.92   13.14 
  -3  -5 -20   37.41   11.63 
   5  -3 -20   36.98   11.71 
   3   5 -20   34.45    9.64 
   5  -3 -22   64.37   12.01 
  -3  -5 -22   77.04   13.02 
  -3  -5 -24   51.47    9.34 
   5  -3 -24   48.14    9.22 
  -3  -5 -26   -0.91    4.54 
   5  -3 -26    2.76    4.90 
   2   5  -1  301.41   17.74 
   2   5   1  305.67   18.50 
   2   5   1  279.60   13.21 
   2   5  -1  291.27   15.29 
   2   5  -3   89.07   11.21 
   2   5   3   80.81   11.63 
  -5   2  -5  130.51   11.86 
   2   5  -5  129.86   13.33 
   2   5   5  138.95   13.85 
  -5   2  -7   10.23    6.50 
   2   5  -7   16.49    9.53 
   2   5   7   15.80    9.58 
   2   5   9   69.94   12.28 
  -5   2  -9   68.78   10.29 
   2   5  -9   79.00   13.37 
   2   5 -11   11.42    9.62 
   2   5  11    8.70    7.52 
  -5   2 -11    3.64    6.37 
  -2  -5 -13   85.48   10.66 
   2   5 -13  106.48   17.13 
   5  -2 -13   80.12   11.21 
   2   5 -15   31.22   13.24 
   5  -2 -15   41.33   10.61 
  -5   2 -15   17.96   11.10 
  -5   2 -15   23.14    9.76 
  -2  -5 -15   40.82   10.21 
   5  -2 -17   -5.00   12.97 
  -5   2 -17    7.21   11.28 
  -2  -5 -17    7.82    9.36 
   5  -2 -17   -1.86    9.63 
   2   5 -17   -3.31   10.96 
  -5   2 -17   14.56   13.14 
  -2  -5 -17    0.14    9.50 
   5  -2 -19    5.43    9.60 
  -2  -5 -19   17.52   11.11 
  -5   2 -19   10.51   11.17 
  -2  -5 -21    6.02    9.47 
   5  -2 -21   27.15   11.04 
   5  -2 -23    7.24    8.66 
  -2  -5 -23    6.29    8.93 
  -2  -5 -25    8.53    6.91 
   5  -2 -25   13.27    6.85 
   1   5   0    1.53    6.28 
   1   5   0    2.38    8.04 
   1   5  -2   36.42    8.55 
   1   5   2   31.53    6.72 
   1   5   2   30.49    9.00 
   1   5  -2   36.65    9.19 
   1   5  -4   54.45    9.00 
   1   5  -4   45.94   10.57 
   1   5   4   47.59   10.31 
  -5   1  -6 1658.29   33.59 
   1   5  -6 1689.51   34.90 
   1   5   6 1769.22   42.51 
   1   5  -6 1700.14   42.94 
  -5   1  -8   20.22    6.38 
   1   5  -8   16.50    9.14 
   1   5  -8   11.50    6.09 
   1   5   8   16.31    8.69 
  -5   1 -10   15.90    6.16 
   1   5 -10   20.62   10.05 
   1   5  10   25.84    9.03 
   1   5 -12    4.76    9.39 
   1   5  12    0.58    7.33 
  -5   1 -14  690.90   26.03 
  -1  -5 -14  735.56   27.35 
   1   5 -14  684.03   38.72 
  -5   1 -14  685.92   25.11 
   5  -1 -14  739.41   28.06 
   5  -1 -16   46.74   11.50 
  -1  -5 -16   43.56   10.19 
   1   5 -16   33.03   14.24 
  -5   1 -16   84.23   13.83 
   5  -1 -16   67.39   17.70 
  -5   1 -16   38.13   11.74 
  -1  -5 -18   88.29   13.30 
   1   5 -18   46.77   15.28 
   5  -1 -18   86.37   13.49 
   5  -1 -18   44.89   16.44 
  -1  -5 -20   35.62   11.66 
   5  -1 -20   35.76   11.98 
   5  -1 -22  180.69   16.78 
  -1  -5 -22  179.39   16.56 
  -1  -5 -24    0.85    7.30 
   5  -1 -24   -6.85    7.96 
   5  -1 -26   15.89    5.37 
   5  -1 -26   15.71    5.57 
  -1  -5 -26   16.72    5.94 
   0   5  -1    5.12    7.39 
   0   5   1    1.48    6.77 
   0   5  -1    2.51    6.85 
   0   5   1    3.28    8.30 
   0   5   3   91.90   12.24 
   0   5  -3   80.18   10.99 
   0   5  -3   88.66    9.89 
   0   5  -5   97.38   12.23 
   0   5   5   90.07   12.32 
   0   5  -5   95.68    9.76 
   0   5  -7 1438.89   40.47 
   0   5  -7 1410.63   28.81 
   0   5   7 1508.73   41.01 
   0   5  -9  328.77   22.45 
   0   5   9  313.01   21.03 
   0   5  11   91.94   13.87 
   0   5 -11   97.03   14.83 
   0   5  13  137.21   16.81 
   0   5 -13  128.26   18.47 
   0   5 -15  169.00   21.24 
   5   0 -15  194.46   16.15 
   0   5 -15  147.57   13.61 
   5   0 -15  184.81   24.22 
  -5   0 -15  173.27   16.04 
  -5   0 -15  144.97   13.91 
   0  -5 -15  166.40   15.31 
   0   5 -17  -14.99    9.75 
   5   0 -17    3.95   12.78 
   0  -5 -17    1.29    8.55 
  -5   0 -17   34.18   13.58 
   5   0 -17    4.20    8.53 
   0   5 -17   -2.81   10.96 
   0   5 -19   60.43   11.41 
   0  -5 -19   59.26   12.82 
   5   0 -19   79.86   13.39 
   0  -5 -21   12.03   10.43 
   5   0 -21   17.69    9.76 
   0  -5 -21   20.10   10.74 
   0  -5 -23   50.38   11.04 
   5   0 -23   34.27    9.98 
   5   0 -25    3.48    6.23 
   0  -5 -25    6.25    6.81 
  -1   5   0    2.09    7.94 
  -1   5   0   -0.59    7.31 
  -1   5  -2   14.56    7.88 
  -1   5  -2   12.04    7.31 
  -1   5   2    9.72    8.53 
  -1   5  -4 3409.84   45.56 
  -1   5   4 3420.06   55.97 
  -1   5  -4 3473.42   55.46 
  -1   5   6   41.80   10.51 
   5   1   6   43.49    7.18 
  -1   5  -6   44.99    6.77 
  -1   5  -6   48.14   10.27 
   5   1   8  373.44   15.37 
  -1   5  -8  421.35   23.75 
  -1   5   8  416.59   23.65 
  -1   5 -10    7.64    8.90 
  -1   5  10    1.89    8.30 
  -1   5 -12 1034.32   42.95 
  -1   5  12  988.27   40.22 
   5   1 -14   -0.37    7.23 
  -1   5 -14  -10.37    9.02 
   1  -5 -14    2.33    7.27 
   5   1 -14    1.64   11.25 
  -5  -1 -14   21.50   10.30 
  -1   5  14    4.06    8.94 
  -1   5 -14    0.41    9.34 
  -5  -1 -14    5.24    7.15 
  -1   5 -16  462.57   34.87 
  -5  -1 -16  423.71   21.98 
  -1   5 -16  499.74   23.14 
   1  -5 -16  519.19   25.63 
  -5  -1 -16  457.45   23.16 
   5   1 -16  499.13   25.05 
   5   1 -16  521.59   39.70 
   5   1 -18    2.31    9.85 
   1  -5 -18    8.98    9.57 
  -5  -1 -18    2.29    8.78 
  -1   5 -18   -9.48   10.26 
   5   1 -18   24.74   15.02 
   1  -5 -20   40.26   12.15 
   5   1 -20   43.68   11.44 
  -5  -1 -20   38.78   10.89 
  -1   5 -20   67.11   12.02 
   5   1 -22   19.22    9.90 
   1  -5 -22    4.27    9.47 
   1  -5 -22    7.91    9.80 
   1  -5 -24   99.01   11.89 
   5   1 -24  105.38   11.62 
   5   1 -26    1.02    4.64 
   1  -5 -26    4.61    5.29 
  -2   5   1  480.15   21.13 
  -2   5  -1  463.68   20.71 
  -2   5   1  469.26   20.95 
  -2   5  -1  458.95   19.27 
  -2   5   3 4094.94   60.28 
  -2   5  -3 4198.47   61.24 
  -2   5  -3 4148.97   51.52 
  -2   5   5 2062.45   45.87 
  -2   5  -5 2103.32   33.43 
  -2   5  -5 2071.27   46.18 
  -2   5  -7  368.40   22.26 
   5   2   7  373.95   17.95 
  -2   5   7  378.48   22.46 
   5   2   9  396.16   18.52 
  -2   5   9  472.08   26.71 
  -2   5  -9  441.57   25.46 
  -2   5 -11  225.53   20.86 
  -2   5  11  247.59   21.17 
   5   2 -13  286.96   27.68 
  -2   5  13  264.89   23.07 
  -2   5 -13  263.18   17.49 
   5   2 -13  273.65   17.33 
  -2   5 -13  283.73   24.85 
  -2   5  15  161.02   19.60 
  -2   5 -15  180.27   22.23 
  -2   5 -15  171.28   14.80 
  -5  -2 -15  186.19   15.84 
   5   2 -15  197.27   25.13 
   2  -5 -15  194.80   16.38 
   5   2 -15  181.14   16.14 
   5   2 -17  209.02   17.22 
  -2   5 -17  167.96   22.95 
  -2   5 -17  187.88   15.49 
  -5  -2 -17  225.36   17.71 
   5   2 -17  173.18   25.79 
   2  -5 -17  229.96   18.64 
   5   2 -19  201.98   17.79 
   2  -5 -19  214.55   18.97 
  -5  -2 -19  209.84   17.65 
  -2   5 -19  213.10   16.83 
   2  -5 -21    1.21    9.94 
  -5  -2 -21    1.24    8.47 
   5   2 -21    5.75    8.90 
   2  -5 -23   74.15   11.68 
   5   2 -23   73.97   10.84 
  -5  -2 -23   49.33    9.55 
   2  -5 -23   94.85   13.18 
   2  -5 -25   17.48    6.85 
   5   2 -25   14.48    6.39 
  -3   5   0    1.50    9.08 
  -3   5   0   -1.94    7.06 
   5   3   2 3518.63   33.83 
  -3   5  -2 3695.29   51.05 
  -3   5   2 3639.01   57.44 
  -3   5  -2 3703.82   58.55 
  -3   5  -4    2.00    5.21 
  -3   5   4    7.74    8.97 
  -3   5  -4   -2.46    7.95 
  -3   5   6 1428.19   41.29 
   5   3   6 1352.29   36.50 
  -3   5  -6 1371.35   40.15 
  -3   5  -8   80.75   13.11 
   5   3   8   77.56   10.75 
  -3   5   8   74.70   13.03 
   5   3 -10  155.56   19.04 
  -3   5  10  158.12   18.06 
  -3   5 -10  145.15   17.45 
  -3   5  12   20.39   10.68 
  -3   5 -12   27.77   11.81 
   5   3 -12   31.67   13.07 
  -3   5 -14 1041.55   33.56 
  -3   5 -14 1040.90   47.97 
   3  -5 -14 1058.54   34.07 
  -3   5 -14  999.96   30.97 
  -5  -3 -14 1071.33   33.06 
  -3   5  14 1042.44   46.32 
   5   3 -14 1106.79   33.82 
   5   3 -14 1154.36   54.70 
  -3   5 -16   30.66   13.30 
   5   3 -16   38.92   16.08 
  -5  -3 -16   34.36   10.41 
   3  -5 -16   45.72   11.61 
   5   3 -16   37.31   10.30 
  -3   5 -18  -17.02   12.62 
   5   3 -18    2.40    8.70 
   3  -5 -18    3.22   10.31 
  -5  -3 -18   10.85    9.65 
  -3   5 -20   65.38   13.33 
   5   3 -20   42.26   11.27 
   3  -5 -20   61.47   13.64 
  -5  -3 -20   35.85   11.01 
   5   3 -22  103.97   12.83 
   3  -5 -22  136.90   14.67 
  -5  -3 -22  123.41   14.05 
   3  -5 -24    2.77    7.25 
  -5  -3 -24    1.50    5.66 
   5   3 -24    2.46    6.24 
   3  -5 -26   19.92    5.85 
  -4   5   1  476.08   22.51 
   5   4  -1  462.48   19.65 
   5   4   1  425.88   14.93 
  -4   5  -1  428.11   22.65 
  -4   5  -1  466.44   21.13 
   5   4  -3    4.14    7.98 
  -4   5  -3    4.97    6.19 
  -4   5  -3    5.74    8.67 
  -4   5   3    8.08    8.96 
   5   4  -5 1265.75   39.15 
  -4   5  -5 1155.97   37.48 
  -4   5  -5 1101.43   24.66 
  -4   5   5 1173.20   37.76 
   5   4   5 1250.44   38.53 
  -4   5   7   38.94   11.48 
   5   4  -7   50.09   12.29 
   5   4   7   39.76    9.98 
  -4   5  -7   48.01   11.58 
   5   4  -9   25.35   11.11 
  -4   5  -9   33.04   11.18 
  -4   5   9   13.44   11.01 
   5   4   9   21.48    8.51 
   5   4 -11    3.53   10.06 
  -4   5  11    0.74    9.23 
  -4   5 -11    6.17    9.67 
   5   4 -13  605.88   24.96 
  -4   5  13  627.97   36.46 
   4  -5 -13  616.32   25.61 
   5   4 -13  640.58   40.01 
  -5  -4 -13  619.51   25.59 
  -4   5 -13  631.97   36.73 
  -4   5 -13  632.29   24.35 
  -4   5 -13  614.45   25.49 
  -4   5 -15  177.12   15.12 
  -4   5 -15  186.01   17.07 
   5   4 -15  189.02   25.03 
  -5  -4 -15  195.66   16.32 
  -4   5 -15  148.32   21.06 
   5   4 -15  165.85   15.39 
   4  -5 -15  188.04   16.65 
   5   4 -17    7.48    8.87 
   5   4 -17    4.97   12.25 
  -4   5 -17   -0.21   10.14 
   4  -5 -17   10.44    9.68 
  -5  -4 -17   14.30    9.99 
  -5  -4 -19   -2.68    9.46 
  -4   5 -19   28.20   12.94 
   5   4 -19    2.65    8.68 
   4  -5 -19   -1.51   10.24 
   5   4 -21  119.02   13.72 
   4  -5 -21  154.01   16.03 
  -4   5 -21  156.69   15.25 
  -5  -4 -21  147.61   15.29 
   5   4 -23   23.40    8.12 
   4  -5 -23   34.93    9.44 
  -5  -4 -23   37.79    9.53 
   4  -5 -25    1.87    5.77 
  -5  -4 -25   -0.69    4.29 
   5   5   0    0.37    5.39 
  -5   5   0    7.65    8.68 
  -5   5  -2   70.17   10.45 
  -5   5   2   75.93   12.35 
   5   5  -2   87.53   12.91 
  -5   5  -4 1966.05   49.51 
   5   5  -4 2039.80   49.10 
  -5   5   4 2006.53   52.00 
   5   5   4 2108.55   52.73 
  -5   5   6    7.15    9.88 
   5   5   6   11.27    8.95 
  -5   5  -6    7.30    9.21 
   5   5  -6    6.38    9.77 
   5   5   8    5.82    8.47 
  -5   5  -8   10.76    9.15 
  -5   5   8    6.98    9.26 
   5   5  -8   -0.46    9.06 
  -5   5 -10   70.77   13.91 
   5   5 -10   63.06   14.82 
  -5   5  10   56.85   13.08 
   5   5  10   54.08   11.26 
  -5   5 -12  876.75   41.53 
   5   5 -12  833.90   44.44 
   5  -5 -12  771.84   27.71 
  -5   5 -12  880.58   29.51 
  -5  -5 -12  827.50   28.66 
   5  -5 -14    1.87    8.04 
  -5  -5 -14   -4.00    8.71 
   5   5 -14   -3.20    8.05 
  -5   5 -14    0.82   10.21 
   5   5 -14    5.22   10.89 
  -5   5 -14   -3.18    9.07 
   5  -5 -16  177.12   16.92 
   5   5 -16  148.25   23.66 
  -5   5 -16  181.41   18.76 
   5   5 -16  177.48   15.68 
  -5  -5 -16  183.09   16.99 
  -5   5 -16  218.00   17.68 
   5  -5 -18    3.96    9.89 
   5   5 -18   -2.70    8.10 
  -5  -5 -18    0.34    9.72 
   5  -5 -20   93.51   13.67 
   5   5 -20   57.90   11.48 
  -5   5 -20   88.41   14.01 
  -5  -5 -20   65.81   12.67 
   5   5 -22    5.82    7.14 
  -5  -5 -22   17.16    9.20 
   5  -5 -22    8.00    9.03 
  -5  -5 -24   51.19    8.58 
   5  -5 -24   50.21    8.52 
   5   6  -1  371.43   19.16 
   5   6   1  419.28   26.26 
  -6   5   1  386.58   23.30 
   5   6  -3  498.44   24.62 
   5   6   3  547.83   29.71 
  -6   5   3  529.49   28.25 
  -6   5  -5   82.20   13.88 
   5   6  -5   99.01   14.32 
  -6   5   5   99.23   15.05 
   5   6   5   88.63   13.99 
  -6   5  -7   20.22    9.51 
   5   6   7   15.36    9.58 
  -6   5   7   16.03   11.22 
   5   6  -7   11.24    9.58 
   5   6  -9  269.03   24.19 
   5   6   9  240.67   21.23 
  -6   5  -9  267.20   22.71 
  -5  -6 -11  674.69   25.44 
   5   6  11  658.12   33.62 
  -6   5 -11  713.37   37.39 
   5   6 -11  730.70   40.66 
  -6   5 -11  677.87   26.23 
  -6   5 -13   -7.16    9.02 
   6  -5 -13    2.43    8.16 
   5   6 -13   -0.26   10.76 
  -5  -6 -13    0.39    7.74 
  -6   5 -13    3.01    9.02 
   5   6 -13    3.09    7.38 
  -6   5 -15   50.59   12.00 
   5   6 -15   45.60   16.42 
   6  -5 -15   50.98   11.40 
   5   6 -15   45.41   10.48 
  -6   5 -15   40.58   11.31 
  -5  -6 -15   47.21   11.05 
   6  -5 -17   86.91   13.58 
  -6   5 -17  110.02   16.60 
  -5  -6 -17   95.51   14.17 
   5   6 -17   80.30   12.06 
  -6   5 -17   58.09   11.10 
  -5  -6 -19   41.85   12.27 
  -6   5 -19   65.07   13.49 
   5   6 -19   27.45    9.52 
   6  -5 -19   46.01   11.74 
  -5  -6 -21   20.02   10.29 
   5   6 -21    7.11    7.08 
   6  -5 -21   12.98    9.53 
   6  -5 -23    9.69    7.47 
  -5  -6 -23   10.44    7.69 
  -5  -6 -25   12.89    5.75 
   6  -5 -25   34.50    6.44 
   4   6   0  814.10   25.06 
   4   6   0  887.31   34.15 
   4   6  -2   18.51    7.88 
   4   6   2   11.70    4.67 
   4   6   2   14.18   10.56 
   4   6  -4    2.85    8.06 
  -6   4   4   -2.71    9.42 
   4   6   4    0.98    9.51 
   4   6   6    9.16    9.73 
   4   6  -6    9.37    8.62 
  -6   4  -6    6.55    8.44 
   4   6   8  706.28   33.36 
   4   6  -8  697.81   34.66 
  -6   4  -8  689.60   32.13 
   4   6 -10  196.62   21.13 
   4   6  10  165.90   18.03 
  -6   4 -10  175.08   17.99 
  -4  -6 -12  523.84   23.05 
  -6   4 -12  525.45   23.13 
  -6   4 -12  523.14   22.63 
   4   6  12  479.83   29.11 
   6  -4 -12  523.33   23.79 
   4   6 -12  557.62   35.64 
  -6   4 -14   -3.25    9.55 
  -6   4 -14   20.17   10.51 
   4   6 -14   -0.78   10.78 
   4   6 -14    0.32    7.28 
   6  -4 -14   -0.99    8.85 
  -4  -6 -14    4.09    8.10 
   4   6 -16   12.56    8.57 
   4   6 -16   18.00   13.51 
  -6   4 -16   -9.71   11.81 
  -6   4 -16  -22.71   12.17 
  -4  -6 -16    7.91    9.54 
   6  -4 -16    2.64    9.13 
  -4  -6 -18   21.26   11.16 
   6  -4 -18   15.97   10.52 
  -6   4 -18   32.25   13.02 
   4   6 -18   14.45    7.62 
   6  -4 -20   61.50   12.25 
  -4  -6 -20   56.44   12.29 
   6  -4 -22   -1.33    8.95 
  -4  -6 -22   -3.12    8.69 
  -4  -6 -24   12.45    6.97 
   6  -4 -24   12.21    7.14 
   3   6  -1  210.37   17.68 
   3   6   1  212.01   18.00 
   3   6   1  193.62   12.54 
   3   6  -1  203.04   14.50 
   3   6  -3  197.59   16.01 
   3   6   3  220.69   18.38 
   3   6  -3  211.26   17.53 
   3   6  -5  279.69   19.51 
   3   6   5  282.94   20.79 
  -6   3  -7 1328.53   39.29 
   3   6   7 1435.67   44.70 
   3   6  -7 1398.38   44.70 
  -6   3  -9  419.63   23.96 
   3   6   9  419.07   26.04 
   3   6  -9  426.10   27.71 
  -6   3 -11  124.58   15.01 
   3   6 -11  122.70   18.16 
   3   6  11  122.35   15.97 
   3   6 -13  820.48   43.76 
  -3  -6 -13  872.70   29.45 
  -6   3 -13  845.93   29.51 
  -6   3 -13  892.51   29.47 
   6  -3 -13  902.31   31.09 
  -6   3 -15  521.75   25.07 
  -3  -6 -15  497.47   24.17 
   6  -3 -15  544.38   26.37 
   3   6 -15  443.40   35.65 
  -6   3 -15  504.12   23.23 
   6  -3 -17    1.62    9.84 
  -6   3 -17   23.86   12.02 
  -6   3 -17   -8.72   12.69 
  -3  -6 -17   -0.82    9.68 
  -3  -6 -19  110.37   15.20 
   6  -3 -19  114.44   15.67 
  -3  -6 -21  182.46   16.89 
   6  -3 -21  177.99   16.46 
  -3  -6 -23   45.96    9.98 
   6  -3 -23   57.04   10.46 
  -3  -6 -25    0.75    5.85 
   6  -3 -25   -0.06    5.52 
   2   6   0   60.17   11.90 
   2   6   0   62.75    9.56 
   2   6  -2  414.23   21.98 
   2   6  -2  423.26   20.52 
   2   6   2  419.93   22.60 
   2   6   2  398.66   16.27 
   2   6  -4  295.60   18.55 
   2   6  -4  310.03   19.69 
   2   6   4  303.11   20.77 
   2   6   6   24.87   10.57 
   2   6  -6   25.12    9.55 
   2   6  -6   22.38    8.37 
   2   6   8  278.74   21.02 
   2   6  -8  254.33   16.79 
  -6   2  -8  255.73   17.13 
   2   6  -8  284.72   21.95 
   2   6  10  756.91   34.46 
   2   6 -10  716.51   35.80 
   2   6  12   63.89   12.73 
   2   6 -12   65.70   15.19 
  -2  -6 -14   58.58   10.52 
   6  -2 -14   56.07   11.35 
   2   6 -14   63.08   16.15 
  -6   2 -14   45.40    9.48 
  -2  -6 -14   58.77   10.60 
  -6   2 -14   70.96   12.35 
   2   6 -16  115.24   20.20 
  -6   2 -16  115.32   14.70 
   6  -2 -16  126.61   15.00 
  -6   2 -16  142.53   16.37 
  -2  -6 -16  141.95   14.89 
  -2  -6 -18  280.87   20.60 
  -6   2 -18  324.83   21.94 
  -6   2 -18  306.92   22.20 
   6  -2 -18  304.08   21.21 
   6  -2 -20   25.58   11.13 
  -2  -6 -20   21.96   10.36 
   6  -2 -22    7.35    9.27 
  -2  -6 -22   17.62    9.78 
   6  -2 -24   20.36    7.77 
  -2  -6 -24   22.88    8.06 
   6  -2 -26    9.06    4.61 
  -2  -6 -26   21.37    5.44 
   1   6  -1   61.61   10.75 
   1   6  -1   61.10    9.70 
   1   6   1   67.88    9.37 
   1   6   1   63.02   11.30 
   1   6  -3  436.38   22.07 
   1   6   3  435.58   23.16 
   1   6  -3  415.33   20.71 
   1   6   5  845.67   31.67 
   1   6  -5  833.74   27.80 
   1   6  -5  849.37   31.77 
   1   6  -7   55.62   11.78 
   1   6  -7   71.15   10.02 
   1   6   7   63.91   12.46 
   1   6   9  249.82   20.54 
   1   6  -9  230.24   20.48 
   1   6 -11  656.51   34.72 
   1   6  11  625.60   31.91 
  -6   1 -13   71.34   10.32 
  -6   1 -13   69.97   10.52 
   6  -1 -13   85.51   11.63 
  -1  -6 -13   72.60   10.97 
   1   6 -13   77.79   16.38 
   1   6  13   78.29   13.95 
   6  -1 -15  228.63   17.70 
  -6   1 -15  215.50   16.89 
  -1  -6 -15  222.07   17.01 
   1   6 -15  210.84   24.44 
  -6   1 -15  248.77   17.98 
   1   6 -17  486.74   38.21 
  -1  -6 -17  606.76   27.64 
   6  -1 -17  582.57   27.72 
  -6   1 -17  543.44   25.75 
   6  -1 -17  540.48   42.20 
  -6   1 -17  589.83   26.50 
  -1  -6 -19   96.10   13.90 
   6  -1 -19   97.51   14.97 
  -1  -6 -21   15.26   10.63 
   6  -1 -21   13.91   10.74 
  -1  -6 -23   16.80    8.63 
   6  -1 -23   11.31    8.53 
  -1  -6 -25   57.79    8.38 
   6  -1 -25   57.94    8.42 
   0   6   0   25.52    8.65 
   0   6   0   17.35    8.94 
   0   6  -2   39.36    9.71 
   0   6   2   40.19   10.69 
   0   6  -2   44.93    9.67 
   0   6   2   46.09    9.08 
   0   6   4   31.50   10.23 
   0   6  -4   27.62    7.96 
   0   6  -4   38.08    9.91 
   0   6  -6   21.12    6.85 
   0   6   6   23.67   10.88 
   0   6  -6   18.95    9.11 
   0   6  -8    8.62    9.12 
   0   6   8    9.82    9.55 
   0   6 -10   95.31   15.23 
   0   6  10   83.83   13.91 
   0   6  12   82.79   14.70 
   0   6 -12   82.69   15.28 
   0  -6 -14   16.47    8.46 
   0   6 -14   11.60    7.51 
  -6   0 -14   21.50    8.52 
   6   0 -14   22.22    8.94 
  -6   0 -14   36.93   11.33 
   0   6 -14   14.79   11.28 
   0   6  14   28.27   11.45 
   0  -6 -16  107.81   13.50 
   6   0 -16   97.92   13.11 
   6   0 -16   98.27   20.70 
   0   6 -16   96.56   18.85 
  -6   0 -16   92.91   13.13 
   0   6 -16  140.58   14.42 
  -6   0 -16  103.16   13.47 
   0  -6 -18   87.76   13.71 
   6   0 -18   82.83   13.46 
   0   6 -18   62.77   10.53 
   0  -6 -20   76.67   13.10 
   0  -6 -20   83.22   13.55 
   6   0 -20   68.52   12.88 
   0   6 -20   96.19   12.20 
   6   0 -22    7.33    9.28 
   0  -6 -22    7.36    9.37 
   6   0 -24    8.44    7.16 
   0  -6 -24   14.59    7.82 
   6   0 -26   21.15    5.55 
   0  -6 -26   15.84    5.73 
  -1   6   1   -0.56    7.49 
  -1   6  -1    0.82    8.50 
  -1   6  -1    3.48    7.34 
  -1   6   1    2.69    8.33 
  -1   6  -3    4.82    7.01 
  -1   6   3   15.71    9.67 
  -1   6  -3    8.41    8.53 
  -1   6  -5 1180.77   37.04 
  -1   6  -5 1136.20   29.32 
  -1   6   5 1120.44   36.84 
  -1   6  -7   13.48    9.47 
  -1   6   7    8.54    9.46 
   6   1   7   13.44    5.65 
  -1   6  -9   24.35    9.91 
  -1   6   9   26.26   10.30 
  -1   6  11   30.92   11.53 
  -1   6 -11   33.21   11.52 
   1  -6 -13  267.46   17.17 
  -1   6  13  256.57   23.34 
  -1   6 -13  271.14   25.41 
  -6  -1 -13  312.82   18.74 
   6   1 -13  258.59   17.57 
   6   1 -15  145.97   23.44 
   1  -6 -15  138.34   14.64 
  -6  -1 -15  111.91   12.34 
   6   1 -15  136.32   14.57 
  -1   6  15   99.29   16.57 
  -6  -1 -15  125.88   13.55 
  -1   6 -15  133.81   20.41 
  -1   6 -15  120.37   12.45 
  -6  -1 -17   24.89   11.24 
  -1   6 -17  -14.76   12.66 
   6   1 -17    6.40    9.00 
  -6  -1 -17   -1.75    8.80 
   6   1 -17   12.58   15.85 
  -1   6 -17   -8.62    9.04 
   1  -6 -17   -0.74    9.36 
   6   1 -19   53.27   12.18 
   1  -6 -19   61.84   14.27 
  -1   6 -19   64.90   12.26 
  -6  -1 -19   34.02   10.08 
   6   1 -21   96.32   13.32 
   1  -6 -21   86.62   14.01 
   1  -6 -21   93.74   13.88 
   6   1 -23   40.40    9.33 
   1  -6 -23   38.21    9.94 
   6   1 -25   -0.54    5.28 
   1  -6 -25   -0.85    6.00 
  -2   6   0   27.57    9.51 
  -2   6   0   27.92    9.62 
  -2   6  -2    6.14    8.49 
  -2   6  -2    3.27    6.79 
  -2   6   2    3.47    8.35 
  -2   6  -4 1746.89   44.85 
  -2   6  -4 1758.94   36.92 
  -2   6   4 1726.38   43.84 
   6   2   6   25.20    8.08 
  -2   6   6   29.81   10.90 
  -2   6  -6   26.65    6.04 
  -2   6  -6   25.11   10.03 
   6   2   8    2.84    5.77 
  -2   6   8    6.19    9.22 
  -2   6  -8    6.06    9.07 
  -2   6  10   10.18   10.58 
  -2   6 -10   11.03    9.64 
  -2   6  12   21.71   10.80 
   6   2 -12   36.90   14.13 
  -2   6 -12   31.05   13.18 
  -2   6 -14   32.65   13.38 
   6   2 -14   13.18   12.21 
   2  -6 -14   31.22    9.83 
   6   2 -14   34.02    9.53 
  -2   6 -14   26.52    8.77 
  -6  -2 -14   34.93    9.08 
  -2   6  14   28.99   11.62 
  -6  -2 -16   40.52   10.53 
   6   2 -16   46.59   11.49 
   2  -6 -16   29.14   10.46 
  -2   6 -16   26.58   12.79 
   6   2 -16   41.98   16.95 
  -2   6 -16   26.01    8.92 
  -6  -2 -18    3.75    9.35 
   2  -6 -18   10.75    9.81 
   6   2 -18    7.33    9.40 
  -2   6 -18  -21.79   11.46 
   2  -6 -20   26.62   10.95 
   6   2 -20   22.54   10.17 
  -6  -2 -20   21.39   10.32 
  -2   6 -20   57.15   11.79 
   2  -6 -22    4.33    8.46 
   2  -6 -22    6.40    9.33 
  -6  -2 -22    0.61    6.78 
   6   2 -22    2.44    7.74 
   2  -6 -24    1.17    6.93 
   6   2 -24    1.07    6.63 
   2  -6 -26   21.43    5.62 
  -3   6  -1  139.41   14.97 
  -3   6   1  124.72   14.05 
  -3   6  -1  132.86   13.23 
  -3   6  -3 2727.65   55.68 
  -3   6   3 2732.17   55.05 
  -3   6  -3 2668.48   47.32 
  -3   6  -5  129.90   15.14 
   6   3   5  141.03   14.62 
  -3   6   5  127.33   14.87 
  -3   6  -5  135.70   10.78 
  -3   6   7  425.78   26.08 
   6   3   7  396.44   21.62 
  -3   6  -7  424.73   25.70 
   6   3  -9    2.78    9.66 
  -3   6  -9    1.39    9.00 
  -3   6   9    5.55    9.06 
   6   3   9    5.60    6.88 
  -3   6  11  418.02   29.29 
   6   3 -11  464.73   32.83 
  -3   6 -11  424.53   29.49 
  -3   6 -13  341.85   28.86 
   3  -6 -13  311.04   18.78 
  -3   6  13  288.94   25.76 
  -6  -3 -13  322.00   19.37 
   6   3 -13  335.34   30.88 
  -3   6 -13  302.90   19.67 
   6   3 -13  326.65   19.08 
   3  -6 -15  130.76   14.66 
  -3   6 -15  129.83   20.86 
  -3   6 -15  114.49   13.05 
   6   3 -15  127.62   13.97 
  -6  -3 -15  144.40   14.84 
   6   3 -15  139.19   22.83 
  -3   6 -15  178.81   19.11 
  -6  -3 -17   26.88   11.32 
   3  -6 -17   10.19    9.80 
   6   3 -17    4.22    8.70 
  -3   6 -19    9.44   10.32 
  -6  -3 -19   27.16   10.37 
   6   3 -19   22.97    9.80 
   3  -6 -19   28.09   10.67 
   3  -6 -21   34.25   10.60 
   6   3 -21   20.91    9.22 
   3  -6 -23   29.77    9.32 
   6   3 -23   18.52    7.99 
  -6  -3 -23   18.45    7.74 
   3  -6 -25   26.56    6.83 
   6   3 -25   16.14    5.76 
   6   4   0 1224.16   30.51 
  -4   6   0 1220.49   37.10 
  -4   6  -2  564.92   24.52 
  -4   6  -2  518.30   26.56 
   6   4  -2  550.83   24.38 
  -4   6   2  559.77   27.42 
   6   4   4  117.87   15.00 
  -4   6  -4  115.53   14.69 
  -4   6   4  109.12   14.67 
   6   4  -4  113.63   13.91 
  -4   6  -4  112.68   11.19 
  -4   6   6  567.31   29.18 
  -4   6  -6  556.62   29.34 
   6   4   6  547.40   27.25 
   6   4  -6  559.36   30.51 
   6   4   8   33.32    9.67 
   6   4  -8   58.39   14.32 
  -4   6  -8   51.61   12.25 
  -4   6   8   38.36   12.30 
   6   4 -10   10.96   11.12 
  -4   6  10    4.80   10.69 
  -4   6 -10   -3.64    9.90 
   4  -6 -12   82.34   11.07 
  -6  -4 -12  102.51   12.08 
   6   4 -12  119.37   20.27 
  -4   6  12   94.56   17.12 
  -4   6 -12  100.24   17.59 
  -4   6 -12  101.11   12.79 
  -4   6 -14  -12.61   11.23 
   4  -6 -14   -4.42    8.57 
   6   4 -14    1.89    7.86 
   6   4 -14    1.85   11.65 
  -4   6 -14  -13.15   10.59 
  -4   6 -14    4.69   10.75 
  -6  -4 -14   -1.90    8.32 
   6   4 -16   -1.77    9.01 
  -4   6 -16   -5.45    9.73 
  -6  -4 -16    4.84    9.32 
   6   4 -16   14.00   13.93 
   4  -6 -16    8.59    9.97 
   6   4 -18   29.46   10.24 
  -4   6 -18    7.09   11.88 
   4  -6 -18   28.56   10.89 
  -6  -4 -18   17.53   10.26 
  -4   6 -20   46.86   13.44 
  -6  -4 -20   22.98   10.06 
   6   4 -20   18.15    9.11 
   4  -6 -20   25.89   11.05 
   6   4 -22   -0.24    7.00 
   4  -6 -22   -1.01    8.76 
  -6  -4 -22   -5.60    8.39 
   4  -6 -24    2.92    6.31 
  -6  -4 -24    1.43    5.17 
   6   4 -24   -2.84    5.16 
   6   5  -1    3.37    6.19 
  -5   6   1    8.22    9.12 
  -5   6  -1    3.82    7.45 
  -5   6  -3  958.42   31.35 
  -5   6  -3  899.65   36.29 
   6   5   3 1008.45   38.73 
  -5   6   3  964.77   36.98 
   6   5  -3  967.38   34.47 
  -5   6   5  415.12   26.92 
   6   5  -5  414.38   26.05 
   6   5   5  432.86   26.31 
  -5   6  -5  422.66   26.14 
  -5   6   7   30.61   11.09 
   6   5  -7   29.01   11.90 
  -5   6  -7   35.71   11.55 
   6   5   7   36.09   11.12 
  -5   6   9  125.60   18.08 
  -5   6  -9  121.47   17.08 
   6   5   9  119.05   15.15 
   6   5  -9  131.83   18.84 
  -5   6  11  379.46   29.39 
   6   5 -11  370.72   30.95 
  -5   6 -11  383.44   20.29 
  -5   6 -11  370.82   28.83 
  -6  -5 -11  360.37   19.43 
  -5   6 -13  114.39   18.93 
  -5   6 -13  121.51   13.92 
  -6  -5 -13  126.15   13.68 
   5  -6 -13  106.64   12.66 
   6   5 -13  109.33   20.52 
  -6  -5 -15   60.36   12.05 
   6   5 -15   63.64   18.53 
   6   5 -15   52.24   10.81 
   5  -6 -15   67.85   11.90 
  -5   6 -15   53.46   11.00 
  -5   6 -15   63.27   13.66 
   5  -6 -17    2.26    9.01 
   6   5 -17   -3.71    8.36 
  -5   6 -17   13.46   11.77 
  -6  -5 -17  -10.03   10.25 
   6   5 -19   59.59   11.21 
   5  -6 -19   59.13   12.32 
  -5   6 -19   47.59   11.66 
  -6  -5 -19   55.95   12.46 
   5  -6 -21   12.61    9.49 
  -6  -5 -21   11.56    9.72 
  -5   6 -21   37.38   10.66 
   6   5 -21    6.56    7.43 
  -6  -5 -23   14.65    7.66 
   5  -6 -23   25.68    8.30 
   6   5 -23    7.35    6.01 
   5  -6 -25   17.67    5.61 
  -6   6   0  100.30   13.90 
  -6   6  -2  603.39   27.77 
  -6   6   2  631.55   31.38 
   6   6   2  618.25   32.51 
   6   6  -2  583.83   26.15 
   6   6  -4   11.27    8.94 
  -6   6   4    6.58    9.68 
   6   6   4   15.26   10.98 
  -6   6   6  332.40   25.38 
   6   6  -6  298.44   23.81 
  -6   6  -6  297.38   24.13 
   6   6   6  302.35   24.02 
  -6   6   8    3.27   10.03 
   6   6  -8   -1.95    9.88 
   6   6   8    0.07    8.92 
  -6   6  -8    4.39    9.08 
  -6   6 -10  569.30   23.95 
  -6   6  10  609.67   37.02 
  -6  -6 -10  575.01   23.87 
  -6   6 -10  584.18   35.15 
   6   6  10  537.92   31.17 
   6   6 -10  594.64   37.72 
   6   6 -12   24.53   12.66 
   6  -6 -12   19.22    8.57 
  -6   6 -12   20.91   11.54 
  -6   6 -12   41.16   11.28 
  -6  -6 -12   28.85    9.23 
   6   6 -14   27.86    9.90 
  -6  -6 -14   24.02    9.97 
   6  -6 -14   29.66    9.74 
  -6   6 -14   14.42   10.20 
  -6   6 -14   12.76    9.03 
   6   6 -14   24.12   13.56 
  -6  -6 -16   71.46   13.13 
   6   6 -16   64.66   11.54 
   6  -6 -16   71.03   12.67 
  -6   6 -16   68.62   14.65 
  -6   6 -18  133.34   14.52 
   6  -6 -18  172.29   16.49 
   6   6 -18  139.15   14.61 
   6  -6 -20   -0.05    8.68 
   6   6 -20    1.21    7.48 
  -6  -6 -20   -6.42    9.92 
   6   6 -22    1.87    5.02 
  -6  -6 -22    3.72    7.71 
   6  -6 -22   -1.55    7.58 
   6  -6 -24    1.76    5.41 
  -6  -6 -24   -0.69    5.32 
   6   7  -1  370.20   27.12 
   6   7   1  378.22   28.28 
  -7   6   3   72.08   14.14 
   6   7   3   89.72   18.04 
   6   7  -3   69.47   11.87 
   6   7   5   14.79   11.02 
  -7   6   5   12.46   10.60 
   6   7  -5   17.07    9.55 
   6   7  -7  304.54   25.34 
   6   7   7  295.96   25.43 
  -7   6   9  193.76   14.75 
  -6  -7  -9  214.60   15.74 
  -7   6  -9  229.92   16.61 
   6   7   9  227.31   22.64 
   6   7  -9  234.07   24.58 
  -7   6  -9  220.24   22.79 
  -6  -7 -11   28.49    9.23 
  -7   6 -11   31.92    9.54 
  -7   6  11   22.03    8.37 
  -7   6 -11   29.91   12.49 
   6   7 -11   20.30   12.82 
  -6  -7 -13   37.89   10.68 
   7  -6 -13   36.55    9.88 
   6   7 -13   54.40   17.04 
  -7   6 -13   42.56   11.44 
  -7   6 -13   28.65    9.59 
   7  -6 -15   -0.74    8.88 
   6   7 -15    4.92    8.14 
  -7   6 -15   -6.84   11.25 
  -7   6 -15    2.80   11.44 
  -6  -7 -15    9.02   10.25 
  -7   6 -17   80.20   15.55 
  -6  -7 -17   68.32   13.28 
   7  -6 -17   54.75   11.39 
   6   7 -17   58.73   10.74 
  -7   6 -17   32.08   11.98 
  -6  -7 -19    8.53    9.82 
   6   7 -19    4.85    7.38 
   7  -6 -19    3.24    9.06 
  -6  -7 -21   58.63   10.93 
   7  -6 -21   57.79   10.22 
  -6  -7 -23    3.82    6.46 
   7  -6 -23   -0.25    5.87 
   5   7   0    0.23    5.61 
   5   7   0    3.26   11.28 
   5   7  -2   48.47   13.30 
   5   7   2   61.93   14.30 
   5   7  -2   43.83    9.80 
   5   7   4   27.22   12.71 
   5   7  -4   17.91    8.95 
   5   7   6  202.13   20.65 
   5   7  -6  185.04   18.81 
   5   7   8   51.42   13.30 
   5   7  -8   46.51   12.50 
   5   7 -10  171.37   20.77 
  -7   5 -10  144.73   18.60 
   5   7  10  157.34   19.45 
  -5  -7 -10  172.83   14.14 
  -7   5  10  141.59   13.20 
  -7   5 -10  170.85   14.77 
  -7   5 -12    0.69    9.24 
  -7   5  12    3.50    7.21 
   5   7 -12    7.25   10.71 
  -7   5 -12    6.91    8.08 
   7  -5 -12    5.43    7.50 
  -5  -7 -12    7.48    8.19 
   5   7 -14  234.39   27.49 
  -7   5 -14  219.56   17.47 
  -7   5 -14  248.79   18.57 
   5   7 -14  203.13   15.98 
   7  -5 -14  233.62   18.32 
  -5  -7 -14  239.80   18.62 
  -5  -7 -16   34.37   11.76 
   5   7 -16   27.57    9.14 
  -7   5 -16   26.90   10.58 
   7  -5 -16   37.16   11.38 
  -7   5 -16   34.35   12.59 
   5   7 -18    0.69    7.02 
  -5  -7 -18   13.88   10.62 
   7  -5 -18    7.39    9.42 
  -7   5 -18   25.19   11.91 
   7  -5 -20   -0.77    8.98 
  -5  -7 -20    0.85    9.37 
   7  -5 -22   58.39   10.06 
  -5  -7 -22   63.66   10.77 
  -5  -7 -24    6.59    5.74 
   7  -5 -24    6.38    5.56 
   4   7  -1  125.91   12.75 
   4   7  -1  132.82   17.11 
   4   7   1  118.44   10.89 
   4   7   1  129.00   17.17 
   4   7  -3   49.14   12.05 
   4   7  -3   57.23   11.17 
   4   7   3   51.22   13.61 
   4   7  -5   41.67   10.62 
   4   7   5   45.24   12.93 
   4   7  -5   36.31   11.65 
   4   7  -7  274.73   22.95 
   4   7   7  317.13   24.51 
   4   7  -9   47.94   12.89 
   4   7   9   39.02   11.79 
   4   7  -9   45.87   11.33 
   7  -4 -11  429.83   21.57 
   4   7 -11  508.76   34.59 
  -7   4 -11  493.53   22.38 
  -7   4 -11  481.96   21.92 
  -4  -7 -11  519.08   22.67 
   4   7  11  484.67   30.87 
   4   7 -13   11.90   11.10 
  -7   4 -13   16.48    9.47 
  -4  -7 -13   10.42    8.24 
   7  -4 -13   12.29    9.45 
  -7   4  13    8.17    7.52 
  -7   4 -13    7.96    8.89 
  -4  -7 -15   59.98   11.72 
   7  -4 -15   47.02   11.58 
  -7   4 -15   46.33   11.95 
   4   7 -15   40.37   15.25 
  -7   4 -15   38.79   11.52 
  -7   4 -17   -7.56   11.08 
   7  -4 -17    2.27    9.62 
  -7   4 -17  -12.67   13.40 
  -4  -7 -17    3.21    9.88 
  -4  -7 -19   37.93   11.92 
  -7   4 -19   58.56   13.02 
   7  -4 -19   45.10   11.82 
  -4  -7 -21   -3.73    9.34 
   7  -4 -21    4.55    8.65 
   7  -4 -23    2.41    7.25 
  -4  -7 -23    0.16    7.37 
  -4  -7 -25    0.21    4.50 
   7  -4 -25    4.51    4.63 
   3   7   0    1.82    9.84 
   3   7   0    0.40    6.36 
   3   7  -2  179.93   15.66 
   3   7   2  186.64   18.13 
   3   7  -2  180.52   17.21 
   3   7   2  165.60   11.76 
   3   7   4    9.64   10.25 
   3   7  -4   11.90    9.00 
   3   7  -4   14.59    9.41 
   3   7  -6  438.14   26.44 
   3   7  -6  423.19   24.57 
   3   7   6  425.08   27.02 
   3   7  -8   12.83    9.76 
   3   7  -8   18.10    8.61 
   3   7   8   12.25   10.35 
   3   7 -10   21.05   11.40 
   3   7  10   22.00   10.75 
  -7   3 -12   88.21   11.71 
   3   7  12   68.16   13.71 
   3   7 -12   72.48   15.50 
  -7   3 -12   99.96   12.13 
  -3  -7 -12   91.06   11.53 
   7  -3 -12   83.09   11.71 
  -7   3 -14  387.74   21.49 
  -7   3 -14  358.98   20.85 
   7  -3 -14  399.67   22.97 
   3   7 -14  363.97   31.64 
  -3  -7 -14  370.65   21.06 
  -3  -7 -16   70.13   12.81 
   7  -3 -16   65.55   12.91 
   3   7 -16   69.98   17.78 
  -7   3 -16   61.94   13.16 
  -7   3 -16   73.19   13.27 
   7  -3 -18   70.93   14.10 
  -7   3 -18  108.72   16.00 
  -7   3 -18   72.71   14.13 
  -3  -7 -18   79.37   13.35 
   7  -3 -20    5.87    9.15 
  -3  -7 -20   14.74   10.46 
   7  -3 -22   40.11   10.06 
  -3  -7 -22   38.37   10.40 
  -3  -7 -24    6.04    6.54 
   7  -3 -24    2.73    6.36 
   2   7  -1    8.20    9.21 
   2   7   1    6.65    9.66 
   2   7  -1    5.87    7.11 
   2   7   1    7.61    6.65 
   2   7  -3  390.69   22.44 
   2   7  -3  392.27   22.37 
   2   7   3  368.85   23.96 
   2   7  -5  232.31   18.00 
   2   7   5  261.49   20.60 
   2   7  -5  264.59   20.05 
   2   7   7   35.51   12.14 
   2   7  -7   41.86    9.60 
   2   7  -7   45.25   11.60 
   2   7  -9  180.13   19.39 
   2   7   9  185.88   19.30 
   2   7 -11  212.08   22.39 
   2   7  11  187.30   19.87 
  -7   2 -11  221.18   15.75 
   2   7 -13   37.77   13.45 
  -2  -7 -13   36.28    9.13 
  -7   2 -13   16.67    8.97 
   7  -2 -13   31.93    9.64 
  -7   2 -13   32.61    9.52 
   2   7  13   22.91   10.69 
   7  -2 -15   49.62   11.64 
  -2  -7 -15   34.41   10.11 
  -7   2 -15   49.60   12.17 
   2   7 -15   33.97   13.67 
  -7   2 -15   52.30   12.21 
   7  -2 -17  139.85   16.05 
  -7   2 -17  122.13   15.76 
  -7   2 -17  163.86   16.41 
  -2  -7 -17  149.96   16.13 
  -2  -7 -19   34.36   11.37 
   7  -2 -19   19.34   10.64 
   7  -2 -21    1.81    9.45 
  -2  -7 -21    2.61    9.71 
  -2  -7 -23   37.01    9.61 
   7  -2 -23   18.91    8.24 
   7  -2 -25   23.32    6.14 
  -2  -7 -25   19.59    6.30 
   1   7   0   -1.83    7.18 
   1   7   0   -1.47    8.85 
   1   7   2  171.63   13.42 
   1   7  -2  158.88   15.11 
   1   7  -2  167.46   15.88 
   1   7   2  177.69   17.31 
   1   7  -4  905.98   33.83 
   1   7   4  890.74   35.05 
   1   7  -4  866.90   31.03 
   1   7  -6   22.81    8.06 
   1   7  -6   20.13    9.65 
   1   7   6   23.82   10.27 
   1   7  -8   93.66   11.01 
   1   7  -8  111.37   16.43 
   1   7   8  109.22   16.02 
   1   7  10   28.95   11.78 
   1   7 -10   16.84   10.52 
   1   7  12  285.83   24.13 
  -7   1 -12  270.68   16.47 
  -1  -7 -12  289.94   17.68 
   1   7 -12  284.46   26.60 
   7  -1 -12  314.17   18.98 
  -7   1 -12  290.10   17.17 
  -1  -7 -14    0.23    7.76 
   7  -1 -14    0.97    8.26 
   1   7 -14    4.92   10.64 
  -7   1 -14  -10.22    9.32 
   1   7  14   -0.32    9.32 
   7  -1 -16  302.64   20.92 
   7  -1 -16  282.29   31.61 
  -7   1 -16  259.45   18.90 
  -1  -7 -16  296.71   19.90 
  -7   1 -16  290.41   19.65 
   1   7 -16  258.67   28.70 
  -1  -7 -18    3.35    9.47 
  -7   1 -18   18.44   11.72 
   7  -1 -18    0.10    9.68 
   7  -1 -20   39.16   11.23 
  -1  -7 -20   36.54   11.49 
  -1  -7 -22    2.89    9.06 
   7  -1 -22   -6.92    8.97 
   7  -1 -24   86.36   10.02 
  -1  -7 -24   82.05   10.10 
   0   7  -1  311.85   19.86 
   0   7   1  313.00   20.61 
   0   7  -1  293.72   19.38 
   0   7   1  315.21   18.98 
   0   7  -3  417.09   23.75 
   0   7  -3  425.69   22.10 
   0   7   3  402.54   24.04 
   0   7  -5  188.76   15.09 
   0   7  -5  194.80   17.69 
   0   7   5  198.09   18.16 
   0   7  -7  413.94   20.31 
   0   7  -7  415.83   25.60 
   0   7   7  444.42   27.03 
   0   7   9  209.75   19.95 
   0   7  -9  217.43   20.96 
   0   7 -11   85.93   15.37 
   0   7  11   91.13   15.61 
   7   0 -13   61.18   10.94 
  -7   0 -13   53.03    9.97 
  -7   0 -13   97.64   14.24 
   0   7  13   58.95   14.23 
   0  -7 -13   57.70   10.35 
   0   7 -13   70.61   15.49 
   7   0 -15  459.59   38.29 
   0   7 -15  435.00   34.48 
  -7   0 -15  441.39   22.78 
   7   0 -15  473.84   24.34 
   0   7 -15  389.59   19.44 
   0  -7 -15  445.56   23.30 
  -7   0 -15  442.47   22.43 
   0  -7 -17   52.68   11.95 
   7   0 -17   52.10   11.98 
   0   7 -17   28.91    8.93 
  -7   0 -17   32.77   10.63 
   7   0 -19  116.72   14.83 
   0   7 -19   95.44   12.38 
   0  -7 -19  114.11   14.57 
   0  -7 -21   62.55   12.29 
   7   0 -21   63.02   12.20 
   0  -7 -23   17.74    8.39 
   7   0 -23   19.04    8.19 
   0  -7 -25    9.71    6.03 
   7   0 -25   14.79    5.86 
  -1   7   0    2.14    9.24 
  -1   7   0    2.02    7.96 
  -1   7  -2  884.14   32.78 
  -1   7   2  907.20   33.13 
  -1   7  -2  882.48   30.68 
  -1   7  -4    9.85    7.20 
  -1   7  -4    9.71    9.28 
  -1   7   4   11.22   10.20 
  -1   7   6 1732.58   49.63 
  -1   7  -6 1730.77   49.08 
  -1   7  -6 1732.75   39.18 
  -1   7  -8   49.25   12.41 
  -1   7   8   38.04   11.91 
  -1   7  10  530.41   31.07 
  -1   7 -10  557.89   32.43 
   1  -7 -12    3.08    6.76 
   7   1 -12    5.58    7.02 
  -7  -1 -12   14.42    9.15 
  -1   7 -12    1.42    9.85 
  -1   7  12   -0.49    9.83 
  -1   7 -14  411.61   20.50 
   1  -7 -14  454.99   22.88 
   7   1 -14  483.74   37.93 
  -1   7 -14  432.35   33.73 
  -7  -1 -14  388.85   20.43 
   7   1 -14  459.57   23.22 
  -1   7  14  428.14   32.13 
  -7  -1 -14  404.35   20.35 
  -7  -1 -16    2.59    8.04 
  -1   7 -16    0.64   11.77 
   1  -7 -16   -3.31    8.54 
  -7  -1 -16   -3.30    8.96 
   7   1 -16    6.92   14.27 
  -1   7 -16  -17.28    9.75 
   7   1 -16    5.88    9.18 
   1  -7 -18    1.48   10.23 
  -1   7 -18  -15.73   10.85 
   7   1 -18   12.19   10.31 
   1  -7 -20   52.37   12.28 
  -1   7 -20   63.25   11.62 
   7   1 -20   46.14   11.63 
   7   1 -22  162.45   14.40 
   1  -7 -22  149.68   14.49 
   7   1 -24    1.77    6.24 
   1  -7 -24   -1.53    6.48 
  -2   7   1  645.95   27.97 
  -2   7  -1  658.26   27.59 
  -2   7   1  662.54   28.92 
  -2   7  -1  654.88   28.67 
  -2   7  -3  216.14   18.13 
  -2   7   3  212.21   18.53 
  -2   7  -3  200.16   15.59 
  -2   7  -5 2135.75   53.89 
  -2   7   5 2103.96   53.35 
  -2   7  -5 2115.14   43.90 
  -2   7   7  260.81   21.56 
  -2   7  -7  285.29   22.50 
   7   2   7  252.66   17.60 
  -2   7  -9   16.05   10.16 
  -2   7   9   12.63   10.07 
  -2   7  11  261.74   23.83 
  -2   7 -11  318.85   26.54 
  -2   7  13  268.47   26.12 
   2  -7 -13  275.51   17.88 
   7   2 -13  281.05   18.54 
  -2   7 -13  263.48   26.41 
   7   2 -13  317.60   31.00 
  -7  -2 -13  264.05   17.48 
   2  -7 -15    4.62    8.86 
  -2   7 -15    1.98   11.32 
   7   2 -15    4.28    8.82 
  -2   7 -15  -11.39    9.96 
  -2   7  15   -5.53   10.74 
  -7  -2 -15    2.96    8.38 
   7   2 -15   11.98   13.08 
   2  -7 -17   23.86   10.26 
   7   2 -17   23.80   10.10 
  -7  -2 -17   16.04    9.83 
   7   2 -19   13.75   10.29 
   2  -7 -19   11.21   10.41 
  -7  -2 -19   12.26    9.38 
   7   2 -21   26.70    9.88 
  -2   7 -21   43.33   10.00 
  -7  -2 -21   27.92    8.75 
   2  -7 -21   41.21   11.34 
   2  -7 -23   23.73    8.82 
   7   2 -23   36.68   10.57 
   7   2 -25   11.79    5.29 
   2  -7 -25   10.93    5.77 
  -3   7   0    2.89    9.27 
  -3   7   0    1.16    8.48 
  -3   7   2    8.03    9.17 
  -3   7  -2    4.36    7.53 
  -3   7  -2    4.27    9.58 
  -3   7  -4 6127.91   76.00 
  -3   7   4 6115.73   90.12 
  -3   7  -4 6127.31   91.05 
   7   3   6   50.03   10.95 
  -3   7   6   61.04   12.67 
  -3   7  -6   62.75   13.54 
  -3   7   8   89.70   15.72 
   7   3   8   73.49   11.16 
  -3   7  -8   76.73   15.05 
   7   3 -10    3.08   10.65 
  -3   7  10    3.07    9.87 
  -3   7 -10   -0.25    9.42 
  -3   7 -12  832.82   30.01 
   7   3 -12  974.72   50.70 
   3  -7 -12  784.69   27.73 
  -3   7  12  923.62   45.28 
  -3   7 -12  951.42   47.24 
  -7  -3 -12  892.84   29.87 
  -7  -3 -14   14.64    8.77 
   3  -7 -14   11.34    8.20 
   7   3 -14   11.99    8.92 
   7   3 -14   27.46   15.69 
  -3   7 -14    8.26   12.06 
  -3   7  14    7.57   10.92 
   7   3 -16   34.97   16.04 
   7   3 -16   46.43   11.50 
  -7  -3 -16   38.65   10.77 
  -3   7 -16   39.01   16.54 
  -3   7 -16   39.10   10.27 
   3  -7 -16   53.58   11.31 
   7   3 -18    3.33    9.30 
   3  -7 -18   -2.37    9.84 
  -7  -3 -18   -0.03    8.93 
  -3   7 -18   -1.84    9.18 
   7   3 -20  231.01   17.47 
  -3   7 -20  240.69   16.95 
   3  -7 -20  216.70   17.58 
  -7  -3 -20  182.69   16.94 
   3  -7 -22    4.55    8.52 
  -7  -3 -22    1.47    6.58 
   7   3 -22    7.65    7.66 
   7   3 -24   58.61    8.24 
   3  -7 -24   73.16    9.27 
  -4   7  -1    3.77    8.17 
  -4   7   1    4.51    9.35 
   7   4  -1    5.52    7.29 
  -4   7  -3 1289.32   37.94 
  -4   7  -3 1280.51   43.73 
   7   4  -3 1288.72   40.21 
  -4   7   3 1304.24   43.75 
  -4   7  -5  574.80   30.51 
   7   4   5  579.14   29.87 
  -4   7   5  579.30   30.90 
   7   4  -5  580.73   30.00 
   7   4   7    2.86    7.47 
  -4   7  -7    6.83    9.53 
  -4   7   7    6.49    9.66 
   7   4  -7   -0.89   10.42 
   7   4   9   -0.43    7.84 
  -4   7  -9    3.74   10.55 
   7   4  -9   11.91   11.41 
  -4   7   9    4.01    9.78 
   7   4 -11  182.79   23.54 
  -4   7  11  182.38   21.81 
  -4   7 -11  184.16   22.23 
  -4   7 -11  169.77   14.62 
  -7  -4 -11  169.90   14.52 
  -7  -4 -13  124.93   14.30 
  -4   7 -13  116.14   19.90 
  -4   7 -13  113.48   14.72 
  -4   7  13  107.54   18.44 
   7   4 -13  128.32   22.63 
   4  -7 -13  109.14   13.05 
  -7  -4 -15    7.37    9.33 
   7   4 -15   -1.80   12.84 
   4  -7 -15    2.14    8.21 
   7   4 -15   -0.28    8.64 
  -4   7 -15   34.93   15.38 
  -4   7 -15   -5.30   10.98 
  -4   7 -15    5.95   11.51 
   7   4 -17   47.39   11.20 
  -7  -4 -17   44.81   12.26 
   4  -7 -17   53.31   11.92 
   7   4 -19  172.35   15.87 
  -7  -4 -19  172.09   16.96 
   4  -7 -19  173.68   16.18 
  -7  -4 -21    8.07    8.85 
   4  -7 -21   10.61    8.42 
   7   4 -21   14.62    8.16 
  -4   7 -21   12.05    8.96 
   4  -7 -23    7.58    7.23 
   7   4 -23    6.90    6.24 
  -7  -4 -23    2.03    6.03 
   4  -7 -25    3.70    4.68 
  -5   7   0    3.03    8.38 
  -5   7   2  819.21   35.46 
  -5   7  -2  784.47   32.20 
   7   5  -2  783.73   30.60 
  -5   7  -4   -1.20   10.18 
  -5   7   4    3.52    9.57 
   7   5   4   -0.18   10.42 
   7   5  -4    2.79    8.55 
  -5   7   6  291.67   24.29 
   7   5  -6  280.00   24.15 
  -5   7  -6  268.81   23.06 
   7   5   6  287.83   23.05 
   7   5  -8  103.73   18.30 
  -5   7   8  103.01   17.10 
  -5   7  -8  110.08   17.13 
   7   5   8  105.13   14.99 
  -7  -5 -10  179.98   14.91 
  -5   7  10  193.22   22.40 
  -5   7 -10  203.33   22.30 
   7   5 -10  230.98   25.60 
  -5   7 -10  164.05   14.52 
   7   5 -12   10.44   11.89 
  -5   7 -12   -6.09    9.91 
  -7  -5 -12    7.59    9.01 
   5  -7 -12    4.44    7.43 
  -5   7  12    3.91   10.77 
  -5   7 -12    1.63   11.37 
   5  -7 -14  176.39   15.96 
  -5   7 -14  177.23   17.75 
   7   5 -14  169.02   24.99 
  -5   7 -14  148.92   22.50 
  -7  -5 -14  177.62   16.75 
   7   5 -14  180.30   16.00 
  -5   7 -14  168.93   15.55 
   5  -7 -16    4.68    9.00 
   7   5 -16    0.39    8.89 
  -5   7 -16  -13.92   10.44 
  -7  -5 -16    5.24   10.72 
  -7  -5 -18   54.90   12.92 
   7   5 -18   51.85   10.88 
  -5   7 -18   51.33   11.62 
   5  -7 -18   52.30   11.76 
   5  -7 -20   -2.40    9.02 
   7   5 -20   -0.07    7.51 
  -7  -5 -20    3.68    8.59 
   7   5 -22   39.74    8.68 
  -7  -5 -22   69.35   10.14 
   5  -7 -24    7.09    5.83 
  -7  -5 -24    0.16    3.97 
  -6   7   1  149.69   17.67 
  -6   7  -1  149.51   16.44 
  -6   7   3  104.37   16.23 
  -6   7  -3  105.20   13.48 
   7   6  -3   91.50   12.96 
   7   6   3  125.97   18.51 
   7   6   5   10.75   10.32 
   7   6  -5    1.94    8.51 
  -6   7   5    6.32   10.58 
   7   6  -7   50.34   13.53 
  -6   7   7   37.44   13.26 
  -6   7  -7   34.34   12.99 
   7   6   7   37.30   12.35 
  -6   7   9  221.54   23.84 
  -6   7  -9  210.10   15.92 
   7   6  -9  238.22   24.98 
  -7  -6   9  192.14   14.63 
  -7  -6  -9  219.01   16.38 
  -6   7  -9  228.62   24.02 
   7   6   9  206.83   21.28 
  -7  -6 -11    1.72    8.27 
  -6   7 -11    6.44    9.72 
  -6   7  11    1.86   10.63 
   7   6 -11    0.77   11.47 
  -6   7 -11   -4.43   10.13 
   6  -7 -13    7.97    7.74 
  -7  -6 -13   11.80    9.47 
   7   6 -13    3.59   11.95 
  -6   7 -13   -0.99   10.84 
  -6   7 -13    8.87   11.57 
  -6   7 -15   51.95   11.21 
  -6   7 -15   51.82   13.89 
  -7  -6 -15   74.34   13.26 
   6  -7 -15   71.85   12.21 
   7   6 -15   70.11   12.50 
  -7  -6 -17  153.20   16.75 
   7   6 -17  129.04   14.09 
  -6   7 -17  160.34   16.22 
   6  -7 -17  128.54   14.39 
   7   6 -19    5.81    7.70 
  -6   7 -19  -16.77   11.14 
  -7  -6 -19   13.96   10.22 
   6  -7 -19    3.91    8.04 
   6  -7 -21   14.77    7.54 
   7   6 -21    5.83    6.56 
  -7  -6 -21   15.39    8.83 
   6  -7 -23    4.91    6.07 
  -7  -6 -23    4.50    5.86 
   7   7   0   -1.07   11.15 
  -7   7   2   -2.43    9.15 
   7   7   2   -5.88   11.10 
   7   7  -4  242.45   20.74 
  -7   7   4  248.38   24.16 
   7   7   4  271.23   25.30 
   7   7  -6   95.27   16.04 
   7   7   6   87.68   16.66 
  -7   7   6   91.42   17.10 
  -7  -7  -6   93.05   11.45 
   7   7   8   15.25   12.31 
  -7   7  -8    6.51    7.92 
  -7   7   8   -0.92    6.90 
  -7  -7  -8    0.39    7.38 
  -7  -7   8   -4.18    6.93 
   7   7  -8    1.79    9.91 
   7   7 -10   10.14   10.18 
   7   7  10   15.67   10.34 
  -7   7 -10   13.61    8.29 
  -7   7 -10   26.98   12.42 
  -7   7  10   23.14    8.39 
  -7  -7 -10   20.74    9.34 
  -7   7 -12   83.49   18.68 
  -7   7 -12  120.33   15.53 
   7   7 -12  113.03   21.07 
  -7  -7 -12  139.65   15.07 
  -7   7 -14   -2.02   11.35 
   7   7 -14    5.54    8.27 
  -7  -7 -14    8.25    9.82 
  -7   7 -14   -6.34   11.57 
   7  -7 -14   15.64    9.10 
  -7   7 -16   13.82   13.90 
   7  -7 -16    3.00    8.50 
   7   7 -16   -3.79    8.06 
  -7  -7 -16    5.38   10.89 
   7  -7 -18   19.52    9.63 
   7   7 -18    1.18    7.07 
  -7  -7 -18   12.79   10.60 
   7   7 -20   16.07    7.19 
  -7  -7 -20   28.15   10.05 
  -7   7 -20   42.75   11.82 
   7  -7 -20   20.08    7.85 
  -7  -7 -22    9.87    7.51 
   7   8   1   37.15   14.94 
   7   8  -1   44.40   15.25 
   7   8   3   74.63   17.10 
   7   8  -3   69.82   16.73 
  -8   7   3   58.54    9.87 
  -7  -8  -3   52.20    9.91 
   7   8  -5   13.31   13.08 
   7   8   5    4.11   11.28 
  -7  -8   5    7.51    6.91 
   7   8  -5    8.36    8.54 
  -8   7  -5   -1.63    6.93 
  -8   7  -5    1.41    7.33 
  -8   7   5   18.20    8.79 
  -7  -8  -5    1.22    7.50 
   7   8  -7  240.33   23.90 
  -7  -8   7  199.00   15.25 
  -7  -8  -7  217.10   16.48 
  -8   7  -7  205.87   15.65 
  -8   7   7  217.85   16.24 
   7   8   7  223.54   24.76 
  -8   7  -7  205.90   15.72 
   7   8  -9  120.63   19.51 
  -8   7  -9  142.48   14.53 
  -8   7   9  122.32   13.23 
  -7  -8  -9  141.96   14.37 
   7   8  -9  140.55   21.35 
   7   8   9  115.50   18.30 
   7   8 -11  212.01   26.59 
  -8   7 -11  269.58   19.42 
  -8   7  11  223.20   16.51 
  -7  -8 -11  289.21   19.76 
  -8   7 -13   -6.73   11.68 
  -7  -8 -13   -3.38    9.10 
  -8   7 -13   12.79   11.27 
  -7  -8 -15    7.30   10.43 
   8  -7 -15    5.66    8.30 
   7   8 -15    3.65    8.09 
  -8   7 -15   -8.02   11.78 
  -8   7 -15   28.69   12.77 
  -7  -8 -17    0.37    9.65 
   8  -7 -17    6.37    8.11 
   7   8 -17    1.84    7.25 
  -7  -8 -19   43.91   11.23 
   8  -7 -19   32.37    8.84 
   8  -7 -21   12.68    6.74 
  -7  -8 -21   23.54    8.51 
  -7  -8 -23    1.91    4.76 
   6   8   0  718.18   39.26 
   6   8   2   39.11   14.11 
   6   8  -2   47.34   14.52 
   6   8  -4    9.36   11.01 
   6   8   4    6.76   11.66 
   6   8  -4    8.15    9.07 
  -6  -8  -6   12.41    7.91 
  -8   6  -6   15.76    7.63 
   6   8  -6    9.24   10.78 
  -8   6   6   15.22    8.00 
   6   8  -6   14.06    9.76 
   6   8   6    8.85   10.55 
   6   8  -8  722.63   39.88 
  -8   6  -8  747.36   27.51 
   6   8   8  777.38   42.48 
   6   8  -8  794.62   41.89 
  -8   6   8  717.14   27.06 
  -6  -8  -8  751.33   27.82 
  -6  -8 -10    1.45    8.15 
   6   8 -10   -2.98   10.39 
   6   8  10    4.91    9.63 
  -8   6 -10    2.66    7.94 
   6   8 -10    0.46    9.96 
  -8   6  10    2.60    7.72 
  -8   6 -12  124.98   13.86 
  -8   6 -12  155.71   15.69 
  -6  -8 -12  123.28   14.54 
  -8   6  12  132.27   13.94 
   6   8 -12  117.88   20.73 
  -6  -8 -14   39.52   11.57 
   8  -6 -14   31.64    9.63 
   6   8 -14   32.88    9.67 
  -8   6 -14   44.18   12.35 
  -8   6 -14   25.81   10.79 
   8  -6 -16  114.17   14.10 
   6   8 -16   97.33   12.38 
  -6  -8 -16  126.04   15.26 
  -8   6 -16   97.27   13.39 
  -8   6 -16  102.00   15.52 
  -6  -8 -18    4.62    9.83 
  -8   6 -18   32.90   12.02 
   8  -6 -18    9.06    8.61 
   8  -6 -20  113.10   11.82 
  -6  -8 -20  131.86   13.93 
   8  -6 -22    1.50    5.90 
  -6  -8 -22    8.83    7.02 
   5   8  -1  615.53   27.50 
   5   8  -1  689.25   36.59 
   5   8   1  659.18   36.46 
   5   8  -3   32.07   11.70 
   5   8   3   35.42   13.27 
   5   8  -3   32.45    9.60 
   5   8   5    0.02   10.67 
   5   8  -5    2.27    8.32 
   5   8  -5   -0.15    9.50 
   5   8  -7  354.64   27.25 
   5   8  -7  349.71   27.11 
   5   8   7  381.55   29.15 
  -8   5  -7  328.83   18.00 
   5   8  -9  365.31   29.51 
  -8   5  -9  361.02   20.04 
  -8   5   9  335.58   18.76 
   5   8  -9  360.27   27.63 
  -5  -8  -9  357.19   19.81 
   5   8   9  384.58   29.58 
   5   8 -11  135.21   21.40 
  -8   5  11  133.16   13.36 
   5   8  11  144.87   19.91 
  -8   5 -11  155.11   14.79 
   8  -5 -11  150.25   13.88 
  -5  -8 -11  160.27   15.12 
  -8   5 -11  154.25   14.57 
  -5  -8 -13   33.04   10.79 
  -8   5 -13   16.63    9.88 
  -8   5 -13   25.87   10.42 
   8  -5 -13   28.05    9.52 
   5   8 -13   27.01   13.86 
  -8   5  13   24.20    9.10 
   8  -5 -15  125.31   14.82 
  -8   5 -15  112.75   15.95 
  -8   5 -15  125.12   14.90 
  -5  -8 -15  122.35   14.67 
  -5  -8 -17   66.12   13.15 
  -8   5 -17   59.57   12.55 
  -8   5 -17   58.38   13.56 
   8  -5 -17   56.11   11.81 
  -5  -8 -19   70.59   12.88 
   8  -5 -19   65.82   12.39 
  -8   5 -19   80.14   13.23 
  -5  -8 -21   25.76    9.38 
   8  -5 -21   17.32    8.47 
   8  -5 -23   18.56    6.53 
  -5  -8 -23   22.04    7.07 
   4   8   0  419.47   21.85 
   4   8   0  435.83   28.69 
   4   8  -2  911.19   34.41 
   4   8  -2  927.49   40.25 
   4   8   2  919.96   40.46 
   4   8  -4  172.02   17.91 
   4   8  -4  171.86   19.06 
   4   8   4  186.12   20.08 
   4   8  -6  596.01   32.76 
   4   8   6  640.64   35.51 
   4   8  -6  616.15   32.93 
   4   8  -8    3.76    9.06 
   4   8   8    7.02   10.05 
   4   8  -8    3.69    9.83 
  -8   4  -8    5.73    6.76 
   8  -4 -10  921.33   30.11 
   4   8 -10 1029.43   47.77 
  -8   4 -10 1006.28   31.47 
   4   8  10  995.81   45.84 
  -8   4  10  960.46   30.94 
  -4  -8 -10 1014.15   31.67 
  -8   4 -10 1023.98   31.01 
  -4  -8 -12   66.10   11.07 
  -8   4 -12   60.21   10.90 
   4   8  12   62.32   14.20 
  -8   4 -12   65.32   11.24 
   4   8 -12   64.23   15.85 
  -8   4  12   63.24   10.78 
   8  -4 -12   66.80   11.52 
  -4  -8 -14    7.14    9.06 
  -8   4  14    2.74    7.38 
   8  -4 -14    6.29    9.36 
  -8   4 -14    1.20    9.35 
   4   8 -14    3.37   12.30 
  -8   4 -14   10.39    9.76 
   8  -4 -16    0.79    8.78 
  -8   4 -16  -16.34   12.82 
  -8   4 -16  -10.35   12.29 
  -4  -8 -16    2.23    9.79 
   8  -4 -18  213.04   17.75 
  -8   4 -18  197.34   19.04 
  -8   4 -18  211.50   18.14 
  -4  -8 -18  209.04   17.94 
   8  -4 -20   -5.50    8.96 
  -4  -8 -20   -3.51    9.47 
  -4  -8 -22    9.30    7.85 
   8  -4 -22    1.98    7.07 
  -4  -8 -24    0.99    5.29 
   8  -4 -24   -0.81    5.00 
   3   8  -1  507.26   25.37 
   3   8   1  525.59   23.08 
   3   8   1  522.27   29.66 
   3   8  -1  515.30   29.06 
   3   8  -3  182.30   17.76 
   3   8   3  189.40   19.42 
   3   8  -3  190.76   19.34 
   3   8  -5   19.31    9.83 
   3   8  -5   23.82    9.78 
   3   8   5   21.09   10.62 
   3   8  -7   11.29    8.98 
   3   8  -7   21.13   10.44 
   3   8   7   16.47   10.71 
   3   8  -9  643.13   36.99 
   3   8   9  634.81   35.96 
  -8   3  -9  605.47   23.68 
  -8   3 -11  158.83   14.25 
   8  -3 -11  150.97   14.35 
   3   8 -11  161.88   21.19 
  -8   3 -11  163.24   15.00 
   3   8  11  147.26   19.81 
  -3  -8 -11  168.00   14.54 
  -8   3 -13   -1.97    9.81 
  -3  -8 -13   10.86    9.34 
   8  -3 -13   -0.22    8.42 
  -8   3 -13   -6.14    9.51 
   3   8  13    8.78   12.63 
   3   8 -13    1.70   10.12 
  -3  -8 -15    4.49    8.82 
  -8   3 -15  -13.08   11.72 
  -8   3 -15    6.96   10.75 
   3   8 -15   20.68   13.14 
   8  -3 -15   12.65    9.68 
  -8   3 -17  159.45   16.94 
  -8   3 -17  124.27   15.66 
  -3  -8 -17  124.61   15.26 
   8  -3 -17  128.20   15.29 
  -3  -8 -19   58.36   12.64 
   8  -3 -19   68.82   12.80 
   8  -3 -21    5.16    8.60 
  -3  -8 -21   -4.96    8.93 
  -3  -8 -23   15.83    7.61 
   8  -3 -23   12.23    7.40 
   2   8   0  929.77   32.63 
   2   8   0  965.51   37.85 
   2   8   2   49.88   12.59 
   2   8  -2   48.79   10.92 
   2   8  -2   49.73   11.67 
   2   8   2   48.80    9.04 
   2   8  -4    0.20    7.81 
   2   8   4   -2.75   10.53 
   2   8  -4    3.96    7.70 
   2   8  -6  111.09   16.14 
   2   8   6  110.05   16.13 
   2   8  -6  101.60   13.81 
   2   8  -8 1405.67   50.43 
   2   8   8 1442.44   51.47 
   2   8  -8 1336.87   41.88 
  -2  -8 -10   -2.67    6.80 
   2   8  10    0.66    9.60 
  -8   2 -10   -2.19    7.47 
   2   8 -10   -0.96   10.55 
  -8   2 -12  104.97   12.96 
  -8   2 -12   83.96   11.29 
   8  -2 -12  113.48   13.63 
   2   8 -12  101.17   18.14 
   2   8  12  113.63   18.00 
  -2  -8 -12  110.68   12.65 
  -2  -8 -14    4.87    8.75 
  -8   2 -14    4.57   10.08 
   2   8 -14   11.77   12.50 
  -8   2 -14   -2.84    8.56 
   8  -2 -14    3.90    9.12 
   8  -2 -16  447.22   24.63 
  -8   2 -16  442.45   23.57 
  -8   2 -16  456.98   23.89 
  -2  -8 -16  431.67   23.61 
  -8   2 -18   11.92   11.32 
  -2  -8 -18    2.00    9.53 
   8  -2 -18   -0.86   10.13 
   8  -2 -20  282.23   19.80 
  -2  -8 -20  278.96   19.23 
   8  -2 -22    1.99    7.62 
  -2  -8 -22    3.83    8.14 
   8  -2 -24   10.04    5.87 
  -2  -8 -24    4.43    6.11 
   1   8   1  286.65   21.43 
   1   8   1  268.55   18.31 
   1   8  -1  277.91   20.83 
   1   8  -1  282.62   20.36 
   1   8  -3    4.18    8.22 
   1   8  -3    3.61    8.48 
   1   8   3    7.90   10.25 
   1   8  -5  337.24   23.96 
   1   8   5  326.47   24.00 
   1   8  -5  312.00   20.89 
   1   8  -7  273.62   23.07 
   1   8   7  279.14   23.35 
   1   8  -7  245.87   18.06 
   1   8  -9   53.17   13.70 
   1   8   9   42.24   12.92 
  -1  -8 -11   -2.70    6.85 
   8  -1 -11    2.59    7.56 
   1   8  11   -1.81    9.28 
   1   8 -11    3.01    9.82 
  -8   1 -11   -8.64   10.97 
  -8   1 -11   -0.16    8.19 
   8  -1 -13  120.87   14.42 
   1   8 -13  119.82   19.22 
  -8   1 -13  151.71   16.69 
  -1  -8 -13  122.08   13.29 
  -8   1 -13  122.30   13.72 
   1   8  13  122.28   19.14 
  -8   1 -15  212.27   17.05 
   8  -1 -15  214.20   18.41 
  -8   1 -15  213.08   18.06 
  -1  -8 -15  223.59   17.44 
   1   8 -15  159.59   23.78 
  -1  -8 -17   86.16   13.38 
   8  -1 -17   84.41   13.77 
  -8   1 -17   69.31   13.28 
   8  -1 -19   21.09   10.63 
  -1  -8 -19   15.46   10.72 
   8  -1 -21  112.07   13.68 
  -1  -8 -21  108.35   13.78 
  -1  -8 -23   31.80    8.49 
   8  -1 -23   27.08    8.22 
  -1  -8 -25   -1.07    4.68 
   8  -1 -25   -1.11    4.41 
   0   8   0    8.75    8.54 
   0   8   0    4.25    8.39 
   0   8   2  419.18   25.78 
   0   8  -2  400.70   23.78 
   0   8  -2  441.88   25.54 
   0   8  -4   -1.05    9.36 
   0   8  -4    2.50    7.86 
   0   8   4    0.49    8.88 
   0   8  -6   44.07   12.09 
   0   8  -6   40.90    8.91 
   0   8   6   52.99   13.17 
   0   8   8   43.26   12.71 
   0   8  -8   52.24   12.81 
   0   8 -10  105.58   16.97 
   0   8  10  106.59   16.99 
  -8   0 -12   18.08   10.01 
   8   0 -12    4.81    8.37 
  -8   0 -12    1.92    7.00 
   0   8  12    4.26    9.14 
   0   8 -12    7.59   10.43 
   0  -8 -12    2.90    6.98 
   8   0 -14   71.84   12.11 
   0   8 -14   72.39   16.68 
  -8   0 -14   76.65   11.42 
   0   8  14   55.92   14.68 
  -8   0 -14  103.67   14.24 
  -8   0 -16    3.24    8.99 
   0  -8 -16    1.90    9.13 
   8   0 -16   -1.30    9.16 
   0   8 -16   -9.37    8.96 
  -8   0 -18  360.21   20.75 
   0  -8 -18  353.77   22.05 
   8   0 -18  369.21   22.81 
   0  -8 -20    9.94    9.63 
   8   0 -20    6.65    9.25 
   0  -8 -22   -4.53    8.13 
   8   0 -22   11.80    8.76 
   8   0 -24    1.50    5.87 
   0  -8 -24   -0.49    6.02 
  -1   8  -1    6.04    9.30 
  -1   8  -1    2.99    7.95 
  -1   8   1    4.85    8.19 
  -1   8   1    3.62    8.44 
  -1   8  -3  726.01   30.28 
  -1   8  -3  749.84   33.52 
  -1   8   3  710.66   33.47 
  -1   8   5  377.60   25.68 
  -1   8  -5  390.07   26.16 
  -1   8  -5  366.22   21.12 
  -1   8  -7  149.98   17.91 
  -1   8   7  151.79   18.45 
  -1   8   9   97.22   16.96 
  -1   8  -9   87.44   15.86 
  -1   8 -11   73.91   15.54 
  -8  -1 -11   57.92    9.45 
   1  -8 -11   47.44    9.17 
  -1   8  11   71.66   15.57 
  -8  -1 -11   63.43   10.67 
  -1   8  13  117.59   19.07 
   1  -8 -13  134.77   13.90 
   8   1 -13  145.88   15.08 
  -8  -1 -13  116.32   12.72 
  -1   8 -13  118.49   20.22 
  -1   8 -15   -7.62    9.70 
   1  -8 -15   11.15    8.69 
  -1   8 -15    9.83   11.84 
   8   1 -15    9.27    9.11 
  -8  -1 -15   12.07    8.76 
  -1   8  15   12.39   13.42 
   8   1 -15   11.77   13.76 
   8   1 -17   48.26   12.02 
  -8  -1 -17   45.22   11.10 
   8   1 -19  151.82   16.54 
   1  -8 -19  156.68   15.97 
  -1   8 -19  103.43   12.27 
   8   1 -21   49.50   10.85 
   1  -8 -21   60.83   11.28 
  -1   8 -21   57.17    9.35 
   1  -8 -23    8.83    7.47 
   8   1 -23   12.53    7.49 
   8   1 -25    2.79    4.39 
   1  -8 -25    4.08    4.82 
  -2   8   0    0.48    8.52 
  -2   8   0    0.78    7.68 
  -2   8   2    7.95    8.90 
  -2   8  -2    8.95    8.47 
  -2   8  -2   11.30   10.27 
  -2   8  -4   92.64   12.21 
  -2   8  -4   99.08   15.13 
  -2   8   4   98.19   15.26 
  -2   8   6    8.49    9.96 
  -2   8  -6    4.32   11.03 
  -2   8  -8  267.43   24.07 
  -2   8   8  230.29   21.82 
  -2   8 -10   13.76   10.20 
  -2   8  10   26.72   12.28 
   2  -8 -12   16.37    7.83 
  -2   8 -12   17.04   11.38 
  -8  -2 -12   17.55    7.64 
  -2   8  12   23.73   12.99 
   8   2 -12   20.07   13.55 
   2  -8 -14   -4.51    7.98 
   8   2 -14   -3.26    8.43 
  -2   8 -14   -8.65   11.90 
   8   2 -14   -0.13   12.71 
  -2   8  14    5.14   11.43 
  -8  -2 -14   -0.93    8.21 
  -2   8 -16  -14.41    9.64 
   2  -8 -16   -1.47    8.92 
   8   2 -16    2.20    9.42 
  -8  -2 -16    0.50    8.89 
  -8  -2 -18    9.99    8.71 
   8   2 -18   -5.04    9.10 
   2  -8 -18    2.23    9.32 
  -2   8 -18    0.41    9.45 
   2  -8 -20   -3.43    9.06 
   8   2 -20   11.56    9.19 
  -2   8 -20   15.67    9.48 
   8   2 -22    1.81    7.49 
   2  -8 -22   -2.92    8.01 
   8   2 -24    3.49    5.69 
   2  -8 -24   -2.82    5.98 
  -3   8  -1   52.11   12.68 
  -3   8  -1   36.41   10.69 
  -3   8   1   34.88   10.77 
  -3   8   3  597.69   30.98 
  -3   8  -3  589.97   27.61 
  -3   8  -3  602.46   31.88 
  -3   8  -5  979.94   40.48 
  -3   8   5 1001.96   40.82 
   8   3   7   17.71    8.83 
  -3   8   7   18.70   11.12 
  -3   8  -7   22.87   10.83 
  -3   8  -9   -8.32   10.96 
  -3   8   9   19.28   11.79 
  -3   8  11  346.29   28.96 
  -8  -3 -11  330.26   19.45 
  -3   8 -11  322.76   19.50 
   8   3 -11  382.24   32.91 
  -3   8 -11  343.17   30.03 
  -3   8 -13   59.69   16.52 
  -3   8  13   70.48   16.41 
   3  -8 -13   45.69    9.63 
  -8  -3 -13   55.76   11.45 
   8   3 -13   59.00   17.55 
   8   3 -15    4.50   13.63 
  -8  -3 -15   14.75    9.53 
   3  -8 -15    5.14    8.23 
   8   3 -15    9.33    9.28 
  -3   8 -15   -4.64   12.73 
  -3   8 -15   -4.09   10.41 
  -3   8  15   -4.85   11.82 
   3  -8 -17   31.20   10.62 
   8   3 -17   29.13   10.36 
  -8  -3 -17    9.11    9.12 
  -3   8 -17   29.99   11.10 
   3  -8 -19   75.82   12.85 
  -8  -3 -19   67.14   11.86 
   8   3 -19   92.32   13.16 
   3  -8 -21   13.11    9.21 
   8   3 -21   31.64    9.94 
  -3   8 -21   27.91    9.50 
  -8  -3 -21   17.15    8.03 
   3  -8 -23   29.68    7.77 
   8   3 -23   24.87    7.33 
  -4   8   0  176.94   17.77 
  -4   8  -2   47.31   12.54 
   8   4  -2   49.59   10.61 
  -4   8   2   45.48   12.20 
  -4   8  -2   54.19   11.78 
  -4   8  -4    1.20    9.51 
  -4   8   4    0.72    9.31 
   8   4  -4    3.80    8.60 
  -4   8  -4    0.40    6.91 
   8   4  -6   11.21   10.40 
   8   4   6    7.26    8.42 
  -4   8  -6   17.59   11.46 
  -4   8   6   10.98   10.96 
  -4   8  -8   77.72   15.98 
   8   4   8   66.06   12.56 
  -4   8   8   88.72   16.89 
   8   4  -8   89.65   17.45 
  -8  -4 -10   26.66    9.38 
   8   4 -10   28.51   12.58 
  -4   8 -10   17.80    8.41 
  -4   8 -10   26.28   12.46 
  -4   8  10   31.37   13.56 
  -8  -4 -12   39.31   10.42 
   8   4 -12   42.48   15.94 
  -4   8 -12   29.69   12.92 
  -4   8 -12   20.61   10.24 
  -4   8  12   40.31   14.48 
   8   4 -14   15.53   14.98 
  -4   8 -14   -6.77   10.88 
   4  -8 -14    2.94    8.03 
   8   4 -14    1.05    8.75 
  -8  -4 -14   -3.98    9.21 
  -4   8  14   -2.50   12.59 
   4  -8 -16    2.94    8.75 
  -8  -4 -16    3.98    9.89 
   8   4 -16    5.49    9.29 
  -4   8 -16  -12.87   10.62 
   4  -8 -18  183.19   15.86 
   8   4 -18  182.17   16.63 
  -8  -4 -18  187.39   17.58 
  -4   8 -18  155.34   14.72 
  -8  -4 -20    3.13    8.19 
   8   4 -20    0.97    7.57 
   4  -8 -22   -3.47    7.10 
  -8  -4 -22    6.59    6.59 
   8   4 -22    5.64    6.96 
   4  -8 -24   -0.22    5.04 
   8   4 -24   -0.26    4.20 
  -5   8  -1  527.19   29.55 
  -5   8   1  555.80   31.08 
  -5   8  -3   23.78    8.79 
  -5   8   3   32.85   12.44 
   8   5  -3   34.03    9.95 
  -5   8   5  542.45   33.21 
   8   5  -5  511.72   31.38 
   8   5   5  549.65   32.92 
  -5   8  -5  532.55   32.96 
  -5   8   7  392.22   30.47 
  -8  -5  -7  376.52   19.43 
  -5   8  -7  395.66   29.87 
   8   5   7  410.71   28.04 
   8   5  -7  443.01   31.70 
   8   5  -9   69.45   16.26 
  -5   8  -9   53.44   10.47 
  -5   8  -9   50.58   13.92 
  -8  -5  -9   44.53   10.19 
  -5   8   9   41.00   14.42 
  -8  -5   9   43.92    9.63 
  -8  -5 -11    1.11    8.73 
   8   5 -11    9.93   12.64 
  -5   8 -11   -4.87    9.27 
  -5   8 -11    6.10   10.97 
  -5   8  11   -2.68   10.02 
  -5   8 -13  200.49   25.50 
  -5   8  13  199.85   25.36 
  -8  -5 -13  249.06   19.07 
  -5   8 -13  227.83   18.83 
   8   5 -13  203.59   28.12 
  -5   8 -15   66.27   11.95 
   8   5 -15   92.09   13.75 
  -8  -5 -15   88.41   14.19 
   5  -8 -15   97.87   12.86 
   5  -8 -17   12.41    8.07 
   8   5 -17   14.90    9.27 
  -8  -5 -17   21.89   10.93 
   5  -8 -19   77.51   11.60 
   8   5 -19   73.66   11.94 
  -8  -5 -19   76.68   12.47 
   8   5 -21   58.99    9.63 
  -5   8 -21   85.55   11.02 
   5  -8 -21   71.56   10.37 
  -8  -5 -21   69.42   10.77 
   8   5 -23   13.57    5.85 
  -8  -5 -23    2.77    4.97 
  -6   8   0  599.08   33.36 
  -6   8  -2  140.41   16.61 
  -6   8   2  141.09   19.33 
   8   6   2  136.40   19.76 
  -6   8   4  220.26   23.18 
   8   6  -4  226.72   20.51 
   8   6   4  252.56   24.72 
   8   6  -6   -2.79   10.40 
   8   6   6    1.86    9.60 
  -6   8  -6   -1.39   10.67 
  -6   8   6   -1.15   10.45 
  -8  -6   6   -0.30    7.23 
  -8  -6  -6    3.83    7.28 
  -8  -6   8  256.39   16.78 
  -6   8  -8  234.12   16.76 
  -6   8   8  262.67   26.20 
  -6   8   8  229.40   15.81 
   8   6   8  256.62   23.86 
   8   6  -8  273.23   26.18 
  -6   8  -8  274.50   26.86 
  -8  -6  -8  250.48   17.32 
   8   6 -10   11.34   12.35 
  -6   8 -10   16.96   10.12 
  -6   8 -10    6.12   11.73 
  -6   8  10   17.36   11.80 
  -8  -6 -10   12.88    8.41 
  -8  -6 -12   56.90   11.71 
   8   6 -12   45.45   17.01 
  -6   8 -12   54.17   11.89 
  -6   8 -12   45.19   16.30 
  -8  -6 -14   -3.24   10.00 
  -6   8 -14   -7.41   10.84 
  -6   8 -14   -9.18   11.80 
   8   6 -14    5.25    9.38 
  -6   8 -16   74.70   12.96 
   6  -8 -16   85.37   12.19 
   8   6 -16   75.16   12.33 
  -8  -6 -16   72.35   13.06 
  -8  -6 -18   46.78   11.55 
   8   6 -18   28.68    9.43 
   6  -8 -18   40.76   10.10 
  -6   8 -18    6.42    9.70 
   6  -8 -20   73.41   10.12 
   8   6 -20   57.78   10.38 
  -6   8 -20  108.63   13.10 
  -8  -6 -20   93.65   12.25 
  -8  -6 -22    8.97    6.84 
   6  -8 -22   -0.94    6.30 
   8   6 -22   -1.48    4.85 
  -7   8   1  269.52   24.75 
  -8  -7  -1  233.25   16.24 
  -7   8   1  236.63   15.93 
   8   7   1  270.71   26.69 
  -7   8  -1  250.77   16.50 
  -7   8   3  661.92   38.42 
  -8  -7   3  587.47   24.42 
  -8  -7  -3  614.57   25.13 
  -7   8   3  606.03   24.96 
  -7   8  -3  614.89   25.18 
   8   7   5   64.72   15.72 
   8   7  -5   60.76   13.70 
  -7   8  -5   48.23    9.11 
  -8  -7   5   48.59    9.91 
  -7   8   5   52.26   10.23 
  -7   8   5   56.67   15.27 
  -8  -7  -5   48.96    9.64 
  -7   8  -5   60.94   10.92 
   8   7   7    5.54    9.88 
  -8  -7  -7   -3.91    7.75 
   8   7  -7   -4.64   10.22 
  -8  -7   7    2.39    7.42 
  -7   8  -7   -3.26    7.32 
  -7   8  -7   -0.71    7.40 
  -7   8   7   -2.42    8.15 
  -7   8   7   -9.46   11.41 
  -7   8   9  166.47   14.60 
  -7   8  -9  189.89   15.79 
  -8  -7   9  191.17   15.52 
   8   7   9  171.53   21.41 
  -8  -7  -9  197.60   16.35 
   8   7  -9  181.90   23.27 
   8   7 -11  154.27   23.65 
  -7   8 -11  166.89   16.01 
  -8  -7 -11  202.63   17.26 
  -7   8 -13   76.06   12.84 
  -7   8 -13   65.12   12.90 
  -8  -7 -13   90.13   13.75 
   8   7 -15   18.74    9.39 
  -7   8 -15    7.74   11.03 
  -8  -7 -15   17.27   10.72 
  -7   8 -15   18.18   13.01 
   7  -8 -17  114.46   12.91 
   8   7 -17   94.78   13.07 
  -8  -7 -17  131.44   15.80 
  -7   8 -17  112.71   13.74 
   7  -8 -19  100.22   11.23 
   8   7 -19   76.26   10.88 
  -8  -7 -19  121.16   13.87 
  -7   8 -19  150.89   14.33 
   7  -8 -21    1.46    6.35 
  -8  -7 -21   -0.49    7.43 
  -8   8   0  203.76   16.18 
  -8  -8   0  198.70   16.08 
   8   8   0  213.75   25.89 
  -8   8  -2  371.32   20.57 
  -8  -8  -2  340.37   20.38 
   8   8  -2  378.06   32.30 
   8   8   2  410.91   33.59 
  -8  -8   2  353.93   20.16 
   8   8  -4   45.10   15.73 
   8   8   4   39.55   15.00 
  -8  -8  -4   31.06   10.06 
  -8  -8   4   32.96    9.43 
  -8   8  -4   24.25    8.24 
  -8   8  -4   37.90   10.50 
  -8  -8  -6   67.76   11.57 
   8   8   6   55.90   15.49 
  -8   8  -6   70.58   11.22 
  -8   8   6   69.73   11.67 
  -8  -8   6   66.78   10.96 
  -8   8  -6   73.88   11.30 
  -8  -8   8    0.05    7.58 
  -8  -8  -8   -6.10    9.00 
   8   8   8    6.13   11.06 
   8   8  -8    2.56   11.02 
  -8   8  -8   -4.51    8.91 
  -8   8   8   -0.84    7.75 
   8   8 -10  348.27   31.87 
  -8   8  10  393.59   21.20 
  -8   8 -10  415.77   23.13 
   8   8 -10  343.21   32.38 
  -8  -8 -10  429.26   23.45 
  -8   8 -12   11.81   11.37 
  -8  -8 -12   10.23   10.94 
  -8   8 -14  -16.61   12.53 
   8   8 -14    1.64    8.21 
  -8   8 -14   -7.97   11.89 
  -8  -8 -14    5.35    9.92 
  -8  -8 -16   26.44   10.98 
   8   8 -16   11.59    9.03 
  -8   8 -16   65.01   15.51 
  -8   8 -16   75.43   13.76 
   8   8 -18   99.71   11.87 
  -8   8 -18   88.95   12.13 
  -8   8 -20   22.42    8.71 
  -8  -8 -20    7.99    7.64 
  -8  -8 -22   27.20    6.70 
   8   9   1  297.96   30.91 
  -9   8  -1  297.85   19.52 
  -8  -9  -1  320.06   20.21 
  -8  -9   1  295.25   19.59 
   8   9  -1  329.41   32.07 
   8   9  -3    1.69   12.37 
   8   9   3    3.45   11.93 
  -8  -9  -3   13.17    9.59 
  -9   8  -3   -5.70    7.04 
  -9   8  -3    3.93    8.53 
  -8  -9   3    4.89    8.37 
   8   9  -5   29.95   15.39 
  -8  -9   5   41.01   10.11 
   8   9   5   31.13   13.70 
  -8  -9  -5   36.65   10.58 
  -9   8  -5   31.85    9.59 
  -9   8  -5   32.12    9.58 
  -8  -9   7  111.67   12.78 
   8   9  -7  116.76   21.75 
   8   9   7   98.52   19.61 
  -9   8  -7  106.93   13.46 
  -9   8   7  120.86   13.75 
  -9   8  -7  134.27   14.35 
  -8  -9  -7  115.02   14.46 
  -9   8   9   24.12    9.28 
  -9   8  -9   16.10   10.24 
   8   9  -9   12.60   12.89 
   8   9   9    7.61   12.19 
  -8  -9  -9   17.15   10.60 
  -9   8 -11   76.04   12.83 
  -9   8 -11   83.27   13.78 
  -9   8  11   71.67   10.91 
  -8  -9 -11   76.63   13.46 
  -8  -9 -13  104.58   14.56 
   8   9 -13   95.43   12.40 
  -9   8 -13   93.94   13.42 
  -9   8 -13   77.83   13.46 
  -9   8 -15  105.38   15.06 
   8   9 -15   65.29   11.59 
  -8  -9 -15  110.80   14.49 
   8   9 -17   15.82    7.17 
  -8  -9 -17   24.85   10.40 
  -9   8 -19   23.48    8.51 
  -8  -9 -19   13.42    8.13 
  -8  -9 -21   60.77    8.36 
  -7  -9   0    0.90    7.97 
   7   9   0   -5.03   12.37 
  -9   7   0   -1.27    6.85 
   7   9  -2   -1.85   12.74 
   7   9   2  -13.01   13.42 
  -9   7  -2    5.20    6.80 
  -7  -9   2    1.98    7.08 
  -7  -9  -2    3.13    8.23 
   7   9  -4   14.38   12.28 
   7   9   4   12.14   11.51 
  -9   7  -4   11.79    8.07 
  -9   7  -4   19.59    8.57 
  -9   7   4   18.28    9.06 
  -7  -9   4   22.00    8.23 
  -7  -9  -4   13.33    8.12 
   7   9  -6   13.87   12.37 
   7   9   6    3.80   10.56 
  -9   7  -6    7.05    8.16 
  -9   7  -6    5.16    7.27 
  -9   7   6   14.11    9.62 
  -7  -9   6    8.03    7.46 
  -7  -9  -6    6.91    8.15 
   7   9  -8   47.29   16.32 
   7   9   8   42.61   14.50 
  -9   7   8   40.55   10.33 
  -9   7  -8   33.25    9.76 
   7   9  -8   41.86   14.07 
  -7  -9   8   29.74    9.04 
  -7  -9  -8   37.06   10.45 
  -7  -9 -10   13.34    9.70 
  -9   7  10    7.48    7.93 
   7   9 -10   17.29   13.08 
  -9   7 -10    5.60    9.64 
  -9   7  10   15.70    9.17 
   7   9  10    7.39   12.14 
  -9   7 -12   24.26   10.17 
  -9   7 -12   18.06   10.15 
  -9   7  12   36.80   10.18 
  -7  -9 -12   33.49   11.35 
  -9   7 -14   16.16   10.26 
  -7  -9 -14    4.02    9.73 
   7   9 -14    5.03    8.53 
  -9   7 -14   -2.49   10.95 
  -9   7 -16   55.25   13.41 
  -7  -9 -16   71.70   12.46 
  -7  -9 -18    1.37    8.91 
  -9   7 -18   23.34   10.36 
  -7  -9 -20   23.12    8.56 
  -7  -9 -22    9.38    5.60 
  -9   6   1  238.81   16.13 
   6   9  -1  221.30   25.23 
   6   9   1  235.92   24.82 
   6   9  -3   26.88   13.67 
   6   9   3   17.20   11.84 
  -6  -9  -3   16.33    8.34 
  -9   6  -3   14.59    7.81 
  -9   6   3   11.34    7.88 
   6   9  -5   18.05   12.31 
   6   9   5   11.62   13.02 
  -9   6   5   10.41    8.30 
   6   9  -5   23.69   10.55 
  -9   6  -5   15.93    7.86 
  -6  -9  -5   22.12    8.72 
   6   9  -7   63.55   16.24 
   6   9   7   51.53   15.16 
  -9   6   7   46.31   10.19 
  -9   6  -7   52.66   10.34 
   6   9  -7   45.47   14.32 
  -6  -9  -7   51.23   10.33 
   6   9  -9  173.02   23.11 
  -9   6  -9  198.05   16.41 
   6   9   9  161.52   22.56 
  -9   6   9  147.84   14.78 
   6   9  -9  152.94   21.53 
  -6  -9  -9  176.12   16.02 
  -6  -9 -11    3.31    9.00 
  -9   6  11   -0.83    7.59 
  -9   6 -11  -10.43   11.27 
   6   9  11    0.08   11.71 
  -9   6 -11    3.98    9.87 
   6   9 -11   14.26   13.29 
  -6  -9 -13   -0.18    9.59 
  -9   6 -13   -5.25   11.21 
  -9   6 -13   -6.32   10.57 
  -9   6  13   -2.24    7.91 
  -6  -9 -15   32.25   11.29 
  -9   6 -15   19.34   11.57 
  -9   6 -15    5.10   10.01 
   9  -6 -15   19.54    9.20 
  -6  -9 -17   68.33   12.93 
   9  -6 -17   64.83   11.16 
  -9   6 -17   98.27   13.86 
  -9   6 -17   73.75   13.92 
   9  -6 -19   78.32   10.91 
  -6  -9 -19   84.57   12.20 
  -9   6 -19  109.38   13.23 
   9  -6 -21    5.99    6.01 
  -6  -9 -21    3.66    6.87 
  -6  -9 -23    9.60    5.44 
   5   9   0    6.25   11.67 
   5   9  -2   14.11   11.79 
   5   9   2   18.93   12.33 
   5   9   4  134.52   19.71 
   5   9  -4  134.88   17.11 
  -9   5   4  132.21   13.07 
   5   9  -4  127.25   18.86 
   5   9  -6    1.78   10.13 
   5   9   6    1.08   10.11 
  -9   5   6    3.04    7.76 
   5   9  -6    6.63   10.00 
  -9   5  -6    0.81    7.13 
  -5  -9  -6    4.57    7.51 
  -5  -9  -8   16.63    8.60 
   5   9  -8   17.64   10.82 
   5   9   8   22.47   12.10 
  -9   5  -8   25.79    8.85 
   5   9  -8    4.92    9.05 
  -9   5   8   19.45    8.41 
  -5  -9 -10   21.71    9.29 
  -9   5 -10    6.47    9.99 
   5   9  10   18.52   12.77 
  -9   5 -10   14.23    9.16 
   5   9 -10   10.58   11.59 
  -9   5  10   21.77    9.33 
  -9   5 -12   58.70   11.55 
  -5  -9 -12   53.14   11.62 
  -9   5 -12   64.70   12.35 
   5   9 -12   54.93   16.12 
  -9   5  12   62.74   11.50 
   9  -5 -12   58.39   10.76 
  -5  -9 -14   -4.51    9.70 
   9  -5 -14   -0.67    8.10 
  -9   5 -14   19.29   10.96 
  -9   5  14   -3.80    7.84 
  -9   5 -14    1.84    9.46 
  -5  -9 -16   18.85   10.70 
   9  -5 -16   29.81   10.13 
  -9   5 -16   17.27   11.26 
  -9   5 -16   -8.36   11.03 
  -5  -9 -18   -2.74    9.62 
   9  -5 -18    3.59    7.90 
  -9   5 -18   18.53   11.94 
  -9   5 -18   13.50   11.80 
  -5  -9 -20    5.04    8.33 
   9  -5 -20   12.52    8.11 
   9  -5 -22   -1.37    5.48 
  -5  -9 -22   -3.67    6.43 
   4   9  -1   44.44   13.11 
   4   9   1   33.49   12.54 
   4   9  -1   33.36    9.90 
   4   9  -3   84.24   15.89 
   4   9  -3   84.77   14.05 
   4   9   3   93.12   16.90 
   4   9  -5  341.12   25.54 
   4   9  -5  366.36   27.47 
   4   9   5  360.97   28.99 
  -9   4   7  252.81   16.40 
  -4  -9  -7  226.18   15.53 
   4   9   7  264.59   25.61 
   4   9  -7  246.57   23.93 
  -9   4  -7  243.04   16.16 
  -9   4   7  266.41   17.00 
   4   9  -7  231.77   22.45 
   4   9  -9  362.32   29.66 
  -9   4  -9  358.58   19.81 
  -9   4   9  361.19   20.13 
  -4  -9  -9  336.26   19.63 
   4   9   9  358.19   29.70 
  -9   4  -9  326.65   18.38 
  -9   4 -11   29.93    9.80 
  -4  -9 -11   21.22    9.15 
   9  -4 -11   27.27    9.60 
   4   9  11   17.30   11.76 
   4   9 -11   36.61   13.58 
  -9   4  11   35.53    9.76 
  -9   4 -11   46.83   11.40 
  -4  -9 -13    3.56    8.77 
  -9   4 -13   -4.80    9.49 
  -9   4  13   -0.61    7.87 
   9  -4 -13   -1.61    8.45 
   4   9 -13    4.14   10.85 
  -9   4 -13   -2.81    8.92 
  -4  -9 -15   73.31   12.66 
  -9   4 -15   95.80   14.23 
   9  -4 -15   64.55   12.46 
  -9   4 -15   41.47   10.83 
  -9   4  15   65.72   11.28 
   9  -4 -17  123.23   14.74 
  -9   4 -17  134.44   15.70 
  -9   4 -17  178.90   16.91 
  -4  -9 -17  138.25   16.15 
  -4  -9 -19   28.30   10.34 
   9  -4 -19   43.03   11.77 
  -4  -9 -21   19.37    8.63 
   9  -4 -21   20.64    7.95 
  -4  -9 -23   -0.72    5.60 
   9  -4 -23    5.29    5.64 
   3   9   0    4.42   10.39 
   3   9   0    1.84    6.58 
   3   9  -2   77.39   15.07 
   3   9   2   69.40   15.65 
   3   9  -2   77.09   13.15 
   3   9  -4  121.47   16.80 
   3   9  -4  131.95   16.88 
   3   9   4  129.46   18.67 
   3   9  -6    5.93    8.61 
   3   9  -6    0.42    9.65 
   3   9   6    6.08   10.87 
  -9   3   8  146.90   12.95 
  -3  -9  -8  149.14   12.92 
  -9   3  -8  170.12   13.79 
   3   9  -8  162.54   17.61 
   3   9  -8  175.98   20.73 
   3   9   8  167.48   21.21 
  -9   3 -10    5.06    8.40 
  -3  -9 -10    4.55    7.62 
  -9   3  10   10.75    8.84 
   9  -3 -10    2.50    7.22 
   3   9  10   -3.27    9.72 
  -9   3 -10    0.63    7.34 
   3   9 -10   -2.75   10.07 
  -9   3 -12  -14.11   10.51 
  -3  -9 -12    4.47    8.27 
   3   9 -12    6.50   11.50 
   9  -3 -12   -3.26    8.30 
   3   9  12   -1.97    9.93 
  -9   3 -12    5.99    8.41 
  -3  -9 -14    5.71    9.11 
   9  -3 -14   -2.19    9.07 
  -9   3 -14  -11.20   10.36 
  -9   3  14   -1.90    8.26 
   3   9 -14   22.85   13.86 
  -9   3 -14  -10.60   10.71 
   9  -3 -16   11.24    9.96 
  -9   3  16    3.78    7.56 
  -3  -9 -16    9.75   10.35 
  -9   3 -16   38.97   13.18 
  -9   3 -16    5.41   10.46 
  -3  -9 -18    9.80    9.82 
   9  -3 -18    8.16    9.14 
  -9   3 -18   -8.28   10.58 
  -3  -9 -20   -0.38    8.48 
   9  -3 -20   -3.09    7.99 
  -3  -9 -22    4.17    7.36 
   9  -3 -22    6.77    6.83 
   9  -3 -24   16.70    5.01 
  -3  -9 -24   17.66    5.48 
   2   9  -1  469.14   28.68 
   2   9  -1  494.02   27.16 
   2   9   1  466.30   24.70 
   2   9   1  496.70   30.39 
   2   9   3   76.35   15.10 
   2   9  -3   72.44   13.68 
   2   9  -3   83.70   14.04 
   2   9  -5   15.36    9.58 
   2   9  -5   18.14    9.64 
   2   9   5   10.49   10.65 
   2   9  -7  517.72   32.16 
   2   9  -7  485.15   27.59 
   2   9   7  483.30   32.63 
   9  -2  -9  214.47   16.34 
   2   9  -9  231.57   23.99 
  -9   2   9  209.31   14.67 
  -9   2  -9  236.38   15.80 
  -2  -9  -9  207.76   14.77 
   2   9   9  226.61   23.54 
   9  -2 -11   42.88   10.00 
  -2  -9 -11   34.93    9.03 
  -9   2 -11   19.76    8.76 
   2   9  11   30.45   12.49 
  -9   2 -11   33.95   10.12 
   2   9 -11   38.15   13.64 
   9  -2 -13  119.79   14.68 
   2   9 -13   94.91   19.65 
  -9   2 -13   86.08   12.26 
  -2  -9 -13  101.33   13.19 
   2   9  13   81.41   16.86 
  -9   2 -13  111.95   14.10 
  -9   2 -15  154.98   15.71 
  -9   2 -15  166.84   16.75 
  -2  -9 -15  149.25   15.51 
   9  -2 -15  170.73   17.17 
  -2  -9 -17   57.78   12.40 
  -9   2  17   49.99   10.75 
   9  -2 -17   55.55   12.45 
  -9   2 -17   46.42   12.24 
   9  -2 -19   74.64   12.51 
  -9   2 -19  114.05   14.56 
  -2  -9 -19   90.61   13.09 
  -2  -9 -21    9.99    8.63 
   9  -2 -21   40.96   10.78 
  -2  -9 -23   30.01    7.82 
   9  -2 -23   35.46    7.32 
   1   9   0    3.93    8.49 
   1   9   0    0.84    7.39 
   1   9  -2  674.97   32.75 
   1   9  -2  675.86   33.45 
   1   9   2  671.14   34.71 
   1   9  -4   -1.66    9.72 
   1   9   4   -2.78    9.63 
   1   9  -4   -0.71    8.34 
   1   9  -6  346.55   26.49 
   1   9  -6  330.90   22.84 
   1   9   6  364.68   27.33 
   1   9  -8   25.64   11.31 
   1   9   8   16.97   11.13 
  -9   1  -8   18.76    7.73 
  -9   1  10   52.64    9.45 
  -9   1 -10   67.35   10.59 
   1   9  10   52.71   15.00 
  -9   1 -10   37.89    8.36 
  -1  -9 -10   63.77   10.13 
   1   9 -10   61.71   14.54 
  -1  -9 -12    0.07    7.55 
   9  -1 -12   -3.20    8.16 
   1   9 -12   -4.26   10.28 
  -9   1 -12    3.03    7.71 
   1   9  12   -6.87   10.66 
  -9   1 -12   26.87   11.01 
  -9   1 -14  358.93   20.35 
   9  -1 -14  384.82   22.86 
   1   9 -14  368.92   33.67 
  -9   1 -14  349.61   20.81 
  -1  -9 -14  377.17   21.32 
  -1  -9 -16   11.98   10.40 
   9  -1 -16   13.99   11.32 
  -9   1 -16    5.03    9.57 
  -1  -9 -18    8.62    9.61 
   9  -1 -18   12.20   10.93 
  -9   1 -18    3.74   10.13 
  -1  -9 -20    4.62    9.12 
   9  -1 -20    6.21    9.38 
   9  -1 -22   83.42   10.73 
  -1  -9 -22   89.05   11.12 
  -1  -9 -24    3.35    5.42 
   9  -1 -24    7.15    5.08 
   0   9   1  137.33   17.37 
   0   9  -1  138.99   16.63 
   0   9  -1  129.70   15.98 
   0   9   1  130.80   15.66 
   0   9  -3  915.80   38.88 
   0   9  -3  870.35   35.88 
   0   9   3  941.76   40.26 
   0   9  -5   23.75    8.51 
   0   9   5   32.85   12.22 
   0   9  -5   29.04   11.52 
   0   9  -7    4.28    9.90 
   0   9   7    0.84   10.63 
   0   9  -9   36.68   12.75 
   0   9   9   34.68   13.26 
  -9   0  -9   29.05    7.82 
  -9   0  11  195.19   15.30 
   0   9 -11  188.58   23.31 
  -9   0 -11  182.32   14.80 
   0  -9 -11  174.95   14.16 
  -9   0 -11  149.02   13.35 
   0   9  11  163.43   21.36 
   0   9 -13   80.81   17.67 
   9   0 -13   91.85   13.20 
  -9   0 -13   85.00   13.22 
  -9   0 -13   83.88   12.47 
   0   9  13   66.70   16.47 
   0  -9 -13   85.00   12.16 
   0   9 -15   18.23    9.11 
   0  -9 -15   30.73    9.75 
   9   0 -15   39.76   11.63 
  -9   0 -15   36.94   10.78 
   0   9 -17  141.71   13.51 
   9   0 -17  110.55   14.70 
  -9   0 -17  113.85   13.93 
   0  -9 -17  116.66   14.33 
   9   0 -19   70.09   13.21 
   0  -9 -19   67.42   12.38 
   0  -9 -21   30.45   10.59 
   9   0 -21   29.32    9.63 
   0  -9 -23   11.47    6.95 
   9   0 -23   14.88    6.79 
  -1   9   0   -8.19   10.07 
  -1   9   0    0.33    8.73 
  -1   9  -2    9.78    8.76 
  -1   9  -2   -2.69   10.11 
  -1   9   2   14.01   10.63 
  -1   9  -4  726.51   32.30 
  -1   9  -4  781.24   37.37 
  -1   9   4  761.29   37.07 
  -1   9   6   -0.18    9.84 
  -1   9  -6    3.79    9.46 
  -1   9  -8    6.73   10.71 
  -1   9   8   -0.36   10.04 
   1  -9 -10   13.53    7.26 
  -1   9  10    6.58    9.85 
  -9  -1  10   -0.10    7.36 
  -9  -1 -10   11.28    6.81 
  -1   9 -10    8.69   11.43 
  -1   9  12  235.72   25.46 
  -9  -1 -12  244.46   16.80 
  -1   9 -12  256.96   27.74 
   1  -9 -12  245.88   16.96 
   1  -9 -14   -4.09    7.99 
   9   1 -14   -5.54    8.94 
  -1   9 -14    3.30   11.66 
  -9  -1 -14    1.34    7.84 
  -1   9  14    3.66   11.24 
   9   1 -14    2.70   13.11 
  -1   9 -16   79.84   11.52 
   9   1 -16  100.63   14.31 
  -9  -1 -16   83.23   12.22 
   1  -9 -16  102.52   13.36 
   1  -9 -18   12.72    9.51 
   9   1 -18   25.99   10.57 
  -1   9 -18    2.43    8.51 
   1  -9 -20   70.29   11.58 
  -1   9 -20   82.29   10.91 
   9   1 -20   63.99   11.77 
   1  -9 -22   -2.60    7.22 
   9   1 -22    0.33    6.73 
   1  -9 -24   32.81    6.60 
   9   1 -24   33.16    6.32 
  -2   9  -1   70.62   13.49 
  -2   9   1   71.83   14.49 
  -2   9  -1   64.73   14.01 
  -2   9  -3    4.04    7.97 
  -2   9   3    1.16    9.90 
  -2   9  -3   -5.09   10.25 
  -2   9  -5  568.41   33.53 
  -2   9   5  541.18   32.04 
  -2   9   7   60.07   13.81 
  -2   9  -7   66.13   14.90 
  -2   9   9   93.20   16.90 
  -2   9  -9   85.07   17.47 
  -9  -2  -9   69.46   10.29 
  -9  -2  11   15.99    7.47 
  -2   9 -11   29.52   13.44 
  -9  -2 -11   20.81    7.33 
  -2   9  11   24.58   13.09 
  -9  -2 -11   25.30    8.99 
   2  -9 -13   46.40    9.81 
   9   2 -13   66.73   19.35 
   9   2 -13   63.33   11.84 
  -2   9 -13   42.00   15.46 
  -2   9  13   40.79   15.58 
  -9  -2 -13   54.21   10.86 
  -2   9 -15   17.38    9.26 
   9   2 -15   20.28   10.57 
  -9  -2 -15   29.82   10.29 
  -2   9 -17    0.69    9.26 
   2  -9 -17   -2.23    8.54 
  -9  -2 -17    8.10    9.10 
   9   2 -17   10.30    9.74 
   2  -9 -19    7.94    9.53 
   9   2 -19   12.42    9.45 
   9   2 -21   52.60   10.57 
  -2   9 -21   57.99    9.48 
   2  -9 -21   51.82   10.15 
   2  -9 -23   16.48    6.77 
   9   2 -23   12.92    6.48 
  -3   9   0   -2.61    9.17 
  -3   9   2  456.01   29.03 
  -3   9  -2  476.50   27.35 
  -3   9  -2  487.15   30.65 
  -3   9  -4   43.74   13.40 
  -3   9  -4   33.76    9.21 
  -3   9   4   35.07   12.37 
  -3   9  -6 1552.50   55.09 
   9   3   6 1503.63   48.90 
  -3   9   6 1493.12   53.65 
  -3   9  -8    2.96    9.97 
  -9  -3   8   -1.35    7.37 
  -9  -3  -8    2.04    7.13 
  -3   9   8    0.72   10.54 
  -3   9 -10  212.37   16.20 
   9   3 -10  238.74   27.31 
  -3   9 -10  217.37   25.18 
  -3   9  10  214.02   24.67 
  -9  -3 -10  210.05   16.79 
  -9  -3 -12    4.28    8.24 
  -3   9 -12   19.40   12.01 
   9   3 -12   15.17   15.28 
  -3   9  12   10.21   11.60 
   3  -9 -14  128.65   13.52 
   9   3 -14  138.82   15.18 
  -3   9  14  102.03   19.38 
  -9  -3 -14  135.45   15.03 
  -3   9 -14  111.10   20.49 
   9   3 -14  125.31   24.59 
  -3   9 -16   -5.63   10.65 
   9   3 -16    7.80    9.41 
  -9  -3 -16   10.33    9.21 
  -3   9 -18   13.42    9.94 
   3  -9 -18    0.82    9.11 
   9   3 -18   11.18    9.28 
  -9  -3 -18   -2.95    7.79 
   9   3 -20    4.77    8.44 
   3  -9 -20   -3.51    7.91 
  -9  -3 -20   -0.99    6.84 
  -3   9 -20   24.09    9.86 
   9   3 -22   86.59   10.43 
   3  -9 -22   97.90   10.45 
   9   3 -24   -1.76    4.34 
  -4   9   1   40.92   12.69 
  -4   9  -1   42.41   11.58 
  -4   9  -3  266.43   21.40 
  -4   9   3  261.54   23.88 
   9   4  -3  277.29   21.74 
  -4   9  -3  271.37   24.86 
  -4   9   5  530.98   34.26 
   9   4  -5  512.48   31.98 
  -4   9  -5  499.58   32.62 
   9   4   5  508.15   31.37 
  -9  -4  -7  120.53   13.05 
   9   4  -7  127.55   19.31 
  -4   9  -7  125.97   19.29 
  -9  -4   7  132.13   13.04 
   9   4   7  131.74   17.51 
  -4   9   7  138.32   20.18 
   9   4  -9    5.56   12.02 
  -4   9  -9   -1.69   10.59 
  -4   9  -9   -3.01    7.60 
  -9  -4   9    9.43    7.95 
  -4   9   9    6.71   11.14 
  -9  -4  -9    4.30    7.93 
  -9  -4 -11  102.02   13.41 
  -4   9 -11   90.51   18.05 
   9   4 -11   82.29   18.83 
  -4   9  11  103.76   19.38 
  -4   9 -11   82.37   13.58 
  -9  -4 -13   37.54   11.16 
   9   4 -13   60.88   19.41 
  -4   9 -13   24.00   13.94 
  -4   9  13   21.52   12.59 
  -4   9 -15  -12.51   10.78 
   4  -9 -15   -1.22    8.09 
  -9  -4 -15   -1.42    9.25 
   9   4 -15    5.98    9.28 
  -4   9 -17   -2.86    9.68 
   9   4 -17   -1.74    8.79 
  -9  -4 -17   -1.08    9.64 
   4  -9 -19   16.33    8.66 
   9   4 -19   10.24    9.35 
  -9  -4 -19   10.93    9.52 
   4  -9 -21   13.52    7.88 
  -4   9 -21   23.62    8.76 
  -9  -4 -21    4.88    7.09 
   4  -9 -23    8.83    5.36 
   9   4 -23    6.90    5.41 
  -5   9   0   -2.84    9.14 
  -5   9   2    1.28    9.23 
  -5   9  -2   -1.79    8.44 
  -5   9   4  923.43   44.33 
  -9  -5   4  862.70   29.20 
  -5   9  -4  877.91   43.37 
  -9  -5  -4  850.10   28.85 
   9   5   4  943.99   44.50 
   9   5  -4  892.95   40.62 
  -5   9   6  147.44   20.61 
  -5   9  -6  135.74   13.28 
  -5   9   6  138.74   13.06 
   9   5  -6  158.68   20.41 
  -9  -5   6  160.33   14.33 
   9   5   6  143.87   19.44 
  -5   9  -6  163.73   21.38 
  -9  -5  -6  146.70   13.95 
  -5   9  -8   50.33   15.49 
  -5   9  -8   33.97    8.24 
  -5   9  -8   43.68    9.68 
  -5   9   8   41.77    9.03 
  -5   9   8   51.34   16.05 
  -9  -5   8   48.35   10.30 
   9   5  -8   45.11   15.30 
  -9  -5  -8   51.85   11.17 
   9   5 -10    5.71   12.44 
  -5   9 -10    7.09   12.22 
  -5   9 -10    0.25    9.29 
  -5   9  10   11.82   12.61 
  -9  -5 -10    3.39    8.59 
  -5   9  12  227.43   27.10 
   9   5 -12  223.67   28.61 
  -5   9 -12  226.86   18.65 
  -5   9 -12  220.53   27.89 
  -9  -5 -12  228.76   18.38 
   9   5 -14   25.92   10.81 
  -9  -5 -14   30.61   11.58 
  -5   9 -16   54.95   12.33 
   5  -9 -16   42.63    9.89 
   9   5 -16   39.61   11.30 
  -9  -5 -16   47.35   12.37 
   9   5 -18   59.50   11.32 
  -9  -5 -18   46.21   11.75 
  -5   9 -18   35.39   10.69 
   5  -9 -20   23.53    8.37 
   9   5 -20   14.89    7.71 
  -9  -5 -20   20.40    8.64 
   9   5 -22    4.22    5.59 
   5  -9 -22    5.09    6.18 
  -9  -5 -22    1.46    5.04 
  -9  -6  -1   19.33    8.09 
  -6   9  -1   25.49    8.91 
  -6   9   1   20.39    7.73 
  -6   9   1   14.69   10.27 
  -6   9  -1   30.80   11.92 
  -9  -6   1   20.63    8.30 
  -6   9   3  134.17   19.45 
  -9  -6  -3  120.28   12.94 
  -6   9  -3  122.73   13.12 
  -9  -6   3  128.01   13.44 
  -6   9   3  131.59   13.14 
   9   6   3  118.32   20.01 
  -6   9  -5    7.09    7.33 
  -9  -6  -5    6.50    8.12 
  -6   9   5    4.85    7.91 
  -9  -6   5    4.00    7.82 
  -6   9   5   -0.44   10.51 
   9   6   5    4.79   11.15 
   9   6  -7   24.13   11.94 
   9   6   7   27.35   11.77 
  -9  -6   7   28.26    9.02 
  -6   9  -7   31.25    9.09 
  -6   9  -7   25.55    8.00 
  -6   9   7   32.02    9.54 
  -6   9  -7   39.32   13.85 
  -6   9   7   23.98   12.70 
  -9  -6  -7   25.22    9.19 
   9   6  -9   -2.54   10.41 
  -9  -6   9    2.05    8.09 
  -6   9  -9    2.74    8.08 
  -6   9   9    2.14    6.74 
  -6   9  -9   -5.96   10.85 
  -6   9   9    8.37   11.70 
  -9  -6  -9   -2.02    8.52 
  -6   9 -11   -6.54   12.73 
   9   6 -11   11.99   13.57 
  -6   9 -11   -1.44   10.55 
  -6   9  11   -0.82   13.48 
  -9  -6 -11   -1.37    9.53 
  -6   9 -13   36.46   11.82 
  -9  -6 -13   58.43   12.90 
  -6   9 -15  -15.13   11.59 
   9   6 -15    0.51    8.85 
  -9  -6 -15   10.66   10.38 
   9   6 -17   10.31    8.85 
  -9  -6 -17    4.00    9.75 
   6  -9 -19   19.32    7.90 
   9   6 -19   16.75    8.24 
  -9  -6 -19   29.24    9.62 
   6  -9 -21    2.94    5.83 
   9   6 -21    1.67    5.91 
  -9  -6 -21    3.88    6.48 
   9   7   0   -3.66   12.17 
  -7   9   0   -4.30    8.12 
  -7   9   0    7.01   10.49 
  -9  -7   0   -1.73    7.94 
  -7   9   2  303.25   27.54 
  -7   9  -2  315.20   19.55 
  -7   9   2  293.37   18.76 
  -9  -7   2  294.96   19.24 
  -9  -7  -2  301.87   19.35 
   9   7   2  348.61   32.04 
  -7   9   4  172.60   22.78 
  -9  -7  -4  161.51   15.21 
  -7   9  -4  163.42   15.54 
  -7   9   4  175.69   15.35 
   9   7   4  167.68   23.46 
  -9  -7   4  164.17   15.23 
   9   7   6   57.64   16.21 
  -9  -7  -6   46.20   10.86 
  -7   9  -6   46.84    9.85 
  -7   9  -6   43.94   10.27 
  -7   9   6   48.99   10.24 
  -7   9   6   32.87   14.93 
  -9  -7   6   40.04   10.33 
   9   7   8  101.01   18.02 
   9   7  -8   87.64   17.58 
  -7   9  -8  122.03   13.07 
  -9  -7  -8  133.06   15.09 
  -7   9   8  114.24   13.25 
  -7   9  -8   97.55   12.47 
  -7   9   8   94.34   19.24 
  -9  -7   8  118.23   13.77 
   9   7 -10    0.91   11.42 
  -7   9 -10   13.95   10.50 
  -7   9  10    5.24    7.00 
  -9  -7 -10    0.73    9.34 
  -7   9 -12   18.11   10.61 
  -9  -7 -12   25.41   12.12 
  -7   9 -14   74.14   12.68 
   9   7 -14   92.46   13.10 
  -9  -7 -14   96.31   14.21 
  -7   9 -14  110.67   15.90 
  -7   9 -16   93.29   14.15 
   9   7 -16   73.14   11.60 
  -9  -7 -16   82.77   13.26 
   9   7 -18    2.97    7.19 
  -7   9 -18  -17.03   10.80 
  -9  -7 -18    2.65    8.69 
   7  -9 -20    6.29    6.11 
   9   7 -20    6.86    6.26 
  -9  -7 -20   19.42    7.91 
   9   8  -1   -7.05   13.22 
   9   8   1   -5.34   12.75 
  -8   9  -1    6.52    8.16 
  -8   9   1    1.50    8.70 
  -9  -8  -1    2.59    8.55 
  -9  -8   1   -2.61    8.39 
   9   8  -3   -1.58   12.35 
   9   8   3    6.09   11.73 
  -9  -8   3   -3.71    8.55 
  -8   9   3   -2.21    8.24 
  -8   9  -3   -3.45    8.02 
  -9  -8  -3   -1.36    8.89 
   9   8   5   11.25   11.65 
  -9  -8   5   40.78   10.30 
  -8   9  -5   25.28    8.97 
  -8   9  -5   23.01    9.58 
  -8   9   5   16.74    9.12 
  -9  -8  -5   21.99    9.83 
   9   8   7    6.46   11.37 
  -8   9  -7    8.29    8.51 
  -8   9  -7   13.78    8.87 
  -9  -8   7   12.10    8.92 
  -8   9   7    9.39    8.55 
  -9  -8  -7    7.94    9.58 
  -8   9  -9   35.37   10.16 
  -8   9   9   54.71   10.75 
  -9  -8  -9   52.45   12.05 
  -9  -8 -11    0.65    9.67 
  -8   9 -11    0.66   10.22 
  -8   9 -13  -11.54   11.86 
  -8   9 -13  -17.59   12.88 
  -9  -8 -13    3.22   10.04 
  -8   9 -15    1.42   10.75 
   9   8 -15    5.44    8.42 
  -9  -8 -15    2.59   10.09 
   9   8 -17   16.23    8.05 
  -9  -8 -17   29.28   10.25 
  -8   9 -17   10.36    9.14 
   9   8 -19    2.93    5.10 
  -9  -8 -19   -0.53    7.54 
  -9  -8 -21    2.56    5.75 
   9   9   0   -1.21   12.46 
  -9   9   0    0.36    8.87 
  -9  -9   0   -2.82    8.99 
   9   9  -2   49.37   17.60 
   9   9   2   47.88   16.71 
  -9   9  -2   46.73   11.20 
  -9   9   2   41.08   11.61 
  -9  -9   2   43.48   11.03 
  -9  -9  -2   53.28   11.98 
  -9  -9  -4   64.57   12.71 
   9   9  -4   40.06   15.98 
   9   9   4   69.99   19.37 
  -9   9  -4   42.81    9.52 
  -9  -9   4   58.93   11.62 
  -9   9  -4   58.57   11.90 
  -9   9   4   60.23   12.57 
  -9  -9   6  121.01   13.90 
   9   9  -6  108.32   21.40 
   9   9   6   90.42   20.42 
  -9   9  -6  119.61   13.99 
  -9   9   6  103.62   13.47 
  -9   9  -6   94.19   12.31 
  -9  -9  -6   99.78   14.26 
  -9   9  -8    8.59    7.55 
  -9   9  -8   -4.20    8.97 
  -9   9   8   -2.06    8.73 
  -9  -9   8   -1.69    8.06 
  -9  -9  -8    5.06   10.07 
  -9  -9 -10   18.98   11.22 
  -9   9 -10   38.04   11.55 
  -9   9  10   21.17    8.85 
  -9   9 -12   25.54   10.73 
  -9   9 -12   22.70   10.88 
  -9  -9 -12   41.86   11.79 
  -9   9 -14  158.02   15.06 
   9   9 -14  110.86   13.71 
  -9   9 -14  163.28   16.61 
  -9  -9 -14  154.86   15.92 
   9   9 -16    4.61    6.87 
  -9  -9 -16    4.64    8.77 
  -9   9 -16  -11.53   10.42 
  -9   9 -18   42.53    9.69 
  -9  -9 -18    7.19    8.05 
  -9  -9 -20   16.71    6.68 
   9  10   1  125.36   23.10 
 -10   9  -1  145.09   15.70 
 -10   9   1  123.66   14.93 
  -9 -10   1  129.65   14.80 
  -9 -10  -1  141.38   15.84 
   9  10  -1  130.53   23.70 
   9  10  -3   -8.86   15.23 
 -10   9   3   -1.07    8.86 
   9  10   3    1.00   13.06 
 -10   9  -3   -3.60    6.90 
 -10   9  -3   -3.16    8.44 
  -9 -10   3    3.51    8.64 
  -9 -10  -3    3.56    9.55 
  -9 -10  -5   -1.64    9.23 
  -9 -10   5    3.38    8.06 
 -10   9  -5   21.65    9.14 
 -10   9  -5    1.53    8.22 
 -10   9   5   -2.32    9.43 
 -10   9  -7   94.93   12.73 
 -10   9   7   87.01   13.93 
  -9 -10   7   79.05   12.22 
 -10   9  -7   75.05   11.45 
  -9 -10  -7   85.23   13.81 
  -9 -10  -9   37.22   11.51 
 -10   9  -9   26.30   10.18 
 -10   9   9   34.48   10.15 
 -10   9 -11    7.94   10.55 
 -10   9 -11   40.48   11.89 
 -10   9  11   18.71    8.58 
  -9 -10 -11   17.10   11.32 
  -9 -10 -13  144.01   15.67 
 -10   9 -13  111.64   14.34 
   9  10 -13   89.19   12.57 
 -10   9 -13  111.66   13.26 
   9  10 -15   19.86    7.82 
 -10   9 -15   48.06   11.88 
  -9 -10 -15   39.96   10.96 
  -9 -10 -17    1.55    7.55 
 -10   9 -17   37.02    9.23 
  -9 -10 -19    1.88    5.88 
  -8 -10   0  446.30   23.87 
   8  10   0  458.40   38.03 
   8  10  -2   -0.10   11.74 
  -8 -10   2   -0.66    8.37 
   8  10   2   15.83   15.97 
  -8 -10  -2    8.37    8.99 
 -10   8  -2    0.17    6.94 
 -10   8  -2   -1.61    8.54 
   8  10  -4   10.89   14.06 
   8  10   4   -2.89   12.58 
 -10   8  -4   -2.05    7.76 
 -10   8  -4    9.06    9.28 
  -8 -10  -4    3.44    8.94 
  -8 -10   4    3.95    8.07 
   8  10  -6   21.13   15.27 
  -8 -10   6   23.39    8.93 
   8  10   6   30.70   15.26 
 -10   8  -6   17.48    9.00 
 -10   8  -6   27.91    9.98 
  -8 -10  -6   26.58   11.39 
  -8 -10  -8  180.29   17.23 
 -10   8   8  185.28   16.59 
 -10   8  -8  168.34   15.47 
 -10   8 -10  -19.57    9.95 
 -10   8 -10  -12.73   11.36 
 -10   8  10    4.88    8.16 
  -8 -10 -10    0.75    9.85 
 -10   8 -12   50.16   11.30 
 -10   8 -12   75.60   13.57 
  -8 -10 -12   82.95   14.38 
 -10   8 -14   -0.63   10.87 
  -8 -10 -14   12.39   10.28 
 -10   8 -16  117.35   14.67 
  -8 -10 -16   93.24   13.12 
 -10   8 -18    0.84    8.02 
  -8 -10 -18    3.67    7.76 
  -8 -10 -20   45.54    7.92 
   7  10   1  174.39   24.83 
 -10   7  -1  154.14   13.67 
 -10   7   1  135.10   12.80 
  -7 -10   1  156.85   14.71 
   7  10  -1  197.47   26.30 
  -7 -10  -1  173.83   15.88 
  -7 -10  -3  149.45   15.13 
 -10   7  -3  142.00   13.76 
   7  10   3  153.09   23.31 
  -7 -10   3  134.72   13.75 
   7  10  -3  163.45   23.75 
  -7 -10  -5  165.05   15.78 
 -10   7  -5  159.81   15.07 
 -10   7  -5  164.74   14.92 
 -10   7   5  158.79   15.65 
   7  10  -5  155.25   23.56 
   7  10   5  182.51   25.55 
   7  10  -7   57.07   16.76 
 -10   7  -7   51.63   11.01 
 -10   7  -7   45.77    9.87 
 -10   7   7   57.05   11.63 
  -7 -10  -7   61.46   12.38 
  -7 -10  -9  111.94   14.55 
   7  10   9   86.70   18.61 
 -10   7  -9  120.46   14.20 
 -10   7   9  129.44   14.61 
 -10   7  -9  110.12   13.55 
 -10   7 -11  228.24   17.54 
 -10   7  11  218.05   16.87 
 -10   7 -11  247.26   18.66 
 -10   7  11  269.87   18.81 
  -7 -10 -11  236.81   19.37 
 -10   7 -13   56.23   13.15 
 -10   7  13   34.00    8.95 
  -7 -10 -13   33.76   12.18 
 -10   7 -15    8.57   10.60 
  -7 -10 -15    9.29   10.00 
 -10   7 -17  100.85   14.80 
  -7 -10 -17   67.88   11.81 
  -7 -10 -19   48.39    9.41 
  -7 -10 -21    6.36    5.78 
  -6 -10   0    8.76    8.19 
   6  10   0   11.03   12.47 
 -10   6   0    7.53    7.06 
 -10   6  -2  513.40   22.88 
  -6 -10  -2  497.96   23.48 
   6  10   2  570.65   39.15 
 -10   6   2  569.00   24.86 
   6  10  -2  565.18   38.97 
   6  10  -4   -4.85   11.11 
   6  10   4    4.28   11.66 
 -10   6  -4    4.67    7.76 
 -10   6   4   -0.72    8.42 
  -6 -10  -4   -3.14    8.18 
 -10   6  -6  182.09   15.46 
 -10   6   6  190.31   16.00 
   6  10  -6  186.31   23.74 
  -6 -10  -6  191.92   16.48 
   6  10   6  188.39   25.34 
   6  10  -8   11.21   11.51 
   6  10  -8   19.56   13.10 
   6  10   8    8.53   11.67 
 -10   6  -8   18.98    9.04 
 -10   6   8   13.12    9.11 
  -6 -10  -8   15.23    9.44 
   6  10 -10  202.24   25.83 
 -10   6 -10  313.69   19.23 
 -10   6 -10  334.40   20.59 
   6  10  10  226.11   27.17 
 -10   6  10  278.16   19.32 
  -6 -10 -10  337.79   21.02 
 -10   6 -12    6.05   10.44 
  -6 -10 -12   14.67   10.22 
 -10   6 -12    8.52    9.93 
 -10   6  12    9.14    8.68 
 -10   6 -14  107.49   14.79 
 -10   6  14   81.28   11.59 
  -6 -10 -14   94.83   13.80 
 -10   6 -14   67.29   12.06 
  -6 -10 -16    9.74    9.68 
 -10   6 -16   26.38   11.29 
 -10   6 -16    4.17   10.59 
 -10   6 -18  248.90   16.68 
 -10   6 -18  250.24   17.65 
  -6 -10 -18  214.45   16.15 
  10  -6 -20   -0.04    5.16 
  -6 -10 -20   -0.43    7.17 
  -6 -10 -22   20.28    5.70 
 -10   5  -1  400.35   19.92 
   5  10   1  469.62   34.76 
   5  10  -1  476.47   34.55 
 -10   5   1  469.77   22.37 
 -10   5   3   13.40    7.62 
   5  10  -3   21.00   11.94 
   5  10   3   13.19   12.46 
 -10   5  -3   15.54    8.55 
  -5 -10  -3    1.93    7.42 
   5  10  -5    3.91   10.52 
   5  10   5   -3.45   11.07 
 -10   5  -5    1.51    7.63 
   5  10  -5   -1.31    8.64 
 -10   5   5    1.93    7.43 
  -5 -10  -5   -0.54    7.31 
   5  10   7  224.69   26.56 
   5  10  -7  196.91   23.91 
 -10   5  -7  214.22   16.33 
 -10   5   7  215.18   17.10 
   5  10  -7  183.13   22.21 
  -5 -10  -7  208.08   16.30 
  -5 -10  -9  173.17   15.54 
   5  10  -9  173.31   23.33 
 -10   5  -9  189.44   16.29 
   5  10   9  169.47   23.61 
 -10   5   9  170.00   15.74 
 -10   5  -9  164.97   14.56 
 -10   5 -11   -3.56    9.76 
  -5 -10 -11    7.45    9.39 
 -10   5  11    4.13    8.42 
   5  10  11   -6.27   12.22 
 -10   5 -11    3.92    9.49 
   5  10 -11    1.86   11.49 
  -5 -10 -13    1.99    9.09 
  10  -5 -13   -2.94    7.78 
 -10   5 -13   -2.14    9.88 
 -10   5  13    1.74    8.20 
 -10   5 -13   -4.14    9.98 
  10  -5 -15  189.33   16.29 
 -10   5 -15  235.90   19.13 
 -10   5 -15  178.75   16.57 
 -10   5  15  181.35   15.51 
  -5 -10 -15  183.27   17.10 
  -5 -10 -17   29.57   10.93 
  10  -5 -17   31.68    9.37 
 -10   5 -17   13.00   10.32 
 -10   5 -17   40.30   11.72 
  -5 -10 -19   39.76   10.14 
  10  -5 -19   29.14    8.38 
  10  -5 -21    3.78    5.63 
  -5 -10 -21    6.35    6.70 
 -10   4   0 1768.39   39.30 
 -10   4   0 1768.93   40.91 
 -10   4  -2   65.80   11.14 
 -10   4   2   83.50   11.61 
   4  10  -2   60.64   14.81 
   4  10   2   67.55   16.63 
 -10   4  -2   76.25   10.74 
 -10   4   2   77.62   10.92 
 -10   4  -2   60.22   10.46 
 -10   4   4   26.94    9.46 
   4  10  -4   29.68   11.59 
   4  10  -4   16.07   10.97 
   4  10   4   17.52   11.49 
 -10   4  -4   14.44    7.93 
 -10   4   4   21.59    7.85 
   4  10  -6    9.78   10.72 
  -4 -10  -6   -0.01    7.00 
 -10   4   6   19.35    9.10 
   4  10  -6    2.76    9.83 
   4  10   6    6.62   11.39 
 -10   4  -6   -0.23    7.48 
 -10   4   6    0.73    7.35 
 -10   4   8  856.32   29.66 
  -4 -10  -8  787.94   28.90 
   4  10  -8  797.88   43.85 
 -10   4  -8  811.92   29.02 
 -10   4   8  814.85   29.93 
   4  10   8  858.82   47.46 
 -10   4 -10    9.34    9.80 
  -4 -10 -10    0.35    8.15 
   4  10 -10    1.96   10.55 
   4  10  10   -1.77   11.48 
 -10   4 -10    2.18    8.83 
 -10   4  10   -2.39    7.75 
  -4 -10 -12   -2.59    8.55 
  10  -4 -12   18.27    9.31 
   4  10 -12   16.39   12.02 
   4  10  12   -0.56   11.38 
 -10   4 -12   11.17    8.99 
 -10   4  12    8.72    8.50 
 -10   4 -12  -11.93   10.17 
  -4 -10 -14    6.41    9.31 
  10  -4 -14    6.05    8.67 
 -10   4 -14   31.16   10.81 
 -10   4  14    5.14    7.97 
 -10   4 -14   -8.92   11.36 
  10  -4 -16  308.08   19.87 
 -10   4 -16  298.77   20.79 
 -10   4  16  297.08   18.63 
  -4 -10 -16  297.18   20.30 
 -10   4 -16  328.17   20.51 
  -4 -10 -18    2.73    8.89 
  10  -4 -18    0.53    8.11 
 -10   4 -18    2.00   10.56 
  -4 -10 -20   36.00    9.13 
  10  -4 -20   33.40    8.72 
  -4 -10 -22    2.25    6.11 
  10  -4 -22   -2.22    5.29 
   3  10  -1  651.23   36.72 
   3  10  -1  638.71   32.30 
   3  10   1  651.79   37.48 
 -10   3   3  134.62   12.39 
   3  10   3  147.06   19.96 
   3  10  -3  155.66   19.12 
   3  10  -3  157.96   19.44 
 -10   3  -3  142.61   13.06 
 -10   3   3  144.46   13.08 
 -10   3   5    0.95    7.37 
   3  10  -5    1.13    9.60 
 -10   3   5   -2.88    7.00 
   3  10   5   -7.53   10.73 
   3  10  -5   -2.86    9.19 
 -10   3  -5   -4.84    7.17 
 -10   3   7  192.75   14.88 
   3  10  -7  201.48   22.70 
 -10   3  -7  207.78   15.70 
   3  10  -7  183.26   19.91 
 -10   3   7  224.47   16.14 
  -3 -10  -7  171.86   14.19 
   3  10   7  191.52   23.95 
  10  -3  -9   92.85   12.38 
   3  10  -9  104.07   18.76 
 -10   3  -9  125.48   13.58 
   3  10   9  102.88   19.72 
 -10   3   9  106.93   12.49 
  -3 -10  -9  111.70   12.61 
 -10   3  -9  123.97   12.86 
  -3 -10 -11   18.58    8.88 
  10  -3 -11   28.20   10.27 
   3  10  11   28.75   12.77 
 -10   3 -11   26.30   10.19 
 -10   3 -11    4.87   10.68 
 -10   3  11   26.13    8.96 
   3  10 -11   25.59   13.26 
  -3 -10 -13    7.18    8.85 
  10  -3 -13    2.07    8.50 
 -10   3 -13    7.85    9.68 
 -10   3 -13   -3.47   10.42 
 -10   3  13    7.39    9.00 
  -3 -10 -15   49.57   11.74 
 -10   3  15   44.82   10.41 
  10  -3 -15   54.72   11.69 
 -10   3 -15   57.54   12.86 
 -10   3 -17   22.27   10.67 
  10  -3 -17   32.07   10.73 
  -3 -10 -17   37.18   11.02 
 -10   3  17   30.51    9.11 
  -3 -10 -19   17.19    9.12 
  10  -3 -19   14.57    8.80 
  -3 -10 -21    8.17    7.59 
  10  -3 -21    3.08    7.03 
  -3 -10 -23    1.85    5.32 
  10  -3 -23    1.39    4.54 
   2  10   0   -1.47    8.05 
   2  10   0    1.52    9.96 
   2  10  -2  716.07   35.35 
   2  10  -2  665.06   36.38 
   2  10   2  712.62   38.24 
 -10   2   4   24.78    8.51 
   2  10  -4   16.96    9.91 
   2  10   4   18.71   12.14 
   2  10  -4   17.76   10.40 
 -10   2  -4   18.63    8.04 
 -10   2   4   12.35    7.25 
 -10   2   6  291.95   17.36 
   2  10  -6  272.38   23.30 
   2  10  -6  270.05   25.56 
 -10   2  -6  276.49   16.99 
   2  10   6  301.64   27.80 
  -2 -10  -8    4.18    7.44 
   2  10  -8   -3.14   11.14 
 -10   2   8   -4.66    8.71 
   2  10   8    8.25   11.82 
 -10   2  -8   12.28    7.64 
   2  10  10  245.25   26.53 
  10  -2 -10  273.22   18.67 
   2  10 -10  288.84   28.59 
 -10   2 -10  264.00   17.50 
  -2 -10 -10  252.72   17.09 
 -10   2  10  255.50   16.99 
 -10   2 -10  193.81   14.15 
   2  10 -12   87.59   18.71 
  10  -2 -12  110.22   14.10 
 -10   2 -12  110.64   13.83 
  -2 -10 -12   96.67   12.92 
   2  10  12  100.57   19.15 
 -10   2 -12  108.21   13.91 
  -2 -10 -14   15.35   10.01 
  10  -2 -14    8.78    9.38 
 -10   2 -14   16.74   10.44 
 -10   2 -14   24.19   11.33 
  -2 -10 -16    4.94    9.84 
  10  -2 -16   -3.20    9.78 
 -10   2 -16    5.62    9.53 
 -10   2  16    5.41    8.81 
  -2 -10 -18   79.50   12.69 
  10  -2 -18   89.81   12.92 
 -10   2 -18   74.81   12.82 
 -10   2  18   76.81   11.11 
  -2 -10 -20    2.00    8.04 
  10  -2 -20   -8.02    8.25 
  -2 -10 -22    1.04    6.56 
  10  -2 -22   -1.85    6.01 
   1  10  -1   -2.75    9.16 
   1  10   1   -6.75   10.88 
   1  10   1   -1.55    8.02 
   1  10  -1    5.31    9.14 
   1  10  -3  151.73   18.73 
   1  10   3  152.43   19.49 
   1  10  -3  148.63   18.60 
 -10   1   5   55.87   10.09 
   1  10  -5   52.19   12.06 
   1  10   5   63.86   14.64 
   1  10  -5   55.20   13.74 
 -10   1  -5   54.32    9.53 
 -10   1   7   32.80    9.62 
   1  10  -7   20.59   12.01 
   1  10   7   27.71   12.74 
 -10   1  -7   27.45    8.21 
  -1 -10  -9   22.15    8.23 
 -10   1   9   20.86    8.26 
   1  10  -9   19.12   10.89 
   1  10   9   24.52   12.57 
 -10   1  -9   17.11    8.14 
  -1 -10 -11    1.60    8.09 
   1  10 -11   -5.00   10.36 
 -10   1  11    2.57    7.52 
  10  -1 -11    1.40    7.96 
   1  10  11   -4.53   10.89 
 -10   1 -11    3.77    8.17 
 -10   1 -11   22.60    9.69 
  10  -1 -13  164.74   16.34 
   1  10 -13  127.33   21.73 
 -10   1 -13  176.21   16.41 
   1  10  13  106.49   19.49 
 -10   1 -13  167.02   15.81 
  -1 -10 -13  143.42   14.30 
  -1 -10 -15    2.72    8.75 
  10  -1 -15   -4.01    9.75 
 -10   1 -15    4.79    9.32 
  -1 -10 -17   12.33    9.52 
  10  -1 -17   12.38    9.98 
 -10   1 -17    3.09    9.75 
  -1 -10 -19   29.38    9.71 
  10  -1 -19   18.53    9.66 
 -10   1  19   29.27    8.33 
  -1 -10 -21    3.92    7.55 
  10  -1 -21    6.18    7.79 
  -1 -10 -23    0.35    5.39 
  10  -1 -23  -10.53    5.82 
   0  10   0  325.92   25.56 
   0  10   0  296.17   23.63 
   0  10  -2  255.30   22.72 
   0  10  -2  263.72   22.62 
   0  10   2  249.72   23.72 
   0  10  -4   51.99   12.92 
   0  10  -4   66.26   12.63 
   0  10   4   59.19   14.58 
 -10   0   6   -0.56    7.43 
 -10   0   6    3.40    7.69 
   0  10   6   -3.16    9.64 
   0  10  -6    6.33   10.43 
 -10   0  -6    2.95    7.18 
 -10   0   8  265.55   19.01 
 -10   0  -8  236.40   16.01 
   0  10  -8  241.19   25.40 
   0  10   8  234.83   24.48 
 -10   0  10  210.37   16.39 
 -10   0 -10  211.26   15.62 
   0  10 -10  195.44   24.29 
   0 -10 -10  175.72   14.31 
   0  10  10  190.98   23.49 
   0 -10 -12    5.80    7.93 
  10   0 -12    4.40    9.28 
   0  10 -12    5.96   11.41 
 -10   0 -12    7.68    8.87 
   0 -10 -14   21.78    9.24 
  10   0 -14   18.70   10.09 
 -10   0 -14   19.61    9.48 
   0  10 -16   20.87    8.51 
   0 -10 -16   32.88   10.23 
  10   0 -16   28.67   10.66 
 -10   0 -16   24.23    9.78 
   0 -10 -18   39.89   10.74 
  10   0 -18   49.49   11.57 
 -10   0 -18   48.51   10.93 
   0 -10 -20    9.53    8.82 
  10   0 -20   19.55    9.04 
 -10   0  20   13.95    7.15 
  10   0 -22   11.89    6.97 
   0 -10 -22   13.93    7.36 
  -1  10  -1   -0.21    9.27 
  -1  10   1   -5.19    8.92 
  -1  10  -1    1.31    8.49 
  -1  10  -3  340.90   26.95 
  -1  10  -3  315.00   24.08 
  -1  10   3  322.96   26.70 
  -1  10  -5   35.90   12.87 
  -1  10   5   38.31   12.65 
 -10  -1   7   21.36    8.01 
  -1  10   7   18.96   11.80 
 -10  -1  -7   19.25    7.63 
  -1  10  -7   17.16   11.29 
 -10  -1   7   25.25    9.02 
 -10  -1   9   13.06    7.59 
  -1  10   9   17.23   11.51 
 -10  -1  -9   19.73    8.19 
  -1  10  -9   15.32   12.81 
  -1  10  11  144.09   21.88 
 -10  -1  11  131.35   12.94 
 -10  -1 -11  118.70   12.47 
  -1  10 -11  149.59   22.53 
   1 -10 -11  140.72   13.89 
   1 -10 -13    5.68    8.31 
  10   1 -13    7.31    8.95 
 -10  -1 -13    6.22    7.99 
  -1  10 -13   15.55   13.89 
  -1  10  13   -0.09   10.55 
  -1  10 -15   12.52    8.61 
   1 -10 -15   34.51   10.02 
  10   1 -15   44.54   11.80 
 -10  -1 -15   40.12    9.90 
   1 -10 -17   -0.62    8.38 
  10   1 -17   -1.30    9.80 
 -10  -1 -17    0.84    8.55 
  -1  10 -17   17.79    9.30 
   1 -10 -19   23.62    9.26 
  10   1 -19   33.01   10.40 
  -1  10 -19    0.70    7.62 
   1 -10 -21    1.36    7.23 
  10   1 -21    2.15    7.39 
 -10  -1  21    0.42    5.65 
   1 -10 -23   11.88    5.86 
  10   1 -23   11.27    5.52 
  -2  10   0  187.92   20.35 
  -2  10  -2   18.00   10.69 
  -2  10   2    3.36   10.28 
  -2  10  -2    6.02    9.63 
  -2  10  -4  438.08   26.89 
  -2  10  -4  450.74   31.75 
  -2  10   4  432.86   30.27 
 -10  -2   6   24.19    8.80 
  -2  10  -6   31.81   13.33 
  -2  10   6   33.55   13.04 
 -10  -2  -6   20.10    7.19 
 -10  -2  -6   26.42    8.86 
 -10  -2  -8  163.72   13.24 
  -2  10  -8  184.19   23.43 
 -10  -2  -8  182.34   14.99 
  -2  10   8  179.72   22.65 
 -10  -2  10   18.43    8.15 
 -10  -2 -10   15.92    7.73 
  -2  10  10   19.39   11.56 
  -2  10 -10   13.85   10.62 
 -10  -2 -10    6.63    8.07 
   2 -10 -12   19.04    8.38 
  -2  10 -12   20.25   13.10 
 -10  -2  12   25.94    8.79 
 -10  -2 -12   20.58    8.60 
  -2  10  12   23.24   13.55 
  10   2 -12   21.69   15.26 
 -10  -2 -12   21.19    9.69 
   2 -10 -14    3.77    8.02 
  10   2 -14    2.28    9.64 
 -10  -2 -14   -0.26    8.27 
  -2  10 -16    3.04    8.93 
   2 -10 -16   19.02    9.37 
  10   2 -16   16.76    9.99 
   2 -10 -18   10.69    8.32 
  10   2 -18    0.17    9.30 
  -2  10 -18    5.48    7.89 
  10   2 -20  116.91   12.78 
  -2  10 -20  110.91   11.22 
   2 -10 -20  121.96   12.55 
   2 -10 -22   -0.38    5.94 
  10   2 -22    3.68    6.14 
  -3  10   1  421.04   29.28 
  -3  10  -1  428.33   28.26 
  -3  10  -3    6.66    9.99 
  -3  10  -3    7.40    6.91 
  -3  10  -3    5.80    8.31 
  -3  10   3    0.22   10.21 
 -10  -3   3   -1.08    7.10 
 -10  -3   5  618.49   25.41 
  -3  10   5  543.88   22.64 
  -3  10  -5  599.96   23.91 
  -3  10  -5  599.77   37.64 
 -10  -3  -5  579.08   24.60 
  -3  10   5  598.31   36.43 
  -3  10  -7  411.52   20.06 
  -3  10   7  384.35   18.96 
 -10  -3   7  439.74   22.24 
  -3  10  -7  435.51   32.85 
 -10  -3  -7  404.04   21.70 
  -3  10   7  409.81   32.72 
  -3  10   9  265.46   27.71 
  -3  10  -9  266.52   27.16 
 -10  -3  -9  280.22   18.93 
  10   3  -9  290.77   29.49 
  -3  10 -11   10.67   11.30 
 -10  -3  11   18.27    8.81 
  10   3 -11   17.40   14.53 
  -3  10  11   15.48   13.04 
 -10  -3 -11   16.92    9.56 
   3 -10 -13   50.42   10.02 
 -10  -3 -13   63.42   11.97 
  10   3 -13   49.81   11.80 
  -3  10 -15   55.90   11.21 
   3 -10 -15   71.92   11.15 
  10   3 -15   80.89   13.55 
 -10  -3 -15   77.68   12.90 
  -3  10 -17    0.52    8.80 
   3 -10 -17   17.94    8.99 
  10   3 -17   12.71    9.67 
 -10  -3 -17   11.82    9.37 
   3 -10 -19   42.19   10.34 
  10   3 -19   42.59   10.70 
  -3  10 -19   20.40    8.31 
   3 -10 -21   52.23    8.88 
  10   3 -21   56.91    9.51 
  -3  10 -21   82.46    9.35 
  10   3 -23   12.99    5.35 
  -4  10   0   44.27    9.15 
 -10  -4   0   44.04    9.90 
  -4  10   0   50.02   13.31 
  -4  10  -2  525.59   31.88 
  -4  10  -2  488.39   22.31 
 -10  -4  -2  483.42   22.98 
  -4  10   2  487.79   22.24 
 -10  -4   2  507.54   23.31 
  -4  10   2  491.38   33.37 
  -4  10  -4   75.43   10.82 
 -10  -4  -4   63.63   10.99 
  -4  10   4   61.12   10.18 
  -4  10   4   59.11   14.96 
  -4  10  -4   64.30   15.49 
 -10  -4   4   63.76   10.65 
  10   4   6   63.99   14.67 
  -4  10  -6   52.78   14.92 
  -4  10  -6   56.34   10.38 
  -4  10   6   53.34   10.12 
  -4  10   6   49.94   14.66 
 -10  -4   6   59.21   10.86 
  10   4  -6   54.84   14.31 
 -10  -4  -6   61.03   11.35 
 -10  -4  -8   74.24   11.94 
  -4  10  -8   58.27    9.99 
  -4  10   8   57.42    9.94 
  -4  10   8   66.98   17.40 
 -10  -4   8   63.34   11.00 
  10   4  -8   63.27   16.66 
  -4  10  -8   68.45   17.03 
  -4  10  10  250.48   28.32 
  -4  10 -10  238.84   17.84 
  -4  10 -10  208.15   25.91 
 -10  -4 -10  252.55   18.92 
  10   4 -10  225.35   28.59 
  10   4 -12   -4.21   12.93 
  -4  10 -12   -0.33   11.97 
  -4  10  12   -5.85   13.58 
 -10  -4 -12    7.18   10.16 
   4 -10 -14    3.00    7.91 
  10   4 -14    5.12    9.89 
 -10  -4 -14    4.49    9.63 
   4 -10 -16   44.75   10.32 
  10   4 -16   47.36   11.89 
 -10  -4 -16   41.04   11.28 
  10   4 -18  178.42   15.94 
  -4  10 -18  179.59   14.89 
 -10  -4 -18  147.77   15.40 
   4 -10 -18  168.10   13.99 
   4 -10 -20   43.31    8.34 
  10   4 -20   35.00    9.30 
  -4  10 -20   60.62    9.88 
   4 -10 -22   13.15    5.46 
  10   4 -22    3.76    5.38 
 -10  -4  22    7.67    4.61 
  -5  10   1  148.14   20.35 
  -5  10  -1  166.25   20.17 
  -5  10  -1  170.13   14.32 
  -5  10   1  157.43   14.14 
 -10  -5   1  155.77   14.77 
 -10  -5  -1  153.60   14.56 
  -5  10   3  589.67   37.32 
  -5  10  -3  599.78   25.81 
  -5  10   3  601.33   25.00 
 -10  -5  -3  608.65   26.09 
 -10  -5   3  606.03   25.68 
  -5  10   5  311.98   28.80 
  -5  10  -5  336.46   20.04 
  -5  10   5  346.05   19.54 
 -10  -5   5  345.47   20.21 
  10   5   5  315.03   28.16 
 -10  -5  -5  330.60   20.30 
  10   5  -7   17.88   13.05 
  -5  10  -7   10.63    7.89 
 -10  -5   7    7.49    8.65 
  -5  10   7    7.80    7.09 
  -5  10  -7    7.33   11.28 
  -5  10   7    7.52   12.46 
 -10  -5  -7   10.27    9.14 
  10   5  -9  110.65   21.21 
  -5  10   9  112.06   12.65 
  -5  10  -9   90.99   12.44 
  -5  10  -9  107.67   20.07 
  -5  10   9   97.18   19.95 
 -10  -5  -9  127.24   14.97 
  -5  10 -11  168.28   16.41 
  -5  10 -11  109.81   21.78 
 -10  -5 -11  146.10   15.98 
  -5  10  11  110.80   21.40 
  10   5 -11  122.81   22.69 
 -10  -5 -13   33.20   11.70 
  -5  10 -15   -4.37    9.52 
  10   5 -15    8.44    9.44 
 -10  -5 -15    3.46    9.87 
 -10  -5 -17  246.27   18.94 
  10   5 -17  257.63   18.26 
  -5  10 -17  262.13   17.81 
   5 -10 -17  236.16   16.13 
   5 -10 -19   61.33    9.36 
  10   5 -19   67.21   10.50 
 -10  -5 -19   60.14   10.53 
  10   5 -21    3.62    5.78 
 -10  -5 -21   -0.47    4.45 
   5 -10 -21    2.79    5.64 
  -6  10   0 1003.21   47.39 
  -6  10   0  981.46   32.67 
 -10  -6   0  952.69   32.93 
  10   6   2   17.22   12.33 
  -6  10  -2   24.16    9.17 
  -6  10   2   29.50    9.25 
  -6  10   2   21.00   12.17 
 -10  -6   2   26.89    9.35 
 -10  -6  -2   13.32    8.70 
  10   6   4    3.44   11.33 
  -6  10  -4    6.76    8.21 
  -6  10   4    0.59    8.29 
  -6  10   4   -5.45   12.67 
 -10  -6  -4   11.14    8.91 
 -10  -6   4    9.35    8.37 
  10   6   6   -9.77   10.86 
  -6  10  -6   -5.26    8.41 
  -6  10   6    1.21    7.65 
 -10  -6  -6    0.66    8.88 
  -6  10   6    5.18   11.10 
 -10  -6   6   -2.08    8.16 
  -6  10   8  149.29   22.98 
  10   6  -8  116.93   19.76 
  -6  10  -8  135.98   13.93 
  -6  10   8  136.72   13.46 
 -10  -6   8  138.50   14.97 
 -10  -6  -8  145.50   15.55 
  10   6 -10   13.45   13.70 
  -6  10 -10   14.61    9.84 
  -6  10 -10   15.15   13.59 
  -6  10  10   13.19   12.48 
 -10  -6 -10   12.21    9.73 
  -6  10 -12  161.05   17.18 
 -10  -6 -12  150.11   16.98 
  -6  10 -14  -10.37   11.10 
  10   6 -14    5.43    9.19 
 -10  -6 -14    8.96    9.93 
  10   6 -16   96.18   13.39 
 -10  -6 -16  116.50   14.77 
  -6  10 -16   98.82   13.52 
   6 -10 -18   59.70    9.28 
  10   6 -18   83.85   11.61 
 -10  -6 -18   72.20   11.65 
  10   6 -20   18.80    6.96 
 -10  -6 -20   18.33    7.27 
  -7  10   1  422.38   33.17 
 -10  -7  -1  433.42   23.50 
  -7  10  -1  433.88   23.11 
  -7  10   1  404.06   22.45 
 -10  -7   1  416.84   22.87 
  10   7   1  450.88   37.01 
  10   7   3   52.89   18.04 
 -10  -7  -3   51.09   11.56 
 -10  -7   3   39.30   10.71 
  -7  10  -3   49.05   11.04 
  -7  10   3   42.28   10.52 
  -7  10   3   54.24   16.28 
  -7  10   5  126.65   21.34 
  -7  10  -5  136.32   14.48 
  -7  10   5  136.74   14.62 
  10   7   5  121.00   20.83 
 -10  -7   5  141.45   14.98 
 -10  -7  -5  129.56   14.96 
  -7  10   7  195.02   26.51 
  -7  10  -7  195.97   16.05 
  -7  10   7  197.74   16.20 
 -10  -7   7  180.73   16.44 
  10   7   7  140.23   21.79 
 -10  -7  -7  188.45   17.30 
  -7  10  -9   31.86    9.59 
  -7  10   9   27.91    9.29 
 -10  -7  -9   31.67   11.47 
  -7  10 -11    2.35   10.12 
 -10  -7 -11   50.58   13.62 
  -7  10 -13  199.28   18.32 
 -10  -7 -13  168.99   17.53 
  10   7 -15  268.86   18.44 
 -10  -7 -15  291.94   20.14 
  -7  10 -15  256.90   17.59 
  -7  10 -17   30.55   10.91 
  10   7 -17    6.36    7.63 
 -10  -7 -17    5.24    8.86 
  10   7 -19   12.14    6.95 
 -10  -7 -19   16.51    7.85 
 -10  -7 -21    7.45    5.87 
  -8  10   0  147.41   15.01 
 -10  -8   0  147.55   15.82 
  10   8   0  190.35   26.56 
  10   8  -2   50.09   17.62 
 -10  -8  -2   45.02   11.97 
  10   8   2   35.88   16.57 
 -10  -8   2   42.03   11.17 
  -8  10  -2   46.92   11.40 
  -8  10   2   46.37   10.66 
  10   8  -4    2.83   12.54 
  -8  10  -4   -2.66    8.96 
  -8  10   4    8.22    9.40 
 -10  -8   4    7.19    8.57 
 -10  -8  -4    4.33    9.64 
  10   8   6   15.95   14.13 
 -10  -8   6   26.64   10.63 
  -8  10  -6   20.36    9.20 
  -8  10   6   28.37   10.52 
 -10  -8  -6   25.19   11.10 
 -10  -8   8   59.66   11.55 
  -8  10   8   75.92   11.96 
  -8  10  -8   65.99   10.64 
  -8  10  -8   65.67   11.38 
 -10  -8  -8   61.95   12.92 
  -8  10  10   76.63   11.22 
  -8  10 -10   67.47   11.76 
 -10  -8 -10   82.97   13.96 
  -8  10 -12   99.69   14.43 
 -10  -8 -12  124.98   16.02 
  -8  10 -14   -4.07   10.45 
  10   8 -14   12.64    8.42 
 -10  -8 -14   17.69   10.82 
  10   8 -16   27.12    9.47 
 -10  -8 -16   24.60   10.20 
  10   8 -18    5.32    6.40 
 -10  -8 -18   11.02    8.30 
 -10  -8 -20    5.01    5.78 
  -8  10 -20   47.53    7.20 
  10   9  -1    8.10   13.97 
  10   9   1   11.78   14.41 
  -9  10  -1   19.66    9.87 
  -9  10   1   17.00   10.30 
 -10  -9   1   13.19    9.54 
 -10  -9  -1   15.75   10.20 
  10   9  -3   12.99   14.54 
  10   9   3   21.70   13.75 
  -9  10  -3   24.01   10.48 
  -9  10   3   22.19    9.79 
 -10  -9  -3   18.79   10.83 
 -10  -9   3   21.01    9.82 
  -9  10  -5   15.92   10.93 
  -9  10   5   17.55   10.46 
 -10  -9   5   18.96    9.67 
 -10  -9  -5   21.71   11.16 
  -9  10  -7    2.50    7.76 
  -9  10  -7   -2.58    8.60 
  -9  10   7    2.26    9.48 
 -10  -9   7   -2.16    9.31 
 -10  -9  -7    2.85   10.18 
 -10  -9  -9   99.10   14.54 
  -9  10   9   90.14   12.41 
  -9  10  -9   89.25   13.13 
 -10  -9 -11  195.08   18.42 
  -9  10  11  177.77   14.39 
  -9  10 -11  168.02   16.01 
  -9  10 -13   21.66   10.40 
  10   9 -13   19.83    9.39 
  -9  10 -13   33.12   11.90 
 -10  -9 -13   37.14   11.55 
 -10  -9 -15   25.49   10.41 
  10   9 -15   25.54    9.14 
  10   9 -17   21.68    7.01 
  -9  10 -17   -8.41    9.03 
 -10  -9 -19   11.75    6.56 
  -9  10 -19   40.20    7.25 
 -10  10   0   50.63   12.04 
 -10 -10   0   55.75   12.61 
 -10  10  -2   38.62   11.30 
 -10  10   2   49.71   11.94 
 -10 -10   2   34.51   10.69 
 -10 -10  -2   31.99   11.42 
 -10 -10   4    7.72    8.93 
 -10  10  -4    0.73    8.55 
 -10  10   4   -1.00    8.95 
 -10 -10  -4   -2.06    9.77 
 -10 -10   6   27.22    9.67 
 -10  10  -6   23.99    9.67 
 -10  10  -6   24.70    9.35 
 -10  10   6   33.68   10.80 
 -10 -10  -6   22.30   11.15 
 -10  10  -8   -0.27    7.02 
 -10  10  -8    7.30    8.78 
 -10  10   8   -2.65    8.99 
 -10 -10  -8   -2.92    9.90 
 -10  10 -10  112.89   14.23 
 -10  10  10  128.32   13.13 
 -10  10 -10   98.31   13.10 
 -10 -10 -10  125.36   15.14 
 -10  10 -12  -12.44   10.96 
 -10  10 -12    7.54    9.65 
 -10 -10 -12   11.15   10.25 
  10  10 -14    9.28    7.08 
 -10  10 -14   63.26   12.76 
 -10 -10 -14   15.24    9.42 
 -10  10 -14   90.10   12.24 
 -10 -10 -16   12.89    8.22 
 -10 -10 -18    9.38    6.39 
 -10  10 -18   18.03    6.24 
 -10 -11  -1    4.47    9.39 
 -11  10  -1    2.89    9.03 
 -11  10   1    8.60    9.50 
 -10 -11   1   -1.41    9.23 
 -10 -11   3   23.11   10.67 
 -11  10  -3   26.31   10.63 
 -11  10   3   28.87   10.67 
 -10 -11  -3   40.17   11.76 
 -10 -11   5   23.85    9.03 
 -11  10  -5    5.89    7.65 
 -11  10  -5    9.81    9.35 
 -11  10   5   18.68   10.84 
 -10 -11  -5   10.78   10.39 
 -10 -11  -7    8.96   10.48 
 -11  10  -7   14.06    7.90 
 -11  10  -7   19.14    8.39 
 -11  10   7   11.60    9.61 
 -11  10  -9   23.86    9.40 
 -11  10   9   27.44    9.22 
 -11  10 -11   17.63    9.28 
 -11  10 -11   26.02    9.41 
 -11  10  11   27.16    7.68 
 -10 -11 -11   32.47   11.17 
 -11  10 -13   52.00   10.80 
  10  11 -13   23.19    7.50 
 -11  10 -13   53.47   10.53 
 -10 -11 -13   62.89   11.30 
 -11  10 -15    4.61    7.24 
 -10 -11 -15   15.96    8.27 
 -11  10 -17   28.56    6.31 
 -10 -11 -17   -1.24    5.84 
 -11   9   0    2.51    9.64 
  -9 -11   0   -3.32    9.19 
 -11   9  -2    8.23    6.90 
 -11   9  -2    3.42    9.41 
 -11   9   2    4.36    9.73 
  -9 -11   2    7.59    9.05 
  -9 -11  -2   16.37   10.27 
 -11   9  -4  127.12   14.69 
 -11   9   4  107.21   14.74 
 -11   9  -4   88.98   11.79 
  -9 -11   4  107.52   13.13 
  -9 -11  -4  108.44   14.62 
  -9 -11   6   -9.15    8.16 
 -11   9  -6   -2.49    8.11 
 -11   9  -6   -0.02    7.92 
 -11   9   6    3.14    9.10 
  -9 -11  -6   -7.22    9.88 
 -11   9  -8    0.74    9.10 
 -11   9  -8    2.95    7.42 
 -11   9  -8    6.82    8.29 
 -11   9   8    8.40    8.90 
  -9 -11  -8   11.26   10.10 
 -11   9 -10   -9.49   10.59 
 -11   9 -10   21.35   10.49 
 -11   9  10    1.18    7.79 
  -9 -11 -10    7.90   10.36 
 -11   9 -12  215.33   16.83 
  -9 -11 -12  219.98   17.69 
 -11   9 -12  198.34   17.00 
 -11   9 -14   -7.46   10.01 
  -9 -11 -14    0.32    8.97 
 -11   9 -16   63.76    9.57 
  -9 -11 -16   28.60    8.74 
  -9 -11 -18    0.46    5.76 
  -8 -11  -1    5.78    9.22 
  -8 -11   1   -0.25    8.92 
   8  11  -1    2.34   14.73 
   8  11   1   -0.90   13.89 
 -11   8  -1    2.46    7.72 
 -11   8   1    3.36    6.53 
 -11   8  -1   -0.06    8.69 
 -11   8  -3   63.09   10.92 
 -11   8  -3   76.67   12.73 
  -8 -11   3   75.13   12.01 
 -11   8  -5   94.94   12.95 
 -11   8  -5   79.24   12.06 
  -8 -11  -5   69.20   12.68 
  -8 -11  -7   -3.44    9.57 
 -11   8  -7   21.04    9.94 
 -11   8  -7   -2.53    8.37 
 -11   8   7   -7.21    9.47 
 -11   8  -9   23.61   10.39 
 -11   8  -9   46.61   11.02 
 -11   8   9   42.31   10.12 
  -8 -11  -9   53.15   12.44 
 -11   8 -11   12.91    9.58 
 -11   8 -11   40.29   11.64 
 -11   8  11   41.09    9.34 
  -8 -11 -11   28.90   10.70 
 -11   8 -13   31.22   10.72 
  -8 -11 -13   42.70   11.20 
 -11   8 -13   28.42   10.37 
 -11   8 -15   -8.24   10.69 
 -11   8 -15   -7.63    9.85 
  -8 -11 -15   -4.68    8.94 
 -11   8 -17   38.75    8.63 
  -8 -11 -17   26.35    8.66 
  -8 -11 -19   17.45    6.45 
   7  11   0    5.69   12.37 
 -11   7   0    1.27    7.86 
  -7 -11   0    7.08    8.86 
   7  11   2  127.99   23.56 
 -11   7  -2  115.05   13.29 
 -11   7   2  108.59   12.08 
   7  11  -2  130.94   23.46 
  -7 -11  -2  135.18   14.61 
   7  11  -4   -1.39   11.58 
   7  11   4   12.68   14.36 
 -11   7  -4    9.38    7.94 
 -11   7  -4   13.23    9.14 
 -11   7   4    5.48    7.78 
  -7 -11  -4    7.40    9.08 
  -7 -11  -6  126.61   15.05 
   7  11  -6   92.11   20.66 
 -11   7  -6  123.19   13.77 
 -11   7  -6   99.70   12.78 
 -11   7   6  117.32   14.62 
 -11   7  -8  -13.17    9.63 
 -11   7  -8    6.31    9.20 
 -11   7   8   -2.40    9.21 
  -7 -11  -8    5.66    9.72 
 -11   7 -10   -3.39   10.60 
 -11   7  10    3.25    8.90 
 -11   7  10   12.98    9.38 
 -11   7 -10  -12.78    9.84 
  -7 -11 -10    2.34    9.01 
 -11   7 -12   44.37   12.63 
 -11   7 -12   24.09   10.72 
 -11   7  12   21.84    9.05 
  -7 -11 -12   33.69   11.14 
 -11   7 -14  135.79   15.14 
  -7 -11 -14  121.72   14.56 
 -11   7 -16   -4.61   10.15 
  -7 -11 -16   13.06    8.92 
  -7 -11 -18   15.88    7.87 
  -7 -11 -20   -2.36    5.69 
   6  11   1  196.39   25.82 
 -11   6  -1  196.21   15.52 
 -11   6   1  218.92   16.25 
  -6 -11  -1  184.55   15.58 
   6  11  -1  204.38   26.11 
   6  11  -3   41.95   15.49 
   6  11   3   32.45   14.88 
 -11   6  -3   40.76    9.84 
 -11   6   3   52.13   11.39 
  -6 -11  -3   37.93   10.05 
   6  11  -5    1.10   11.47 
   6  11   5   10.89   12.98 
 -11   6  -5    3.82    8.16 
 -11   6   5   11.18    8.91 
  -6 -11  -5    1.21    8.54 
   6  11  -7   31.85   15.30 
   6  11   7   41.41   15.58 
 -11   6  -7   53.73   11.17 
 -11   6  -7   44.62    9.57 
 -11   6   7   35.96   10.59 
  -6 -11  -7   51.55   11.43 
 -11   6  -9   20.41    8.83 
 -11   6  -9   24.47   10.16 
 -11   6   9   23.31   10.08 
  -6 -11  -9   19.00    9.56 
 -11   6 -11   24.26   10.60 
 -11   6  11   17.78    8.87 
  -6 -11 -11   21.26    9.78 
 -11   6 -13    7.60   11.03 
 -11   6  13    4.70    8.31 
  -6 -11 -13    5.52    9.50 
 -11   6 -15   56.05   12.26 
 -11   6 -15   52.27   11.78 
 -11   6  15   57.75    9.66 
  -6 -11 -15   49.98   10.99 
 -11   6 -17   32.57   11.16 
 -11   6 -17   45.04   10.86 
  -6 -11 -19   -4.14    6.92 
  -6 -11 -21   11.36    5.25 
   5  11   0   -4.07   12.49 
 -11   5   0   -0.16    8.61 
   5  11  -2   54.00   16.36 
   5  11   2   58.37   17.58 
 -11   5  -2   44.83   10.04 
 -11   5   2   60.44   10.97 
   5  11  -4   11.14   10.65 
   5  11   4   17.27   13.97 
 -11   5   4   10.21    8.03 
 -11   5  -4   15.41    8.69 
  -5 -11  -4   15.29    8.66 
   5  11  -6   44.61   14.59 
   5  11   6   47.05   16.61 
 -11   5  -6   48.41   10.62 
 -11   5   6   58.53   11.16 
  -5 -11  -6   55.19   10.60 
   5  11  -8   -2.08   10.66 
   5  11   8    3.16   12.02 
 -11   5  -8    3.24    8.76 
 -11   5   8    4.52    8.61 
  -5 -11  -8    3.61    8.46 
  -5 -11 -10    8.62    8.56 
 -11   5  10   20.98    9.38 
 -11   5 -10   24.98   10.63 
  -5 -11 -12    6.51    9.55 
 -11   5 -12    1.03    9.93 
 -11   5  12    2.99    7.91 
 -11   5 -12  -10.29   10.53 
  -5 -11 -14   67.60   12.24 
 -11   5 -14   87.69   13.80 
 -11   5 -14   57.51   12.50 
 -11   5  14   66.68   11.12 
  -5 -11 -16   -2.24    8.44 
  11  -5 -16   -4.78    7.43 
 -11   5 -16  -11.01   11.61 
 -11   5  16   -1.16    6.86 
 -11   5 -16   11.73    9.70 
  -5 -11 -18   -0.95    8.17 
  11  -5 -18    2.25    6.68 
  11  -5 -20   21.51   10.19 
  -5 -11 -20    3.89    6.56 
 -11   4  -1  479.37   23.31 
 -11   4   1  517.93   23.82 
 -11   4  -1  493.28   23.50 
 -11   4   1  482.32   23.86 
   4  11  -1  483.51   35.77 
   4  11   1  521.68   36.96 
 -11   4   3   29.81   10.38 
   4  11  -3   15.67   12.83 
   4  11   3    8.40   11.50 
 -11   4   3    3.32    7.46 
 -11   4  -3    4.58    7.53 
 -11   4   5   16.95   10.27 
   4  11  -5    9.10   10.31 
   4  11   5    8.19   12.25 
   4  11  -5    4.77    9.25 
 -11   4  -5    4.98    7.91 
 -11   4   5    6.72    7.19 
  -4 -11  -5   13.19    8.13 
 -11   4   7  230.13   18.10 
   4  11  -7  185.63   23.66 
 -11   4  -7  219.56   16.64 
   4  11   7  197.14   25.58 
 -11   4   7  202.16   16.76 
  -4 -11  -7  202.82   16.20 
  -4 -11  -9   50.53   10.85 
   4  11  -9   60.69   16.65 
   4  11   9   51.75   17.15 
 -11   4  -9   52.37   10.97 
 -11   4   9   48.78   10.71 
  -4 -11 -11   -2.14    8.95 
 -11   4 -11   15.09   11.37 
 -11   4  11   -2.60    8.52 
 -11   4 -11  -18.88   11.04 
  -4 -11 -13   54.92   11.73 
 -11   4 -13   85.94   13.12 
  11  -4 -13   41.46   10.33 
 -11   4 -13   48.11   11.64 
 -11   4  13   42.14   11.14 
  11  -4 -15   80.02   12.16 
 -11   4  15   92.41   12.26 
  -4 -11 -15   85.73   12.96 
 -11   4 -15  112.45   14.13 
  -4 -11 -17   10.37    9.00 
 -11   4  17    7.12    7.15 
  11  -4 -17   12.43    8.00 
 -11   4 -17   -6.66    9.78 
  -4 -11 -19    2.72    7.30 
  11  -4 -19    7.92    7.16 
  11  -4 -21    3.21    4.90 
  -4 -11 -21   -1.42    5.78 
 -11   3   0   -2.59    7.78 
 -11   3   0   -5.21    8.97 
   3  11   0   -0.85   10.83 
 -11   3  -2   48.10   10.23 
 -11   3   2   29.13    8.69 
   3  11  -2   30.34   12.02 
   3  11   2   30.25   13.38 
 -11   3  -2   47.86   10.55 
 -11   3   2   41.12    9.98 
 -11   3  -4  188.96   15.03 
 -11   3   4  157.54   13.98 
 -11   3  -4  189.34   15.36 
   3  11  -4  186.87   22.06 
 -11   3   4  188.02   15.42 
   3  11  -4  190.79   22.21 
   3  11   4  189.77   23.27 
 -11   3   6   31.75    9.12 
   3  11  -6   42.78   13.61 
   3  11   6   50.75   15.91 
   3  11  -6   48.13   14.72 
 -11   3  -6   45.39    9.78 
 -11   3   6   46.09   10.13 
  -3 -11  -8   59.07   10.30 
 -11   3   8   82.23   13.29 
   3  11  -8   50.47   15.41 
   3  11   8   53.42   16.71 
 -11   3  -8   50.87   11.29 
 -11   3   8   51.37   11.27 
  -3 -11 -10   12.91    8.36 
 -11   3  10   20.57    9.61 
   3  11 -10   15.97   13.61 
  11  -3 -10    9.73    8.35 
   3  11  10    6.22   12.61 
 -11   3 -10    8.33    8.65 
 -11   3  10   10.44    8.71 
  -3 -11 -12    8.42    8.67 
 -11   3  12    9.43    9.19 
  11  -3 -12   -3.91    9.09 
 -11   3 -12   10.17   10.04 
 -11   3 -12   25.06   10.53 
  -3 -11 -14   37.79   10.64 
 -11   3 -14   36.23   11.44 
  11  -3 -14   34.34   10.58 
 -11   3 -14   24.47   10.29 
 -11   3  14   39.74   10.91 
  -3 -11 -16    0.20    8.53 
  11  -3 -16   12.36    9.20 
 -11   3 -16    1.02    9.60 
 -11   3  16   13.87    8.50 
  -3 -11 -18   11.64    8.33 
  11  -3 -18   -6.54    8.09 
 -11   3 -18    6.77    9.93 
 -11   3  18   -0.03    6.51 
  -3 -11 -20    2.59    7.20 
  11  -3 -20   -3.09    6.44 
  11  -3 -22    2.45    4.41 
  -3 -11 -22    7.44    5.49 
 -11   2  -1  105.96   11.87 
 -11   2   1  101.02   11.53 
   2  11  -1   85.47   17.24 
   2  11  -1  115.19   16.89 
 -11   2  -1  101.66   11.67 
 -11   2   1  111.52   12.48 
   2  11   1   96.96   18.45 
 -11   2  -3  211.00   15.14 
 -11   2   3  227.24   16.07 
   2  11  -3  231.05   23.54 
   2  11   3  220.30   24.43 
   2  11  -3  255.35   24.57 
 -11   2  -3  225.31   16.03 
 -11   2   3  237.18   17.07 
 -11   2  -5  196.43   15.18 
 -11   2   5  215.34   16.46 
   2  11  -5  191.97   21.06 
 -11   2  -5  210.07   16.01 
   2  11  -5  229.28   24.81 
   2  11   5  221.79   24.90 
 -11   2   5  220.50   16.72 
 -11   2   7   -0.31    7.79 
 -11   2   7   -4.01    9.19 
   2  11   7    0.13   11.40 
   2  11  -7    0.59   10.71 
 -11   2  -7    0.43    7.82 
 -11   2   9  298.30   18.80 
  11  -2  -9  328.60   20.54 
 -11   2  -9  309.07   19.58 
   2  11  -9  291.92   29.51 
  -2 -11  -9  284.72   18.40 
   2  11   9  309.02   30.74 
 -11   2  11  158.59   14.78 
  11  -2 -11  154.15   15.79 
 -11   2 -11  147.47   14.83 
   2  11 -11  135.22   22.46 
   2  11  11  104.43   20.52 
  -2 -11 -11  149.36   14.86 
  -2 -11 -13    0.48    8.84 
  11  -2 -13   -2.95    9.06 
 -11   2 -13   -4.95   10.38 
 -11   2 -13   30.60   10.83 
 -11   2  13   10.82    9.37 
  -2 -11 -15   17.92    9.30 
  11  -2 -15   21.43   10.16 
 -11   2 -15   23.85   10.09 
 -11   2  15   18.95    9.56 
  -2 -11 -17   59.64   11.49 
  11  -2 -17   61.72   11.29 
 -11   2 -17   44.72   10.98 
 -11   2  17   57.04   10.38 
  -2 -11 -19   21.78    8.93 
  11  -2 -19   21.54    8.85 
 -11   2  19   20.15    7.58 
  -2 -11 -21   -1.38    6.20 
  11  -2 -21    2.67    5.99 
 -11   1   0   15.44    9.01 
   1  11   0   20.30   13.71 
   1  11   0   -4.68    9.43 
 -11   1   0    3.83    6.82 
 -11   1  -2    5.24    7.55 
 -11   1   2    3.78    8.19 
 -11   1   2    7.31    7.95 
   1  11  -2   -2.94    9.57 
   1  11   2    8.61   12.22 
 -11   1  -2   -1.63    7.08 
   1  11  -2    1.44    9.26 
 -11   1  -4  349.50   18.77 
 -11   1   4  423.54   21.29 
   1  11  -4  423.90   29.47 
 -11   1  -4  423.31   20.97 
   1  11   4  443.84   32.72 
   1  11  -4  454.30   32.37 
 -11   1   4  383.41   20.12 
 -11   1   4  450.46   22.14 
 -11   1   6  152.77   14.93 
 -11   1  -6  130.04   13.09 
   1  11   6  105.55   18.78 
   1  11  -6  103.80   18.62 
 -11   1   8   48.56   10.64 
   1  11   8   46.38   15.00 
   1  11  -8   39.86   15.00 
 -11   1  -8   44.97   10.30 
  -1 -11 -10    8.45    7.84 
 -11   1  10    4.20    8.35 
  11  -1 -10    7.72    8.71 
   1  11 -10   -0.49   12.13 
   1  11  10    3.67   12.46 
 -11   1 -10    7.61    8.57 
 -11   1  12  135.41   13.72 
  11  -1 -12  148.45   15.54 
 -11   1 -12  160.77   15.22 
  -1 -11 -12  147.83   14.61 
  -1 -11 -14   22.06    9.24 
  11  -1 -14   18.97    9.93 
  -1 -11 -16   62.77   11.61 
  11  -1 -16   73.34   12.72 
 -11   1 -16   62.73   11.81 
 -11   1  16   59.26   11.38 
  -1 -11 -18   27.42    9.40 
  11  -1 -18   34.96   10.25 
 -11   1 -18   27.63    9.73 
 -11   1  18   23.06    8.15 
  -1 -11 -20   24.47    8.57 
  11  -1 -20   39.72    9.10 
  -1 -11 -22   26.80    6.64 
  11  -1 -22   17.30    6.08 
 -11   0  -1  296.10   17.19 
 -11   0   1  321.14   18.09 
   0  11   1  327.20   27.94 
   0  11  -1  350.50   28.03 
 -11   0   1  299.08   17.81 
   0  11  -1  349.78   27.55 
 -11   0  -3   -4.28    6.36 
 -11   0   3   -0.43    7.25 
   0  11  -3    3.98    9.08 
   0  11   3   10.77   10.74 
   0  11  -3   -0.21   10.17 
 -11   0   3   -1.42    7.43 
 -11   0  -5  212.57   15.20 
   0  11   5  235.73   26.04 
 -11   0   5  237.11   16.22 
 -11   0  -5  263.40   17.13 
   0  11  -5  240.87   25.18 
 -11   0   5  257.07   17.58 
 -11   0   7  338.07   19.38 
 -11   0  -7  336.24   19.23 
   0  11  -7  320.10   29.82 
   0  11   7  313.40   29.25 
 -11   0   9  296.01   18.97 
 -11   0  -9  262.97   17.53 
   0  11  -9  264.28   28.60 
   0  11   9  253.58   27.64 
   0 -11 -11    8.06    7.66 
 -11   0  11   -0.52    7.79 
  11   0 -11    5.10    8.99 
 -11   0 -11   -0.18    8.51 
   0  11  11   -4.97   11.35 
   0  11 -11   11.38   12.00 
  11   0 -13  202.38   18.10 
 -11   0 -13  174.22   15.41 
   0 -11 -13  190.01   16.22 
  11   0 -15  149.68   16.45 
 -11   0 -15  132.43   14.11 
   0 -11 -15  139.80   14.12 
   0  11 -15  109.69   12.46 
   0 -11 -17    2.67    7.98 
  11   0 -17   14.45   10.60 
 -11   0 -17    0.91    8.04 
   0 -11 -19   19.62    8.45 
  11   0 -19   27.66    9.74 
 -11   0  19   19.06    7.61 
  11   0 -21  107.49   10.38 
   0 -11 -21  112.77   10.37 
 -11  -1   0   -4.18    7.22 
  -1  11   0   -0.85    9.74 
 -11  -1   0   -2.73    7.14 
  -1  11  -2  142.82   19.27 
 -11  -1  -2  149.40   13.09 
 -11  -1   2  165.11   13.73 
  -1  11   2  172.95   21.28 
  -1  11   2  159.65   13.28 
 -11  -1  -2  137.15   13.58 
 -11  -1   2  163.02   15.07 
  -1  11  -2  156.78   21.33 
 -11  -1  -4   41.59    9.52 
 -11  -1  -4   34.28    8.27 
 -11  -1   4   35.97    9.18 
  -1  11   4   48.01   14.61 
  -1  11  -4   32.45   12.59 
 -11  -1   4   44.73   10.28 
 -11  -1   6  213.91   15.75 
 -11  -1  -6  215.38   15.78 
  -1  11  -6  200.85   23.68 
 -11  -1   6  225.04   17.19 
 -11  -1  -6  182.52   14.81 
  -1  11   6  211.21   24.32 
 -11  -1   8   -2.09    8.46 
  -1  11   8    3.28   11.03 
 -11  -1  -8    9.69    8.43 
  -1  11  -8    1.11   10.39 
 -11  -1  10   64.04   11.17 
  -1  11  10   68.55   16.93 
 -11  -1 -10   61.70   10.63 
  -1  11 -10   47.57   15.88 
   1 -11 -12   25.04    8.58 
 -11  -1  12   22.20    9.13 
  11   1 -12   20.31   10.86 
 -11  -1 -12   35.00   10.75 
  11   1 -14  182.66   17.57 
 -11  -1 -14  168.17   14.69 
   1 -11 -14  175.22   14.90 
  -1  11 -16   33.66    9.40 
   1 -11 -16   42.96   10.43 
  11   1 -16   48.39   11.83 
 -11  -1 -16   37.80    9.50 
   1 -11 -18    3.50    7.56 
  11   1 -18    0.12    8.54 
   1 -11 -20   44.13    8.98 
 -11  -1  20   44.32    8.17 
  11   1 -20   45.32    9.41 
   1 -11 -22   33.75    6.38 
  11   1 -22   35.90    6.78 
  -2  11  -1  110.52   11.77 
  -2  11   1  114.95   11.97 
 -11  -2   1  111.73   12.88 
 -11  -2  -1  106.11   12.67 
  -2  11  -1  110.51   17.30 
  -2  11   1  106.59   17.61 
  -2  11  -3  562.30   33.12 
 -11  -2  -3  539.03   22.70 
  -2  11  -3  637.18   24.70 
  -2  11   3  601.46   24.07 
 -11  -2  -3  572.95   24.73 
 -11  -2   3  624.27   26.10 
  -2  11  -3  617.60   38.65 
  -2  11   3  591.18   37.01 
 -11  -2   5   22.74    9.08 
 -11  -2  -5   20.77    8.01 
  -2  11   5   21.92    7.77 
  -2  11   5   27.26   13.28 
 -11  -2  -5   18.11    7.96 
  -2  11  -5   22.91   11.86 
 -11  -2  -5   16.10    8.27 
  -2  11   7    3.07    6.68 
  -2  11  -7    6.27   10.75 
  -2  11   7   -0.66   10.18 
 -11  -2  -7    6.47    7.14 
 -11  -2  -7    3.09    7.70 
 -11  -2   7   -0.39    8.59 
  -2  11  -9   53.98   15.82 
 -11  -2   9   58.00   10.76 
 -11  -2  -9   52.07   11.45 
  -2  11   9   75.93   17.62 
 -11  -2  -9   59.92   10.40 
  -2  11  11  132.67   21.92 
 -11  -2  11  151.22   14.58 
 -11  -2 -11  145.46   13.19 
  -2  11 -11  136.06   22.61 
 -11  -2 -11  159.90   15.31 
  11   2 -11  157.39   25.66 
  11   2 -13   21.02   10.72 
 -11  -2 -13   26.49    8.80 
 -11  -2 -13   26.58    9.36 
  -2  11 -15   29.79    9.56 
   2 -11 -15   45.63   10.48 
  11   2 -15   53.91   12.03 
  11   2 -17   98.59   13.75 
   2 -11 -17   95.74   11.83 
  -2  11 -17  114.46   12.58 
  11   2 -19   90.26   12.09 
   2 -11 -19   80.86   10.43 
   2 -11 -21   -0.01    5.74 
  11   2 -21   -0.79    6.39 
 -11  -2  21   -0.33    5.19 
 -11  -3   0    3.50    7.91 
  -3  11   0    2.72    7.11 
  -3  11   0   16.03   10.52 
  -3  11  -2   17.07    7.78 
  -3  11   2   14.32    7.96 
  -3  11  -2    8.77    9.11 
  -3  11   2   16.80   11.06 
 -11  -3  -2   17.46    9.04 
 -11  -3   2   15.09    8.89 
  -3  11  -4  379.91   20.25 
  -3  11   4  375.33   20.18 
 -11  -3   4  380.75   21.38 
  -3  11  -4  354.69   30.57 
 -11  -3  -4  336.61   20.62 
  -3  11   4  357.84   30.79 
  -3  11  -6    3.42   10.65 
 -11  -3   6   13.79    8.90 
  -3  11   6    7.25    7.46 
  -3  11   6   10.41   12.13 
 -11  -3  -6    8.68    7.16 
 -11  -3  -6    6.96    8.40 
  -3  11   8   20.07    8.55 
  -3  11   8   15.50   12.44 
 -11  -3  -8   15.38    7.47 
  -3  11  -8   19.29   14.17 
  11   3  -8   22.91   13.01 
 -11  -3  -8   18.52    9.93 
 -11  -3  10   10.05    8.79 
  -3  11 -10    2.23   10.87 
  -3  11  10   19.38   13.82 
  11   3 -10    6.99   14.96 
 -11  -3 -10   17.59    9.69 
 -11  -3  12  110.06   12.47 
 -11  -3 -12  111.85   13.89 
  11   3 -14   10.37   10.22 
 -11  -3 -14   10.14    8.77 
  -3  11 -16    9.76    8.50 
   3 -11 -16   31.65    8.62 
  11   3 -16   30.17   11.09 
 -11  -3 -16   18.36    9.76 
   3 -11 -18    4.53    7.12 
  11   3 -18    3.23    8.39 
  -3  11 -18   -5.01    8.33 
   3 -11 -20   11.09    6.48 
  11   3 -20    7.04    6.86 
  11   3 -22    3.16    4.81 
  -4  11   1  564.95   36.59 
  -4  11  -1  510.53   34.14 
  -4  11  -1  578.55   24.60 
  -4  11   1  569.59   24.57 
 -11  -4  -1  548.31   25.60 
 -11  -4   1  579.71   26.00 
  -4  11  -3    3.46    8.20 
  -4  11   3    1.66    7.62 
  -4  11   3   -6.25   11.74 
 -11  -4   3   -2.65    8.01 
 -11  -4  -3   -0.33    8.03 
  11   4   5   72.75   16.18 
  -4  11  -5   68.60   11.22 
  -4  11   5   71.64   11.43 
  -4  11   5   64.78   16.40 
  -4  11  -5   62.11   16.46 
 -11  -4  -5   81.71   13.13 
 -11  -4   5   66.00   11.57 
  -4  11   7  187.95   24.56 
  11   4  -7  172.79   22.90 
  -4  11   7  188.28   15.02 
  -4  11  -7  181.11   24.34 
 -11  -4   7  180.51   16.43 
 -11  -4  -7  185.43   17.15 
  -4  11  -9   44.18   15.30 
  -4  11   9   42.12    8.96 
  -4  11   9   57.66   17.34 
 -11  -4  -9   53.01   12.13 
  11   4  -9   59.48   17.57 
 -11  -4  11   -1.57    8.71 
 -11  -4 -11   27.94   10.83 
 -11  -4  13   58.77   10.02 
  11   4 -13   74.81   13.29 
 -11  -4 -13   71.27   13.18 
  -4  11 -15   -1.67   10.67 
  11   4 -15   17.41   10.48 
 -11  -4 -15   17.65    9.79 
  -4  11 -17   57.00   10.88 
   4 -11 -17   38.83    8.96 
  11   4 -17   37.89   10.59 
 -11  -4 -17   28.59    9.69 
   4 -11 -19    3.08    6.00 
  11   4 -19    6.53    7.21 
 -11  -4 -19   -0.71    5.32 
  11   4 -21    2.98    5.17 
  -4  11 -21   10.65    5.71 
 -11  -4  21    8.33    5.40 
  -5  11   0    1.40    7.47 
  -5  11   0   -0.47   10.14 
 -11  -5   0    8.39    8.90 
  -5  11   2  162.96   22.92 
  -5  11  -2  180.93   15.77 
  -5  11   2  174.30   15.50 
 -11  -5   2  180.28   16.24 
 -11  -5  -2  168.92   16.17 
  11   5   4   20.94   12.31 
  -5  11  -4   10.10    8.61 
  -5  11   4   16.10    9.03 
  -5  11   4   24.03   13.11 
 -11  -5   4   17.16    8.73 
 -11  -5  -4   21.93   10.32 
  -5  11   6  275.17   29.13 
 -11  -5  -6  315.10   20.81 
  -5  11  -6  321.79   19.99 
  -5  11   6  297.69   18.94 
 -11  -5   6  290.05   19.60 
  -5  11   8    5.17    7.57 
  -5  11   8   -6.42   13.21 
  -5  11  -8   10.91   12.11 
 -11  -5   8    1.98    8.92 
 -11  -5  -8    4.91    9.81 
 -11  -5 -10   18.68   10.68 
 -11  -5  12   -3.47    8.76 
 -11  -5 -12   12.69   13.34 
  11   5 -14  127.62   14.83 
 -11  -5 -14  125.05   15.55 
  -5  11 -16  113.93   12.80 
  11   5 -16  118.43   13.73 
 -11  -5 -16  108.00   14.41 
  11   5 -18   -1.00    7.71 
 -11  -5 -18   -1.76    7.75 
  11   5 -20   -3.46    6.28 
 -11  -5 -20    1.18    4.28 
  -6  11  -1   -2.82    8.46 
  -6  11   1    3.66    8.16 
  -6  11   1    8.36   11.51 
 -11  -6   1   -0.21    8.93 
 -11  -6  -1    8.66    9.79 
  11   6   3    4.95   11.58 
  -6  11  -3    6.12    8.78 
  -6  11   3    1.95    7.64 
  -6  11   3    0.95   11.47 
 -11  -6   3   12.15    9.96 
 -11  -6  -3    0.64    9.18 
  11   6   5   49.00   16.41 
 -11  -6  -5   61.69   12.22 
  -6  11  -5   55.75   11.40 
  -6  11   5   57.19   11.33 
  -6  11   5   59.42   17.06 
 -11  -6   5   69.60   12.36 
 -11  -6   7   10.13    9.15 
  -6  11  -7   15.71    9.04 
  -6  11   7    9.14    8.60 
  -6  11   7    9.27   12.54 
 -11  -6  -7    5.70   10.31 
  -6  11   9   -2.13    7.51 
 -11  -6  -9    1.27    9.82 
  -6  11 -11  126.02   15.54 
 -11  -6 -11   69.44   13.29 
 -11  -6  13   -0.03    7.76 
 -11  -6 -13   11.91   10.37 
  -6  11 -15   -5.20    9.94 
  11   6 -15   16.47    8.98 
 -11  -6 -15   11.40   10.62 
  11   6 -17    1.11    7.64 
 -11  -6 -17    1.62    8.55 
  11   6 -19    6.74    6.57 
 -11  -6 -19    0.88    6.75 
  -6  11 -19   17.21    7.55 
  11   7   0    3.17   12.34 
  -7  11   0    1.80    8.52 
 -11  -7   0   -2.71    9.00 
  11   7   2   23.18   14.92 
  -7  11  -2   20.02    9.95 
  -7  11   2   23.28    9.79 
  -7  11   2   30.73   13.89 
 -11  -7  -2   23.22   10.55 
 -11  -7   2   28.76   10.67 
  11   7   4   31.00   16.35 
  -7  11  -4   30.16    9.79 
  -7  11   4   31.26   10.06 
  -7  11   4   20.11   13.95 
 -11  -7   4   27.26   10.66 
 -11  -7  -4   20.95   10.69 
  -7  11  -6   58.11   11.56 
  -7  11   6   46.80   11.73 
  -7  11   6   22.61   14.44 
 -11  -7   6   41.77   11.45 
 -11  -7  -6   42.85   12.26 
  -7  11  -8    6.50    7.40 
  -7  11   8    6.56    8.19 
 -11  -7   8    0.52    9.77 
 -11  -7  -8   -4.37   10.26 
  -7  11 -10    0.15    9.70 
  -7  11  10    4.29    8.01 
 -11  -7 -10    2.52   10.48 
 -11  -7 -12   87.05   14.89 
  -7  11 -12  127.14   15.26 
  -7  11 -14  114.36   13.12 
  11   7 -14  115.76   13.98 
 -11  -7 -14  116.57   15.29 
  11   7 -16    9.23    8.24 
 -11  -7 -16   12.60    9.50 
  11   7 -18    7.47    6.68 
 -11  -7 -18    9.16    7.62 
  -7  11 -20   30.10    6.52 
  11   8  -1   19.28   16.84 
  11   8   1   13.47   14.43 
  -8  11  -1   23.07   10.35 
  -8  11   1   18.03    9.61 
 -11  -8   1   26.13   10.50 
 -11  -8  -1   19.87   10.53 
 -11  -8  -3    1.25    9.61 
  -8  11  -3   -2.87    9.01 
  -8  11   3   -2.13    9.28 
 -11  -8   3   -1.55    9.67 
 -11  -8   5   59.72   12.39 
  -8  11  -5   60.57   11.88 
  -8  11   5   44.00   11.31 
 -11  -8  -5   54.17   12.44 
  -8  11  -7    5.66    7.90 
  -8  11   7    2.95    8.58 
 -11  -8   7    4.90    8.96 
 -11  -8  -7   12.34   10.86 
  -8  11  -9   40.43    9.90 
  -8  11   9   44.50    9.98 
 -11  -8  -9   42.13   12.41 
  -8  11 -11   16.22   10.94 
 -11  -8 -11   -2.87   10.59 
  -8  11 -13   34.49   10.45 
  11   8 -13   48.52   10.85 
 -11  -8 -13   54.61   12.09 
  -8  11 -15   -4.77    8.23 
  11   8 -15   -0.76    7.59 
 -11  -8 -15    0.31    9.06 
  11   8 -17    7.29    6.38 
 -11  -8 -17   11.85    8.11 
 -11  -8 -19    0.91    5.70 
  -8  11 -19   28.91    6.64 
 -11  -9   0   -2.84    9.86 
  -9  11   0   -1.92    9.93 
  -9  11  -2   12.23    9.62 
  -9  11   2   13.75   10.19 
 -11  -9   2    5.41    9.75 
 -11  -9  -2   13.98   10.23 
  -9  11  -4   59.24   12.34 
  -9  11   4   62.50   12.01 
 -11  -9   4   54.27   12.21 
 -11  -9  -4   42.86   12.59 
 -11  -9   6    3.24    9.25 
  -9  11  -6    5.23    8.07 
  -9  11   6   -0.20    8.94 
 -11  -9  -6    6.14   10.53 
  -9  11  -8   20.66    8.96 
 -11  -9  -8   28.32   11.51 
  -9  11   8   19.60    8.69 
  -9  11 -10   18.18    9.09 
  -9  11  10   32.15    9.07 
 -11  -9 -10   23.05   10.97 
  -9  11 -12  110.58   13.61 
 -11  -9 -12   86.28   13.42 
  -9  11 -14   -1.06    9.43 
  11   9 -14    4.49    7.31 
 -11  -9 -14   11.86    9.91 
  11   9 -16   35.69    8.29 
  -9  11 -16   17.83    7.62 
 -11  -9 -18    2.33    6.04 
  -9  11 -18   34.82    6.74 
 -10  11  -1    3.21    9.18 
 -10  11   1    9.34   10.29 
 -11 -10   1    2.51    9.27 
 -11 -10  -1   -0.51    9.32 
 -10  11  -3   40.98   11.05 
 -10  11   3   33.63   11.20 
 -11 -10   3   42.89   11.13 
 -11 -10  -3   43.29   11.86 
 -11 -10   5   16.65    9.37 
 -10  11  -5   10.62    9.51 
 -10  11   5   13.17    9.55 
 -11 -10  -5   10.23   10.04 
 -10  11  -7   11.34    8.23 
 -10  11   7   19.44    9.25 
 -11 -10  -7   24.32   11.26 
 -11 -10   7   22.55    9.80 
 -10  11  -9    2.35    8.47 
 -10  11   9   15.26    8.68 
 -11 -10  -9    7.24   10.43 
 -10  11 -11    1.69    8.97 
 -11 -10 -11   18.32   10.75 
 -10  11 -11    5.96    8.99 
 -10  11  11   19.32    6.93 
 -10  11 -13   -7.46    8.18 
  11  10 -13    0.14    6.76 
 -11 -10 -13    6.08    8.68 
  11  10 -15   16.71    6.42 
 -10  11 -15   12.12    7.75 
 -11 -10 -17   -0.62    5.62 
 -10  11 -17   43.30    6.90 
 -11  11   0    5.25    9.31 
 -11 -11   0    2.98    9.32 
 -11  11   2   94.10   13.93 
 -11  11  -2   81.99   12.56 
 -11 -11  -2   91.25   13.76 
 -11 -11   2   69.37   12.07 
 -11 -11  -4   23.61   10.48 
 -11 -11   4   15.11    9.32 
 -11  11  -4   18.95    8.99 
 -11  11   4   16.02    9.65 
 -11  11  -6  123.20   13.97 
 -11  11   6  155.36   15.25 
 -11 -11   6  161.28   14.63 
 -11 -11  -6  176.58   16.95 
 -11  11  -8   -6.85    9.29 
 -11  11  -8    8.56    6.74 
 -11  11   8    2.51    7.33 
 -11 -11  -8    0.12    9.23 
 -11  11 -10   28.00    8.87 
 -11  11  10   34.50    8.52 
 -11 -11 -10   39.73   10.44 
 -11  11 -12   63.98   10.62 
  11  11 -12    4.09    6.43 
 -11  11 -12   50.77    9.71 
 -11 -11 -12   -1.50    8.25 
 -11 -11 -14  124.53   11.41 
 -11  11 -14   61.56    8.49 
 -11 -11 -16    4.23    5.57 
 -11  11 -16   17.26    5.82 
 -12  11  -1   16.95    9.20 
 -12  11   1   12.73    8.76 
 -11 -12   1   10.14    9.05 
 -11 -12  -1   11.32    8.78 
 -11 -12  -3    5.61    8.33 
 -12  11  -3    2.27    7.48 
 -12  11   3   12.93    9.71 
 -11 -12   3    1.25    7.53 
 -12  11  -5   50.14    9.69 
 -12  11   5   54.58   10.90 
 -11 -12   5   54.64   10.02 
 -11 -12  -5   55.54   11.22 
 -12  11  -7   16.60    7.01 
 -12  11   7   37.01    9.90 
 -11 -12  -7   44.28   10.67 
 -12  11  -9    3.71    6.96 
 -12  11  -9    7.89    7.15 
 -12  11   9   26.88    7.75 
 -11 -12  -9   23.87    9.20 
 -11 -12 -11    4.41    7.80 
 -12  11 -11  -10.63    7.25 
 -11 -12 -13   38.47    8.06 
 -12  11 -13   38.61    6.61 
 -11 -12 -15    5.17    4.93 
 -12  10   0    5.90    9.05 
 -10 -12   0    9.79    9.27 
 -12  10  -2   50.18   10.97 
 -12  10   2   49.79   11.16 
 -10 -12  -2   48.26   11.46 
 -10 -12   2   35.33   10.14 
 -12  10  -4    6.15    8.36 
 -12  10   4   19.96    9.94 
 -10 -12   4   11.55    8.09 
 -10 -12  -4    3.03    8.96 
 -12  10  -6   -0.88    7.83 
 -10 -12  -6    1.61    8.94 
 -12  10  -8    0.23    7.51 
 -12  10  -8   19.35    8.53 
 -12  10   8   20.02    8.57 
 -10 -12  -8   16.11    9.36 
 -12  10 -10    6.75    7.69 
 -12  10  10   18.15    7.53 
 -10 -12 -10   14.27    9.34 
 -12  10 -12   -7.37    8.47 
 -10 -12 -12    9.33    8.66 
 -10 -12 -14    3.98    6.75 
 -12  10 -14   35.22    7.50 
 -10 -12 -16    7.29    5.64 
 -12   9  -1   18.50    7.84 
 -12   9  -1   30.40   10.93 
 -12   9   1   20.59   10.28 
  -9 -12   1   29.47   10.28 
  -9 -12  -1   35.15   10.58 
 -12   9  -3  110.09   13.47 
 -12   9   3   94.96   13.64 
 -12   9  -3   80.16   11.06 
  -9 -12   3   93.37   12.13 
  -9 -12  -3   96.85   14.08 
 -12   9  -5   44.19   10.01 
 -12   9  -5   26.21    9.53 
 -12   9   5   36.00   10.90 
  -9 -12  -5   30.61   10.07 
 -12   9  -7   -1.16    6.85 
 -12   9  -7   -4.41    8.27 
 -12   9   7   -5.60    9.48 
  -9 -12  -7    3.86    9.38 
 -12   9  -9   12.05    8.61 
 -12   9  -9   28.68    9.63 
 -12   9   9   32.56    9.44 
  -9 -12  -9   29.99   10.21 
 -12   9  11   81.85   10.30 
 -12   9 -11  107.63   12.88 
  -9 -12 -11   97.72   12.78 
 -12   9 -11   76.41   11.95 
 -12   9 -13    0.84    8.24 
  -9 -12 -13   10.61    8.55 
 -12   9 -15   45.53    8.23 
  -9 -12 -15   14.68    7.64 
  -9 -12 -17    4.67    5.67 
 -12   8   0   68.43   10.15 
 -12   8   0   64.88   12.13 
  -8 -12   0   53.21   11.16 
 -12   8  -2  112.18   13.75 
 -12   8  -2   90.98   11.75 
 -12   8   2   97.56   10.98 
  -8 -12  -2  109.46   13.96 
 -12   8  -4   -2.24    8.04 
 -12   8  -4    4.41    9.31 
 -12   8   4   -0.21    8.91 
  -8 -12  -4    4.62    9.36 
 -12   8  -6   30.38    9.91 
 -12   8  -6   21.81    9.32 
 -12   8   6   40.62   11.18 
  -8 -12  -6   29.25   10.45 
 -12   8  -8    3.79    8.23 
 -12   8   8    3.19    8.75 
  -8 -12  -8    8.31    9.48 
 -12   8  10  111.25   13.18 
 -12   8 -10   98.07   13.02 
  -8 -12 -10  116.69   14.58 
 -12   8 -10  140.97   14.51 
 -12   8 -12   33.58   10.86 
  -8 -12 -12   22.35   10.00 
 -12   8 -14  -12.85    9.83 
 -12   8 -14   16.06    9.15 
  -8 -12 -14   -3.68    8.27 
 -12   8 -16   46.29    8.00 
 -12   8 -16   59.79   10.34 
  -8 -12 -18   26.41    6.66 
 -12   7  -1  209.62   16.14 
 -12   7   1  212.29   15.55 
  -7 -12  -1  223.35   17.20 
 -12   7  -3   22.58    9.22 
 -12   7   3   25.88    8.47 
  -7 -12  -3   23.45   10.21 
 -12   7  -5   23.12    9.51 
 -12   7  -5   23.62    9.37 
 -12   7   5   25.99    8.75 
  -7 -12  -5   28.52   10.13 
 -12   7  -7   76.03   11.63 
 -12   7  -7   70.93   11.75 
  -7 -12  -7   78.00   13.11 
 -12   7  -9    7.15    8.74 
  -7 -12  -9   11.93    9.91 
 -12   7 -11    2.74    9.68 
 -12   7  11   13.46    8.09 
  -7 -12 -11    7.86    9.88 
 -12   7 -11   -5.02    9.30 
 -12   7 -13   95.53   13.43 
  -7 -12 -13   85.89   12.33 
 -12   7 -15   75.23   11.72 
  -7 -12 -15   74.68   11.41 
 -12   7 -15   75.82   11.64 
 -12   7 -17   81.96   11.80 
  -7 -12 -17   21.79    8.30 
  -7 -12 -19    2.09    5.30 
 -12   6   0  661.76   26.56 
   6  12   0  626.57   45.07 
   6  12  -2    1.06   13.57 
   6  12   2    3.01   12.79 
 -12   6  -2   -0.08    8.45 
 -12   6   2    2.00    8.07 
   6  12  -4   -0.07   12.74 
 -12   6  -4    1.20    8.36 
 -12   6   4   14.12   10.26 
  -6 -12  -4    9.76    9.61 
 -12   6  -6   -4.51    8.48 
 -12   6  -6    5.73    7.67 
 -12   6   6   12.67   10.29 
  -6 -12  -6    4.59    8.95 
 -12   6  -8   88.18   12.71 
 -12   6   8   91.34   13.40 
  -6 -12  -8   90.08   13.19 
 -12   6 -10   -2.10    8.90 
 -12   6  10    2.52    8.53 
  -6 -12 -10   -2.36    9.02 
 -12   6 -12   12.70   10.38 
 -12   6  12   11.65    7.85 
 -12   6  12   23.75    9.71 
 -12   6 -12   -9.90   10.09 
  -6 -12 -12   16.86    9.56 
 -12   6 -14   19.33   10.58 
 -12   6  14    0.53    7.03 
 -12   6 -14   18.42    9.60 
  -6 -12 -14    1.75    8.93 
 -12   6 -16   68.01   11.39 
  -6 -12 -16   84.70   11.32 
  -6 -12 -18   16.32    8.12 
   5  12  -1   36.35   16.84 
   5  12   1   42.19   15.97 
 -12   5  -1   38.25   10.24 
 -12   5   1   36.49   10.71 
   5  12   3  149.91   23.74 
 -12   5  -3  147.88   14.87 
 -12   5   3  148.89   15.57 
   5  12  -3  133.73   22.52 
   5  12  -5   63.18   17.69 
   5  12   5   81.33   19.93 
 -12   5  -5   95.56   13.18 
 -12   5   5   83.36   12.89 
  -5 -12  -5   69.52   11.52 
 -12   5  -7    8.68    8.71 
 -12   5   7   -2.84    9.11 
  -5 -12  -7    6.40    8.07 
 -12   5   9   46.82   10.82 
 -12   5  -9   58.41   11.57 
  -5 -12  -9   39.19   10.53 
 -12   5  11   14.57    9.55 
 -12   5 -11    8.86    9.88 
  -5 -12 -11    9.07    8.99 
 -12   5 -13   31.60   10.89 
 -12   5 -13   43.75   11.72 
 -12   5  13   32.21    9.43 
  -5 -12 -13   41.41   10.66 
 -12   5 -15   -7.21    9.90 
 -12   5  15    0.72    7.06 
  -5 -12 -15    3.05    8.56 
 -12   5 -17   66.47   11.44 
  -5 -12 -17   65.22   10.27 
  -5 -12 -19   18.34    7.14 
   4  12   0   74.22   19.26 
 -12   4   0   87.67   13.44 
 -12   4   2  398.77   21.43 
 -12   4  -2  375.87   20.76 
 -12   4   2  371.31   21.58 
   4  12  -2  322.00   31.20 
   4  12   2  328.43   32.20 
 -12   4   4   22.02    9.97 
 -12   4   4   -3.35    9.25 
   4  12  -4    1.60   11.06 
   4  12   4    5.65   11.56 
 -12   4  -4   -2.66    8.22 
 -12   4  -6  133.34   14.08 
   4  12   6  125.35   23.12 
 -12   4   6  126.66   14.71 
 -12   4  -8    5.75    9.10 
 -12   4   8    1.25    9.12 
  -4 -12  -8   -0.53    7.89 
 -12   4 -10   55.16   11.24 
 -12   4  10   67.43   11.96 
  -4 -12 -10   63.85   11.78 
  -4 -12 -12   45.05   10.26 
 -12   4 -12   42.24   10.97 
 -12   4  12   39.37   10.34 
 -12   4 -12   51.28   11.20 
  -4 -12 -14   64.37   11.69 
  12  -4 -14   55.97   10.83 
 -12   4 -14   76.61   11.81 
 -12   4 -14   59.97   12.48 
 -12   4  14   71.22   11.39 
  -4 -12 -16    0.52    8.08 
  12  -4 -16   -3.06    7.20 
 -12   4 -16   -9.95   10.17 
 -12   4  16    1.23    7.24 
  12  -4 -18   44.84    8.42 
 -12   4 -18   76.73   11.44 
  -4 -12 -18   55.25    9.61 
  -4 -12 -20   -0.34    5.80 
 -12   3  -1   81.03   12.20 
 -12   3   1   57.36   10.54 
   3  12  -1   65.40   16.37 
   3  12   1   52.93   15.21 
 -12   3  -1   80.11   12.92 
 -12   3   1   58.57   11.05 
 -12   3  -3   11.73    9.10 
 -12   3   3   -3.14    8.87 
   3  12  -3   -3.44   11.02 
   3  12   3    5.26   12.03 
 -12   3  -3   -3.61    7.86 
 -12   3   3    2.25    8.09 
 -12   3   5    7.58    8.93 
   3  12  -5   17.27   11.60 
   3  12   5   -2.21   11.68 
 -12   3  -5   12.71    8.67 
 -12   3   5   12.54    9.36 
   3  12  -5   12.97   10.91 
 -12   3   7  251.41   18.43 
 -12   3  -7  212.10   16.84 
   3  12  -7  168.62   24.17 
 -12   3   7  200.39   17.37 
   3  12   7  187.75   26.30 
  -3 -12  -9   53.54   10.13 
 -12   3   9   60.83   11.75 
 -12   3  -9   59.22   11.49 
 -12   3   9   50.00   11.95 
  -3 -12 -11   13.27    9.11 
  12  -3 -11   16.19    8.65 
 -12   3 -11   19.15   10.68 
 -12   3  11    5.39    8.98 
  -3 -12 -13    9.11    8.27 
  12  -3 -13   -0.68    7.66 
 -12   3 -13   -7.10   10.21 
 -12   3  13    0.37    8.28 
  -3 -12 -15   25.70    9.70 
  12  -3 -15   28.94    9.82 
 -12   3 -15   34.98   11.62 
 -12   3  15   23.61    9.43 
  -3 -12 -17    4.13    8.02 
  12  -3 -17    6.57    7.30 
 -12   3  17   -4.27    6.85 
  12  -3 -19    5.77    6.46 
  -3 -12 -19   11.27    7.18 
  -3 -12 -21   -1.10    5.01 
 -12   2   0  292.24   18.65 
 -12   2   0  298.88   18.98 
   2  12   0  298.66   28.69 
 -12   2  -2   12.02    7.53 
 -12   2   2   12.94    8.68 
   2  12  -2   20.06   12.34 
   2  12   2   10.35   11.75 
 -12   2  -2   35.49   11.34 
 -12   2   2   11.60    8.62 
 -12   2  -4   23.16    9.56 
 -12   2   4    8.31    8.25 
   2  12  -4    4.32    9.81 
   2  12  -4   12.89    9.88 
   2  12   4    1.68   11.57 
 -12   2  -4   10.97    7.94 
 -12   2   4   13.31    8.69 
 -12   2   6    0.83    9.06 
   2  12   6   11.33   12.22 
 -12   2  -6    4.56    8.64 
 -12   2   6    4.63    8.26 
   2  12  -6   22.04   13.79 
 -12   2   8  371.29   21.02 
  12  -2  -8  366.01   20.94 
 -12   2  -8  378.00   21.28 
   2  12  -8  315.01   31.95 
 -12   2   8  370.89   22.10 
   2  12   8  347.89   33.46 
  -2 -12 -10   58.28   11.13 
 -12   2  10   77.96   12.25 
  12  -2 -10   71.07   11.79 
 -12   2 -10   49.06   11.29 
 -12   2  10   66.29   11.69 
  -2 -12 -12   21.65    9.01 
  12  -2 -12   21.25    9.89 
 -12   2  12   32.97   10.50 
 -12   2 -12   33.04   11.09 
  -2 -12 -14    3.90    8.34 
  12  -2 -14    4.05    8.91 
 -12   2 -14    5.68    9.38 
 -12   2  14    8.13    9.27 
  -2 -12 -16   21.74    9.06 
  12  -2 -16   14.75    9.10 
 -12   2 -16    0.55    8.43 
 -12   2  16   25.39    9.09 
  -2 -12 -18   21.85    8.37 
 -12   2  18   15.14    7.13 
  12  -2 -18    3.91    7.35 
 -12   2 -18   28.06    9.66 
  -2 -12 -20   10.57    6.16 
  12  -2 -20    8.32    5.60 
 -12   1  -1   -2.31    8.32 
 -12   1   1    6.58    7.92 
   1  12  -1    8.28   12.21 
   1  12   1    2.34   10.31 
 -12   1  -1   -0.71    7.65 
 -12   1   1    8.15    8.40 
   1  12  -1    1.40   10.28 
   1  12  -3    5.53   11.54 
 -12   1  -3   -0.11    7.97 
 -12   1   3    2.89    8.30 
   1  12  -3    0.89    9.44 
   1  12   3    0.80   11.48 
 -12   1   3   -3.92    7.51 
 -12   1   3    2.59    8.28 
 -12   1  -5   55.35    9.53 
 -12   1   5   67.41   11.25 
   1  12  -5   57.80   15.97 
 -12   1  -5   76.11   11.73 
   1  12   5   58.63   16.15 
 -12   1   5   70.96   12.05 
   1  12  -7   17.59   12.24 
 -12   1   7   10.46    8.19 
   1  12   7   14.10   12.77 
 -12   1  -7   16.57    9.58 
 -12   1   7   22.14    9.57 
 -12   1   9   17.00    8.97 
   1  12   9   19.87   13.81 
 -12   1  -9   15.05    9.97 
   1  12  -9    9.29   12.33 
 -12   1  11   -5.79    8.94 
  12  -1 -11    5.89    8.31 
 -12   1 -11    5.43    9.45 
  -1 -12 -13    2.42    8.07 
  12  -1 -13    6.94    9.54 
 -12   1 -13   -2.53    8.67 
 -12   1  13    6.19    9.88 
  -1 -12 -15    2.02    7.69 
  12  -1 -15    3.58    8.74 
 -12   1 -15    2.47    8.55 
 -12   1  15    1.57    8.27 
  -1 -12 -17   -0.53    7.59 
  12  -1 -17   -2.48    8.23 
 -12   1 -17  -12.35    8.63 
 -12   1  17    4.06    7.34 
  -1 -12 -19   -2.74    6.56 
  12  -1 -19    4.24    6.85 
 -12   1  19   10.06    6.28 
  12  -1 -21   19.95    5.88 
  -1 -12 -21    8.87    5.04 
 -12   0   0  387.08   21.03 
 -12   0   0  348.13   19.77 
 -12   0   0  311.37   19.09 
   0  12   0  360.96   30.00 
 -12   0   2   73.60   11.76 
 -12   0  -2   79.84   12.03 
 -12   0   2   83.27   11.98 
   0  12  -2   53.40   14.49 
   0  12  -2   66.19   15.95 
   0  12   2   66.44   16.58 
 -12   0   2   76.18   11.87 
 -12   0  -4  131.40   13.39 
 -12   0   4  150.56   14.38 
 -12   0  -4  150.69   14.39 
 -12   0   4  152.06   15.11 
   0  12  -4  149.51   22.00 
 -12   0   4  146.51   15.21 
   0  12   4  150.79   22.53 
 -12   0   6   97.89   13.03 
   0  12  -6   78.13   18.04 
 -12   0  -6   85.67   11.75 
   0  12   6   84.56   18.18 
 -12   0   8  133.04   14.59 
   0  12  -8  120.66   21.57 
 -12   0  -8  134.68   13.78 
   0  12   8  117.45   21.64 
 -12   0  10  162.56   15.20 
 -12   0 -10  159.87   15.14 
 -12   0  12  108.92   12.63 
  12   0 -12  136.81   15.25 
 -12   0 -12  143.02   14.32 
   0 -12 -14   12.59    8.25 
  12   0 -14    7.40    9.65 
 -12   0 -14   -9.53    9.64 
   0 -12 -16   22.78    8.88 
  12   0 -16   26.94   10.18 
 -12   0 -16   11.66    7.96 
 -12   0  16   22.75    9.27 
   0 -12 -18   10.00    7.36 
  12   0 -18   -4.64    8.00 
 -12   0 -18   25.20    8.71 
 -12   0  18    4.36    7.20 
  12   0 -20   56.51    8.72 
 -12   0  20   53.04    7.23 
   0 -12 -20   56.94    8.27 
 -12  -1   1   27.03    9.12 
 -12  -1  -1   16.71    8.23 
 -12  -1   1   14.39    7.89 
  -1  12  -1   25.71   11.94 
  -1  12   1   11.80   10.54 
 -12  -1   1   22.88    8.35 
 -12  -1  -1   18.89    8.13 
 -12  -1  -3   64.18   11.49 
  -1  12  -3   57.89   16.14 
 -12  -1   3   52.60    9.65 
  -1  12   3   59.10   15.76 
 -12  -1   3   56.56   10.67 
 -12  -1  -3   52.41   10.36 
  -1  12  -5   20.93   13.55 
 -12  -1  -5   16.85    7.76 
 -12  -1   5    8.76    7.82 
  -1  12   5   17.21   12.34 
 -12  -1  -5   14.50    8.33 
 -12  -1   5   17.40    9.31 
 -12  -1  -5   16.40    7.90 
 -12  -1   7   -5.82    8.74 
  -1  12   7   14.11   12.13 
  -1  12  -7   -2.10   12.60 
 -12  -1  -7    0.75    7.97 
 -12  -1   9   14.30    8.87 
  -1  12  -9    5.24   11.69 
  -1  12   9   -4.02   11.84 
 -12  -1  -9   13.72    8.21 
 -12  -1  11    2.47    8.74 
 -12  -1 -11    1.48    7.57 
 -12  -1  13   15.70    7.59 
  12   1 -13   21.83   10.87 
 -12  -1 -13   15.29    7.85 
   1 -12 -15    2.73    7.56 
  -1  12 -15   -3.69    8.31 
  12   1 -15    8.17    9.53 
 -12  -1 -15    9.87    8.36 
  12   1 -17   37.97    9.97 
  -1  12 -17   58.88   10.28 
   1 -12 -19   54.76    8.58 
  12   1 -19   61.84    9.80 
 -12  -1  19   51.22    8.42 
  12   1 -21    7.03    5.45 
 -12  -2   0  128.83   13.64 
 -12  -2   0  135.14   14.10 
  -2  12   0  113.70   19.25 
 -12  -2  -2  426.83   21.79 
 -12  -2   2  426.53   21.68 
  -2  12   2  401.02   20.91 
 -12  -2   2  415.35   22.49 
 -12  -2  -2  415.26   22.70 
  -2  12   2  365.91   31.35 
 -12  -2  -4    1.23    7.85 
 -12  -2   4   -6.23    8.70 
  -2  12  -4   -5.93   11.95 
  -2  12   4    4.25   10.88 
 -12  -2  -4    1.36    7.81 
 -12  -2   4    4.89    8.47 
 -12  -2  -4    0.88    8.47 
 -12  -2   6   -0.66    8.60 
  -2  12  -6   -3.66   11.46 
  -2  12   6    1.49   10.87 
 -12  -2  -6   -0.92    8.10 
 -12  -2   6   -0.48    8.97 
 -12  -2  -6   -2.18    8.93 
 -12  -2   8   16.77    8.60 
  -2  12   8   22.58   14.12 
 -12  -2  -8   23.41    8.89 
  -2  12  -8   16.56   12.45 
 -12  -2  -8   17.52    9.54 
 -12  -2  10  208.44   16.53 
 -12  -2 -10  193.00   15.48 
 -12  -2 -10  216.69   17.11 
 -12  -2  12   10.95    8.57 
  12   2 -12   -2.46    9.45 
 -12  -2 -12   -1.55    7.63 
 -12  -2 -12    3.12    8.32 
  12   2 -14   21.33   10.43 
  -2  12 -16   -7.61    8.93 
  12   2 -16   12.85    9.45 
  12   2 -18  217.26   15.57 
   2 -12 -18  181.88   12.46 
  12   2 -20   -3.56    6.09 
 -12  -2  20   -4.87    5.67 
  -3  12  -1    7.04    7.66 
  -3  12   1    6.65    7.39 
  -3  12   1    5.85   10.88 
  -3  12  -1   12.56   10.69 
 -12  -3   1    8.82    9.01 
 -12  -3  -1   10.74    9.57 
 -12  -3  -3  234.80   17.21 
 -12  -3   3  227.46   18.31 
  -3  12  -3  232.16   17.24 
  -3  12   3  223.88   16.55 
 -12  -3  -3  235.83   18.02 
  -3  12   3  206.14   25.15 
  -3  12  -5   18.23   11.55 
 -12  -3  -5   15.80    8.14 
  -3  12   5   14.70    7.64 
  -3  12   5   18.24   12.82 
 -12  -3   5   21.33    9.65 
 -12  -3  -5   19.98    8.79 
 -12  -3  -5   19.33    9.75 
 -12  -3   7   -4.25    9.12 
  -3  12   7   12.61    7.78 
  -3  12   7   -2.00   12.59 
 -12  -3  -7    7.85    7.53 
 -12  -3   7    0.45    8.89 
  -3  12  -7    5.55   12.22 
 -12  -3  -7    4.48    8.71 
 -12  -3  -9   32.95   10.97 
 -12  -3   9   34.57   10.19 
 -12  -3  -9   38.31    8.99 
 -12  -3  11  129.93   13.52 
 -12  -3 -11  124.34   14.34 
 -12  -3  13   13.08    8.56 
  12   3 -13    3.61    9.61 
 -12  -3 -13    0.08    8.38 
  -3  12 -15    5.16    9.45 
  12   3 -15    5.16    9.13 
 -12  -3 -15    5.01    8.16 
  -3  12 -17   93.73   11.50 
  12   3 -17   44.76   10.12 
  12   3 -19   21.65    7.76 
  -3  12 -19   49.55    8.04 
  12   3 -21   12.38    5.30 
  -4  12   0   94.66   12.19 
  -4  12   0   90.07   17.80 
 -12  -4   0  114.30   14.18 
  -4  12  -2   29.35    9.28 
  -4  12   2   26.33    9.52 
  -4  12   2   32.70   13.66 
 -12  -4   2   22.27    9.87 
 -12  -4  -2   22.86    9.87 
  12   4   4    3.16   11.53 
  -4  12  -4   18.35    8.90 
  -4  12   4   11.51    8.13 
  -4  12   4   14.18   12.86 
 -12  -4  -4   15.15    8.50 
 -12  -4   4   12.98    9.60 
 -12  -4  -4   14.00    9.93 
  -4  12   6   10.92    8.30 
  -4  12   6   22.78   13.85 
 -12  -4   6   10.37    9.20 
 -12  -4  -6   17.51   10.11 
  -4  12   8  218.07   16.04 
 -12  -4  -8  231.06   18.94 
 -12  -4  10   28.40    9.74 
 -12  -4 -10   35.51   11.64 
 -12  -4  12   34.18    9.60 
 -12  -4 -12   44.01   11.53 
  12   4 -14    2.79    9.30 
 -12  -4 -14    4.47    8.74 
  -4  12 -16   85.99   11.65 
  12   4 -16  107.30   12.82 
 -12  -4 -16   72.81   11.20 
  12   4 -18    8.26    7.43 
  12   4 -20   73.79    8.56 
 -12  -4  20   73.58    8.00 
  -4  12 -20   66.04    7.01 
  -5  12  -1  100.91   13.10 
  -5  12   1   88.08   12.65 
 -12  -5  -1   94.04   13.82 
  -5  12   1   76.29   18.27 
 -12  -5   1   87.60   13.16 
  12   5   3    1.80   12.15 
 -12  -5  -3    2.53    9.35 
  -5  12  -3   -0.28    8.31 
  -5  12   3    0.06    8.45 
  -5  12   3   -4.16   13.18 
 -12  -5   3   -5.02    8.97 
  -5  12  -5    8.01    8.58 
  -5  12   5    8.43    8.90 
  -5  12   5    9.60   13.16 
 -12  -5   5   13.87    9.53 
 -12  -5  -5   -0.49    9.97 
  -5  12   7   82.30   11.67 
 -12  -5   7   77.45   13.10 
 -12  -5  -7   87.12   13.78 
  -5  12   9  128.09   13.02 
 -12  -5  -9  142.51   16.42 
 -12  -5  11   25.87    8.80 
 -12  -5 -11   29.33   11.39 
 -12  -5  13   48.33    9.75 
  12   5 -13   49.76   11.64 
 -12  -5 -13   57.51   12.57 
 -12  -5 -15  128.50   14.96 
  12   5 -15  128.91   14.20 
  -5  12 -15  123.61   12.97 
  12   5 -17    2.19    7.23 
 -12  -5 -17   -2.70    7.39 
  12   5 -19   16.87    6.80 
  -5  12 -19   47.10    7.65 
  -6  12   0   69.32   11.98 
 -12  -6   0   70.14   13.12 
  12   6   2    6.04   12.59 
  -6  12  -2    3.35    9.01 
  -6  12   2    1.96    8.62 
  -6  12   2    7.16   13.91 
 -12  -6   2   -0.10    8.93 
 -12  -6  -2    6.80    9.84 
  12   6   4   -5.84   13.36 
 -12  -6  -4    6.31   10.51 
  -6  12  -4    5.68    8.91 
  -6  12   4   -0.82    9.09 
  -6  12   4    3.32   11.64 
 -12  -6   4    3.65    9.13 
  -6  12  -6  101.17   13.72 
  -6  12   6   92.65   12.68 
 -12  -6   6   94.81   13.95 
 -12  -6  -6  103.40   14.53 
  -6  12   8    3.92    7.21 
 -12  -6  -8   -1.57   10.17 
 -12  -6 -10  218.65   18.50 
 -12  -6  12   30.36    8.83 
 -12  -6 -12   33.90   11.42 
  -6  12 -14    7.83    9.57 
  12   6 -14   23.59    9.81 
 -12  -6 -14   27.01   10.55 
  -6  12 -16   -3.35    8.24 
  12   6 -16    3.18    7.27 
 -12  -6 -16    7.54    8.00 
 -12  -6 -18   29.78    8.49 
  -6  12 -18   18.41    7.17 
 -12  -6  20    8.57    4.35 
  -7  12  -1   21.92   10.31 
  -7  12   1    6.35    9.62 
 -12  -7  -1    9.62   10.20 
 -12  -7   1   11.85   10.38 
  -7  12  -3    1.51    9.01 
  -7  12   3    7.38    9.18 
 -12  -7   3    7.09    9.30 
 -12  -7  -3    2.17    9.69 
  -7  12  -5   55.62   10.86 
  -7  12   5   47.03   11.35 
 -12  -7   5   50.83   11.93 
 -12  -7  -5   64.96   12.76 
  -7  12  -7   -0.59    7.91 
  -7  12   7    6.15    8.99 
 -12  -7   7   -3.08    9.73 
 -12  -7  -7   -3.39   10.37 
  -7  12   9   28.38    8.61 
 -12  -7  -9   42.02   12.40 
 -12  -7 -11  103.14   14.83 
  -7  12 -13  -13.22   10.60 
 -12  -7  13    0.49    7.10 
  12   7 -13   10.54    9.30 
 -12  -7 -13    5.39    9.40 
  -7  12 -15   -4.33    8.88 
  12   7 -15   -1.95    7.76 
 -12  -7 -15   -1.95    8.35 
  12   7 -17   41.34    8.23 
  -7  12 -17   30.22    7.50 
  12   7 -19    0.30    4.27 
  -7  12 -19   31.14    6.07 
  -8  12   0   89.25   13.09 
 -12  -8   0   87.58   14.03 
  -8  12  -2   -3.39    9.44 
  -8  12   2   -0.67    9.12 
 -12  -8   2    3.13    9.80 
 -12  -8  -2    3.68    9.74 
  -8  12  -4    3.18    8.81 
  -8  12   4    9.79    9.74 
 -12  -8   4   16.11   10.17 
 -12  -8  -4    7.52   10.52 
  -8  12  -6   11.99    8.67 
  -8  12   6   12.43    9.53 
 -12  -8   6   10.64    9.96 
 -12  -8  -6    8.08   10.47 
  -8  12  -8  142.48   14.24 
  -8  12   8  175.55   15.51 
 -12  -8  -8  196.91   17.90 
  -8  12  10    2.61    6.99 
 -12  -8 -10    0.90   10.22 
  -8  12 -12    0.79    9.74 
 -12  -8  12    5.57    7.30 
 -12  -8 -12   18.42   10.55 
  -8  12 -14   -2.45    8.99 
  12   8 -14   -2.35    7.47 
 -12  -8 -14    7.76    8.61 
  12   8 -16   33.48    7.89 
  -8  12 -16   16.89    7.53 
 -12  -8 -18    0.00    5.13 
  -8  12 -18   26.97    6.43 
  -9  12  -1    9.48    9.17 
  -9  12   1   12.81   10.16 
 -12  -9   1    3.60    9.43 
 -12  -9  -1   18.88   10.89 
  -9  12  -3   32.28   10.97 
  -9  12   3   31.53   10.99 
 -12  -9   3   19.17   10.22 
 -12  -9  -3   30.56   11.07 
  -9  12  -5   37.44   10.39 
  -9  12   5   63.95   11.93 
 -12  -9   5   45.89   11.62 
 -12  -9  -5   53.42   12.96 
  -9  12  -7  106.36   12.96 
  -9  12   7  137.22   14.52 
 -12  -9   7  136.81   14.73 
 -12  -9  -7  148.36   15.99 
  -9  12   9   15.59    7.84 
 -12  -9  -9    7.77    9.96 
  -9  12 -11  -15.85   10.30 
 -12  -9 -11    1.02    9.05 
  -9  12 -13   20.77    8.33 
 -12  -9  13   27.31    7.28 
  12   9 -13   39.72    9.18 
 -12  -9 -13   49.38   10.71 
  -9  12 -15   33.17    8.32 
  12   9 -15   24.37    7.17 
 -12  -9 -15   44.62    9.24 
 -12  -9 -17    2.61    5.66 
  -9  12 -17   31.28    6.66 
 -10  12   0    8.59    9.34 
 -12 -10   0    3.19    9.58 
 -10  12  -2   -1.37    8.94 
 -10  12   2    2.04    8.40 
 -12 -10   2    8.68    9.98 
 -12 -10  -2    1.67    9.58 
 -10  12  -4    6.70    7.96 
 -10  12   4   -0.60    8.98 
 -12 -10   4    1.89    8.84 
 -12 -10  -4    6.54   10.32 
 -10  12  -6    6.26    7.95 
 -10  12   6   -0.77    8.59 
 -12 -10   6    7.28    9.30 
 -12 -10  -6   -0.70    9.73 
 -10  12  -8    0.54    6.10 
 -10  12   8    5.74    7.77 
 -12 -10  -8    0.01    9.49 
 -10  12 -10   -7.82    9.59 
 -10  12  10   10.56    6.80 
 -12 -10 -10    8.43    9.02 
 -10  12 -12  -16.94    8.28 
  12  10 -12    4.25    6.81 
 -12 -10 -12    6.13    8.15 
  12  10 -14   -0.20    5.51 
 -12 -10 -14    5.21    7.23 
 -10  12 -14  -10.69    7.21 
 -12 -10 -16   -1.12    5.45 
 -10  12 -16   35.04    6.39 
 -11  12  -1   42.07   10.27 
 -11  12   1   34.61   10.70 
 -12 -11   1   34.88   10.09 
 -12 -11  -1   31.65   10.48 
 -11  12  -3   85.01   12.24 
 -11  12   3   88.26   12.89 
 -12 -11   3   73.94   12.04 
 -12 -11  -3   77.56   12.86 
 -11  12  -5   65.80   11.04 
 -11  12   5   79.19   12.11 
 -12 -11   5   72.54   11.01 
 -12 -11  -5   72.55   12.39 
 -11  12  -7   30.43    8.06 
 -11  12   7   40.68    9.64 
 -12 -11  -7   52.70   11.21 
 -11  12   9    0.76    6.42 
 -12 -11  -9    5.11    8.29 
 -11  12 -11   26.45    8.43 
  12  11 -11    6.81    6.53 
 -12 -11 -11   18.54    8.31 
  12  11 -13    7.67    4.86 
 -12 -11 -13   24.49    7.47 
 -12 -11 -15   15.79    5.56 
 -12  12   0   19.97    8.71 
 -12 -12   0   19.83    8.43 
 -12  12  -2    1.97    7.70 
 -12  12   2   -0.66    8.30 
 -12 -12   2   -1.04    7.21 
 -12 -12  -2   -3.25    7.94 
 -12  12  -4    0.50    7.02 
 -12  12   4   -4.63    8.23 
 -12 -12   4    0.39    7.46 
 -12 -12  -4    1.01    7.83 
 -12  12  -6   -0.28    5.69 
 -12  12   6    4.45    7.47 
 -12 -12  -6   -2.45    7.59 
 -12  12   8   29.32    7.65 
 -12 -12  -8   23.22    8.43 
 -12  12 -10   12.34    5.39 
  12  12 -10   -1.59    4.53 
 -12  12  10    1.76    4.75 
 -12 -12 -10    5.89    6.95 
 -12 -12 -12   -0.61    5.70 
 -12 -13   1    0.27    6.11 
 -13  12  -1   -1.98    6.71 
 -13  12   1   -3.92    7.03 
 -12 -13  -1    0.21    6.82 
 -13  12  -3   76.98   10.04 
 -13  12   3   87.37   10.32 
 -12 -13  -3   74.48   10.07 
 -13  12  -5   60.00    8.21 
 -13  12   5   67.42    9.28 
 -12 -13  -5   71.98    9.66 
 -13  12   7   -1.88    5.52 
 -12 -13  -7   -1.84    6.61 
 -12 -13  -9    8.01    5.72 
 -13  12   9    5.92    4.51 
 -12 -13 -11   22.64    5.73 
 -13  11   0    2.29    7.36 
 -11 -13   0    3.40    7.49 
 -13  11  -2    3.43    6.97 
 -13  11   2    1.14    7.32 
 -11 -13   2   13.46    7.61 
 -11 -13  -2   11.06    7.84 
 -13  11  -4  187.89   14.51 
 -13  11   4  213.80   15.17 
 -11 -13  -4  206.10   15.43 
 -13  11  -6    0.77    5.48 
 -13  11   6    2.16    7.01 
 -11 -13  -6   -3.45    7.63 
 -13  11   8    2.59    5.91 
 -11 -13  -8   -0.51    7.36 
 -13  11  10    3.67    4.87 
 -11 -13 -10    1.58    6.32 
 -11 -13 -12   82.41    8.89 
 -13  10  -1   61.22   11.20 
 -13  10   1   60.81   12.03 
 -10 -13   1   47.75    9.94 
 -10 -13  -1   53.40   10.09 
 -13  10  -3   34.77    9.03 
 -13  10   3   26.76   10.09 
 -10 -13  -3   35.26   10.04 
 -13  10  -5   16.68    8.09 
 -13  10  -5   24.43    7.67 
 -13  10   5   29.73    9.51 
 -10 -13  -5   24.25    9.54 
 -13  10  -7    3.56    5.96 
 -13  10  -7    6.08    7.07 
 -13  10   7    8.56    7.54 
 -10 -13  -7    5.09    7.63 
 -13  10  -9   -8.94    7.43 
 -13  10   9    3.50    7.01 
 -10 -13  -9    3.27    7.48 
 -13  10 -11   -6.66    7.33 
 -13  10  11   10.24    5.29 
 -10 -13 -11    4.88    6.94 
 -13  10 -13   98.64    9.27 
 -10 -13 -13   32.79    7.29 
 -13   9   0    2.25    8.96 
  -9 -13   0   -0.22    7.67 
 -13   9  -2   28.38    8.14 
 -13   9  -2   31.04    9.95 
 -13   9   2   26.81   10.63 
  -9 -13  -2   32.46    9.59 
 -13   9  -4   35.79    9.43 
 -13   9  -4   15.91    9.08 
 -13   9   4   24.24    9.61 
  -9 -13  -4   18.35    9.70 
 -13   9  -6   29.85    9.16 
 -13   9  -6   42.01    9.31 
 -13   9   6   33.05    9.76 
  -9 -13  -6   25.79    9.61 
 -13   9  -8   23.31    8.95 
 -13   9   8   22.76    9.00 
  -9 -13  -8   31.02   10.08 
 -13   9 -10   38.17    9.35 
 -13   9  10   32.98    8.09 
  -9 -13 -10   26.07    9.22 
 -13   9 -12  -14.47    8.57 
  -9 -13 -12    1.15    6.88 
 -13   9 -14   71.63    9.39 
  -9 -13 -14   43.19    8.30 
 -13   8  -1   -0.57    6.86 
 -13   8   1   -0.86    6.72 
 -13   8  -1   -2.47    8.89 
 -13   8   1    7.53    9.23 
 -13   8  -3    8.70    8.30 
 -13   8  -3   -7.04    8.68 
 -13   8   3   -6.54    9.42 
  -8 -13  -3    5.50    8.38 
 -13   8  -5   -6.79    8.30 
 -13   8  -5    5.71    8.69 
 -13   8   5    3.49    8.44 
  -8 -13  -5   -5.67    8.61 
 -13   8  -7    5.37    8.65 
 -13   8  -7   10.32    7.67 
 -13   8   7   17.60    9.64 
  -8 -13  -7   13.04    9.72 
 -13   8  -9   27.17    9.54 
 -13   8   9   31.73    9.16 
  -8 -13  -9   29.37    9.84 
 -13   8 -11   17.99    9.14 
 -13   8  11   13.37    7.43 
  -8 -13 -11   10.13    8.11 
 -13   8 -13  -15.92    9.31 
  -8 -13 -13   -0.38    7.55 
 -13   8 -15   12.29    7.74 
  -8 -13 -15    1.97    6.43 
 -13   7   0   -4.76    8.30 
 -13   7  -2   65.01   10.95 
 -13   7   2   63.16   10.54 
 -13   7  -4   86.80   13.33 
 -13   7  -4   92.27   12.16 
 -13   7   4   95.65   11.43 
  -7 -13  -4   99.65   13.18 
 -13   7  -6   31.05    9.57 
 -13   7  -6   11.36    7.92 
 -13   7   6   13.82    7.15 
  -7 -13  -6   15.45    9.26 
 -13   7  -8   30.42   10.86 
  -7 -13  -8   19.99    9.45 
 -13   7 -10   -1.60    9.53 
 -13   7  10    3.60    7.70 
  -7 -13 -10    0.84    8.59 
 -13   7 -12   32.96   10.33 
 -13   7  12   27.33    7.70 
  -7 -13 -12   34.41    9.91 
 -13   7 -14   71.11   10.82 
  -7 -13 -14   66.13   10.36 
 -13   7 -16   23.36    8.56 
  -7 -13 -16    0.48    6.62 
 -13   6  -1   83.78   12.05 
 -13   6   1   89.30   12.47 
 -13   6  -3    8.32    9.02 
 -13   6   3    1.75    7.96 
 -13   6  -5   -2.36    8.38 
 -13   6  -5   -4.09    7.75 
 -13   6   5   -3.61    8.57 
 -13   6  -7   -5.35    9.48 
 -13   6  -7    2.47    6.97 
 -13   6   7   13.06   10.26 
  -6 -13  -7    8.73    9.34 
 -13   6  -9   16.58    9.97 
 -13   6   9   20.24    9.66 
  -6 -13  -9   -3.19    8.77 
 -13   6 -11  -11.74    9.89 
 -13   6  11   -2.14    7.45 
 -13   6  11    0.42    8.74 
  -6 -13 -11    2.58    8.30 
 -13   6 -13   23.80   10.61 
  -6 -13 -13   15.20    8.98 
 -13   6 -15   13.41    8.47 
  -6 -13 -15   21.92    8.23 
 -13   6 -17   47.47    8.89 
  -6 -13 -17    0.06    6.10 
 -13   5   0   -1.03    8.58 
 -13   5  -2    4.46    8.59 
 -13   5   2    0.80    7.84 
 -13   5   2    1.05    9.17 
 -13   5  -4  212.08   16.70 
 -13   5   4  229.49   18.89 
 -13   5  -6    4.48    9.27 
 -13   5   6   10.46    9.91 
 -13   5  -8   70.43   12.14 
 -13   5   8   57.45   12.06 
  -5 -13  -8   65.63   11.69 
 -13   5 -10    7.97   10.68 
 -13   5  10    2.08    8.75 
  -5 -13 -10    1.63    8.22 
 -13   5 -12   91.89   12.86 
 -13   5  12   86.50   12.39 
  -5 -13 -12   97.99   12.38 
 -13   5 -14   -1.60    8.45 
 -13   5  14   19.31    9.13 
  -5 -13 -14    4.70    7.57 
 -13   5 -16   40.71    9.45 
  -5 -13 -16   53.99    9.41 
  -5 -13 -18    1.91    5.74 
   4  13  -1   53.93   17.39 
   4  13   1   59.02   17.64 
 -13   4  -1   79.77   12.63 
 -13   4   1   83.21   12.69 
 -13   4  -3  158.04   15.49 
 -13   4   3  170.02   16.16 
   4  13  -3  124.87   21.90 
 -13   4  -5  153.99   15.38 
 -13   4   5  147.88   15.55 
 -13   4  -7    9.21    8.85 
 -13   4   7    8.42    9.30 
 -13   4  -9   10.81    9.52 
 -13   4   9   17.58   10.07 
  -4 -13  -9   15.85    8.42 
 -13   4 -11   76.85   12.42 
 -13   4  11   84.65   12.87 
  -4 -13 -11   64.36   11.16 
 -13   4 -13   98.04   13.04 
 -13   4  13  106.55   13.24 
  -4 -13 -13  101.72   12.57 
 -13   4 -15   32.78   10.32 
 -13   4  15   10.18    7.73 
  -4 -13 -15    8.30    7.42 
 -13   4 -17   16.19    8.51 
 -13   4  17   19.86    6.56 
  -4 -13 -17   18.73    7.22 
  -4 -13 -19    2.30    4.99 
 -13   3   0   17.92   10.92 
   3  13   0    1.72   11.85 
 -13   3   0   10.06    9.84 
 -13   3  -2  169.78   16.39 
 -13   3   2  161.74   16.51 
   3  13  -2   93.26   19.51 
 -13   3  -2  128.18   14.59 
 -13   3   2  149.99   15.33 
   3  13   2  143.85   23.18 
 -13   3   4   35.36   11.94 
   3  13   4    6.02   11.57 
 -13   3  -4   28.77   10.38 
 -13   3   4   21.51   10.43 
 -13   3   6  454.36   24.14 
 -13   3  -6  476.58   23.87 
 -13   3   6  476.48   24.65 
 -13   3   8   28.90   11.50 
 -13   3  -8    1.79    8.81 
 -13   3   8   -0.04    9.61 
 -13   3 -10   31.94   10.63 
 -13   3  10   36.25   10.48 
  13  -3 -12    4.68    6.92 
 -13   3 -12   11.71    9.55 
 -13   3  12   12.72    8.94 
  -3 -13 -12   11.36    8.00 
  13  -3 -14  124.91   12.20 
 -13   3 -14  142.14   14.39 
 -13   3  14  143.79   14.05 
  -3 -13 -14  114.86   12.63 
  13  -3 -16   -0.02    6.52 
 -13   3 -16   -2.93    8.51 
 -13   3  16    6.14    7.21 
  -3 -13 -16    6.54    7.26 
  13  -3 -18    0.41    5.51 
  -3 -13 -18   -6.23    6.21 
 -13   2  -1  153.51   14.89 
 -13   2   1  163.45   14.95 
 -13   2  -1  182.77   16.67 
 -13   2   1  163.38   15.86 
   2  13  -1  137.64   22.33 
   2  13   1  154.67   22.80 
 -13   2  -3   44.10   11.35 
 -13   2   3   17.26    9.14 
   2  13  -3   21.58   12.33 
   2  13   3   26.24   13.85 
 -13   2  -3   25.53   10.41 
 -13   2   3   26.32   10.40 
 -13   2   5  229.21   17.20 
 -13   2  -5  247.56   18.17 
 -13   2   5  265.27   19.35 
   2  13   5  223.29   27.97 
 -13   2   7  333.83   20.71 
 -13   2  -7  377.60   21.58 
 -13   2   7  376.23   22.30 
 -13   2   9   51.84   12.01 
  13  -2  -9   43.81    9.66 
 -13   2  -9   50.71   11.42 
 -13   2   9   50.01   11.72 
  13  -2 -11    6.56    7.91 
 -13   2 -11   27.63   10.65 
 -13   2  11   11.20    9.64 
  -2 -13 -13   60.65   10.07 
  13  -2 -13   63.45   11.52 
 -13   2 -13   74.25   11.60 
 -13   2  13   62.61   12.02 
  -2 -13 -15   60.91   10.60 
  13  -2 -15   54.11   10.34 
 -13   2 -15   85.31   11.80 
 -13   2  15   62.82   10.98 
  13  -2 -17    1.84    6.52 
 -13   2 -17  -10.65    8.35 
 -13   2  17    3.71    6.93 
  -2 -13 -17   -3.97    6.52 
  13  -2 -19    1.23    5.26 
 -13   2  19    8.20    4.91 
  -2 -13 -19    3.48    5.47 
 -13   1   0   -8.96    9.48 
   1  13   0    8.07   11.72 
 -13   1   0   -0.58    8.02 
 -13   1  -2   -2.31    7.83 
 -13   1   2   -2.39    9.39 
   1  13  -2   -4.77   10.51 
   1  13   2   -2.08   11.48 
 -13   1  -2   28.95    9.47 
 -13   1   2    3.99    8.14 
 -13   1   2    6.60    7.87 
 -13   1  -4  268.02   18.14 
 -13   1   4  302.42   19.44 
 -13   1  -4  318.93   19.98 
   1  13  -4  242.55   28.39 
 -13   1   4  302.85   19.98 
   1  13   4  281.53   30.23 
 -13   1  -6  127.59   13.23 
 -13   1   6  127.24   14.20 
 -13   1  -6  121.36   13.91 
 -13   1   6  133.66   15.73 
   1  13  -6  101.47   20.17 
 -13   1   8   75.12   12.49 
 -13   1  -8   87.13   12.71 
 -13   1   8   85.82   13.15 
 -13   1  10    4.68    8.57 
  13  -1 -10   -0.47    8.41 
 -13   1 -10   -1.65    8.36 
 -13   1  10    7.97    9.73 
 -13   1  12   49.82   10.47 
  13  -1 -12   42.99   10.42 
 -13   1 -12   45.38   10.89 
 -13   1  12   60.93   11.68 
  13  -1 -14   15.74    8.80 
 -13   1 -14   17.90    8.77 
 -13   1  14   22.52    9.42 
  13  -1 -16   77.32   10.97 
 -13   1 -16   58.73    9.72 
 -13   1  16   69.60   10.32 
  -1 -13 -16   71.11    9.91 
  13  -1 -18    4.00    6.57 
 -13   1  18   -1.13    6.04 
  -1 -13 -18    0.44    5.57 
  13  -1 -20    7.07    5.50 
 -13   0  -1   73.32   11.84 
 -13   0   1  100.93   13.58 
   0  13  -1   62.56   16.11 
   0  13   1   70.27   17.41 
 -13   0  -1   72.39   11.82 
 -13   0   1   82.38   12.22 
 -13   0   1   72.12   11.02 
 -13   0  -1   60.85   10.91 
 -13   0  -3  143.78   13.86 
 -13   0   3  181.00   16.24 
 -13   0  -3  158.03   15.60 
 -13   0   3  181.56   16.72 
 -13   0   3  159.09   15.25 
   0  13  -3  114.30   20.49 
   0  13   3  160.28   23.78 
 -13   0  -5  187.15   15.21 
 -13   0   5  225.74   17.54 
 -13   0  -5  210.99   17.28 
   0  13  -5  163.36   24.21 
 -13   0   5  213.15   17.84 
   0  13   5  172.17   25.11 
 -13   0   7    7.07    8.99 
 -13   0  -7   -0.26    8.56 
 -13   0   7    8.95    9.19 
 -13   0   9  196.86   16.75 
 -13   0  -9  196.05   16.03 
 -13   0   9  194.22   17.43 
 -13   0  11  221.75   16.60 
  13   0 -11  247.38   18.70 
 -13   0 -11  261.94   17.61 
 -13   0  11  276.09   19.60 
 -13   0  13   30.01    9.09 
  13   0 -13   19.36    9.60 
 -13   0 -13   18.92    8.61 
 -13   0  13   24.13   10.43 
  13   0 -15   21.17    9.82 
 -13   0 -15   31.56    8.83 
 -13   0  15   29.03    9.99 
  13   0 -17   84.52   10.73 
 -13   0 -17   62.64    9.49 
 -13   0  17   82.65   10.54 
  13   0 -19   48.96    7.93 
 -13   0  19   49.97    7.21 
 -13  -1   0    2.69    8.34 
  -1  13   0  -12.88   12.09 
 -13  -1   0    0.09    7.73 
 -13  -1   0    3.54    8.17 
 -13  -1  -2   55.55   11.27 
 -13  -1   2   36.43   10.11 
  -1  13   2   19.78   12.67 
 -13  -1   2   24.08    9.19 
 -13  -1   2   28.96    9.22 
 -13  -1  -2   27.92    9.50 
  -1  13  -4   22.07   13.57 
 -13  -1  -4   29.75    9.41 
 -13  -1   4   30.70   10.59 
 -13  -1   4   29.06    9.94 
  -1  13   4   19.85   13.68 
 -13  -1  -4   40.63   10.33 
 -13  -1   4   25.24   10.04 
 -13  -1  -4   19.44    9.10 
 -13  -1   6   55.01   12.38 
  -1  13  -6   40.91   15.57 
 -13  -1  -6   54.33   10.98 
 -13  -1   8   40.24   11.26 
 -13  -1  -8   16.14    9.64 
 -13  -1  10   -4.08    9.03 
 -13  -1 -10    1.09    7.91 
  13   1 -12   91.52   13.33 
 -13  -1  12   68.87   10.84 
 -13  -1 -12   69.78   10.46 
  -1  13 -14   70.81   10.93 
  13   1 -14   87.21   12.68 
 -13  -1 -14   91.34   11.31 
  -1  13 -16   29.09    8.58 
  13   1 -16   30.55    9.83 
 -13  -1  16   19.42    8.83 
  13   1 -18    1.89    6.69 
 -13  -1  18    1.04    6.05 
  13   1 -20   11.01    5.28 
 -13  -2  -1   11.92    8.38 
 -13  -2   1    8.20    8.66 
  -2  13   1    9.68   10.45 
 -13  -2   1   14.01    8.46 
 -13  -2   1   12.64    9.15 
 -13  -2  -1   13.99    9.08 
 -13  -2  -3   25.51    9.67 
 -13  -2  -3   34.52    9.94 
 -13  -2   3   26.14    8.98 
  -2  13   3   13.98   12.27 
 -13  -2  -3   30.38    9.57 
 -13  -2   3   41.90   11.34 
 -13  -2   3   31.04   10.34 
  -2  13  -5   -5.16   12.11 
 -13  -2  -5    6.09    8.27 
 -13  -2   5   -2.06    8.36 
  -2  13   5   -3.08   12.01 
 -13  -2  -5    4.19    8.28 
 -13  -2   5    3.57    9.21 
 -13  -2  -5   -3.79    8.40 
 -13  -2   7   36.75   10.27 
 -13  -2  -7   30.27    9.23 
 -13  -2  -7   41.89   10.56 
 -13  -2   9   14.91    8.97 
 -13  -2  -9   14.24    8.10 
 -13  -2  -9   10.58    8.34 
 -13  -2  11   12.49    8.69 
 -13  -2 -11   23.85    8.82 
 -13  -2  13  128.69   12.44 
  13   2 -13  127.03   14.77 
 -13  -2 -13  117.24   12.16 
  13   2 -15  101.22   13.61 
  -2  13 -15  140.88   14.67 
  13   2 -17   46.28    9.57 
 -13  -2  17   47.30    9.25 
  -2  13 -17   51.27    8.89 
  13   2 -19   15.09    6.56 
 -13  -2  19   14.79    5.94 
 -13  -3   0   -2.06    9.10 
  -3  13   0   -6.48   11.33 
 -13  -3   0    3.13    8.97 
 -13  -3  -2   25.81   10.38 
 -13  -3   2   30.60   10.35 
  -3  13   2   21.15   13.07 
 -13  -3  -2   34.02   10.79 
 -13  -3   2   35.09   10.17 
 -13  -3   2   32.56   10.71 
 -13  -3  -4   -0.97    7.92 
 -13  -3   4  -12.52    9.19 
  -3  13   4  -13.75   12.57 
 -13  -3  -4    7.67    8.96 
 -13  -3   4    8.18    9.45 
 -13  -3  -4    4.36    9.54 
 -13  -3   6    4.65    9.29 
 -13  -3  -6    5.61    7.68 
 -13  -3   6   11.43    9.88 
 -13  -3  -6    5.62    9.30 
 -13  -3   8   18.91    9.12 
 -13  -3  -8    9.09    7.48 
 -13  -3  -8   13.41    9.13 
 -13  -3  10    6.68    8.94 
 -13  -3 -10   -3.92    8.69 
 -13  -3  12    4.03    7.59 
  13   3 -12   -6.19    9.07 
 -13  -3 -12   -3.14    8.20 
  13   3 -14   49.60   11.39 
  -3  13 -16    3.47    7.33 
  13   3 -16    5.05    7.85 
  13   3 -18    3.19    6.61 
 -13  -3  18    1.10    6.03 
  13   3 -20    5.07    4.69 
 -13  -4  -1   19.04   12.35 
  -4  13  -1   10.91    9.53 
  -4  13   1    3.52    8.78 
 -13  -4  -1    4.00    9.12 
 -13  -4   1    0.59    9.22 
 -13  -4  -3    2.66    8.93 
  -4  13   3    1.16    8.30 
 -13  -4  -3   10.78    8.82 
 -13  -4   3    3.90    9.33 
 -13  -4  -3   -1.47    9.43 
 -13  -4  -5   -6.85    8.29 
  -4  13   5   -0.61    7.86 
 -13  -4  -5   -3.48    7.20 
 -13  -4   5   -1.78    9.24 
 -13  -4  -5    2.46    9.33 
 -13  -4   7   36.40   10.83 
 -13  -4  -7   23.84   10.61 
 -13  -4   9   80.01   12.12 
 -13  -4  -9   69.46   13.12 
 -13  -4  11    6.01    7.96 
 -13  -4 -11    4.20    8.95 
 -13  -4  13   19.98    7.98 
  13   4 -13   10.22    9.51 
 -13  -4 -13   14.15    9.11 
  -4  13 -15   -8.17    8.76 
  13   4 -15    6.91    8.64 
 -13  -4 -15    2.76    7.14 
  13   4 -17   49.72    9.26 
  -4  13 -17   73.89    9.81 
  13   4 -19   42.26    6.95 
 -13  -4  19   33.86    6.31 
  -5  13   0    2.09    8.51 
 -13  -5   0    8.93   10.43 
  -5  13  -2   23.48    9.77 
  -5  13   2   22.37   10.22 
 -13  -5   2   16.57   10.22 
 -13  -5  -2    9.27   10.21 
 -13  -5  -4    1.57    8.56 
  -5  13  -4    1.09    8.63 
  -5  13   4   10.44    8.95 
 -13  -5   4   20.11   10.81 
 -13  -5  -4   -1.85   10.10 
  -5  13   6    1.87    7.61 
 -13  -5   6    4.51    9.79 
 -13  -5  -6    5.96    9.84 
 -13  -5   8    8.78    9.19 
 -13  -5  -8   24.41   11.21 
 -13  -5  10   -9.52    9.32 
 -13  -5 -10   -0.55    9.59 
 -13  -5  12    6.89    7.65 
 -13  -5 -12    8.56    9.32 
  -5  13 -14   -4.15    9.07 
  13   5 -14   14.56    9.06 
 -13  -5 -14   18.25    8.97 
  -5  13 -16   19.52    8.90 
  13   5 -16   13.51    7.78 
 -13  -5 -16    2.14    6.61 
  13   5 -18    1.92    5.63 
  -6  13  -1   40.40   10.78 
  -6  13   1   27.81   10.59 
 -13  -6   1   43.61   11.63 
 -13  -6  -1   48.30   13.16 
 -13  -6   3  115.50   14.66 
  -6  13  -3  117.91   14.15 
  -6  13   3  110.52   14.13 
 -13  -6  -3  118.49   15.80 
 -13  -6   5   44.65   11.62 
 -13  -6  -5   17.68    9.62 
  -6  13  -5   37.49   10.97 
  -6  13   5   43.03   10.98 
 -13  -6  -5   34.38   11.89 
  -6  13   7  137.96   13.70 
 -13  -6   7  120.80   14.84 
 -13  -6  -7  136.18   16.09 
 -13  -6   9  106.91   13.11 
  -6  13   9  108.01   11.65 
 -13  -6  -9  113.12   15.24 
 -13  -6  11   34.41    9.16 
 -13  -6 -11   45.97   11.86 
 -13  -6  13   20.63    8.03 
  13   6 -13   11.88    8.65 
 -13  -6 -13   24.01   10.04 
  -6  13 -15  -14.76    8.61 
  13   6 -15   -3.10    7.29 
 -13  -6 -15    3.79    7.40 
  13   6 -17   16.42    6.84 
 -13  -6 -17    3.57    5.34 
  -7  13   0    5.41   10.10 
 -13  -7   0    4.55    9.72 
  -7  13  -2   13.49    9.35 
  -7  13   2   15.86    9.70 
 -13  -7   2   12.58   10.55 
 -13  -7  -2   19.43   11.07 
  -7  13  -4  213.96   17.21 
  -7  13   4  218.06   17.57 
 -13  -7   4  214.10   18.27 
 -13  -7  -4  194.86   18.03 
  -7  13   6   47.64   10.71 
 -13  -7   6   35.62   11.41 
 -13  -7  -6   38.83   11.86 
  -7  13   8   45.73    9.66 
 -13  -7  -8   49.64   12.30 
 -13  -7  10   -3.58    8.39 
 -13  -7 -10   -0.92   10.25 
 -13  -7  12   24.68    7.80 
  13   7 -12   43.06   10.51 
 -13  -7 -12   39.36   10.33 
  13   7 -14   -9.06    7.40 
 -13  -7 -14    0.11    7.65 
  -7  13 -16   54.36    8.66 
  13   7 -16   30.32    7.42 
 -13  -7 -16   34.13    8.09 
  -7  13 -18   20.41    5.46 
  -8  13  -1  183.40   16.29 
  -8  13   1  180.21   16.98 
 -13  -8   1  159.93   16.81 
 -13  -8  -1  167.39   17.27 
  -8  13  -3   28.65   10.56 
  -8  13   3   47.95   12.35 
 -13  -8   3   29.32   10.79 
 -13  -8  -3   28.17   10.74 
  -8  13  -5   22.08    9.00 
  -8  13   5   23.78    9.60 
 -13  -8   5   24.59   10.71 
 -13  -8  -5   21.94   10.89 
  -8  13   7  146.02   13.87 
 -13  -8  -7  125.40   15.64 
  -8  13   9   17.80    7.63 
 -13  -8  -9   22.42   10.63 
 -13  -8  11    3.89    7.29 
 -13  -8 -11   10.95    9.54 
  -8  13 -13   12.70    8.02 
 -13  -8  13   18.75    7.45 
  13   8 -13   20.21    8.09 
 -13  -8 -13   29.20    9.17 
  13   8 -15   29.34    7.34 
 -13  -8 -15   31.03    7.86 
  -8  13 -17   20.96    5.55 
  -9  13   0    3.09    8.98 
 -13  -9   0    0.68    9.83 
  -9  13  -2  139.69   15.01 
  -9  13   2  132.31   14.46 
 -13  -9   2  106.05   14.09 
 -13  -9  -2  120.61   14.90 
  -9  13  -4    1.76    8.47 
  -9  13   4    0.29    8.54 
 -13  -9   4    0.70    8.84 
 -13  -9  -4    2.37    9.52 
  -9  13  -6  244.32   17.15 
  -9  13   6  292.20   18.08 
 -13  -9   6  271.74   18.66 
 -13  -9  -6  275.57   19.84 
  -9  13   8   -1.93    6.76 
 -13  -9  -8   -0.26    9.54 
  -9  13  10   11.15    6.19 
 -13  -9 -10   10.05    8.81 
  -9  13 -12  -25.60    8.83 
 -13  -9  12  -13.46    6.47 
  13   9 -12   -5.72    6.83 
 -13  -9 -12   -7.20    8.10 
  13   9 -14   55.70    7.95 
 -13  -9 -14   73.32    9.61 
 -13  -9 -16   -1.12    4.61 
  -9  13 -16    5.41    4.99 
 -10  13  -1   -3.51    8.85 
 -10  13   1   -1.84    8.04 
 -13 -10   1    4.55    8.83 
 -13 -10  -1    2.29    9.33 
 -10  13  -3   63.29   10.86 
 -10  13   3   58.04   11.04 
 -13 -10   3   49.42   10.75 
 -13 -10  -3   68.91   12.33 
 -10  13   5   68.91   11.19 
 -10  13  -5   47.28    9.91 
 -13 -10   5   67.75   11.40 
 -13 -10  -5   64.55   12.14 
 -10  13   7    7.54    7.59 
 -13 -10  -7   13.74    8.88 
 -10  13  -9   -7.87    8.83 
 -10  13   9   10.06    6.83 
 -13 -10  -9   11.94    8.75 
 -10  13 -11   -2.00    7.37 
 -13 -10  11    1.43    6.15 
  13  10 -11   14.80    7.34 
 -13 -10 -11   19.62    8.21 
  13  10 -13    4.20    5.27 
 -13 -10 -13    8.70    6.37 
 -13 -10 -15   18.83    6.47 
 -11  13   0    3.33    7.27 
 -13 -11   0   10.49    9.56 
 -11  13  -2    7.57    7.42 
 -11  13   2   27.53    9.45 
 -13 -11   2   -5.49    7.94 
 -13 -11  -2   12.09    8.60 
 -11  13  -4  162.91   13.70 
 -11  13   4  185.31   14.81 
 -13 -11   4  175.07   14.10 
 -13 -11  -4  181.94   14.89 
 -11  13   6    3.27    6.99 
 -13 -11  -6   -6.54    7.96 
 -11  13   8    9.66    6.09 
 -13 -11  -8   17.80    8.26 
 -13 -11  10   -0.14    5.89 
  13  11 -10    2.45    6.07 
 -13 -11 -10   -2.46    6.51 
  13  11 -12   21.25    5.42 
 -11  13 -12    9.52    5.17 
 -12  13  -1   12.72    7.03 
 -12  13   1    5.24    6.81 
 -13 -12   1    6.74    7.08 
 -13 -12  -1    9.55    7.19 
 -13 -12   3   16.20    7.06 
 -12  13  -3   10.80    6.70 
 -12  13   3   12.30    7.48 
 -13 -12  -3    7.78    7.97 
 -12  13  -5   19.08    6.38 
 -12  13   5   30.10    7.77 
 -13 -12  -5   25.16    8.21 
 -12  13   7   -4.75    5.71 
 -13 -12  -7    4.00    6.49 
  13  12  -9    0.27    4.54 
 -13 -12  -9    1.98    5.99 
 -13 -12 -11    7.10    5.18 
 -13  13   0    2.13    5.77 
 -13 -13   0   -2.46    6.04 
 -13  13  -2   54.86    7.81 
 -13  13   2   46.44    7.83 
 -13 -13  -2   41.50    7.75 
 -13  13  -4    1.34    4.71 
 -13  13   4    5.99    5.32 
 -13 -13  -4    5.69    5.78 
 -13  13   6   48.90    6.78 
 -13 -13  -6   53.01    7.57 
 -13 -13   8   -0.87    4.82 
 -13 -13  -8    9.19    5.14 
 -14  13  -1    1.00    4.15 
 -14  13   1   -2.23    4.39 
 -14  13   3    5.69    4.43 
 -14  13   5    3.62    3.89 
 -14  12   0   -0.95    5.66 
 -14  12  -2    8.49    5.46 
 -14  12   2   15.06    6.57 
 -12 -14  -2   11.59    5.73 
 -14  12  -4    1.23    4.37 
 -14  12   4   -0.52    5.04 
 -12 -14  -4    0.09    5.12 
 -14  12   6    9.07    5.24 
 -12 -14  -6   10.88    5.36 
 -14  11  -1    6.51    6.62 
 -14  11   1    7.75    7.06 
 -14  11  -3   35.15    7.73 
 -14  11   3   44.92    8.50 
 -11 -14  -3   39.56    8.11 
 -14  11  -5   40.32    6.81 
 -14  11   5   30.38    7.58 
 -11 -14  -5   25.65    7.32 
 -14  11   7   -4.70    5.90 
 -11 -14  -7    4.37    6.06 
 -14  11   9    1.78    4.40 
 -11 -14  -9    7.65    5.45 
 -14  10   0  107.98   12.15 
 -14  10  -2   -3.96    7.56 
 -14  10   2    9.09    8.42 
 -14  10  -4    1.50    6.52 
 -14  10   4    9.33    8.13 
 -10 -14  -4   14.52    7.61 
 -14  10  -6    3.37    5.54 
 -14  10  -6    9.51    6.17 
 -14  10   6   -0.91    6.54 
 -10 -14  -6   -4.21    6.85 
 -14  10  -8   20.49    6.72 
 -14  10   8   34.79    7.54 
 -10 -14  -8   26.32    7.59 
 -14  10 -10  -10.87    6.10 
 -14  10  10   -6.75    4.67 
 -10 -14 -10    3.91    5.67 
 -10 -14 -12    9.00    5.00 
 -14   9  -1   33.02    7.61 
 -14   9  -1   50.34   10.35 
 -14   9   1   51.60   10.41 
 -14   9  -3    9.02    7.38 
 -14   9  -3    2.41    7.51 
 -14   9   3   -1.84    8.64 
 -14   9  -5   15.85    7.07 
 -14   9  -5   13.37    7.36 
 -14   9   5   24.02    9.91 
  -9 -14  -5   19.74    8.55 
 -14   9  -7   26.60    7.85 
 -14   9   7   39.99    9.34 
  -9 -14  -7   30.90    8.52 
 -14   9  -9   14.77    7.64 
 -14   9   9   16.75    6.88 
  -9 -14  -9   12.52    7.25 
 -14   9 -11   -0.33    6.56 
 -14   9  11    8.71    5.20 
  -9 -14 -11    9.77    6.69 
 -14   9 -13   29.15    7.02 
  -9 -14 -13    5.29    5.14 
 -14   8   0   29.50    8.07 
 -14   8   0   36.42   10.24 
 -14   8  -2   23.06    8.41 
 -14   8   2   22.20    7.45 
 -14   8  -2   34.50   10.12 
 -14   8   2   31.53   10.24 
 -14   8  -4   -3.00    7.48 
 -14   8  -4    1.99    7.57 
 -14   8   4   -1.64    9.38 
 -14   8  -6   -1.07    7.52 
 -14   8  -6   -0.67    6.98 
 -14   8   6   -5.42    8.75 
  -8 -14  -6    5.13    7.24 
 -14   8  -8   51.08    9.93 
 -14   8   8   50.49    9.84 
  -8 -14  -8   52.61    9.81 
 -14   8 -10   38.11    8.98 
 -14   8  10   28.46    8.16 
  -8 -14 -10   30.64    8.56 
 -14   8 -12  -13.65    8.04 
  -8 -14 -12    4.76    6.40 
 -14   8 -14    1.96    6.30 
  -8 -14 -14   -4.82    5.26 
 -14   7  -1    7.10    8.19 
 -14   7   1    9.86    7.85 
 -14   7  -1   19.40    9.31 
 -14   7  -3  118.35   13.66 
 -14   7  -3  125.62   13.02 
 -14   7   3  110.36   11.35 
 -14   7  -5   54.11   10.43 
 -14   7  -5   51.76   10.55 
 -14   7   5   49.73    8.88 
 -14   7  -7   12.38    9.48 
 -14   7   7    3.82    8.47 
  -7 -14  -7    1.32    7.10 
 -14   7  -9   78.22   11.76 
 -14   7   9   62.64   11.06 
  -7 -14  -9   83.32   11.06 
 -14   7  11   58.97    9.32 
 -14   7 -11   72.15   10.84 
  -7 -14 -11   57.63    9.76 
 -14   7 -13    6.33    7.26 
  -7 -14 -13   22.31    7.67 
 -14   7 -15   11.19    6.87 
  -7 -14 -15    1.56    5.14 
 -14   6   0   12.17    8.56 
 -14   6  -2   71.35   11.48 
 -14   6   2   67.30   10.77 
 -14   6  -4    0.58    8.70 
 -14   6   4   -2.79    7.72 
 -14   6  -4   -4.77    7.33 
 -14   6  -6   43.74   10.45 
 -14   6  -6   25.65    8.44 
 -14   6   6   35.20    8.85 
 -14   6  -8   53.15   11.45 
 -14   6   8   30.10    8.29 
 -14   6 -10   43.57   10.29 
 -14   6  10   38.00    9.13 
  -6 -14 -10   43.24    9.69 
 -14   6 -12    8.01    8.43 
 -14   6  12    2.59    6.51 
  -6 -14 -12   11.42    7.87 
 -14   6 -14  -10.39    8.74 
  -6 -14 -14    0.11    6.28 
 -14   6 -16   20.65    7.47 
  -6 -14 -16   10.84    5.32 
 -14   5  -1   53.48   11.05 
 -14   5   1   57.02   11.16 
 -14   5  -3   28.52    9.92 
 -14   5   3   30.93   10.08 
 -14   5  -5   66.16   12.07 
 -14   5   5   44.15   11.54 
 -14   5  -7  177.65   15.88 
 -14   5   7  196.23   16.99 
 -14   5  -9   10.36    9.30 
 -14   5   9   23.20   10.68 
 -14   5 -11  -12.25    9.42 
 -14   5  11   12.14    8.78 
  -5 -14 -11    4.35    7.92 
 -14   5 -13   63.00   10.82 
 -14   5  13   49.32    8.93 
  -5 -14 -13   54.27    9.30 
 -14   5 -15   25.29    8.27 
  -5 -14 -15   37.81    7.54 
 -14   5 -17   61.59    8.35 
 -14   4   0  118.57   14.19 
 -14   4  -2   36.97   12.04 
 -14   4   2   13.69    9.57 
 -14   4  -4   -4.33    9.00 
 -14   4   4    8.08    9.59 
 -14   4  -6   -7.53    9.61 
 -14   4   6   -0.58    9.61 
 -14   4  -8   82.62   12.52 
 -14   4   8   83.73   13.18 
 -14   4 -10   17.51    9.87 
 -14   4  10   -2.65    8.73 
 -14   4 -12   -2.23    9.01 
 -14   4  12   -2.93    8.40 
 -14   4 -14   14.41    8.76 
 -14   4  14   12.76    7.58 
  -4 -14 -14   -0.12    6.60 
 -14   4 -16    5.45    7.21 
  -4 -14 -16   15.94    6.15 
 -14   3   1   29.23   12.35 
 -14   3  -1   -0.35    9.06 
 -14   3   1   13.02    9.45 
 -14   3   3   66.78   12.34 
 -14   3  -3   57.33   11.66 
 -14   3   3   56.70   12.01 
 -14   3   5  175.15   16.79 
 -14   3  -5  142.12   15.09 
 -14   3   5  149.28   16.21 
 -14   3  -7   -7.62    9.18 
 -14   3   7    1.57    8.69 
 -14   3  -9    8.26    9.38 
 -14   3   9    6.59    9.42 
 -14   3 -11    9.43    8.85 
 -14   3  11   14.72    9.77 
 -14   3 -13   29.17    9.31 
 -14   3  13   35.10    9.35 
 -14   3 -15   35.71    8.52 
 -14   3  15   -3.95    6.71 
 -14   3 -17   19.98    7.32 
 -14   3  17   13.29    5.73 
 -14   2   0   14.57   10.55 
 -14   2   0   10.19    9.33 
 -14   2  -2   24.46   10.25 
 -14   2   2   10.08   10.42 
 -14   2  -2    4.81    9.46 
 -14   2   2    0.94    8.91 
 -14   2   4   26.57   11.33 
 -14   2  -4   13.80    9.86 
 -14   2   4   10.94    9.56 
 -14   2  -6   59.21   11.66 
 -14   2   6   61.20   12.04 
 -14   2   8    6.73    9.31 
 -14   2  -8   -2.37    9.25 
 -14   2   8    8.61    9.69 
  14  -2 -10   58.03   10.42 
 -14   2 -10   70.44   11.62 
 -14   2  10   76.93   12.58 
  14  -2 -12    4.57    7.32 
 -14   2 -12    3.12    8.58 
 -14   2  12   13.86    8.90 
  14  -2 -14   12.80    7.20 
 -14   2 -14   15.17    8.50 
 -14   2  14   12.10    8.01 
  14  -2 -16    4.37    6.04 
 -14   2 -16  -10.06    7.90 
 -14   2  16   -2.26    6.29 
 -14   2  18   12.34    5.12 
 -14   1  -1   -1.21    9.90 
 -14   1   1    0.27    9.63 
 -14   1  -1   15.98    9.42 
 -14   1   1    7.06    8.77 
 -14   1   3   11.02    9.17 
 -14   1  -3    7.27    9.95 
 -14   1   3   16.13    9.54 
 -14   1  -5   24.77    9.62 
 -14   1   5   -4.85    9.97 
 -14   1  -5   13.64    9.54 
 -14   1   5    7.60    9.13 
 -14   1   7   -4.88   10.48 
 -14   1  -7   16.67    9.38 
 -14   1   7    3.46    9.01 
 -14   1   9   15.52   10.25 
  14  -1  -9   -4.54    8.09 
 -14   1  -9    1.34    9.02 
 -14   1   9   -3.18    9.09 
 -14   1  11    6.40    8.90 
  14  -1 -11    4.70    7.72 
 -14   1 -11   12.21    9.22 
 -14   1  11   -8.92    9.29 
  14  -1 -13   -1.29    6.94 
 -14   1 -13   -0.64    8.29 
 -14   1  13    1.36    8.40 
  14  -1 -15   29.11    7.88 
 -14   1 -15   24.38    8.18 
 -14   1  15   33.30    8.57 
  14  -1 -17    1.09    5.48 
 -14   1 -17   14.32    6.45 
 -14   1  17    3.35    6.01 
 -14   0   0   -9.05    9.61 
 -14   0   0    1.93    8.24 
 -14   0   0   -1.04    7.97 
 -14   0  -2    2.13    9.27 
 -14   0   2   -5.04    9.28 
 -14   0  -2    4.02    9.37 
 -14   0   2   -3.46    9.30 
 -14   0   2    4.85    8.19 
 -14   0  -4   32.54    9.17 
 -14   0   4   39.66   10.65 
 -14   0  -4   42.45   11.61 
 -14   0   4   50.75   12.01 
 -14   0   6   26.62   10.34 
 -14   0  -6   20.08    9.97 
 -14   0   6   24.63   10.80 
 -14   0   8   11.77    9.02 
 -14   0  -8   21.89    9.28 
 -14   0   8   18.27   10.17 
  14   0 -10   78.31   11.98 
 -14   0  10   71.79   12.07 
 -14   0 -10   55.88   10.34 
 -14   0  10   88.33   13.52 
 -14   0  12   19.73    8.57 
  14   0 -12    8.45    7.81 
 -14   0 -12    5.19    8.03 
 -14   0  12   12.90    9.91 
  14   0 -14   -3.32    7.07 
 -14   0 -14   12.46    8.43 
 -14   0  14    9.50    8.48 
  14   0 -16   14.95    7.36 
 -14   0 -16   10.36    6.38 
 -14   0  16   17.85    7.74 
  14   0 -18   52.74    7.81 
 -14   0  18   60.29    7.36 
 -14  -1  -1   21.93    9.43 
 -14  -1   1   45.75   12.45 
 -14  -1   1   31.17    9.81 
 -14  -1   1   35.06    9.86 
 -14  -1  -1   33.40   10.40 
 -14  -1  -3   -0.66    7.99 
 -14  -1   3   25.98   10.98 
 -14  -1  -3    6.35    9.51 
 -14  -1   3   -1.25    9.05 
 -14  -1   3   -0.41    8.68 
 -14  -1  -3   -1.16    8.23 
 -14  -1  -5    2.40    8.66 
 -14  -1   5    6.30    9.36 
 -14  -1  -5   13.72    9.56 
 -14  -1   5    7.62    9.16 
 -14  -1   7   25.42   10.57 
 -14  -1  -7   22.21    9.15 
 -14  -1   7   25.40   10.08 
 -14  -1   9   20.99    9.21 
 -14  -1  -9   25.41    9.29 
 -14  -1   9   15.57    9.70 
 -14  -1  11   -6.42    8.39 
  14   1 -11    1.57    8.24 
 -14  -1 -11   12.84    8.16 
 -14  -1  11   10.43    9.16 
 -14  -1  13   47.29    9.36 
  14   1 -13   33.47   10.11 
 -14  -1 -13   31.98    8.30 
 -14  -1  13   36.89   10.42 
  -1  14 -15   -5.25    7.02 
  14   1 -15   16.35    7.74 
 -14  -1  15   13.69    8.04 
  14   1 -17   -0.28    6.00 
 -14  -1  17    6.33    5.89 
  14   1 -19    7.42    4.77 
 -14  -2   0   91.50   13.65 
 -14  -2   0   72.81   12.93 
 -14  -2  -2   36.24   11.21 
 -14  -2   2    7.59    9.99 
 -14  -2  -2    3.71    9.30 
 -14  -2   2    2.49    8.48 
 -14  -2   2   10.36    8.79 
 -14  -2  -2    9.77    9.02 
 -14  -2  -4  -10.32    9.25 
 -14  -2   4   23.53   10.34 
 -14  -2  -4    7.26    8.71 
 -14  -2   4    1.94    9.38 
 -14  -2   4    1.19    8.72 
 -14  -2  -4    8.74    8.59 
 -14  -2   6   -1.70    8.65 
 -14  -2  -6    8.20    7.99 
 -14  -2   6   11.64   11.74 
 -14  -2  -6   10.21    9.35 
 -14  -2   8  104.35   14.28 
 -14  -2  -8   81.56   11.22 
 -14  -2  -8   82.47   12.48 
 -14  -2  10   -6.74    8.28 
 -14  -2 -10   -6.45    7.83 
  14   2 -12   89.75   12.72 
 -14  -2  12   71.50   10.33 
 -14  -2 -12   91.14   10.71 
 -14  -2  12   92.60   12.59 
  -2  14 -14   -8.63    8.95 
  14   2 -14    3.46    7.78 
 -14  -2  14   11.99    8.16 
  14   2 -16   72.21    9.89 
 -14  -2  16   75.07   10.14 
  14   2 -18    4.57    5.53 
 -14  -2  18    1.53    5.16 
 -14  -3  -1   33.13   10.50 
 -14  -3   1   36.96   10.62 
 -14  -3   1   37.70   11.53 
 -14  -3  -1   38.92   11.00 
 -14  -3  -3   30.20   10.61 
 -14  -3   3   -1.75    9.71 
 -14  -3  -3    9.44    8.29 
 -14  -3   3   19.42    9.93 
 -14  -3   3    8.80    9.41 
 -14  -3  -3   16.78   10.28 
 -14  -3  -5   69.80   11.97 
 -14  -3   5   86.96   12.74 
 -14  -3  -5   87.39   11.73 
 -14  -3   5   99.21   13.60 
 -14  -3   5   98.47   13.68 
 -14  -3  -5   89.27   12.93 
 -14  -3   7   10.58    9.20 
 -14  -3  -7    8.21    7.58 
 -14  -3  -7    4.38    8.50 
 -14  -3  -9   22.81    7.81 
 -14  -3  -9   22.18    9.63 
 -14  -3  11  118.03   12.57 
  14   3 -11  120.26   14.59 
 -14  -3 -11   94.07   12.59 
 -14  -3  13  -15.16    8.00 
  14   3 -13    4.83    8.41 
 -14  -3  15    0.60    7.39 
  14   3 -15   -0.68    7.21 
  14   3 -17   20.63    6.94 
 -14  -3  17   19.96    6.71 
 -14  -4   0   -1.45    9.87 
 -14  -4   0    4.40    9.35 
 -14  -4  -2  225.30   17.74 
 -14  -4   2  232.42   18.63 
 -14  -4  -2  208.60   16.48 
 -14  -4   2  223.83   18.28 
 -14  -4  -2  215.97   18.15 
 -14  -4  -4   18.28    9.69 
 -14  -4   4   30.39   10.61 
 -14  -4  -4   33.38    9.22 
 -14  -4   4   31.39   10.65 
 -14  -4   4   31.51   10.32 
 -14  -4   6  114.13   14.06 
 -14  -4  -6  109.20   12.13 
 -14  -4  -6  113.75   14.51 
 -14  -4   8    3.97    8.99 
 -14  -4  -8    3.64    8.50 
 -14  -4  10  231.58   17.21 
 -14  -4 -10  447.65   27.14 
 -14  -4  12    4.68    6.91 
  14   4 -12    2.94    8.24 
 -14  -4 -12    6.85    7.99 
  14   4 -14   -0.36    7.66 
 -14  -4 -14   -0.15    5.46 
  14   4 -16    6.36    6.52 
 -14  -4  16    5.50    6.24 
  14   4 -18   47.17    6.54 
 -14  -4  18   47.86    6.55 
 -14  -5  -1   57.71   12.20 
 -14  -5   1   44.26   11.36 
  -5  14   1   41.72   10.68 
 -14  -5   1   51.86   12.02 
 -14  -5  -1   51.09   12.40 
 -14  -5  -3   19.21    9.89 
 -14  -5   3   25.20   10.48 
  -5  14   3   32.52    9.69 
 -14  -5   3   39.29   11.30 
 -14  -5  -3   21.62   10.79 
 -14  -5  -5   38.44   10.45 
 -14  -5   5   17.94    9.39 
 -14  -5   5   31.27   11.01 
 -14  -5  -5   39.01   11.52 
 -14  -5   7   12.11    8.83 
 -14  -5  -7   19.01   10.21 
 -14  -5   9  158.70   14.42 
 -14  -5  -9  166.77   16.23 
 -14  -5  11   32.46    9.43 
 -14  -5 -11   20.26    9.11 
  -5  14 -13  -19.61    9.01 
 -14  -5  13   -0.47    6.54 
  14   5 -13   -1.02    7.62 
 -14  -5 -13    4.67    7.65 
  -5  14 -15  -12.76    7.74 
  14   5 -15    1.22    6.50 
  14   5 -17   16.76    5.78 
 -14  -5  17   22.84    6.18 
  -6  14   0  433.57   23.45 
 -14  -6   0  425.43   23.83 
 -14  -6  -2    9.89    9.45 
  -6  14  -2   25.26    9.82 
  -6  14   2   25.22    9.75 
 -14  -6   2   25.90   10.54 
 -14  -6  -2   21.69   10.81 
 -14  -6  -4   17.30    9.04 
  -6  14   4   23.78    9.92 
 -14  -6   4   26.73   10.87 
 -14  -6  -4   14.20   10.35 
 -14  -6   6   -1.01    8.92 
 -14  -6   6    4.63    9.71 
 -14  -6  -6   -0.33    9.55 
 -14  -6   8  358.61   20.47 
 -14  -6  -8  367.56   22.00 
 -14  -6  10   -4.01    8.58 
 -14  -6 -10    6.79    8.48 
  14   6 -12    7.32    8.56 
 -14  -6 -12    4.72    7.58 
  14   6 -14    6.03    6.77 
 -14  -6 -14   10.82    7.12 
  14   6 -16   43.54    7.33 
 -14  -6  16   30.54    6.48 
  -6  14 -16   26.01    6.66 
  -7  14  -1   51.61   11.24 
  -7  14   1   60.88   12.37 
 -14  -7   1   52.52   11.93 
 -14  -7  -1   45.02   11.92 
 -14  -7  -3    0.40    8.55 
  -7  14  -3    5.11    8.81 
  -7  14   3    2.51    8.75 
 -14  -7   3   -1.31    9.24 
 -14  -7  -3    4.65    9.97 
 -14  -7  -5   10.08    8.12 
  -7  14   5   18.56    9.48 
 -14  -7   5   13.57    9.73 
 -14  -7  -5   21.65   10.83 
 -14  -7   7  152.19   14.72 
 -14  -7  -7  157.33   15.74 
 -14  -7   9   26.36    8.80 
 -14  -7  -9   39.71   10.82 
 -14  -7  11    1.07    6.63 
 -14  -7 -11   -8.32    8.49 
 -14  -7  13   -0.97    5.59 
  14   7 -13    1.85    6.68 
 -14  -7 -13    0.63    7.19 
  14   7 -15   16.89    6.21 
 -14  -7 -15   12.39    6.61 
  -8  14   0   13.11    9.28 
 -14  -8   0    6.85    9.41 
  -8  14  -2   87.50   12.55 
  -8  14   2   98.20   13.16 
 -14  -8  -2   88.16   13.14 
 -14  -8   2   84.67   13.18 
 -14  -8  -4   -2.29    8.62 
  -8  14   4    4.80    8.52 
 -14  -8   4   -3.88    8.92 
 -14  -8  -4   -5.79    9.44 
  -8  14   6   85.28   11.84 
 -14  -8  -6   64.29   11.81 
 -14  -8   8   -0.72    8.61 
 -14  -8  -8    6.67    9.06 
 -14  -8  10   52.66    9.19 
 -14  -8 -10   78.45   11.36 
 -14  -8  12   33.84    6.89 
  14   8 -12   22.86    8.02 
 -14  -8 -12   17.67    8.33 
  14   8 -14    4.16    5.45 
 -14  -8 -14   11.62    6.26 
  -9  14  -1    0.86    7.59 
  -9  14   1   -2.39    7.93 
 -14  -9   1    9.40    9.63 
 -14  -9  -1    0.18    9.39 
 -14  -9  -3   23.64    9.15 
  -9  14  -3   39.98    9.97 
  -9  14   3   53.23   10.07 
 -14  -9   3   42.78   10.77 
 -14  -9  -3   42.07   11.40 
  -9  14   5   49.23    9.83 
 -14  -9   5   47.62   10.83 
 -14  -9  -5   45.57   11.10 
  -9  14   7   -2.21    6.57 
 -14  -9  -7    2.30    8.13 
 -14  -9   9  -12.72    7.56 
 -14  -9  -9    0.50    7.82 
 -14  -9  11    0.22    5.75 
  14   9 -11    5.19    6.75 
 -14  -9 -11    6.80    7.06 
  14   9 -13   19.72    5.98 
 -14  -9 -13   14.55    6.39 
 -10  14   0   71.10   10.94 
 -14 -10   0   61.54   10.92 
 -10  14  -2    1.41    7.26 
 -10  14   2    4.67    7.51 
 -14 -10   2    2.19    7.59 
 -14 -10  -2   -3.13    8.18 
 -14 -10  -4   -1.13    6.88 
 -10  14   4   11.92    8.37 
 -14 -10   4    2.26    7.28 
 -14 -10  -4   -2.18    7.85 
 -10  14   6    0.81    6.63 
 -14 -10  -6    0.29    7.90 
 -10  14  -8   -6.27    7.04 
 -14 -10   8    6.83    6.86 
 -14 -10  -8   13.69    7.85 
 -10  14 -10  -12.45    6.82 
 -14 -10  10   -0.20    5.87 
  14  10 -10    7.74    6.30 
 -14 -10 -10    8.07    6.63 
  14  10 -12   -2.69    4.70 
 -14 -10 -12    5.45    5.66 
 -11  14  -1    5.93    6.51 
 -11  14   1   11.69    7.56 
 -14 -11   1    4.11    7.18 
 -14 -11  -1   11.00    7.45 
 -14 -11  -3    3.51    6.53 
 -11  14  -3   11.37    6.40 
 -11  14   3   10.60    6.60 
 -14 -11   3   12.89    6.98 
 -14 -11  -3   13.89    7.54 
 -11  14   5   29.49    7.18 
 -14 -11  -5   26.80    8.07 
 -11  14  -7  -10.93    6.12 
 -14 -11   7   -0.16    6.43 
 -14 -11  -7   11.66    6.93 
 -11  14  -9    9.60    5.22 
 -14 -11   9   -6.45    5.38 
  14  11  -9    6.56    5.47 
 -14 -11  -9    4.08    6.07 
 -14 -11 -11    1.81    4.71 
 -12  14   0    5.43    5.72 
 -14 -12   0    1.52    6.00 
 -14 -12  -2    0.27    5.31 
 -12  14  -2   -0.72    4.88 
 -12  14   2    2.53    5.49 
 -14 -12  -2   -2.76    5.96 
 -12  14   4   -0.74    5.17 
 -14 -12  -4    0.19    5.83 
 -14 -12   6   -9.00    5.82 
 -14 -12  -6    4.99    5.61 
 -14 -12   8    0.31    4.47 
 -14 -12  -8    1.65    4.91 
 -14 -13   1    2.76    4.93 
 -13  14   1   13.42    4.78 
 -14 -13  -1   11.20    4.72 
 -14 -13   3   12.96    5.27 
 -13  14   3    9.38    4.47 
 -14 -13  -3    3.62    4.40 
 -14 -13   5    8.84    4.52 
 -15  12  -1   11.82    4.41 
 -15  12   1   19.14    4.94 
 -15  12   3    8.93    4.48 
 -15  11   0   -0.46    5.30 
 -15  11  -2   47.90    6.79 
 -15  11   2   38.11    7.01 
 -15  11  -4   23.08    5.28 
 -15  11   4    0.05    4.96 
 -15  11   6   27.94    5.65 
 -15  10  -1    1.79    6.13 
 -15  10   1    4.31    6.38 
 -15  10  -3   34.94    7.27 
 -15  10   3   38.05    7.81 
 -15  10  -5    6.04    4.79 
 -15  10   5   14.23    6.33 
 -15  10   7    8.16    5.59 
 -15  10   9    0.94    3.97 
 -15   9   0    2.00    7.35 
 -15   9  -2    3.01    6.01 
 -15   9  -2    1.26    6.41 
 -15   9   2    6.10    7.64 
 -15   9  -4   35.54    7.45 
 -15   9  -4   41.31    7.72 
 -15   9   4   54.44    9.63 
 -15   9  -6    7.57    4.89 
 -15   9  -6    9.45    6.48 
 -15   9   6   20.15    7.16 
 -15   9  -8   17.07    6.58 
 -15   9   8   10.16    6.32 
 -15   9 -10   -7.13    6.06 
 -15   9  10    5.61    4.54 
 -15   8  -1    3.90    6.61 
 -15   8   1   -3.45    6.17 
 -15   8  -1    6.50    7.45 
 -15   8   1    0.62    7.93 
 -15   8  -3    1.07    6.20 
 -15   8  -3   10.82    7.59 
 -15   8   3    4.42    7.52 
 -15   8  -5    2.34    7.18 
 -15   8  -5    4.41    6.16 
 -15   8   5   -1.67    7.72 
 -15   8  -7   10.38    6.83 
 -15   8   7   14.22    7.40 
 -15   8  -9   41.97    8.31 
 -15   8   9   33.49    7.63 
 -15   8 -11  -11.93    6.82 
 -15   8  11    0.94    4.38 
 -15   8 -13   12.42    5.98 
 -15   7   0    5.36    7.14 
 -15   7   0   -5.10    7.83 
 -15   7  -2   -2.18    7.39 
 -15   7   2    9.19    7.32 
 -15   7  -2    7.38    7.84 
 -15   7   2    2.42    8.08 
 -15   7  -4   66.65   10.29 
 -15   7   4   82.94   11.70 
 -15   7  -4   83.21   11.02 
 -15   7   4   83.81    9.66 
 -15   7  -6   11.35    6.76 
 -15   7   6    6.25    6.37 
 -15   7   6    7.29    7.61 
 -15   7  -8   42.35    9.26 
 -15   7   8   41.17    9.07 
 -15   7 -10   49.70    9.25 
 -15   7  10   32.90    7.49 
 -15   7 -12   10.42    6.88 
 -15   7 -14    3.25    5.93 
 -15   6  -1   -3.47    7.79 
 -15   6   1    3.21    7.40 
 -15   6  -3    3.11    8.22 
 -15   6   3    3.75    7.26 
 -15   6  -3    6.95    7.44 
 -15   6  -5   21.22   10.07 
 -15   6  -5    8.09    7.63 
 -15   6   5    7.44    7.31 
 -15   6  -7   13.05    9.37 
 -15   6   7    2.65    6.04 
 -15   6  -9   11.20    8.18 
 -15   6   9   20.18    6.80 
 -15   6   9   14.00    7.75 
 -15   6 -11    1.77    7.59 
 -15   6  11   -3.10    6.07 
 -15   6 -13    4.10    6.81 
 -15   6 -15   35.91    6.99 
 -15   5   0    0.44    8.04 
 -15   5  -2   51.65   11.07 
 -15   5   2   37.93    9.79 
 -15   5  -4   11.02    8.96 
 -15   5   4   13.49    8.26 
 -15   5  -6   63.96   10.55 
 -15   5  -6  101.40   12.70 
 -15   5   6   77.60   11.09 
 -15   5  -8   12.15    9.64 
 -15   5   8   -2.12    6.55 
 -15   5 -10  -11.37    8.53 
 -15   5 -12   13.25    7.99 
 -15   5  12   -1.36    5.49 
 -15   5 -14   88.54    9.88 
 -15   5 -16   47.85    7.07 
 -15   4  -1   10.38    8.68 
 -15   4   1    5.23    9.02 
 -15   4  -3    8.83    8.83 
 -15   4   3    3.92    8.45 
 -15   4  -5   37.47   10.96 
 -15   4   5   48.20   12.19 
 -15   4  -7   71.28   11.98 
 -15   4   7   75.31   12.38 
 -15   4  -9   18.98    9.61 
 -15   4   9   20.78    9.91 
 -15   4 -11   14.46    8.82 
 -15   4  11   46.77    9.76 
 -15   4 -13    2.30    6.95 
 -15   4  13    6.58    6.34 
 -15   4 -15   51.67    8.30 
 -15   3   0    8.82    9.08 
 -15   3  -2   -3.67    8.77 
 -15   3   2   -3.73    9.05 
 -15   3  -4  184.04   16.21 
 -15   3   4  213.33   17.81 
 -15   3  -6   25.89   10.22 
 -15   3   6   20.70    9.33 
 -15   3  -8    6.76    8.70 
 -15   3   8   10.27    8.95 
 -15   3 -10   -0.32    8.03 
 -15   3  10    0.36    8.85 
 -15   3 -12  104.00   11.75 
 -15   3  12   91.55   11.50 
 -15   3 -14    1.12    6.84 
 -15   3  14   19.82    7.46 
 -15   3 -16   57.61    8.05 
 -15   2   1   32.11   11.29 
 -15   2  -1    9.98    9.46 
 -15   2   1   29.41   11.11 
 -15   2   1   21.96    9.49 
 -15   2   3   46.70   11.17 
 -15   2  -3   31.54   11.12 
 -15   2   3   29.77   10.13 
 -15   2   5  156.40   15.73 
 -15   2  -5  129.89   14.67 
 -15   2   5  137.39   15.22 
 -15   2  -7   49.99   10.94 
 -15   2   7   29.26   10.38 
 -15   2  -9    2.51    7.99 
 -15   2   9   -6.98    9.14 
 -15   2 -11   17.03    8.83 
 -15   2  11   33.87   10.12 
 -15   2 -13   55.88    9.63 
 -15   2  13   55.40    9.48 
 -15   2 -15   -0.04    6.31 
 -15   2  15   18.93    6.70 
 -15   1   0   21.46   10.85 
 -15   1   0   -3.60    9.80 
 -15   1   0    3.28    7.62 
 -15   1  -2   89.19   13.35 
 -15   1   2   61.66   11.80 
 -15   1  -2   79.38   13.02 
 -15   1   2   64.31   11.85 
 -15   1   4    4.57    9.01 
 -15   1  -4   16.61    9.77 
 -15   1   4    9.45    9.01 
 -15   1  -6  133.31   14.56 
 -15   1   6  122.55   14.90 
 -15   1   8   28.77   10.64 
 -15   1  -8   15.00    9.58 
 -15   1   8   11.64    8.85 
  15  -1 -10    5.82    6.90 
 -15   1 -10   18.07    8.79 
 -15   1  10    1.05    9.04 
  15  -1 -12   -0.07    6.28 
 -15   1 -12   -2.35    7.59 
 -15   1  12    0.14    8.22 
 -15   1 -14  125.32   11.11 
 -15   1  14  126.50   11.81 
  15  -1 -16    0.54    4.49 
 -15   1 -16    4.80    4.80 
 -15   1  16    2.14    5.26 
 -15   0  -1   -4.47   10.27 
 -15   0   1    0.41   10.40 
 -15   0  -1   16.12   10.26 
 -15   0   1    1.03    8.07 
 -15   0  -3   46.45   11.65 
 -15   0   3   37.42   10.37 
 -15   0  -3   55.74   11.61 
 -15   0   3   45.17   11.14 
 -15   0   5   -1.47    9.89 
 -15   0  -5    6.57    9.03 
 -15   0   5    9.41    9.09 
 -15   0   7   35.30    9.91 
 -15   0  -7   48.13   10.73 
 -15   0   7   53.37   12.05 
 -15   0   9   25.45   10.63 
  15   0  -9    3.21    7.99 
 -15   0  -9    4.92    7.78 
 -15   0   9    8.00    9.05 
  15   0 -11    1.80    7.21 
 -15   0 -11   -0.41    7.68 
 -15   0  11    2.42    8.08 
  15   0 -13   35.62    8.48 
 -15   0 -13   52.93    8.77 
 -15   0  13   53.66   10.49 
  15   0 -15   10.30    6.59 
 -15   0 -15    8.56    5.02 
 -15   0  17    3.98    4.68 
 -15  -1   0   -6.78    9.83 
 -15  -1   0    1.95    7.33 
 -15  -1  -2   -1.95    8.71 
 -15  -1   2   -3.59    9.77 
 -15  -1  -2    6.18    9.77 
 -15  -1   2    3.76    8.56 
 -15  -1   2    2.55    8.19 
 -15  -1  -2    2.01    7.36 
 -15  -1   4  100.71   13.18 
 -15  -1  -4  127.88   14.45 
 -15  -1   4  117.30   14.12 
 -15  -1   6    1.24    9.22 
 -15  -1  -6   14.79    9.06 
 -15  -1   6   24.07   10.32 
 -15  -1   8   -5.81    9.22 
 -15  -1  -8   13.45    8.33 
 -15  -1   8   11.97    9.69 
 -15  -1  10   17.98    9.01 
  15   1 -10    0.46    7.58 
 -15  -1 -10   16.00    9.02 
 -15  -1  10   -0.80    8.53 
 -15  -1  12  116.01   11.26 
  15   1 -12   97.36   11.42 
 -15  -1 -12   82.10   10.17 
 -15  -1  12  105.39   12.18 
  15   1 -14    4.53    6.57 
 -15  -1  14   -0.71    6.62 
  15   1 -16    9.60    5.98 
 -15  -1  16   12.46    5.84 
 -15  -2   1   90.95   13.91 
 -15  -2  -1   79.13   12.22 
 -15  -2  -1   93.87   13.57 
 -15  -2   1   73.41   12.44 
 -15  -2  -1   73.62   11.52 
 -15  -2  -3    6.54    8.83 
 -15  -2   3   23.00   10.65 
 -15  -2  -3   20.45    9.94 
 -15  -2   3   18.77    9.42 
 -15  -2   3   17.76    9.63 
 -15  -2  -3   15.54    8.82 
 -15  -2  -5  -16.11    8.27 
 -15  -2   5    5.84    9.25 
 -15  -2  -5   -7.04    8.71 
 -15  -2   5    0.46    9.19 
 -15  -2  -5   -0.66    7.88 
 -15  -2   7   10.05    9.06 
 -15  -2  -7   18.11    8.44 
 -15  -2   7   11.46    9.17 
 -15  -2   9   28.46    9.20 
 -15  -2  -9   29.45    8.48 
 -15  -2   9   30.38   10.00 
 -15  -2  11   98.29   11.18 
  15   2 -11  118.47   12.70 
 -15  -2 -11  103.94   10.68 
  15   2 -13   -3.25    6.83 
 -15  -2  13    0.80    7.49 
  15   2 -15    1.72    5.98 
 -15  -2  15    1.55    6.29 
  15   2 -17    4.34    4.63 
 -15  -2  17    3.53    4.77 
 -15  -3   0   25.37   10.73 
 -15  -3   0    1.83    8.15 
 -15  -3  -2    2.08    9.24 
 -15  -3   2    9.69   10.92 
 -15  -3  -2    4.08    8.82 
 -15  -3   2    0.55    8.79 
 -15  -3  -2   -1.87    7.97 
 -15  -3  -4   14.58    9.32 
 -15  -3   4   36.00   12.30 
 -15  -3  -4   33.94   10.31 
 -15  -3   4   29.45    9.83 
 -15  -3   4   22.19    9.69 
 -15  -3  -4   14.97    9.36 
 -15  -3  -6   -0.86    7.34 
 -15  -3   6    2.75    8.82 
 -15  -3  -6   -0.19    7.73 
 -15  -3   8    1.08    8.42 
 -15  -3  -8   -4.23    6.51 
 -15  -3   8    2.29    9.12 
 -15  -3  -8   -0.35    7.50 
 -15  -3  10   11.54    7.79 
  15   3 -10   25.22    9.33 
 -15  -3  10   33.49   10.21 
 -15  -3  12  -10.84    7.34 
  15   3 -12    8.42    8.18 
 -15  -3  12   -1.66    7.49 
  -3  15 -14  -10.30    7.25 
  15   3 -14    9.40    6.94 
 -15  -3  14    8.23    6.73 
  15   3 -16    7.18    5.56 
 -15  -3  16    4.27    5.21 
 -15  -4  -1  104.36   14.61 
 -15  -4   1  114.83   13.83 
 -15  -4  -1  120.40   14.08 
 -15  -4   1  113.04   14.28 
 -15  -4  -1  115.15   14.31 
 -15  -4  -3  111.81   14.97 
 -15  -4   3  129.28   15.00 
 -15  -4  -3  118.38   12.70 
 -15  -4   3  122.18   14.35 
 -15  -4  -3  117.85   14.06 
 -15  -4  -5   -0.40    7.50 
 -15  -4   5   17.99   10.52 
 -15  -4  -5    8.43    7.33 
 -15  -4   5    5.48    8.43 
 -15  -4  -5   15.74    9.46 
 -15  -4   7    5.64    9.70 
 -15  -4   7   13.93    9.04 
 -15  -4  -7    8.44    8.75 
 -15  -4   9   64.63   11.18 
 -15  -4   9   66.99   11.31 
 -15  -4  -9   39.87   10.25 
 -15  -4  11   15.76    7.35 
  15   4 -11   39.50   10.38 
 -15  -4  11   39.58    9.69 
 -15  -4 -11   27.27    7.84 
 -15  -4  13    3.74    6.49 
  15   4 -13   -3.55    7.18 
 -15  -4  13   -0.40    7.09 
  15   4 -15    4.59    5.92 
 -15  -4  15    2.58    5.63 
 -15  -5   0   -4.86    9.79 
 -15  -5   0    1.22    7.61 
 -15  -5   0   -2.40    8.95 
 -15  -5  -2    3.78    8.75 
 -15  -5   2   -1.66    9.88 
 -15  -5  -2    4.90    7.10 
 -15  -5   2    3.40    9.48 
 -15  -5  -2    8.04    9.38 
 -15  -5  -4   38.56   10.76 
 -15  -5   4   36.13   10.71 
 -15  -5   4   19.82    9.69 
 -15  -5  -4   26.34   10.23 
 -15  -5   6    2.37    8.70 
 -15  -5   6    8.91    8.05 
 -15  -5  -6    7.23    8.98 
 -15  -5   8   13.50    9.14 
 -15  -5   8   11.34    8.76 
 -15  -5  -8    5.56    8.33 
 -15  -5  10   11.55    7.94 
 -15  -5  10   12.03    8.09 
 -15  -5 -10    0.43    7.40 
 -15  -5  12    1.04    6.35 
  15   5 -12    6.64    7.42 
 -15  -5  12   15.09    7.18 
 -15  -5 -12    0.41    6.06 
  -5  15 -14   -6.69    6.84 
  15   5 -14    7.05    6.11 
 -15  -5  14    3.89    5.94 
  15   5 -16    1.18    4.38 
 -15  -5  16   27.36    5.74 
 -15  -6  -1  154.35   15.09 
 -15  -6   1  158.59   15.54 
 -15  -6   1  118.39   12.00 
 -15  -6   1  145.23   15.09 
 -15  -6  -1  137.99   15.04 
 -15  -6   3   -5.30    9.81 
 -15  -6  -3   -0.30    8.81 
 -15  -6   5    3.53    8.97 
 -15  -6  -5   10.72    9.09 
 -15  -6   7  102.22   12.63 
 -15  -6   7  104.83   12.83 
 -15  -6  -7  132.32   14.17 
 -15  -6   9   70.16   10.47 
 -15  -6   9   42.76    9.89 
 -15  -6  -9   62.00   10.77 
 -15  -6  11   -0.01    6.28 
  15   6 -11    1.15    7.23 
 -15  -6  11    2.85    6.88 
 -15  -6 -11   -3.88    7.06 
  -6  15 -13   -1.88    6.82 
 -15  -6  13    7.34    9.07 
  15   6 -13   16.56    6.79 
 -15  -6  13   17.66    6.45 
 -15  -6 -13    1.63    5.30 
  -6  15 -15   38.98    6.34 
  15   6 -15   28.40    5.88 
 -15  -6  15   35.36    5.90 
 -15  -7   0   -7.65    9.55 
 -15  -7   0   11.70    9.19 
 -15  -7  -2   10.52    8.66 
 -15  -7   2   15.78    9.33 
 -15  -7   2   19.41    9.56 
 -15  -7  -2   24.48    9.86 
 -15  -7  -4    6.59    8.53 
 -15  -7   4   11.40    8.80 
 -15  -7   4   14.87    9.17 
 -15  -7  -4   20.60    9.65 
 -15  -7   6   17.20    8.74 
 -15  -7  -6   27.63    9.81 
 -15  -7   8   -8.44    7.90 
 -15  -7   8    2.36    6.51 
 -15  -7  -8    1.32    7.71 
 -15  -7  10    1.17    6.25 
 -15  -7 -10    4.09    7.55 
  -7  15 -12   -9.86    6.70 
 -15  -7  12    0.08    4.92 
  15   7 -12   10.59    6.37 
 -15  -7  12    8.98    6.19 
 -15  -7 -12    8.90    6.50 
  15   7 -14   16.84    5.57 
 -15  -7  14    9.85    5.13 
 -15  -8  -1   19.64    9.29 
 -15  -8   1   18.47    8.73 
 -15  -8   1   22.63    9.55 
 -15  -8  -1   33.08   10.11 
 -15  -8   3   86.08   11.73 
 -15  -8   3   91.05   12.60 
 -15  -8  -3  103.07   12.60 
 -15  -8   5   38.52    9.46 
 -15  -8  -5   45.38   10.15 
 -15  -8   7   15.57    7.94 
 -15  -8  -7   -2.68    7.81 
 -15  -8   9   47.41    8.42 
 -15  -8  -9   40.37    8.68 
  -8  15 -11   16.15    6.44 
 -15  -8  11   33.43    6.42 
  15   8 -11   33.49    7.58 
 -15  -8  11   25.79    6.40 
 -15  -8 -11   39.13    7.90 
  15   8 -13    4.85    4.85 
  -8  15 -13   54.68    6.75 
 -15  -9   0   -5.20    8.21 
 -15  -9   0   -2.55    7.76 
 -15  -9  -2    2.01    6.95 
 -15  -9   2    0.81    8.50 
 -15  -9   2    8.10    7.99 
 -15  -9  -2   10.17    8.29 
 -15  -9   4   86.70   10.81 
 -15  -9  -4   75.16   11.03 
 -15  -9   6   -2.10    7.50 
 -15  -9  -6   -2.25    7.15 
 -15  -9   8    7.38    6.32 
 -15  -9  -8   20.43    7.91 
  15   9 -10    1.56    5.33 
 -15  -9 -10   -0.04    5.71 
  15   9 -12   11.00    4.72 
 -15  -9 -12   12.26    5.20 
 -15 -10  -1   10.79    7.67 
 -15 -10   1   22.05    7.48 
 -15 -10   1   30.36    8.30 
 -15 -10  -1   34.49    8.45 
 -15 -10   3    1.88    6.61 
 -15 -10  -3    7.09    7.22 
 -15 -10   5   25.96    7.26 
 -15 -10  -5   25.12    7.66 
 -10  15  -7    0.87    5.86 
 -15 -10   7   15.10    6.16 
 -15 -10  -7   24.30    7.02 
 -10  15  -9   -9.47    5.30 
 -15 -10   9    1.63    5.28 
  15  10  -9    5.88    5.09 
 -15 -10  -9    5.73    5.32 
 -15 -11   0   -4.90    6.60 
 -15 -11   0    4.43    5.95 
 -15 -11  -2    7.04    5.60 
 -15 -11   2    5.83    5.79 
 -15 -11  -2   15.99    6.68 
 -15 -11   4   -5.50    5.93 
 -15 -11  -4   -0.12    5.60 
 -15 -11   6   25.66    5.92 
 -15 -11  -6   34.79    6.72 
 -15 -11   8    0.12    4.29 
 -15 -11  -8    2.22    4.57 
 -15 -12   1   -1.95    4.62 
 -15 -12  -1   -3.15    4.63 
 -15 -12   3   -1.19    4.49 
 -15 -12  -3    1.79    4.44 
 -16  11   1   30.34    5.04 
 -16  11   3    0.42    3.55 
 -16  10   0    3.23    4.89 
 -16  10  -2   39.55    6.03 
 -16  10   2   37.21    6.48 
 -16  10   4   -1.61    4.75 
 -16  10   6   16.75    4.70 
 -16   9  -1    8.55    6.00 
 -16   9   1   22.06    7.11 
 -16   9  -3   17.05    5.60 
 -16   9  -3   10.94    4.93 
 -16   9   3   27.61    6.84 
 -16   9  -5   14.44    5.42 
 -16   9   5   13.11    5.91 
 -16   9  -7    0.18    4.49 
 -16   9   7    2.08    4.70 
 -16   8   0   12.87    5.69 
 -16   8   0   21.99    7.63 
 -16   8  -2    0.84    6.12 
 -16   8   2   -1.99    6.63 
 -16   8  -4    7.65    6.07 
 -16   8  -4    5.14    5.70 
 -16   8   4    8.00    6.89 
 -16   8  -6    1.80    5.64 
 -16   8   6    6.85    6.23 
 -16   8  -8   44.59    7.27 
 -16   8   8   40.56    6.96 
 -16   8 -10    1.19    5.03 
 -16   7  -1    9.10    6.42 
 -16   7   1   16.91    6.82 
 -16   7  -1   -0.27    6.92 
 -16   7   1    7.85    7.82 
 -16   7  -3   -4.86    6.85 
 -16   7  -3   -1.36    6.42 
 -16   7   3    0.86    5.58 
 -16   7   3    0.61    6.81 
 -16   7  -5   35.66    8.26 
 -16   7  -5   18.64    6.66 
 -16   7   5   21.37    6.07 
 -16   7   5   19.00    7.78 
 -16   7  -7   40.45    8.07 
 -16   7   7   42.52    7.97 
 -16   7   9   54.34    7.82 
 -16   7  -9   51.31    8.00 
 -16   7 -11  -12.65    6.13 
 -16   6   0    8.44    7.15 
 -16   6   0    1.87    7.71 
 -16   6  -2   15.44    7.76 
 -16   6   2   19.24    7.35 
 -16   6  -2   16.39    8.06 
 -16   6  -4   -3.89    7.52 
 -16   6  -4    5.06    6.44 
 -16   6   4    1.86    6.29 
 -16   6  -6   14.66    7.93 
 -16   6   6    6.78    6.11 
 -16   6   6    1.41    7.39 
 -16   6  -8   31.52    8.10 
 -16   6   8   34.19    6.61 
 -16   6   8   42.10    8.22 
 -16   6 -10   44.27    8.37 
 -16   6  10   36.80    6.77 
 -16   6 -12   -2.75    5.67 
 -16   5  -1    0.69    7.87 
 -16   5   1   -2.76    7.73 
 -16   5  -3   19.78    8.70 
 -16   5   3   16.53    7.72 
 -16   5  -5    9.06    7.75 
 -16   5  -5    3.04    6.45 
 -16   5   5    5.42    7.10 
 -16   5  -7   15.26    8.69 
 -16   5   7    2.05    6.07 
 -16   5  -9   15.72    7.77 
 -16   5   9   18.55    6.34 
 -16   5   9   13.21    6.83 
 -16   5 -11   50.42    8.43 
 -16   5  11   27.95    6.22 
 -16   5 -13    2.39    5.77 
 -16   4   0   20.08    9.16 
 -16   4  -2   -2.82    8.64 
 -16   4   2    7.50    8.29 
 -16   4  -4    4.54    8.63 
 -16   4   4    0.01    7.83 
 -16   4  -6    1.34    8.02 
 -16   4   6    0.57    7.63 
 -16   4  -8   23.71    9.01 
 -16   4   8   -2.99    6.41 
 -16   4 -10   -7.78    7.35 
 -16   4  10   -1.02    5.60 
 -16   4 -12   30.92    7.81 
 -16   4  12   30.34    5.80 
 -16   4  12   23.16    5.47 
 -16   4 -14  -12.40    6.34 
 -16   3  -1    9.16    8.82 
 -16   3   1    3.59    8.93 
 -16   3  -3   77.42   11.97 
 -16   3   3   61.52   11.23 
 -16   3  -5   29.30    9.55 
 -16   3   5   26.85    9.62 
 -16   3   5   17.95    9.41 
 -16   3  -7   -0.62    7.69 
 -16   3   7   11.46    8.39 
 -16   3  -9   20.60    9.32 
 -16   3   9   22.13    9.32 
 -16   3 -11   -1.21    6.91 
 -16   3  11   18.43    7.57 
 -16   3 -13   46.30    8.12 
 -16   2   0   30.50   10.46 
 -16   2  -2    1.39    9.44 
 -16   2   2   12.14   10.35 
 -16   2  -4   -1.61    8.75 
 -16   2   4   10.16    9.05 
 -16   2  -6   -3.38    8.47 
 -16   2   6    4.17    9.09 
 -16   2  -8   48.12    9.90 
 -16   2   8   45.19   10.20 
 -16   2 -10   -2.85    7.23 
 -16   2  10    5.21    7.13 
 -16   2 -12    0.76    6.58 
 -16   2  12   -0.45    6.77 
 -16   2 -14  -15.09    6.47 
 -16   2  14    6.87    5.73 
 -16   1   1   64.61   12.00 
 -16   1  -1   65.30   12.01 
 -16   1   1   53.30   11.65 
 -16   1   3   38.72   10.80 
 -16   1  -3   18.91    9.42 
 -16   1   3   42.80   10.41 
 -16   1   5   36.53   11.00 
 -16   1  -5   41.35   10.33 
 -16   1   5   12.87    9.11 
 -16   1  -7   73.26   11.22 
 -16   1   7   70.04   11.53 
 -16   1  -9   36.85    9.61 
 -16   1   9    5.22    7.74 
 -16   1 -11   -5.45    7.53 
 -16   1  11   -3.08    7.52 
 -16   1 -13   45.95    7.96 
 -16   1  13   30.28    7.26 
 -16   1  15   22.61    5.62 
 -16   0   0  117.15   13.78 
 -16   0   0  108.58   14.08 
 -16   0  -2    2.01    8.58 
 -16   0   2    6.74    9.82 
 -16   0  -2    0.52    8.50 
 -16   0   2   17.56    8.86 
 -16   0   4   12.27    9.93 
 -16   0  -4   22.15    8.71 
 -16   0   4    2.99    8.21 
 -16   0   6   29.01   10.30 
 -16   0  -6   18.34    9.16 
 -16   0   6    9.23    8.69 
 -16   0   8   60.56   11.03 
  16   0  -8   41.60    8.08 
 -16   0  -8   55.99   10.11 
 -16   0   8   55.69   11.10 
  16   0 -10    5.18    6.37 
 -16   0 -10    3.12    7.16 
 -16   0  10   13.17    8.06 
  16   0 -12   22.94    7.17 
 -16   0 -12   39.70    8.22 
 -16   0  12   36.33    8.51 
  16   0 -14    0.89    4.75 
 -16   0  14   -2.30    5.38 
 -16  -1  -1    0.28    8.87 
 -16  -1   1    0.44    9.76 
 -16  -1  -1   10.59    9.76 
 -16  -1   1    9.27   10.03 
 -16  -1   1   13.21    8.52 
 -16  -1  -1    1.28    6.34 
 -16  -1  -3   63.85   12.33 
 -16  -1   3   42.05   10.21 
 -16  -1  -3   68.10   12.03 
 -16  -1   3   51.66   10.44 
 -16  -1   5   69.97   11.66 
 -16  -1  -5   79.04   11.48 
 -16  -1   5   73.60   11.68 
 -16  -1   7  -11.02    9.39 
  16   1  -7   -0.70    6.67 
 -16  -1  -7   -1.87    7.48 
 -16  -1   7   -5.69    7.99 
 -16  -1   9   36.25    9.88 
  16   1  -9   28.47    7.89 
 -16  -1  -9   41.98    8.81 
 -16  -1   9   26.54    8.86 
  16   1 -11   63.17    9.20 
 -16  -1 -11   56.15    8.26 
 -16  -1  11   80.39   10.98 
  16   1 -13    3.33    5.74 
 -16  -1  13   10.38    6.37 
 -16  -1  15    0.24    4.79 
 -16  -2   0   -1.84    9.25 
 -16  -2   0    4.97    8.50 
 -16  -2   0   -1.56    7.58 
 -16  -2  -2   96.86   13.17 
 -16  -2   2  138.41   14.47 
 -16  -2  -2  143.35   14.15 
 -16  -2   2  108.80   12.71 
 -16  -2  -2   96.56   12.29 
 -16  -2  -4   13.20    9.06 
 -16  -2   4   -6.63    9.89 
 -16  -2  -4   11.18    8.10 
 -16  -2   4   12.19    8.19 
 -16  -2  -4    4.22    7.03 
 -16  -2   6   44.38   10.49 
 -16  -2  -6   42.85    9.16 
 -16  -2   6   45.90   10.55 
 -16  -2   8   -8.74    8.54 
  16   2  -8    3.37    6.92 
 -16  -2  -8   -4.13    6.83 
 -16  -2   8    3.54    8.06 
 -16  -2  10  189.58   13.43 
  16   2 -10  155.93   12.95 
 -16  -2  10  186.73   14.32 
  -2  16 -12  -18.90    7.75 
  16   2 -12   -1.64    6.03 
 -16  -2  12   -3.88    6.47 
  16   2 -14   -2.00    5.02 
 -16  -2  14   -0.03    5.46 
 -16  -3  -1   71.17   12.22 
 -16  -3   1   75.94   11.92 
 -16  -3  -1   87.31   11.91 
 -16  -3   1   92.54   12.50 
 -16  -3   1   76.77   11.87 
 -16  -3  -1   68.08   11.67 
 -16  -3  -3   -2.31    8.38 
 -16  -3   3   -5.33    9.76 
 -16  -3  -3    5.86    8.19 
 -16  -3   3    8.21    7.75 
 -16  -3  -3    3.97    7.51 
 -16  -3  -5    8.70    8.43 
 -16  -3   5    0.58    8.59 
 -16  -3  -5   12.92    7.79 
 -16  -3   5    6.99    8.32 
 -16  -3  -5    2.73    6.94 
 -16  -3   7   65.14   10.65 
 -16  -3  -7   54.45    8.62 
 -16  -3  -7   46.65    9.33 
 -16  -3   9   21.65    7.81 
  16   3  -9   17.50    7.92 
 -16  -3   9   36.71    9.20 
 -16  -3  11   22.03    8.60 
  16   3 -11   12.91    7.03 
 -16  -3  11    6.78    6.53 
  -3  16 -13   19.67    6.42 
  16   3 -13   36.10    7.15 
 -16  -3  13   34.19    7.29 
 -16  -3  15   36.79    6.17 
 -16  -4   0  291.93   18.41 
 -16  -4   0  292.24   17.69 
 -16  -4   0  272.83   17.77 
 -16  -4  -2   -4.90    8.93 
 -16  -4   2   10.43    9.29 
 -16  -4  -2    1.52    7.07 
 -16  -4   2    0.38    8.16 
 -16  -4  -2    2.20    7.94 
 -16  -4  -4   -3.94    7.89 
 -16  -4   4    0.68    9.01 
 -16  -4  -4   -2.74    6.61 
 -16  -4  -4    1.30    7.33 
 -16  -4   6    3.42    8.66 
 -16  -4   6    2.73    7.66 
 -16  -4  -6   -0.98    7.03 
 -16  -4   8  101.40   11.21 
 -16  -4   8   90.32   12.13 
 -16  -4  -8  106.06   10.81 
 -16  -4  10  -17.15    7.78 
  16   4 -10    4.97    6.91 
 -16  -4  10    0.81    6.45 
  -4  16 -12    9.96    6.57 
 -16  -4  12   39.71    6.56 
  16   4 -12   20.68    6.87 
 -16  -4  12   29.17    7.27 
  16   4 -14    3.78    4.86 
 -16  -4  14    3.32    4.82 
 -16  -5  -1   36.17   10.96 
 -16  -5  -1   26.13    7.47 
 -16  -5   1   45.89    9.14 
 -16  -5   1   41.48   10.16 
 -16  -5  -1   42.71   10.04 
 -16  -5  -3   10.78    8.24 
 -16  -5   3   33.03    9.43 
 -16  -5  -3   37.64    9.87 
 -16  -5   5   64.73   11.59 
 -16  -5  -5   13.19    8.16 
 -16  -5   7    6.50    7.82 
 -16  -5   7    1.04    6.62 
 -16  -5  -7    5.08    7.73 
 -16  -5   9   10.19    6.70 
  16   5  -9    7.94    7.19 
 -16  -5   9   13.91    7.26 
 -16  -5  -9    5.02    6.82 
 -16  -5  11   -0.76    6.16 
  16   5 -11   15.60    6.58 
 -16  -5  11    9.04    6.22 
 -16  -5 -11    3.85    4.45 
  -5  16 -13  -13.23    5.95 
  16   5 -13    4.78    5.27 
 -16  -5  13   -2.19    4.74 
 -16  -6   0   25.79   10.06 
 -16  -6   0    4.21    8.20 
 -16  -6  -2  141.91   14.45 
 -16  -6   2  114.88   10.53 
 -16  -6   2  146.13   13.96 
 -16  -6  -2  134.71   13.27 
 -16  -6  -4   -1.78    6.89 
 -16  -6   4    8.40    7.95 
 -16  -6  -4    3.39    7.57 
 -16  -6   6   62.71   10.32 
 -16  -6  -6   18.80    7.91 
 -16  -6   8    9.41    6.97 
 -16  -6   8    1.22    5.44 
 -16  -6  -8    8.41    6.95 
 -16  -6  10   31.66    7.16 
  16   6 -10   37.39    7.98 
 -16  -6  10   32.58    7.54 
 -16  -6 -10   13.65    7.21 
  16   6 -12    6.07    5.50 
 -16  -6  12    2.42    4.55 
 -16  -7  -1   13.84    9.00 
 -16  -7   1   28.24    8.93 
 -16  -7   1   14.88    8.75 
 -16  -7  -1   21.60    8.90 
 -16  -7  -3    2.02    7.18 
 -16  -7   3   29.07    9.01 
 -16  -7  -3   14.53    7.93 
 -16  -7   5    7.15    8.80 
 -16  -7  -5    6.24    8.03 
 -16  -7   7   31.98    8.19 
 -16  -7  -7   -1.23    6.55 
 -16  -7   9    7.11    5.96 
  16   7  -9   11.26    6.64 
 -16  -7   9    2.10    4.01 
 -16  -7  -9   13.56    6.69 
  -7  16 -11  -13.54    6.12 
 -16  -7  11   -0.55    4.52 
  16   7 -11    2.04    5.08 
 -16  -7 -11   -0.53    4.40 
 -16  -8   0   43.44    9.54 
 -16  -8   0   62.63    9.92 
 -16  -8  -2    7.13    7.87 
 -16  -8   2    5.42    7.20 
 -16  -8   2    4.82    7.14 
 -16  -8  -2    7.28    7.34 
 -16  -8   4   20.52    7.71 
 -16  -8  -4   11.50    7.44 
 -16  -8   6    3.36    6.63 
 -16  -8  -6   -1.81    6.53 
 -16  -8   8   35.14    7.03 
 -16  -8  -8   30.89    7.28 
  -8  16 -10   -4.93    5.26 
 -16  -8  10    0.45    4.26 
  16   8 -10   12.41    5.29 
 -16  -8 -10   11.65    5.43 
 -16  -9  -1    8.68    7.05 
 -16  -9   1   10.89    6.72 
 -16  -9   1    2.22    6.45 
 -16  -9  -1    4.91    6.67 
 -16  -9  -3    1.76    4.23 
 -16  -9   3    9.81    6.98 
 -16  -9  -3    2.65    6.15 
 -16  -9   5    0.31    6.00 
 -16  -9  -5   -0.99    5.77 
 -16  -9   7   36.03    6.67 
 -16  -9  -7    8.26    5.56 
  16   9  -9   -1.59    4.52 
 -16  -9  -9    0.64    4.41 
 -16 -10   0   21.60    7.13 
 -16 -10   0   14.04    5.99 
 -16 -10   2   10.31    5.85 
 -16 -10  -2    8.56    5.89 
 -16 -10   4    2.75    5.05 
 -16 -10  -4    0.65    4.89 
 -16 -10   6   34.48    5.90 
 -16 -10  -6    3.40    4.78 
 -17   9   0   -4.19    4.33 
 -17   9   2   -0.59    4.24 
 -17   9   4   -0.58    3.96 
 -17   8  -1    2.80    4.37 
 -17   8  -1    5.27    5.13 
 -17   8   1    7.79    5.69 
 -17   8  -3   -0.87    4.00 
 -17   8  -3   -2.18    4.49 
 -17   8   3    0.75    4.86 
 -17   8  -5    4.12    4.38 
 -17   8   5   17.31    5.47 
 -17   8   7    9.74    4.26 
 -17   7   0   -1.25    5.14 
 -17   7   0   -2.82    5.87 
 -17   7  -2   16.99    6.25 
 -17   7   2    0.62    4.61 
 -17   7  -2    0.85    5.58 
 -17   7   2    2.06    6.08 
 -17   7  -4    2.87    5.20 
 -17   7  -4    3.30    4.24 
 -17   7   4    5.64    5.89 
 -17   7  -6   27.87    6.17 
 -17   7   6   32.76    6.60 
 -17   7  -8    9.64    5.32 
 -17   7   8   12.89    4.71 
 -17   6  -1    7.11    6.40 
 -17   6   1   21.32    6.76 
 -17   6  -1    3.36    5.95 
 -17   6   1   10.87    6.72 
 -17   6  -3   15.63    6.59 
 -17   6   3   24.02    6.67 
 -17   6  -3   26.28    7.27 
 -17   6   3   22.17    7.28 
 -17   6  -5   21.61    7.17 
 -17   6   5   13.26    5.59 
 -17   6   5   24.18    6.78 
 -17   6  -7   14.38    6.35 
 -17   6   7   13.74    6.03 
 -17   6  -9    6.01    5.39 
 -17   6   9    9.91    4.71 
 -17   5   0    4.67    6.95 
 -17   5  -2    8.04    7.09 
 -17   5   2   -1.49    6.53 
 -17   5  -2   -2.91    6.56 
 -17   5  -4   47.04    8.59 
 -17   5  -4   31.19    7.09 
 -17   5   4   46.21    7.80 
 -17   5   6   -4.51    5.97 
 -17   5   6    1.33    5.88 
 -17   5  -8   -3.13    6.41 
 -17   5   8    5.51    4.79 
 -17   5   8    3.44    5.17 
 -17   5 -10    9.13    5.70 
 -17   5  10   -1.73    4.29 
 -17   4  -1   25.50    8.70 
 -17   4   1   20.10    8.38 
 -17   4  -3    2.70    7.14 
 -17   4   3    2.71    7.15 
 -17   4  -5    8.42    7.32 
 -17   4  -5    2.38    5.17 
 -17   4   5    5.53    6.38 
 -17   4  -7   24.34    8.28 
 -17   4   7    5.50    6.14 
 -17   4  -9   13.49    6.58 
 -17   4   9   17.57    5.47 
 -17   4   9    9.26    5.70 
 -17   4 -11    2.81    5.61 
 -17   3   0    9.13    8.48 
 -17   3  -2   95.17   11.42 
 -17   3   2   89.97   11.12 
 -17   3  -4   -3.26    7.53 
 -17   3   4    4.86    7.42 
 -17   3   6   76.85    9.92 
 -17   3  -6   58.90    9.50 
 -17   3  -8    5.96    7.47 
 -17   3   8    5.30    6.53 
 -17   3 -10    6.48    6.33 
 -17   3  10   16.58    5.82 
 -17   3 -12   -5.85    5.51 
 -17   2  -1   10.25    8.70 
 -17   2   1   13.19    8.90 
 -17   2  -3   32.82    9.55 
 -17   2   3   30.94    9.55 
 -17   2  -5   47.08   10.00 
 -17   2   5   44.16    9.53 
 -17   2  -7   -1.77    7.49 
 -17   2   7    8.06    7.45 
 -17   2  -9   -6.76    7.04 
 -17   2   9   -6.55    6.36 
 -17   2   9   -1.81    6.21 
 -17   2 -11   17.20    6.44 
 -17   2  11   20.93    6.11 
 -17   1   0    6.46    8.62 
 -17   1  -2    3.06    8.63 
 -17   1   2    2.96    8.69 
 -17   1  -4  201.45   14.97 
 -17   1   4  204.87   15.57 
 -17   1  -6    2.10    7.56 
 -17   1   6    8.18    8.12 
 -17   1  -8   33.53    8.70 
 -17   1   8   24.92    8.09 
 -17   1 -10    2.21    6.02 
 -17   1  10   16.14    7.06 
 -17   1 -12   63.10    7.29 
 -17   1  12   69.81    7.79 
 -17   0  -1  -14.48    8.70 
 -17   0   1   -2.97    8.73 
 -17   0   3   74.50   11.87 
 -17   0  -3   55.77   10.56 
 -17   0   3   59.61   11.46 
 -17   0  -5   16.72    8.34 
 -17   0   5   25.66    9.40 
 -17   0  -7   -3.76    7.39 
 -17   0   7    6.93    7.61 
 -17   0  -9   -8.21    6.78 
 -17   0   9   -3.79    7.07 
 -17   0 -11   15.82    5.72 
 -17   0  11   24.25    6.84 
 -17   0  13   18.15    5.50 
 -17  -1   0   15.81    9.59 
 -17  -1   0    4.96    8.51 
 -17  -1   2   70.05   12.02 
 -17  -1  -2   54.53   10.34 
 -17  -1   2   74.74   11.60 
 -17  -1   4   36.73   10.61 
 -17  -1  -4   16.02    8.40 
 -17  -1   4   20.33    8.92 
 -17  -1   4   26.34    9.49 
 -17  -1   6   85.34   11.34 
 -17  -1  -6   66.46    9.72 
 -17  -1   6   52.23    9.86 
 -17  -1  -8   21.77    7.25 
 -17  -1   8   -2.94    6.85 
  17   1 -10    4.76    5.24 
 -17  -1 -10    1.31    4.71 
 -17  -1  10   14.59    6.73 
 -17  -1  12    6.62    5.21 
 -17  -2  -1   18.56    9.39 
 -17  -2   1   16.68    8.81 
 -17  -2  -1    7.84    8.00 
 -17  -2   1   19.40    9.05 
 -17  -2  -3    6.51    8.34 
 -17  -2   3  -14.22    9.14 
 -17  -2  -3   -3.40    7.28 
 -17  -2   3    9.12    9.57 
 -17  -2   5    3.82    7.78 
 -17  -2  -5   -0.94    6.77 
 -17  -2   5   -1.09    6.79 
  17   2  -7    7.62    6.13 
 -17  -2  -7    5.26    6.18 
 -17  -2   7    4.26    6.63 
  17   2  -9   16.39    7.04 
 -17  -2   9   22.08    7.57 
  -2  17 -11  -10.81    5.80 
  17   2 -11   -3.18    5.00 
 -17  -2  11   -4.71    5.94 
 -17  -2  13   -4.58    4.26 
 -17  -3   0   -8.28    9.19 
 -17  -3   0   -3.96    7.19 
 -17  -3  -2   21.38    9.57 
 -17  -3   2   14.39    7.99 
 -17  -3  -2   28.77    8.09 
 -17  -3   2   25.51    8.29 
 -17  -3  -2   28.16    7.90 
 -17  -3  -4   15.30    8.80 
 -17  -3   4    9.26    7.65 
 -17  -3  -4   16.84    7.08 
 -17  -3   4   23.53    8.37 
 -17  -3  -4   10.37    6.33 
 -17  -3   6   22.45    7.79 
 -17  -3  -6   13.95    5.77 
 -17  -3   6   25.10    7.79 
  17   3  -8   -0.08    5.92 
 -17  -3   8   -1.27    6.52 
 -17  -3  10    5.71    6.56 
  17   3 -10    2.55    5.72 
 -17  -3  10   -4.09    5.95 
 -17  -3  12   15.65    5.59 
 -17  -4  -1   29.29    9.06 
 -17  -4   1   54.06    9.69 
 -17  -4  -1   38.88    8.21 
 -17  -4   1   49.55    8.74 
 -17  -4  -1   45.07    8.89 
 -17  -4  -3    4.96    7.41 
 -17  -4   3   -2.07    7.70 
 -17  -4  -3    3.00    5.46 
 -17  -4   3    4.13    6.88 
 -17  -4  -3    5.93    6.59 
 -17  -4   5   -7.05    8.15 
 -17  -4  -5    1.93    6.09 
 -17  -4   7    0.29    7.06 
  17   4  -7   13.22    6.66 
 -17  -4   7    2.61    5.32 
 -17  -4  -7    0.07    4.26 
  17   4  -9    2.44    5.66 
 -17  -4   9   -2.90    5.65 
  17   4 -11    0.80    4.90 
 -17  -4  11    1.98    4.73 
 -17  -5   0   -5.12    7.91 
 -17  -5   0   -1.38    5.09 
 -17  -5   0   -2.50    6.60 
 -17  -5  -2   -4.60    7.62 
 -17  -5   2   -4.25    7.90 
 -17  -5   2    1.52    5.87 
 -17  -5  -2   -0.92    6.49 
 -17  -5   4   22.38    8.24 
 -17  -5   4   39.11    7.58 
 -17  -5  -4   30.25    7.77 
 -17  -5   6   -7.19    6.76 
 -17  -5  -6    1.87    5.49 
  17   5  -8   11.08    6.31 
 -17  -5   8    1.89    4.22 
 -17  -5  -8    0.32    4.06 
 -17  -5  10    3.38    5.56 
  17   5 -10    1.16    4.91 
 -17  -6  -1    0.80    6.60 
 -17  -6   1    9.23    7.20 
 -17  -6  -1   17.09    7.24 
 -17  -6   3   48.89    8.76 
 -17  -6  -3   53.71    8.79 
 -17  -6   5    8.00    6.14 
 -17  -6   5   12.69    4.67 
 -17  -6  -5   19.35    6.68 
 -17  -6   7  -10.18    6.45 
 -17  -6   7   -1.30    3.98 
 -17  -6  -7    1.47    5.63 
 -17  -6   9   -0.98    5.49 
  17   6  -9    6.74    5.02 
 -17  -7   0   -5.19    6.70 
 -17  -7   0    5.21    6.58 
 -17  -7  -2   -3.64    5.85 
 -17  -7   2    2.08    6.34 
 -17  -7  -2   10.15    6.49 
 -17  -7   4    0.43    6.20 
 -17  -7  -4   10.65    6.22 
 -17  -7   6   20.80    6.25 
 -17  -7  -6   23.21    6.42 
 -17  -7   8  -12.62    5.15 
  17   7  -8    1.17    4.71 
 -17  -8  -1   17.80    6.78 
 -17  -8   1   13.53    6.49 
 -17  -8  -1   23.78    6.53 
 -17  -8   3   -1.58    5.37 
 -17  -8  -3    1.40    5.22 
 -17  -8   5   -0.45    5.19 
 -17  -8  -5    5.54    5.18 
  -8  17  -7   16.27    4.75 
 -17  -8   7   13.25    4.79 
  17   8  -7   20.06    5.39 
 -17  -9   2   -2.32    5.08 
 -17  -9  -2    3.41    4.71 
 -17  -9   4    2.77    4.21 
 -17  -9  -4    6.34    4.50 
 -18   7   1   13.79    4.67 
 -18   7   3   28.15    5.16 
 -18   6   0   29.36    5.72 
 -18   6   0   38.99    6.45 
 -18   6  -2    7.71    4.51 
 -18   6   2    0.28    4.21 
 -18   6   2    4.50    4.51 
 -18   6  -4    1.91    4.73 
 -18   6   4    1.78    4.56 
 -18   6  -6   -3.43    4.56 
 -18   6   6   -2.35    4.04 
 -18   5  -1   -3.33    5.55 
 -18   5   1    4.72    5.06 
 -18   5  -1    3.60    5.05 
 -18   5   1    5.78    5.65 
 -18   5  -3    0.29    5.55 
 -18   5  -3    3.12    4.32 
 -18   5   3    0.56    5.06 
 -18   5   3    3.08    5.33 
 -18   5  -5    9.06    5.53 
 -18   5   5    3.12    4.04 
 -18   5   5   11.46    5.30 
 -18   5  -7   -1.50    4.93 
 -18   5   7    3.69    4.33 
 -18   4   0   10.36    6.39 
 -18   4   0   10.72    6.19 
 -18   4  -2    4.40    5.81 
 -18   4   2   12.75    6.13 
 -18   4  -2    7.63    5.41 
 -18   4  -4   -5.90    6.10 
 -18   4   4    1.13    5.24 
 -18   4  -6   -0.19    5.60 
 -18   4   6   -3.03    4.84 
 -18   4   6    4.66    5.08 
 -18   4  -8    9.38    5.37 
 -18   4   8   14.65    4.83 
 -18   3  -1   24.91    7.30 
 -18   3   1   13.12    6.97 
 -18   3  -3   15.24    7.05 
 -18   3   3   17.01    6.71 
 -18   3  -3   24.36    6.14 
 -18   3  -5    1.90    6.07 
 -18   3   5   12.07    5.89 
 -18   3  -7   24.63    6.66 
 -18   3   7   27.12    5.90 
 -18   3  -9   15.13    5.53 
 -18   3   9    2.12    4.04 
 -18   2   0    7.54    7.01 
 -18   2  -2   15.64    7.39 
 -18   2   2   21.97    7.50 
 -18   2  -4    2.46    6.73 
 -18   2   4    0.53    6.31 
 -18   2  -4   -1.64    4.43 
 -18   2  -6   48.20    8.26 
 -18   2   6   25.26    6.92 
 -18   2  -8   -2.33    5.64 
 -18   2   8    3.63    5.06 
 -18   1  -1   -2.02    7.47 
 -18   1   1    3.29    7.08 
 -18   1  -3   89.25   10.44 
 -18   1   3   64.61    9.46 
 -18   1  -5   44.55    8.12 
 -18   1   5   40.60    7.98 
 -18   1  -7    5.36    6.17 
 -18   1   7    1.01    5.93 
 -18   1  -9   14.41    5.59 
 -18   1   9   17.10    5.49 
 -18   0   0   37.93    8.72 
 -18   0  -2   21.89    7.85 
 -18   0   2   26.21    8.12 
 -18   0  -4    0.59    6.35 
 -18   0   4    5.61    6.64 
 -18   0  -6   10.33    6.43 
 -18   0   6    0.76    6.29 
 -18   0  -8   22.38    6.06 
 -18   0   8   20.20    6.26 
 -18   0  10   20.74    5.27 
 -18  -1  -1   68.37    9.54 
 -18  -1   1   64.51    9.49 
 -18  -1  -3    5.23    6.33 
 -18  -1   3    2.13    6.66 
 -18  -1  -5   14.60    6.63 
 -18  -1   5   23.31    7.24 
 -18  -1  -7   36.11    6.42 
 -18  -1   7   28.31    6.94 
 -18  -1   9   14.94    5.50 
 -18  -2   0   78.04    9.72 
 -18  -2  -2    6.06    6.08 
 -18  -2   2    1.98    6.56 
 -18  -2  -4    2.53    5.74 
 -18  -2   4    5.37    6.54 
 -18  -2  -6   15.07    4.90 
 -18  -2   6    3.52    5.98 
 -18  -2   8   37.88    6.76 
 -18  -2  10    8.29    4.51 
 -18  -3  -1   13.28    6.01 
 -18  -3   1   12.97    6.21 
 -18  -3  -3   24.92    5.66 
 -18  -3   3   45.74    7.69 
 -18  -3   5   41.83    7.97 
 -18  -3   5   13.51    6.21 
 -18  -3   7    1.21    5.17 
 -18  -3   9   15.37    4.94 
 -18  -4   0   16.79    7.64 
 -18  -4   0    4.03    4.54 
 -18  -4   2   59.58    8.55 
 -18  -4   2   27.41    6.05 
 -18  -4   4   23.34    7.05 
 -18  -4   4    0.66    4.98 
  18   4  -6    4.26    4.32 
 -18  -4   6    4.42    4.76 
 -18  -5  -1   18.68    7.42 
 -18  -5   1   29.95    7.77 
 -18  -5   3   12.36    6.38 
 -18  -5   5   20.80    6.27 
  18   5  -5    3.05    4.56 
 -18  -5   7   29.25    5.70 
 -18  -6   0   42.72    7.96 
 -18  -6   2   -2.20    5.10 
 -18  -6   4    2.11    4.99 
 -18  -6   6   18.68    5.19 
 -18  -7   3    4.63    4.65 
 -19   4  -1    3.87    4.22 
 -19   4   1   -1.04    4.08 
 -19   3   0   -3.34    4.67 
 -19   3   0    0.13    4.18 
 -19   3  -2   -4.68    4.83 
 -19   3   2   -0.89    4.40 
 -19   3   2    1.94    4.31 
 -19   3  -4   39.00    5.97 
 -19   3   4   34.64    5.36 
 -19   2  -1   11.22    5.46 
 -19   2   1    4.53    5.19 
 -19   2  -1   10.23    4.60 
 -19   2  -3    5.48    5.00 
 -19   2   3    2.37    4.76 
 -19   2  -5    2.51    4.47 
 -19   2   5    2.86    4.16 
 -19   1   0    8.40    5.35 
 -19   1  -2   26.48    6.10 
 -19   1   2   22.12    5.92 
 -19   1  -4    6.30    5.13 
 -19   1   4    0.02    4.70 
 -19   1   6   15.70    4.68 
 -19   0  -1   -0.95    5.16 
 -19   0   1    2.82    5.32 
 -19   0  -3    6.60    5.08 
 -19   0   3    9.39    5.35 
 -19   0   5   34.37    5.96 
 -19  -1   0    3.82    5.16 
 -19  -1  -2   -5.77    5.14 
 -19  -1   2    4.23    5.06 
 -19  -1   4   31.44    5.94 
 -19  -1   6   14.51    5.01 
 -19  -2  -1   -1.38    4.20 
 -19  -2   1    2.02    4.55 
 -19  -2   3    3.77    4.28 
   0   0   0    0.00    0.00 
;
_shelx_hkl_checksum              16612
loop_
_space_group_symop_operation_xyz
'x, y, z'
'-x+1/2, -y, z+1/2'
'-y+3/4, x+1/4, z+1/4'
'y+3/4, -x+3/4, z+3/4'
'x+1/2, y+1/2, z+1/2'
'-x+1, -y+1/2, z+1'
'-y+5/4, x+3/4, z+3/4'
'y+5/4, -x+5/4, z+5/4'
'-x, -y, -z'
'x-1/2, y, -z-1/2'
'y-3/4, -x-1/4, -z-1/4'
'-y-3/4, x-3/4, -z-3/4'
'-x+1/2, -y+1/2, -z+1/2'
'x, y+1/2, -z'
'y-1/4, -x+1/4, -z+1/4'
'-y-1/4, x-1/4, -z-1/4'
loop_
_atom_site_label
_atom_site_type_symbol
_atom_site_fract_x
_atom_site_fract_y
_atom_site_fract_z
_atom_site_U_iso_or_equiv
_atom_site_adp_type
_atom_site_occupancy
_atom_site_site_symmetry_order
_atom_site_calc_flag
_atom_site_refinement_flags_posn
_atom_site_refinement_flags_adp
_atom_site_refinement_flags_occupancy
_atom_site_disorder_assembly
_atom_site_disorder_group
C1 C 0.6106(4) 0.7073(4) 0.2988(3) 0.0550(14) Uani 1 1 d . U . . .
C2 C 0.5199(4) 0.7050(5) 0.3204(4) 0.075(2) Uani 1 1 d . U . . .
H2A H 0.518195 0.681860 0.360572 0.090 Uiso 1 1 calc R U . . .
H2B H 0.486910 0.668002 0.294605 0.090 Uiso 1 1 calc R U . . .
C3 C 0.8673(4) 0.6532(4) 0.3688(2) 0.0474(12) Uani 1 1 d . U . . .
H3 H 0.875861 0.688492 0.401686 0.057 Uiso 1 1 calc R U . . .
C4 C 0.8252(3) 0.6133(3) 0.2845(2) 0.0438(11) Uani 1 1 d D U . . .
C5 C 0.8687(4) 0.5479(3) 0.3111(2) 0.0529(14) Uani 1 1 d D U . . .
C6 C 0.8187(9) 0.5392(9) 0.1959(6) 0.059(4) Uani 0.5 1 d D U P A 1
H6 H 0.799875 0.534081 0.156590 0.070 Uiso 0.5 1 calc R U P A 1
C7 C 0.8894(11) 0.4776(8) 0.2779(6) 0.081(5) Uani 0.5 1 d D U P A 1
N2 N 0.7976(16) 0.6096(10) 0.2266(6) 0.048(4) Uani 0.5 1 d D U P A 1
N3 N 0.8655(9) 0.4763(9) 0.2189(5) 0.067(4) Uani 0.5 1 d D U P A 1
N4 N 0.9354(19) 0.4119(13) 0.3005(10) 0.111(9) Uani 0.5 1 d D U P A 1
H4A H 0.949284 0.369915 0.277825 0.133 Uiso 0.5 1 calc R U P A 1
H4B H 0.950685 0.412241 0.337426 0.133 Uiso 0.5 1 calc R U P A 1
C6' C 0.7827(11) 0.5271(9) 0.2065(7) 0.069(5) Uani 0.5 1 d D U P A 2
H6' H 0.753463 0.518695 0.170784 0.083 Uiso 0.5 1 calc R U P A 2
C7' C 0.8670(11) 0.4697(7) 0.2835(6) 0.087(5) Uani 0.5 1 d D U P A 2
N2' N 0.7808(17) 0.6045(10) 0.2322(8) 0.058(6) Uani 0.5 1 d D U P A 2
N3' N 0.8251(11) 0.4620(8) 0.2304(6) 0.076(5) Uani 0.5 1 d D U P A 2
N4' N 0.908(2) 0.4011(11) 0.3062(11) 0.124(11) Uani 0.5 1 d D U P A 2
H4'1 H 0.907337 0.353686 0.287163 0.149 Uiso 0.5 1 calc R U P A 2
H4'2 H 0.934742 0.405128 0.339666 0.149 Uiso 0.5 1 calc R U P A 2
N1 N 0.8246(3) 0.6789(3) 0.32028(19) 0.0407(9) Uani 1 1 d . U . . .
N5 N 0.8968(3) 0.5743(3) 0.36712(19) 0.0458(10) Uani 1 1 d . U . . .
O1 O 0.6607(3) 0.7468(3) 0.33188(19) 0.0593(11) Uani 1 1 d . U . . .
O2 O 0.6274(3) 0.6792(3) 0.24795(18) 0.0569(11) Uani 1 1 d . U . . .
Cu1 Cu 0.77360(5) 0.79185(5) 0.30496(3) 0.0388(3) Uani 1 1 d . U . . .
O1WA O 0.8836(15) 0.3780(15) 0.1670(11) 0.170(7) Uiso 0.5 1 d . U P B 1
O1WB O 0.772(2) 0.319(3) 0.174(2) 0.287(16) Uiso 0.5 1 d . U P C 2
O1WC O 0.944(3) 0.380(3) 0.128(2) 0.188(15) Uiso 0.25 1 d . U P D 3
O2WA O 1.000000 0.250000 0.243(2) 0.30(2) Uiso 0.7 2 d S U P E 4
O2WB O 0.882(4) 0.208(3) 0.266(2) 0.259(19) Uiso 0.35 1 d . U P F 5
O2WC O 0.939(6) 0.231(5) 0.249(4) 0.17(2) Uiso 0.15 1 d . U P G 6
O3W O 0.915(2) 0.407(2) 0.0626(17) 0.262(14) Uiso 0.5 1 d . U P H 7
O4W O 0.821(5) 0.384(4) -0.041(3) 0.29(3) Uiso 0.25 1 d . U P I 8
O5W O 0.745(3) 0.394(4) 0.085(3) 0.21(2) Uiso 0.25 1 d . U P J 9
O6W O 0.760(4) 0.392(4) 0.033(3) 0.218(19) Uiso 0.25 1 d . U P K 10
O7W O 0.802(7) 0.194(6) 0.269(5) 0.21(3) Uiso 0.15 1 d . U P L 11
loop_
_atom_site_aniso_label
_atom_site_aniso_U_11
_atom_site_aniso_U_22
_atom_site_aniso_U_33
_atom_site_aniso_U_23
_atom_site_aniso_U_13
_atom_site_aniso_U_12
C1 0.043(3) 0.071(4) 0.051(3) 0.009(3) -0.005(3) -0.006(3)
C2 0.042(3) 0.100(6) 0.083(5) 0.009(4) -0.004(3) -0.008(3)
C3 0.053(3) 0.050(3) 0.039(3) 0.009(2) -0.015(2) 0.001(2)
C4 0.042(3) 0.044(3) 0.046(3) 0.009(2) -0.004(2) 0.004(2)
C5 0.072(4) 0.042(3) 0.045(3) 0.003(2) -0.009(3) 0.010(2)
C6 0.061(9) 0.047(7) 0.068(7) -0.019(6) -0.022(7) 0.012(6)
C7 0.118(12) 0.062(8) 0.062(7) -0.006(6) -0.018(8) 0.043(8)
N2 0.063(10) 0.038(6) 0.043(5) -0.002(4) -0.003(5) 0.008(5)
N3 0.087(10) 0.058(7) 0.055(6) -0.017(5) -0.012(6) 0.024(6)
N4 0.157(19) 0.083(13) 0.092(13) -0.015(11) -0.031(12) 0.081(14)
C6' 0.086(12) 0.051(7) 0.069(8) -0.013(6) -0.023(8) 0.015(8)
C7' 0.149(14) 0.049(6) 0.062(8) -0.001(6) -0.042(9) 0.019(8)
N2' 0.063(11) 0.050(7) 0.061(8) -0.013(6) -0.026(8) 0.013(7)
N3' 0.114(12) 0.048(6) 0.065(8) -0.013(6) -0.035(8) 0.015(7)
N4' 0.24(3) 0.038(7) 0.097(15) -0.008(8) -0.084(16) 0.037(10)
N1 0.042(2) 0.042(2) 0.038(2) 0.0075(18) -0.0109(18) 0.0069(17)
N5 0.055(3) 0.048(2) 0.035(2) 0.0078(19) -0.012(2) 0.000(2)
O1 0.041(2) 0.084(3) 0.054(2) -0.009(2) -0.0020(18) -0.007(2)
O2 0.054(2) 0.071(3) 0.046(2) 0.000(2) -0.0070(18) -0.016(2)
Cu1 0.0418(5) 0.0413(4) 0.0332(4) -0.0015(3) -0.0128(3) 0.0026(3)
loop_
_atom_type_symbol
_atom_type_description
_atom_type_scat_dispersion_real
_atom_type_scat_dispersion_imag
_atom_type_scat_source
C C 0.0181 0.0091 'International Tables Vol C Tables 4.2.6.8 and 6.1.1.4'
H H 0.0000 0.0000 'International Tables Vol C Tables 4.2.6.8 and 6.1.1.4'
N N 0.0311 0.0180 'International Tables Vol C Tables 4.2.6.8 and 6.1.1.4'
O O 0.0492 0.0322 'International Tables Vol C Tables 4.2.6.8 and 6.1.1.4'
Cu Cu -1.9646 0.5888 'International Tables Vol C Tables 4.2.6.8 and 6.1.1.4'
loop_
_geom_angle_atom_site_label_1
_geom_angle_atom_site_label_2
_geom_angle_atom_site_label_3
_geom_angle
_geom_angle_site_symmetry_1
_geom_angle_site_symmetry_3
_geom_angle_publ_flag
O1 C1 O2 125.6(6) . . ?
O1 C1 C2 114.9(6) . . ?
O2 C1 C2 119.0(6) . . ?
C1 C2 C2 111.2(7) . 6_564 ?
C1 C2 H2A 109.4 . . ?
C2 C2 H2A 109.4 6_564 . ?
C1 C2 H2B 109.4 . . ?
C2 C2 H2B 109.4 6_564 . ?
H2A C2 H2B 108.0 . . ?
N5 C3 N1 115.8(5) . . ?
N5 C3 H3 122.1 . . ?
N1 C3 H3 122.1 . . ?
N1 C4 N2 127.6(7) . . ?
N1 C4 N2' 126.8(7) . . ?
N1 C4 C5 109.4(4) . . ?
N2 C4 C5 122.5(7) . . ?
N2' C4 C5 123.3(7) . . ?
C4 C5 C7 119.3(7) . . ?
C4 C5 C7' 117.8(7) . . ?
C4 C5 N5 108.9(4) . . ?
C7 C5 N5 130.7(7) . . ?
C7' C5 N5 132.6(7) . . ?
N3 C6 N2 123.3(9) . . ?
N3 C6 H6 118.3 . . ?
N2 C6 H6 118.3 . . ?
N4 C7 N3 119.5(10) . . ?
N4 C7 C5 122.6(10) . . ?
N3 C7 C5 117.8(8) . . ?
C6 N2 C4 116.0(8) . . ?
C6 N2 Cu1 125.9(8) . 13_665 ?
C4 N2 Cu1 118.0(8) . 13_665 ?
C6 N3 C7 120.7(8) . . ?
C7 N4 H4A 120.0 . . ?
C7 N4 H4B 120.0 . . ?
H4A N4 H4B 120.0 . . ?
N3' C6' N2' 122.2(9) . . ?
N3' C6' H6' 118.9 . . ?
N2' C6' H6' 118.9 . . ?
N4' C7' N3' 119.0(10) . . ?
N4' C7' C5 122.3(10) . . ?
N3' C7' C5 118.6(8) . . ?
C6' N2' C4 116.4(8) . . ?
C6' N2' Cu1 124.3(8) . 13_665 ?
C4 N2' Cu1 119.1(9) . 13_665 ?
C6' N3' C7' 121.5(9) . . ?
C7' N4' H4'1 120.0 . . ?
C7' N4' H4'2 120.0 . . ?
H4'1 N4' H4'2 120.0 . . ?
C4 N1 C3 104.7(4) . . ?
C4 N1 Cu1 127.4(3) . . ?
C3 N1 Cu1 127.9(4) . . ?
C3 N5 C5 101.2(4) . . ?
C3 N5 Cu1 118.8(4) . 16_756 ?
C5 N5 Cu1 139.7(4) . 16_756 ?
C1 O1 Cu1 124.0(4) . . ?
C1 O2 Cu1 128.3(4) . 13_665 ?
N1 Cu1 O1 89.43(19) . . ?
N1 Cu1 O2 89.48(19) . 13_665 ?
O1 Cu1 O2 160.76(17) . 13_665 ?
N1 Cu1 N2' 165.3(4) . 13_665 ?
O1 Cu1 N2' 91.9(9) . 13_665 ?
O2 Cu1 N2' 84.5(9) 13_665 13_665 ?
N1 Cu1 N2 164.9(5) . 13_665 ?
O1 Cu1 N2 83.4(8) . 13_665 ?
O2 Cu1 N2 92.9(8) 13_665 13_665 ?
N1 Cu1 N5 96.50(18) . 11_676 ?
O1 Cu1 N5 104.20(17) . 11_676 ?
O2 Cu1 N5 95.00(17) 13_665 11_676 ?
N2 Cu1 N5 98.2(4) 13_665 11_676 ?
N1 Cu1 Cu1 80.89(13) . 13_665 ?
O1 Cu1 Cu1 82.28(12) . 13_665 ?
O2 Cu1 Cu1 78.58(12) 13_665 13_665 ?
N2' Cu1 Cu1 84.8(3) 13_665 13_665 ?
N2 Cu1 Cu1 84.9(3) 13_665 13_665 ?
N5 Cu1 Cu1 173.05(13) 11_676 13_665 ?
loop_
_geom_bond_atom_site_label_1
_geom_bond_atom_site_label_2
_geom_bond_distance
_geom_bond_site_symmetry_2
_geom_bond_publ_flag
C1 O1 1.247(7) . ?
C1 O2 1.248(8) . ?
C1 C2 1.506(9) . ?
C2 C2 1.549(16) 6_564 ?
C2 H2A 0.9700 . ?
C2 H2B 0.9700 . ?
C3 N5 1.327(7) . ?
C3 N1 1.339(6) . ?
C3 H3 0.9300 . ?
C4 N1 1.307(7) . ?
C4 N2 1.367(11) . ?
C4 N2' 1.368(11) . ?
C4 C5 1.372(6) . ?
C5 C7 1.372(11) . ?
C5 C7' 1.376(11) . ?
C5 N5 1.391(7) . ?
C6 N3 1.338(11) . ?
C6 N2 1.345(11) . ?
C6 H6 0.9300 . ?
C7 N4 1.360(14) . ?
C7 N3 1.370(11) . ?
N2 Cu1 2.039(12) 13_665 ?
N4 H4A 0.8600 . ?
N4 H4B 0.8600 . ?
C6' N3' 1.335(11) . ?
C6' N2' 1.349(12) . ?
C6' H6' 0.9300 . ?
C7' N4' 1.357(14) . ?
C7' N3' 1.362(11) . ?
N2' Cu1 2.021(13) 13_665 ?
N4' H4'1 0.8600 . ?
N4' H4'2 0.8600 . ?
N1 Cu1 1.981(4) . ?
N5 Cu1 2.145(4) 16_756 ?
O1 Cu1 2.007(4) . ?
O2 Cu1 2.009(4) 13_665 ?
Cu1 Cu1 2.8852(14) 13_665 ?
