#------------------------------------------------------------------------------
#$Date: 2021-10-03 22:08:13 +0300 (Sun, 03 Oct 2021) $
#$Revision: 269464 $
#$URL: file:///home/coder/svn-repositories/cod/cif/4/51/90/4519037.cif $
#------------------------------------------------------------------------------
#
# This file is available in the Crystallography Open Database (COD),
# http://www.crystallography.net/
#
# All data on this site have been placed in the public domain by the
# contributors.
#
data_4519037
loop_
_publ_author_name
'Zhang, Zong-Hui'
'Fang, Han'
'Xue, Dong-Xu'
'Bai, Junfeng'
_publ_section_title
;
 Tuning Open Metal Site-Free <b>ncb</b> Type of Metal-Organic Frameworks
 for Simultaneously High Gravimetric and Volumetric Methane Storage
 Working Capacities.
;
_journal_issue                   37
_journal_name_full               'ACS applied materials &amp; interfaces'
_journal_page_first              44956
_journal_page_last               44963
_journal_paper_doi               10.1021/acsami.1c13757
_journal_volume                  13
_journal_year                    2021
_chemical_formula_moiety         'C60 H39 Fe3 N9 O16'
_chemical_formula_sum            'C60 H39 Fe3 N9 O16'
_chemical_formula_weight         1309.55
_space_group_crystal_system      cubic
_space_group_IT_number           217
_space_group_name_Hall           'I -4 2 3'
_space_group_name_H-M_alt        'I -4 3 m'
_atom_sites_solution_hydrogens   geom
_atom_sites_solution_primary     iterative
_audit_creation_date             2021-06-03
_audit_creation_method
;
Olex2 1.3
(compiled 2020.11.12 svn.r5f609507 for OlexSys, GUI svn.r6272)
;
_cell_angle_alpha                90
_cell_angle_beta                 90
_cell_angle_gamma                90
_cell_formula_units_Z            8
_cell_length_a                   33.5266(5)
_cell_length_b                   33.5266(5)
_cell_length_c                   33.5266(5)
_cell_measurement_reflns_used    8089
_cell_measurement_temperature    243(2)
_cell_measurement_theta_max      39.28
_cell_measurement_theta_min      3.23
_cell_volume                     37685.0(10)
_computing_cell_refinement       'SAINT V8.40A (Bruker, 2019)'
_computing_data_reduction        'SAINT V8.40A (Bruker, 2019)'
_computing_molecular_graphics    'Olex2 1.3 (Dolomanov et al., 2009)'
_computing_publication_material  'Olex2 1.3 (Dolomanov et al., 2009)'
_computing_structure_refinement  'XL  (Sheldrick, 2008)'
_computing_structure_solution    'olex2.solve 1.3 (Bourhis et al., 2015)'
_diffrn_ambient_temperature      243.0
_diffrn_measured_fraction_theta_full 0.998
_diffrn_measured_fraction_theta_max 0.997
_diffrn_measurement_device_type  'Bruker APEX-II CCD'
_diffrn_measurement_method       '\f and \w scans'
_diffrn_radiation_type           CuK\a
_diffrn_radiation_wavelength     1.54178
_diffrn_reflns_av_R_equivalents  0.0400
_diffrn_reflns_av_unetI/netI     0.0394
_diffrn_reflns_Laue_measured_fraction_full 0.998
_diffrn_reflns_Laue_measured_fraction_max 0.997
_diffrn_reflns_limit_h_max       23
_diffrn_reflns_limit_h_min       -22
_diffrn_reflns_limit_k_max       14
_diffrn_reflns_limit_k_min       -26
_diffrn_reflns_limit_l_max       27
_diffrn_reflns_limit_l_min       -6
_diffrn_reflns_number            16844
_diffrn_reflns_point_group_measured_fraction_full 0.986
_diffrn_reflns_point_group_measured_fraction_max 0.984
_diffrn_reflns_theta_full        39.522
_diffrn_reflns_theta_max         39.522
_diffrn_reflns_theta_min         1.863
_diffrn_source_current           50.0
_diffrn_source_power             2.5
_diffrn_source_voltage           50.0
_diffrn_standards_number         0
_exptl_absorpt_coefficient_mu    2.035
_exptl_absorpt_correction_T_max  0.7478
_exptl_absorpt_correction_T_min  0.6341
_exptl_absorpt_correction_type   none
_exptl_absorpt_process_details
;
SADABS-2016/2 (Bruker,2016/2) was used for absorption correction.
wR2(int) was 0.1012 before and 0.0861 after correction.
The Ratio of minimum to maximum transmission is 0.8480.
The \l/2 correction factor is Not present.
;
_exptl_crystal_colour            black
_exptl_crystal_colour_primary    black
_exptl_crystal_density_diffrn    0.462
_exptl_crystal_description       Polyhedron
_exptl_crystal_F_000             5344
_exptl_crystal_size_max          0.15
_exptl_crystal_size_mid          0.15
_exptl_crystal_size_min          0.15
_refine_diff_density_max         0.656
_refine_diff_density_min         -0.651
_refine_diff_density_rms         0.063
_refine_ls_abs_structure_details
;
 Flack x determined using 798 quotients [(I+)-(I-)]/[(I+)+(I-)]
 (Parsons, Flack and Wagner, Acta Cryst. B69 (2013) 249-259).
;
_refine_ls_abs_structure_Flack   0.430(15)
_refine_ls_extinction_method     none
_refine_ls_goodness_of_fit_ref   1.292
_refine_ls_hydrogen_treatment    constr
_refine_ls_matrix_type           full
_refine_ls_number_parameters     241
_refine_ls_number_reflns         2035
_refine_ls_number_restraints     848
_refine_ls_restrained_S_all      1.113
_refine_ls_R_factor_all          0.0879
_refine_ls_R_factor_gt           0.0836
_refine_ls_shift/su_max          0.003
_refine_ls_shift/su_mean         0.000
_refine_ls_structure_factor_coef Fsqd
_refine_ls_weighting_details
'w=1/[\s^2^(Fo^2^)+(0.1062P)^2^+314.0114P] where P=(Fo^2^+2Fc^2^)/3'
_refine_ls_weighting_scheme      calc
_refine_ls_wR_factor_gt          0.2322
_refine_ls_wR_factor_ref         0.2361
_reflns_Friedel_coverage         0.827
_reflns_Friedel_fraction_full    0.971
_reflns_Friedel_fraction_max     0.968
_reflns_number_gt                1891
_reflns_number_total             2035
_reflns_threshold_expression     'I > 2\s(I)'
_cod_data_source_file            am1c13757_si_004.cif
_cod_data_source_block           a
_cod_original_cell_volume        37685.0(17)
_cod_database_code               4519037
_shelx_shelxl_version_number     2014/7
_shelx_space_group_comment
;
The symmetry employed for this shelxl refinement is uniquely defined
by the following loop, which should always be used as a source of
symmetry information in preference to the above space-group names.
They are only intended as comments.
;
_shelx_estimated_absorpt_t_max   0.750
_shelx_estimated_absorpt_t_min   0.750
_olex2_refinement_description
;
1. Restrained distances
 C00J-N00F
 1.5 with sigma of 0.05
 C13-C00J = C00J-N00F
 1.43 with sigma of 0.02
 C00I-C15 = C15-C5
 1.43 with sigma of 0.02
 N00F-N00F_$1
 1.43 with sigma of 0.01
 C15-C5 = C5-C13
 1.43 with sigma of 0.02
 C5-C13 = C13-C00J
 1.43 with sigma of 0.02
 C8-C7
 1.43 with sigma of 0.02
 C39-C96 = C96-C00B
 1.43 with sigma of 0.02
 N3-C39 = C39-C96
 1.43 with sigma of 0.02
 O5-C8
 1.43 with sigma of 0.02
 N00A-C8
 1.43 with sigma of 0.02
 N00A-C00B
 1.43 with sigma of 0.02
 N3-C39
 1.43 with sigma of 0.001
 N00F-N1
 1.25 with sigma of 0.001
 O05-C00I
 1.239 with sigma of 0.01
 C11-C00I_$3
 1.482 with sigma of 0.001
 C13-N00F
 2.477 with sigma of 0.04
 C00I-C5
 2.477 with sigma of 0.04
 C5-C00J
 2.477 with sigma of 0.04
 C15-C13
 2.477 with sigma of 0.04
 C39-C00B
 2.477 with sigma of 0.04
 N3-C96
 2.477 with sigma of 0.04
 C8-C1 \\sim C8-C21
 with sigma of 0.02
 C6-C00I \\sim C5-C00I
 with sigma of 0.02
 N1-C4 \\sim N1-C14
 with sigma of 0.02
 N00F-C9 \\sim N00F-C13
 with sigma of 0.02
2. Restrained planarity
 N00F, C00J, C13, C5, C15
 with sigma of 0.1
 N1, C12, C4, C3, C11, C10, C14
 with sigma of 0.1
 N00F, C15, C6, C9, C00J, C13, C5
 with sigma of 0.1
 C00I, C15, C6, C9, C00J, C13, C5, N00F
 with sigma of 0.1
3. Uiso/Uaniso restraints and constraints
C39 \\sim C96 \\sim C00B \\sim N3 \\sim N00A: within 2A with sigma of 0.04 and
sigma for terminal atoms of 0.08 within 2A
C00I \\sim C15 \\sim C6 \\sim C9 \\sim C00J \\sim C13 \\sim C5 \\sim C009 \\sim
C00B \\sim C39 \\sim C96 \\sim C8 \\sim C7 \\sim C21 \\sim C23 \\sim C00P \\sim
C2 \\sim C1 \\sim C12 \\sim C4 \\sim C3 \\sim C11 \\sim C10 \\sim C14 \\sim N3
\\sim N00A \\sim N00F \\sim N1: within 3.8A with sigma of 0.01 and sigma for
terminal atoms of 0.02 within 3.8A
Uanis(C23) \\sim Ueq, Uanis(C009) \\sim Ueq, Uanis(C21) \\sim Ueq, Uanis(C00P)
\\sim Ueq, Uanis(C39) \\sim Ueq, Uanis(C00J) \\sim Ueq: with sigma of 0.01 and
sigma for terminal atoms of 0.02
Uanis(C1) \\sim Ueq: with sigma of 0.01 and sigma for terminal atoms of 0.02
Uanis(C96) \\sim Ueq: with sigma of 0.01 and sigma for terminal atoms of 0.02
Uanis(O03) \\sim Ueq: with sigma of 0.01 and sigma for terminal atoms of 0.02
Uanis(C00I) \\sim Ueq, Uanis(O03) \\sim Ueq: with sigma of 0.001 and sigma for
terminal atoms of 0.002
Uanis(N3) \\sim Ueq: with sigma of 0.01 and sigma for terminal atoms of 0.02
Uanis(C2) \\sim Ueq: with sigma of 0.01 and sigma for terminal atoms of 0.02
4. Rigid body (RIGU) restrains
 C00J, C00I, N00F, C13, C5, C15, O05
 with sigma for 1-2 distances of 0.004 and sigma for 1-3 distances of 0.004
 C00P, C23, C21, C7, C2, C1, C8, O5, N00A, C00B, C96
 with sigma for 1-2 distances of 0.004 and sigma for 1-3 distances of 0.004
 C009, O02, Fe00
 with sigma for 1-2 distances of 0.004 and sigma for 1-3 distances of 0.004
 C23, C00P, C2, C1, C7, C21
 with sigma for 1-2 distances of 0.004 and sigma for 1-3 distances of 0.004
 C5, N00F, C15, C00J, C13, C3, C4, C6, C9, C10, N1, C11, C12, C14, C00I
 with sigma for 1-2 distances of 0.004 and sigma for 1-3 distances of 0.004
5. Others
 Fixed Sof: N00A(0.5) H00A(0.5) N00F(0.25) C15(0.25) C6(0.25) H6(0.25)
 C9(0.25) H9(0.25) C00J(0.25) C13(0.25) H13(0.25) C5(0.25) H5(0.25) O5(0.5)
 C8(0.5) C7(0.5) C21(0.5) H21(0.5) C23(0.5) H23(0.5) C00P(0.5) C2(0.5) H2(0.5)
 C1(0.5) H1(0.5) N1(0.25) C12(0.25) C4(0.25) H4(0.25) C3(0.25) H3(0.25)
 C11(0.25) C10(0.25) H10(0.25) C14(0.25) H14(0.25)
6.a Aromatic/amide H refined with riding coordinates:
 N00A(H00A), C6(H6), C9(H9), C13(H13), C5(H5), C39(H39), C96(H96), C21(H21),
 C23(H23), C2(H2), C1(H1), C4(H4), C3(H3), C10(H10), C14(H14)
6.b Fitted hexagon refined as free rotating group:
 C15(C6,C9,C00J,C13,C5), C7(C21,C23,C00P,C2,C1), C12(C4,C3,C11,C10,C14)
;
_smtbx_masks_void_probe_radius   1.2
_smtbx_masks_void_truncation_radius 1.2
_shelx_res_file
;
    a.res created by SHELXL-2014/7

TITL a_a.res in I-43m
REM <autosolution>
REM {'C00U': 'AtomInfo()', 'C00T': 'AtomInfo()', 'C00W': 'AtomInfo()',
REM 'C00V': 'AtomInfo()', 'C00P': 'AtomInfo()', 'N008': 'AtomInfo()',
REM 'N009': 'AtomInfo()', 'N006': 'AtomInfo()', 'N007': 'AtomInfo()',
REM 'C00M': 'AtomInfo()', 'C00L': 'AtomInfo()', 'C00O': 'AtomInfo()',
REM 'C00N': 'AtomInfo()', 'C00S': 'AtomInfo()', 'I001': 'AtomInfo()',
REM 'O00E': 'AtomInfo()', 'N00G': 'AtomInfo()', 'O00Q': 'AtomInfo()',
REM 'O00R': 'AtomInfo()', 'FE03': 'AtomInfo()', 'FE02': 'AtomInfo()',
REM 'FE05': 'AtomInfo()', 'FE04': 'AtomInfo()', 'O00A': 'AtomInfo()',
REM 'O00C': 'AtomInfo()', 'N00J': 'AtomInfo()', 'N00K': 'AtomInfo()',
REM 'O00F': 'AtomInfo()', 'O00I': 'AtomInfo()', 'O00H': 'AtomInfo()',
REM 'N00D': 'AtomInfo()', 'N00B': 'AtomInfo()'}
REM </autosolution>
CELL 1.54178 33.5266 33.5266 33.5266 90 90 90
ZERR 8 0.0005 0.0005 0.0005 0 0 0
LATT -2
SYMM -X,+Z,-Y
SYMM -X,-Z,+Y
SYMM -Z,-Y,+X
SYMM +Z,-Y,-X
SYMM +Y,-X,-Z
SYMM -Y,+X,-Z
SYMM +Z,+X,+Y
SYMM +Y,+Z,+X
SYMM -Y,-Z,+X
SYMM +Z,-X,-Y
SYMM -Y,+Z,-X
SYMM -Z,-X,+Y
SYMM -Z,+X,-Y
SYMM +Y,-Z,-X
SYMM +X,-Y,-Z
SYMM -X,+Y,-Z
SYMM -X,-Y,+Z
SYMM -Y,-X,+Z
SYMM +Y,+X,+Z
SYMM -Z,+Y,-X
SYMM +Z,+Y,+X
SYMM +X,-Z,-Y
SYMM +X,+Z,+Y
SFAC C H Fe N O
UNIT 480 312 24 72 128
EQIV $1 +Y,+X,+Z
EQIV $2 1-Y,1-X,+Z
EQIV $3 1-X,1-Y,+Z
DFIX 1.5 0.05 C00J N00F
DANG 2.477 C13 N00F
DANG 2.477 C00I C5
DFIX 1.43 C13 C00J C00J N00F
DANG 2.477 C5 C00J
DFIX 1.43 C00I C15 C15 C5
DFIX 1.43 0.01 N00F N00F_$1
FLAT N00F C00J C13 C5 C15
DANG 2.477 C15 C13
DFIX 1.43 C15 C5 C5 C13
RIGU C00J C00I N00F C13 C5 C15 O05
DFIX 1.43 C5 C13 C13 C00J
DFIX 1.43 C8 C7
RIGU C00P C23 C21 C7 C2 C1 C8 O5 N00A C00B C96
DFIX 1.43 C39 C96 C96 C00B
DANG 2.477 C39 C00B
DANG 2.477 N3 C96
DFIX 1.43 N3 C39 C39 C96
DFIX 1.43 O5 C8
DFIX 1.43 N00A C8
DFIX 1.43 N00A C00B
DFIX 1.43 0.001 N3 C39
RIGU C009 O02 Fe00
RIGU C23 C00P C2 C1 C7 C21
ISOR 0.01 0.02 C23 C009 C21 C00P C39 C00J
ISOR 0.01 0.02 C1
ISOR 0.01 0.02 C96
ISOR 0.01 0.02 O03
ISOR 0.001 0.002 C00I O03
ISOR 0.01 0.02 N3
SIMU C39 C96 C00B N3 N00A
SADI C8 C1 C8 C21
ISOR 0.01 0.02 C2
DFIX 1.25 0.001 N00F N1
RIGU C5 N00F C15 C00J C13 C3 C4 C6 C9 C10 N1 C11 C12 C14 C00I
SADI C6 C00I C5 C00I
FLAT N1 C12 C4 C3 C11 C10 C14
SADI N1 C4 N1 C14
FLAT N00F C15 C6 C9 C00J C13 C5
SADI N00F C9 N00F C13
FLAT C00I C15 C6 C9 C00J C13 C5 N00F
SIMU 0.01 0.02 3.8 $C $N
DFIX 1.239 0.01 O05 C00I
DFIX 1.482 0.001 C11 C00I_$3

L.S. 99
PLAN  2
SIZE 0.15 0.15 0.15
TEMP -30.15
CONF
FREE C5 C00I_$2
FREE C5 C00I
FREE N1 C14
FREE N1 C4
FREE O05 C15
FREE N00F C13
FREE N00F C9
FREE C6 C00I_$2
FREE C6 C00I
FREE C8 C21
FREE C8 C1
MORE -1
ABIN
BOND $H
fmap 2
acta
REM <olex2.extras>
REM <HklSrc "%.\\a.hkl">
REM </olex2.extras>

WGHT    0.106200  314.011414
FVAR       0.11514
FE00  3    0.644660    0.286483    0.713517    10.50000    0.03757    0.03886 =
         0.03886    0.00233   -0.00682    0.00682
O02   5    0.668418    0.283479    0.773194    11.00000    0.08656    0.08722 =
         0.03961    0.01276   -0.00774   -0.03168
O03   5    0.692300    0.307700    0.692300    10.16667    0.04151    0.04151 =
         0.04151    0.00010   -0.00010    0.00010
N3    4    0.586788    0.263326    0.736674    10.50000    0.10259    0.10768 =
         0.10768    0.00479    0.00478   -0.00478
O05   5    0.615771    0.339041    0.722729    11.00000    0.01785    0.07486 =
         0.14260   -0.02138    0.01882    0.00395
PART -1
N00A  4    0.480660    0.217751    0.776247    10.50000    0.10452    0.10851 =
         0.10561    0.00527    0.00124   -0.00122
AFIX  43
H00A  2    0.468470    0.206656    0.756205    10.50000   -1.20000
AFIX   0
N00F  4    0.532623    0.502979    0.731728    10.25000    0.06472    0.06565 =
         0.05998   -0.00034   -0.00038   -0.00179
PART 0
C00I  1    0.627490    0.372510    0.729184    10.50000    0.06045    0.06045 =
         0.05988   -0.00002    0.00002   -0.00011
PART -1
AFIX  66
C15   1    0.604024    0.403942    0.729780    10.25000    0.06362    0.06395 =
         0.05971   -0.00141    0.00125   -0.00001
C6    1    0.620752    0.441848    0.728317    10.25000    0.06409    0.06430 =
         0.05993   -0.00089    0.00043   -0.00111
AFIX  43
H6    2    0.648591    0.444839    0.726857    10.25000   -1.20000
AFIX  65
C9    1    0.596314    0.475332    0.729012    10.25000    0.06404    0.06429 =
         0.05979   -0.00034    0.00044   -0.00188
AFIX  43
H9    2    0.607627    0.500967    0.728023    10.25000   -1.20000
AFIX  65
C00J  1    0.555148    0.470911    0.731169    10.25000    0.06477    0.06452 =
         0.06055   -0.00129    0.00032   -0.00151
C13   1    0.538419    0.433004    0.732632    10.25000    0.06419    0.06419 =
         0.06054   -0.00042    0.00094   -0.00102
AFIX  43
H13   2    0.510579    0.430014    0.734092    10.25000   -1.20000
AFIX  65
C5    1    0.562856    0.399520    0.731938    10.25000    0.06390    0.06378 =
         0.06010   -0.00126    0.00070   -0.00041
AFIX  43
H5    2    0.551542    0.373885    0.732927    10.25000   -1.20000
AFIX   0
PART 0
C009  1    0.687550    0.312450    0.787070    10.50000    0.05636    0.05636 =
         0.04123    0.00689   -0.00689   -0.00624
C00B  1    0.519518    0.232507    0.767493    10.50000    0.10519    0.10679 =
         0.10679    0.00746    0.00226   -0.00226
C39   1    0.578684    0.272831    0.777456    11.00000    0.10565    0.11113 =
         0.10721    0.00435    0.00244   -0.00190
AFIX  43
H39   2    0.597589    0.285154    0.794094    11.00000   -1.20000
AFIX   0
C96   1    0.539158    0.262051    0.791224    11.00000    0.10328    0.10896 =
         0.10479    0.00559    0.00353   -0.00239
AFIX  43
H96   2    0.527366    0.273542    0.813918    11.00000   -1.20000
AFIX   0
PART -1
O5    5    0.475792    0.246816    0.837972    10.50000    0.09294    0.07217 =
         0.08199    0.03334   -0.00849    0.01788
C8    1    0.458596    0.218215    0.812388    10.50000    0.10637    0.10836 =
         0.10646    0.00684    0.00162   -0.00080
AFIX  66
C7    1    0.417170    0.210486    0.815441    10.50000    0.10530    0.10771 =
         0.10540    0.00735    0.00119    0.00005
C21   1    0.400775    0.179281    0.793616    10.50000    0.10664    0.10744 =
         0.10617    0.00669    0.00092   -0.00009
AFIX  43
H21   2    0.417533    0.160861    0.780733    10.50000   -1.20000
AFIX  65
C23   1    0.359599    0.175314    0.790840    10.50000    0.10613    0.10667 =
         0.10567    0.00617    0.00241    0.00026
AFIX  43
H23   2    0.348512    0.154212    0.776080    10.50000   -1.20000
AFIX  65
C00P  1    0.334818    0.202551    0.809891    10.50000    0.10519    0.10836 =
         0.10569    0.00580    0.00110   -0.00003
C2    1    0.351213    0.233756    0.831716    10.50000    0.10622    0.10727 =
         0.10563    0.00563    0.00098    0.00014
AFIX  43
H2    2    0.334454    0.252176    0.844599    10.50000   -1.20000
AFIX  65
C1    1    0.392388    0.237724    0.834493    10.50000    0.10601    0.10807 =
         0.10627    0.00500    0.00117   -0.00075
AFIX  43
H1    2    0.403475    0.258826    0.849253    10.50000   -1.20000
AFIX   0
N1    4    0.500241    0.512688    0.716002    10.25000    0.06477    0.06508 =
         0.05934   -0.00107   -0.00049   -0.00286
AFIX  66
C12   1    0.466814    0.543116    0.718382    10.25000    0.06425    0.06575 =
         0.05859   -0.00091   -0.00115   -0.00303
C4    1    0.475711    0.583085    0.724879    10.25000    0.06469    0.06541 =
         0.05841   -0.00030   -0.00084   -0.00344
AFIX  43
H4    2    0.502388    0.591220    0.727761    10.25000   -1.20000
AFIX  65
C3    1    0.445162    0.611025    0.727116    10.25000    0.06471    0.06567 =
         0.05814    0.00033   -0.00139   -0.00277
AFIX  43
H3    2    0.451180    0.638055    0.731509    10.25000   -1.20000
AFIX  65
C11   1    0.405716    0.598997    0.722856    10.25000    0.06431    0.06579 =
         0.05747    0.00028   -0.00132   -0.00335
C10   1    0.396817    0.559028    0.716359    10.25000    0.06405    0.06597 =
         0.05800   -0.00017   -0.00169   -0.00258
AFIX  43
H10   2    0.370141    0.550894    0.713478    10.25000   -1.20000
AFIX  65
C14   1    0.427366    0.531087    0.714121    10.25000    0.06443    0.06593 =
         0.05826   -0.00067   -0.00155   -0.00331
AFIX  43
H14   2    0.421348    0.504058    0.709727    10.25000   -1.20000
AFIX   0
HKLF 4

REM  a_a.res in I-43m
REM R1 =  0.0836 for    1891 Fo > 4sig(Fo)  and  0.0879 for all    2035 data
REM    241 parameters refined using    848 restraints

END

WGHT      0.1407    362.8661

REM Highest difference peak  0.656,  deepest hole -0.651,  1-sigma level  0.063
Q1    1   0.6832  0.3373  0.6927  11.00000  0.05    0.66
Q2    1   0.6814  0.3042  0.6732  11.00000  0.05    0.64
;
_shelx_res_checksum              83507
_shelx_hkl_file
;
   0   1   1  625.54   47.30
  -1   1   2 7109.79  547.25
  -1   2   1 7471.35  547.35
   1  -1   2 7023.60  547.35
   2  -1   1 7117.39  547.25
   1   2   1 7443.26  547.35
   2   1   1 7470.45  547.35
  -2   0   2 2656.13  200.98
   0   2   2 2680.43  201.08
   2   0   2 2669.93  201.08
  -2   2   2  583.54   41.30
   2  -2   2  565.04   41.40
   2   2   2  484.75   41.50
   1   0   3  759.12   57.39
  -1   0   3  754.12   57.29
   3   0   1  731.83   55.89
   0   1   3  749.13   56.09
   0  -1   3  737.63   56.09
  -1   3   2  736.33   52.09
   3  -2   1  684.33   51.89
   2  -1   3  708.23   52.09
  -2   1   3  709.43   51.99
   3   2   1  673.03   52.09
   1   3   2  677.63   52.19
  -2  -1   3  646.94   51.99
   2   1   3  648.44   52.09
   3  -1   2  704.03   51.69
  -3   1   2  701.83   51.49
   1  -2   3  700.03   51.89
  -1   2   3  690.33   51.79
   1   2   3  661.83   51.89
   3   1   2  635.44   51.79
  -3   0   3 7071.89  536.15
   0   3   3 7304.87  536.45
   3   0   3 6995.20  536.35
  -3   2   3 3551.84  290.07
  -3   3   2 3624.34  290.07
  -2   3   3 3587.14  290.17
   2  -3   3 3630.54  290.27
   3  -2   3 3679.13  290.17
   2   3   3 4298.17  290.47
   3   2   3 4168.48  290.37
   3   3   2 4284.07  290.47
   0   0   4 2895.91  218.38
   2   0   4   40.70    5.20
   0   4   2   32.00    4.40
  -2   0   4   28.00    3.90
   4  -1   1 7357.56  558.54
  -1   1   4 7425.76  558.84
   1  -1   4 7446.25  558.84
   1   1   4 7376.26  558.84
  -1  -1   4 7408.76  558.84
   4   1   1 7521.65  558.74
  -3   1   4  785.92   56.79
  -1   4   3  805.22   57.09
   3  -1   4  799.92   57.09
   3   1   4  695.63   56.99
   1   4   3  712.53   57.09
  -3  -1   4  690.03   56.89
   4   0   2   25.40    3.50
   0   2   4   31.10    4.10
   0  -2   4   27.80    4.00
  -2   2   4 2257.87  157.28
   2  -2   4 2278.37  157.48
   4  -2   2 2192.78  157.18
   2   4   2 2013.00  157.48
   2   2   4 1813.92  157.38
   4   2   2 1950.10  157.38
   4  -1   3  768.22   56.19
  -1   3   4  753.32   56.39
  -4   1   3  783.92   55.99
   1  -3   4  804.72   56.49
   4   1   3  663.93   56.29
   1   3   4  660.83   56.39
  -4   3   3  482.25   33.80
  -3   3   4  468.25   34.10
  -3   4   3  464.85   34.00
   3  -3   4  460.85   34.30
   4  -3   3  457.95   34.10
   3   4   3  433.46   34.50
   3   3   4  382.36   33.60
   4   3   3  390.86   33.60
   4   3   3  435.46   34.50
  -4   0   4  982.00   74.59
   0   4   4  986.80   74.99
   4   0   4  985.20   74.89
  -4   4   4  649.43   53.29
   4  -4   4  779.72   52.89
   4  -4   4  659.83   53.49
  -1   0   5  338.87   27.40
   1   0   5  362.86   27.50
   0   5   3 1857.61  134.69
   3   0   5 1707.83  134.09
   3   0   5 1770.02  134.59
  -3   0   5 1780.02  134.39
   5   0   1  337.67   26.30
   0   1   5  355.86   26.90
   0  -1   5  333.27   26.80
  -2   1   5  351.06   27.60
   5  -2   1  346.47   27.10
   2  -1   5  366.26   27.90
   4  -1   5 1731.83  133.39
  -4   1   5 1725.63  133.19
  -1   5   4 1736.13  133.49
   4  -1   5 1678.93  132.79
   1   5   4 1869.41  133.59
   4   1   5 1722.43  132.79
  -4  -1   5 1817.32  133.19
   4   1   5 1817.32  133.39
   5  -1   2  345.77   26.90
  -1   2   5  353.36   27.40
   3  -2   5  227.78   18.50
  -3   2   5  218.18   18.10
  -2   5   3  222.18   18.40
   5  -3   2  226.98   17.70
   3  -2   5  215.38   17.30
   5   0   3 1758.52  132.39
   0  -3   5 1747.03  132.59
  -5   0   3 1762.12  132.09
   0   3   5 1697.03  132.59
   0  -3   5 1792.02  132.09
  -2   3   5  207.38   17.80
   2  -3   5  215.88   16.80
  -5   2   3  221.48   16.80
   2  -3   5  220.78   18.10
   5  -2   3  209.68   17.40
  -4   3   5 4049.29  306.97
  -3   5   4 4078.29  307.07
   5  -4   3 4058.49  306.97
   4  -3   5 3977.20  306.67
   3  -5   4 3936.91  306.67
   4  -3   5 4090.29  307.17
   5  -4   3 3870.51  306.57
   4   3   5 4174.38  307.27
   4   3   5 3926.41  306.67
   3   5   4 4357.76  307.47
   5   4   3 4288.47  307.37
   5  -1   4 1652.13  130.09
   5  -1   4 1723.43  130.49
  -1   4   5 1688.43  130.69
   1  -4   5 1694.03  130.09
   1  -4   5 1660.53  130.69
  -5   1   4 1770.62  130.29
  -5  -1   4 1762.92  130.39
   1   4   5 1844.22  130.79
   5   1   4 1673.33  130.09
   1   4   5 1761.02  130.09
   5   1   4 1751.32  130.59
  -3   4   5 4021.70  305.87
  -5   3   4 4008.80  305.67
   5  -3   4 3931.01  305.47
   5  -3   4 4011.40  305.87
   4  -5   3 3978.70  305.47
   3  -4   5 4147.49  306.07
   3  -4   5 3978.50  305.47
   5   3   4 4193.18  306.17
   3   4   5 4040.90  305.57
   3   4   5 4252.87  306.27
   5   3   4 4023.30  305.57
   4   5   3 4107.09  306.27
  -5   0   5 2097.79  159.38
   0   5   5 2156.98  159.78
   5   0   5 2024.00  159.08
   5   0   5 2167.08  159.68
   5  -2   5 1452.15  114.39
  -5   2   5 1520.95  114.59
  -2   5   5 1526.05  114.99
   2  -5   5 1521.55  114.39
   5  -2   5 1527.55  114.89
   5  -5   2 1577.14  114.59
  -5  -2   5 1484.45  114.79
   2   5   5 1511.55  115.19
   5   2   5 1519.45  115.09
  -5   4   5 2600.64  185.08
  -5   5   4 2637.04  185.08
  -4   5   5 2635.94  185.28
   4  -5   5 2526.15  184.78
   4  -5   5 2582.94  185.48
   5  -4   5 2542.85  185.38
   5  -5   4 2553.14  184.78
   5  -5   4 2590.24  185.38
   5  -4   5 2476.65  184.78
   4   5   5 2040.10  185.48
   5   4   5 2079.99  185.38
   5   5   4 2143.69  185.48
   0   0   6 4624.04  348.97
  -2   0   6  321.97   25.70
   2   0   6  318.97   24.70
   2   0   6  323.97   25.90
   0   6   4   86.09   10.90
   4   0   6   83.89    7.80
   4   0   6   81.49   10.30
  -4   0   6   84.69    9.40
   1  -1   6 3065.39  246.68
   1  -1   6 3108.69  247.18
   6  -1   1 3189.18  246.78
  -1   1   6 3316.97  247.18
  -1  -1   6 3325.27  247.18
   1   1   6 3321.27  246.68
   6   1   1 3508.15  246.98
   1   1   6 3375.06  247.28
   3  -1   6 1168.68   87.39
   6  -3   1 1139.09   86.69
  -3   1   6 1178.18   87.19
   3  -1   6 1119.99   86.59
  -3  -1   6 1152.78   87.19
   3   1   6 1122.59   87.39
  -5   1   6  203.98   21.00
  -1   6   5  227.48   21.90
  -5  -1   6  303.67   21.30
   5   1   6  310.87   22.00
   0  -2   6  338.97   24.80
   0  -2   6  322.97   25.90
   0   2   6  306.27   25.90
   6   0   2  317.27   25.30
   2  -2   6 2880.21  209.38
   6  -2   2 3072.19  209.48
  -2   2   6 3052.39  209.88
   2  -2   6 3035.60  209.98
  -2  -2   6 2570.84  209.78
   2   2   6 2512.05  209.88
   6   2   2 2674.63  209.68
   2   2   6 2435.26  209.28
   4  -2   6 3634.84  261.77
   6  -4   2 3428.86  261.27
  -2   6   4 3679.03  261.77
   4  -2   6 3525.45  261.07
  -4   2   6 3541.75  261.47
   4   2   6 3656.33  262.17
   2   6   4 2803.02  261.67
   6  -1   3 1137.39   84.99
   1  -3   6 1155.58   85.39
  -1   3   6 1135.69   85.29
   1  -3   6 1145.19   84.69
   6   1   3 1129.79   85.19
   6   1   3 1065.49   84.59
   1   3   6 1125.49   84.69
  -1  -3   6 1113.89   84.59
   1   3   6 1077.79   85.39
  -3   3   6 4177.78  283.67
   6  -3   3 4124.19  283.47
   3  -3   6 3996.10  283.17
   6  -3   3 4142.49  283.17
   3  -3   6 3816.52  283.77
   3   3   6 3419.26  283.17
   6   3   3 3425.06  283.17
  -3  -3   6 3486.55  283.67
   3   3   6 3428.46  283.77
   6   3   3 3581.34  283.67
   3  -6   5  805.82   61.99
   5  -3   6  803.42   62.79
   6  -5   3  826.42   62.49
  -3   6   5  898.01   62.89
   5  -3   6  806.92   61.99
   6  -5   3  792.12   61.89
  -5   3   6  826.12   62.49
   3   6   5  785.52   63.89
   6   0   4   79.79    7.40
  -6   0   4   83.79    7.80
   0   4   6   69.69    8.90
   0   4   6   79.99    7.60
   0  -4   6   76.19    7.50
   6   0   4   83.29    9.30
   0  -4   6   76.69   10.30
   6  -2   4 3481.65  242.18
   2  -4   6 3418.46  241.78
  -6   2   4 3482.05  241.78
  -2   4   6 3392.96  242.28
   6  -2   4 3368.46  241.68
   2  -4   6 3559.44  242.48
   2   4   6 2748.32  242.28
   6   2   4 2729.83  241.68
   6   2   4 2701.03  242.18
   4  -4   6  479.35   42.10
   6  -4   4  564.04   42.80
   4  -6   4  464.35   42.10
  -6   4   4  557.94   42.30
  -4   4   6  586.44   43.00
   4  -4   6  577.64   43.20
   6  -4   4  497.85   42.10
   6   4   4  613.14   43.50
   4   6   4  631.74   43.80
   4   4   6  590.34   43.60
   4   4   6  568.34   42.30
   6  -1   5  205.28   18.30
   1  -5   6  216.68   20.10
  -6   1   5  229.18   18.80
  -1   5   6  195.98   20.20
   1  -5   6  231.28   18.50
   6  -1   5  202.08   19.50
  -6  -1   5  298.87   19.10
   6   1   5  288.87   20.00
   3  -5   6  801.72   62.59
  -3   5   6  850.81   63.39
  -6   3   5  825.42   62.79
   5  -6   3  816.92   62.59
   6  -3   5  830.82   62.59
   6  -3   5  830.82   63.29
   3  -5   6  827.72   63.59
  -6   5   5  206.98   16.70
  -5   5   6  218.48   17.40
  -5   6   5  215.58   17.30
   5  -6   5  183.38   16.20
   5  -6   5  217.18   18.00
   5  -5   6  189.98   16.20
   5  -5   6  206.78   17.90
   6  -5   5  207.78   17.50
   6  -5   5  188.18   16.10
  -6   0   6  285.47   22.30
   0   6   6  287.67   23.40
   6   0   6  248.18   21.50
   6   0   6  293.77   23.00
   6  -2   6 1569.04  115.69
  -6   2   6 1623.04  115.99
  -2   6   6 1639.24  116.49
   2  -6   6 1530.85  115.69
   2  -6   6 1545.65  116.49
   6  -6   2 1530.05  115.59
   6  -2   6 1611.94  116.39
  -6  -2   6 1432.26  116.09
   6   2   6 1378.36  115.59
   6   2   6 1460.45  116.39
  -6   4   6  913.31   67.19
  -4   6   6  900.71   67.59
   4  -6   6  914.31   66.79
   4  -6   6  890.41   67.79
   6  -4   6  915.31   67.69
   6  -6   4  917.91   66.79
   6  -6   4  928.21   67.49
   6  -4   6  939.51   66.79
   6   4   6  736.03   66.79
   6   6   4  751.92   67.89
  -6   6   6 1878.71  144.79
   6  -6   6 2090.79  144.39
   6  -6   6 1969.60  145.09
   6   6   6 1703.83  145.29
   1   0   7 3061.49  230.78
   1   0   7 3103.89  231.48
  -1   0   7 3045.70  230.78
  -1   0   7 3045.50  231.38
  -3   0   7 3571.34  259.27
   3   0   7 3272.67  258.67
   3   0   7 3461.75  259.37
   5   0   7  125.79   13.40
  -5   0   7  130.89   12.30
   0   7   5  138.79   13.90
   5   0   7  120.79   10.90
   0  -1   7 3105.79  228.78
   7   0   1 3083.59  228.98
   0   1   7 3067.89  228.78
   0   1   7 2836.12  229.38
   0  -1   7 3093.29  229.48
   2  -1   7 2405.36  172.98
  -2   1   7 2516.35  173.58
   7  -2   1 2369.96  172.88
  -2  -1   7 2280.27  173.48
   2   1   7 2120.79  172.88
  -2  -1   7 2171.68  172.88
   2   1   7 2198.28  173.58
   4  -1   7  926.01   71.59
  -4   1   7  966.00   72.29
   7  -4   1  908.11   71.69
   4  -1   7  943.51   72.49
   4   1   7  976.00   72.59
   4   1   7  970.10   71.59
  -4  -1   7  936.21   72.29
   6  -1   7   48.00    5.70
  -6   1   7   44.90    6.00
   7  -6   1   38.50    4.80
  -1   7   6   39.80    7.00
   6  -1   7   41.80    7.00
  -6  -1   7   40.10    6.00
   6   1   7   36.70    6.90
   1   7   6   31.60    6.90
   6   1   7   32.50    4.70
  -1   2   7 2512.95  173.48
   7  -1   2 2404.76  172.98
  -1   2   7 2347.77  172.78
   1  -2   7 2369.96  173.48
   1  -2   7 2362.56  172.78
  -1  -2   7 2123.29  172.78
   1   2   7 2162.68  172.78
   7   1   2 2200.28  173.08
  -1  -2   7 2198.88  173.48
   1   2   7 2249.57  173.48
   7  -3   2  907.41   67.99
  -3   2   7  922.11   68.59
   3  -2   7  911.71   67.89
   3  -2   7  891.81   68.79
  -3  -2   7  887.71   67.79
  -3  -2   7  904.11   68.59
   3   2   7  825.42   68.79
   7   3   2  915.71   68.59
   5  -2   7 1105.69   92.39
   7  -5   2 1097.49   92.59
  -2   7   5 1111.19   93.19
  -5   2   7 1168.38   92.99
   5  -2   7 1117.99   93.19
   7  -5   2 1066.69   92.29
  -5  -2   7 1407.56   93.19
  -5  -2   7 1273.97   92.29
   2   7   5 1416.76   93.69
   5   2   7 1352.76   93.49
   5   2   7 1354.56   92.49
   0   3   7 3168.08  244.88
  -7   0   3 3293.27  244.88
   7   0   3 3395.26  245.28
   0  -3   7 3368.76  245.58
   0  -3   7 3161.68  244.88
   7   0   3 3130.99  244.88
   0   3   7 3246.08  245.58
  -2   3   7  895.41   66.89
   7  -2   3  885.61   65.99
   2  -3   7  865.11   67.09
  -2   3   7  875.81   65.99
   7  -2   3  869.21   66.49
   2  -3   7  908.91   66.09
   7   2   3  876.51   66.79
   2   3   7  830.12   67.09
   7   2   3  858.81   66.09
  -2  -3   7  853.41   66.99
   2   3   7  871.81   66.09
  -2  -3   7  879.21   66.09
   7  -4   3  139.69   10.60
   7  -4   3  156.98   11.90
  -4   3   7  150.08   12.70
   4  -3   7  138.09   11.00
   4  -3   7  146.39   13.40
  -4  -3   7  120.99   13.00
   4   3   7  113.69   11.00
  -4  -3   7  102.29   10.60
   7   4   3  122.49   13.30
   4   3   7  101.79   13.70
   6  -3   7  394.06   31.20
   7  -6   3  387.46   30.50
  -3   7   6  374.26   31.10
   6  -3   7  388.16   29.90
   7  -6   3  384.36   29.70
  -6   3   7  386.46   30.50
   6   3   7  382.66   31.50
  -6  -3   7  378.06   30.90
   6   3   7  405.06   29.90
   7  -1   4  952.70   72.79
  -7   1   4  994.50   72.29
   1  -4   7  922.41   72.29
   1  -4   7  947.41   73.19
  -1   4   7  963.30   73.19
  -1   4   7  918.21   72.19
   7  -1   4  935.81   72.19
  -1  -4   7  971.70   73.29
   7   1   4  937.51   72.19
   7   1   4  975.70   72.99
   1   4   7  978.50   72.29
  -1  -4   7  945.01   72.29
   1   4   7  975.80   73.39
  -3   4   7  150.28   13.80
   3  -4   7  147.39   14.00
   3  -4   7  146.09   11.60
   7  -3   4  152.38   11.40
   7  -3   4  162.58   13.00
  -3  -4   7  116.49   13.70
   3   4   7  113.69   11.80
   7   3   4  122.69   13.70
   3   4   7  157.78   17.40
   7   3   4  120.59   11.60
   5  -4   7  971.80   76.29
   7  -5   4  971.40   75.29
   7  -5   4 1007.80   75.89
   5  -4   7  996.10   75.39
  -5   4   7  992.80   75.99
   4  -7   5 1028.70   75.39
   0  -5   7  145.39   13.90
   0   5   7  137.39   11.20
   0  -5   7  119.39   11.20
  -7   0   5  127.79   11.50
   7   0   5  126.19   11.00
   7   0   5  138.79   12.90
   0   5   7  129.39   14.00
  -2   5   7 1080.49   92.79
  -7   2   5 1137.49   91.99
   2  -5   7 1099.49   92.79
   7  -2   5 1099.69   92.49
   7  -2   5 1107.29   91.89
   2  -5   7 1084.49   91.99
   7   2   5 1341.67   91.99
   2   5   7 1356.06   92.09
   7   2   5 1397.86   92.89
   2   5   7 1331.97   93.09
  -2  -5   7 1360.26   92.99
   4  -5   7  964.00   76.09
   7  -4   5 1012.50   75.79
  -7   4   5  982.70   75.29
   5  -7   4 1014.60   75.19
   7  -4   5  995.40   75.09
  -4   5   7  965.80   75.89
   4  -5   7 1009.80   75.19
   5  -7   6  186.18   18.50
   5  -7   6  213.58   16.60
   6  -5   7  213.48   16.50
   6  -5   7  202.48   18.40
   7  -6   5  202.18   16.40
  -6   5   7  208.68   17.60
  -5   7   6  203.88   17.90
   7  -6   5  208.68   17.90
   7   6   5  209.78   19.10
   6   5   7  203.28   19.10
   5   7   6  193.18   19.20
   6   5   7  199.48   16.70
  -1   6   7   45.70    7.60
   7  -1   6   46.60    5.70
   7  -1   6   45.00    6.70
   1  -6   7   45.50    6.00
  -7   1   6   48.90    5.60
   1  -6   7   45.30    7.40
   1   6   7   28.50    6.60
   7   1   6   33.30    4.60
  -7  -1   6   37.90    5.60
   7   1   6   35.80    7.00
   7  -3   6  392.56   31.00
  -3   6   7  380.66   31.10
   3  -6   7  379.26   29.90
   7  -3   6  386.66   29.80
   6  -7   3  380.86   29.70
   3  -6   7  394.16   31.40
  -7   3   6  373.06   30.10
   7   3   6  392.26   29.90
   7   3   6  386.56   31.30
   3   6   7  401.66   31.70
  -7   5   6  193.88   17.10
   5  -6   7  203.18   18.60
   5  -6   7  210.88   16.60
   6  -7   5  214.68   16.60
   6  -7   5  202.68   18.40
  -5   6   7  199.48   18.00
   7  -5   6  211.88   16.50
   7  -5   6  202.18   18.10
   7   5   6  215.08   19.10
   6   7   5  200.78   19.60
   5   6   7  192.38   19.10
  -7   0   7  770.52   59.09
   0   7   7  729.03   59.79
   7   0   7  801.62   58.59
   7   0   7  781.52   59.69
   7  -2   7 1044.80   82.79
  -7   2   7 1047.70   82.29
  -2   7   7  995.10   82.89
   2  -7   7 1062.69   81.99
   2  -7   7  978.50   82.89
   7  -2   7 1020.90   81.89
   7  -7   2 1031.70   81.79
   2   7   7 1158.08   83.29
  -7  -2   7 1167.78   82.59
   7   2   7 1194.98   81.99
   7   2   7 1206.58   83.09
  -7   4   7 1056.89   81.79
  -4   7   7 1056.29   82.29
   4  -7   7 1085.99   81.49
   4  -7   7 1097.79   82.59
   7  -4   7 1061.89   82.29
   7  -7   4 1094.69   81.39
   7  -7   4 1076.79   82.09
   7  -4   7 1068.19   81.39
  -7   6   7  392.76   31.50
  -6   7   7  394.76   31.90
   6  -7   7  437.86   30.90
   6  -7   7  405.46   32.40
   7  -6   7  410.56   32.30
   7  -7   6  421.76   30.90
   7  -7   6  400.76   32.10
   7  -6   7  435.36   30.90
   7   6   7  319.77   32.70
   7   7   6  327.07   32.80
   0   0   8  112.29   10.40
   0   0   8  139.09   13.20
   2   0   8 2099.39  161.08
   2   0   8 2167.38  161.88
  -2   0   8 2199.58  161.78
  -2   0   8 2080.39  160.98
   4   0   8  101.29    9.20
  -4   0   8   94.79    8.50
  -4   0   8  103.69   11.50
   4   0   8  115.39   12.30
  -6   0   8  148.49   14.10
   6   0   8  158.18   15.20
   0   8   6  151.58   15.70
   6   0   8  146.39   12.70
   1  -1   8 3565.44  274.97
   1  -1   8 3466.05  274.27
  -1   1   8 3473.95  274.17
   8  -1   1 3548.04  274.27
  -1   1   8 3679.03  274.97
   1   1   8 3891.91  275.07
  -1  -1   8 3721.13  274.97
   1   1   8 3747.53  274.27
  -1  -1   8 3682.43  274.17
  -3   1   8 2722.13  203.78
   3  -1   8 2734.73  204.68
  -3   1   8 2797.12  204.48
   3  -1   8 2724.73  203.88
  -3  -1   8 2595.44  203.78
  -3  -1   8 2656.63  204.48
  -5   1   8 2595.94  185.08
   5  -1   8 2534.45  184.48
   8  -5   1 2552.84  184.48
   5  -1   8 2545.05  185.38
   5   1   8 2376.06  184.48
   5   1   8 2360.76  185.28
  -5  -1   8 2318.27  184.98
  -5  -1   8 2289.27  184.28
   8  -7   1  367.96   27.80
  -1   8   7  356.26   29.90
  -7   1   8  352.16   29.00
   7  -1   8  391.06   28.20
   7  -1   8  376.46   29.80
   1   8   7  348.27   30.10
   7   1   8  340.27   29.80
   7   1   8  371.06   28.20
  -7  -1   8  349.27   29.00
   0  -2   8 2233.98  162.08
   0  -2   8 1985.60  161.18
   8   0   2 2210.58  161.48
   0   2   8 2090.19  161.18
   0   2   8 2181.38  162.08
   8   0   2 2135.29  161.28
   2  -2   8 1121.89   71.09
  -2  -2   8  805.42   70.79
   8   2   2  850.51   70.39
  -4   2   8  523.45   44.10
   4  -2   8  526.55   43.20
   8  -4   2  516.65   43.30
   8  -4   2  513.45   43.00
   4  -2   8  511.05   44.40
   4   2   8  627.24   44.60
  -4  -2   8  656.63   44.30
  -4  -2   8  664.83   43.10
   8  -6   2  170.48   15.70
  -2   8   6  185.18   17.60
   6  -2   8  158.68   15.20
   8  -6   2  159.48   14.80
   6  -2   8  181.78   17.40
  -6   2   8  176.98   16.50
   6   2   8  216.58   17.80
  -6  -2   8  209.68   14.70
  -6  -2   8  213.48   16.70
   2   8   6  236.38   18.40
   8  -1   3 2622.94  199.68
   8  -1   3 2817.92  200.08
   1  -3   8 2594.64  199.68
  -1   3   8 2671.63  200.48
   1  -3   8 2723.13  200.58
  -1   3   8 2710.93  199.68
   8   1   3 2768.42  200.18
   1   3   8 2605.44  199.68
   8   1   3 2529.65  199.68
  -1  -3   8 2569.24  200.48
  -1  -3   8 2591.74  199.68
   1   3   8 2598.94  200.48
   3  -3   8 3710.93  267.87
   8  -3   3 3635.94  266.87
  -3   3   8 3683.23  266.87
   3  -3   8 3611.74  266.97
  -3   3   8 3710.93  267.67
   8   3   3 2911.51  267.47
   8  -5   3 2190.58  154.48
  -5   3   8 2233.38  154.78
   5  -3   8 2182.98  155.08
   8  -5   3 2196.68  154.08
   5  -3   8 2155.38  154.18
   5   3   8 1702.63  154.08
   5   3   8 1639.64  154.88
  -7   3   8 1075.29   79.19
   7  -3   8 1037.30   78.69
   7  -3   8 1099.09   79.79
   3  -8   7 1055.09   79.89
   8  -7   3  999.90   78.49
  -3   8   7 1029.60   79.69
   8  -7   3 1060.29   79.19
   3  -8   7 1021.40   78.69
   3   8   7 1063.39   80.09
  -7  -3   8  989.90   79.39
   7   3   8 1041.20   78.69
   7   3   8 1081.89   79.99
  -7  -3   8  953.90   78.39
  -8   0   4  102.59    9.00
   8   0   4   98.69    8.90
   8   0   4  104.99   11.10
   0  -4   8  101.09   12.00
   0   4   8  106.09    9.30
   0  -4   8   99.39    9.10
   0   4   8   95.99   12.10
   8  -2   4  525.05   49.80
   2  -4   8  667.73   51.39
  -2  -4   8  676.93   49.30
   2   4   8  672.03   50.79
  -2  -4   8  643.94   50.49
   8   2   4  659.63   50.29
   2   4   8  683.53   49.40
   8   2   4  662.33   49.40
   8  -4   4 1330.87   93.29
   4  -4   8 1308.57   93.89
  -4   4   8 1246.08   93.59
   8  -4   4 1326.97   92.79
   4  -4   8 1323.37   92.89
  -4   4   8 1264.37   92.69
   8   4   4 1191.68   93.69
   4   4   8 1133.59   93.89
   4   4   8 1161.68   92.79
  -4  -4   8 1082.59   93.59
  -4  -4   8 1124.09   92.69
   8  -6   4   71.59    8.90
   8  -6   4   63.49    6.70
  -6   4   8   60.89    8.00
   4  -8   6   68.69    7.40
   6  -4   8   71.49    7.20
   6  -4   8   60.59    8.70
   4   8   6   34.60    9.20
  -1   5   8 2493.55  186.58
  -8   1   5 2571.14  185.78
  -1   5   8 2538.75  185.68
   1  -5   8 2573.44  186.68
   8  -1   5 2487.25  185.68
   8  -1   5 2548.34  186.28
   1   5   8 2362.76  186.58
   8   1   5 2352.56  185.68
  -1  -5   8 2409.76  185.68
   1   5   8 2457.05  185.68
  -8  -1   5 2369.46  185.88
  -1  -5   8 2418.96  186.58
   8   1   5 2436.46  186.28
   3  -5   8 2125.79  134.39
  -3   5   8 2120.09  134.29
  -3  -5   8 1640.24  133.19
  -3  -5   8 1641.64  134.09
   3   5   8 1616.64  134.19
   8   3   5 1684.23  133.99
   3   5   8 1645.74  133.29
   8   3   5 1667.73  133.19
   8  -5   5  791.12   61.29
   5  -5   8  817.72   60.69
   5  -8   5  837.72   60.69
   8  -5   5  794.62   60.59
  -5   5   8  764.92   61.59
   5  -5   8  779.52   61.89
   7  -5   8  482.55   39.50
   5  -8   7  482.45   39.60
   8  -7   5  481.85   39.40
  -5   8   7  480.75   40.70
  -7   5   8  469.35   40.30
   5  -8   7  474.35   41.10
   8  -7   5  478.15   40.40
   7  -5   8  499.05   41.00
   7   5   8  590.14   39.70
  -7  -5   8  575.44   41.00
   7   5   8  606.04   41.70
   5   8   7  595.44   41.80
   8   0   6  145.79   14.70
   8   0   6  147.79   12.70
   0  -6   8  170.88   12.90
   0  -6   8  154.98   15.70
  -8   0   6  141.19   13.30
   0   6   8  150.48   15.70
   8  -2   6  170.08   16.40
   2  -6   8  169.58   18.60
   8  -2   6  173.38   17.90
  -8   2   6  178.18   16.70
  -2   6   8  193.38   18.60
   2  -6   8  215.18   17.30
  -8  -2   6  221.08   17.40
   2   6   8  228.08   16.70
   8   2   6  227.68   16.50
   8   2   6  230.08   18.70
   2   6   8  224.28   19.20
  -2  -6   8  227.08   18.80
   4  -6   8   61.69    8.60
   8  -4   6   73.09    7.00
   6  -8   4   59.39    7.00
  -8   4   6   74.59    7.50
  -4   6   8   64.29    8.40
   4  -6   8   55.79    7.40
   8  -4   6   73.49    8.10
   4   6   8   55.39    9.00
   4   6   8   33.20    9.00
   6  -8   6 1243.08   98.59
   6  -8   6 1252.27   97.59
  -6   6   8 1222.68   98.29
   6  -6   8 1282.47   97.69
   6  -6   8 1244.48   98.69
   8  -6   6 1263.57   98.39
   8  -6   6 1243.88   97.59
   6   8   6 1439.06   99.39
   6   6   8 1317.27   99.09
   8   6   6 1337.77   98.99
   6   6   8 1360.26   97.79
  -8   1   7  386.26   29.00
   8  -1   7  373.56   28.40
   1  -7   8  392.86   30.50
   1  -7   8  388.56   28.50
   8  -1   7  374.06   29.90
  -1   7   8  350.36   30.20
   1   7   8  343.57   30.40
   8   1   7  359.96   28.40
   8   1   7  343.77   29.90
  -8  -1   7  346.57   29.00
   3  -7   8 1048.10   80.99
   3  -7   8 1025.50   79.79
   7  -8   3 1015.00   79.69
   8  -3   7 1074.59   79.79
   8  -3   7 1094.79   80.79
  -3   7   8 1045.20   80.89
  -8   3   7 1081.99   80.09
  -8  -3   7 1012.90   80.39
   8   3   7 1040.30   79.79
   8   3   7 1078.79   80.99
   3   7   8 1069.49   81.19
  -8   5   7  481.25   39.80
  -5   7   8  467.95   40.60
   5  -7   8  494.85   39.50
   5  -7   8  501.95   41.00
   8  -5   7  496.45   40.60
   7  -8   5  486.05   39.40
   7  -8   5  491.45   40.60
   8  -5   7  490.65   39.40
   5   7   8  606.74   41.60
   8   5   7  582.34   39.60
   8   5   7  575.84   41.30
  -7   7   8  381.46   31.70
   7  -8   7  397.96   30.70
   7  -8   7  404.46   32.30
   7  -7   8  385.86   30.70
   7  -7   8  411.76   32.50
   8  -7   7  390.96   32.20
   8  -7   7  393.66   30.70
  -8   0   8  346.27   28.70
   0   8   8  357.86   30.00
   8   0   8  358.96   27.90
   8   0   8  375.76   29.60
   8  -2   8   17.90    4.40
   8  -2   8   17.50    6.40
  -8   2   8   20.10    5.40
  -2   8   8   16.90    7.00
   2  -8   8   18.50    4.40
   2  -8   8   17.50    7.10
   8  -8   2   17.70    3.60
   2   8   8   34.00    8.00
  -8  -2   8   34.90    6.10
   8   2   8   30.10    4.10
   8   2   8   26.50    7.50
   8  -4   8   14.30    4.10
  -8   4   8   12.90    5.20
  -4   8   8   11.50    6.60
   4  -8   8   14.20    4.20
   4  -8   8    6.30    7.00
   8  -4   8   17.70    6.90
   8  -8   4   19.20    3.80
   8  -8   4    7.40    5.50
  -8  -4   8   16.70    6.20
   4   8   8   10.40    8.10
   8   4   8   14.70    4.40
   8   4   8   10.70    7.10
  -8   6   8 1228.88   97.19
  -6   8   8 1242.28   97.69
   6  -8   8 1266.47   96.79
   6  -8   8 1251.37   97.99
   8  -6   8 1219.28   97.79
   8  -8   6 1238.08   96.69
   8  -8   6 1265.57   97.69
   8  -6   8 1229.48   96.69
   6   8   8 1436.26   98.59
   8   6   8 1422.16   98.39
   8  -8   8  924.51   74.09
   8  -8   8  907.71   75.19
   8   8   8 1106.59   76.29
  -1   0   9 4375.96  328.47
  -1   0   9 4241.88  329.27
   1   0   9 4529.45  328.57
   1   0   9 4299.87  329.37
   3   0   9  981.40   76.19
   3   0   9 1036.40   77.39
  -3   0   9  977.40   76.09
  -3   0   9 1034.90   77.19
   5   0   9  211.38   16.60
   5   0   9  211.08   19.00
  -5   0   9  201.98   16.10
  -5   0   9  194.18   18.10
   7   0   9  445.56   34.60
   9  -7   0  423.66   32.40
  -7   0   9  408.66   33.70
   0   9   7  449.26   35.00
   9  -7   0  418.36   32.80
   7   0   9  412.56   32.80
   0  -1   9 4407.56  328.57
   0   1   9 4362.66  329.47
   0   1   9 4489.95  328.57
   0  -1   9 4191.08  329.37
   2  -1   9  836.62   61.39
   2  -1   9  879.31   60.09
  -2   1   9  840.12   61.19
  -2   1   9  867.21   59.99
  -2  -1   9  696.63   60.99
   2   1   9  720.73   61.19
  -2  -1   9  729.53   59.89
   2   1   9  752.12   59.99
  -4   1   9  159.38   13.30
   4  -1   9  165.18   13.80
   4  -1   9  177.38   16.50
  -4   1   9  163.68   15.70
   4   1   9  179.38   16.50
   4   1   9  174.48   13.90
  -4  -1   9  167.28   15.70
  -4  -1   9  158.78   13.30
   9  -6   1  157.78   13.80
   6  -1   9  176.08   14.00
   6  -1   9  168.18   16.40
   9  -6   1  164.38   13.30
  -6   1   9  167.88   15.60
  -8   1   9  926.71   74.99
   9  -8   1  910.91   74.59
   8  -1   9  913.41   74.39
   9  -8   1  900.61   74.09
   8  -1   9  917.21   75.49
  -1   9   8  869.91   75.69
  -8  -1   9 1030.50   73.99
   1   9   8 1081.29   76.09
  -8  -1   9 1038.10   75.09
   8   1   9 1050.79   75.79
   9  -8  -1 1034.90   74.09
   8   1   9 1087.09   74.39
  -1   2   9  845.62   58.89
   9  -1   2  813.22   58.69
  -1   2   9  827.22   60.09
   1  -2   9  856.81   58.89
   9  -1   2  859.71   59.19
   1  -2   9  821.92   60.19
   1   2   9  712.13   59.99
  -1  -2   9  695.33   59.99
   9   1   2  693.63   58.79
   9   1   2  697.93   59.29
  -1  -2   9  751.22   58.89
   1   2   9  731.73   58.89
   9  -3   2 1106.29   79.09
  -3   2   9 1102.89   78.89
  -3   2   9 1078.99   79.99
   3  -2   9 1142.59   78.99
   9  -3   2 1095.59   78.79
   3   2   9  989.10   78.99
  -3  -2   9  971.40   78.79
   3   2   9  943.61   79.99
  -3  -2   9  943.01   79.79
   9  -5   2  827.92   61.39
   5  -2   9  802.12   62.39
  -5   2   9  810.82   60.99
   5  -2   9  822.82   61.29
   9  -5   2  823.82   60.99
  -5   2   9  796.52   62.09
   5   2   9  794.22   61.19
   5   2   9  801.22   62.49
  -5  -2   9  797.62   62.19
  -5  -2   9  776.42   60.99
   7  -2   9  908.91   75.09
   7  -2   9  967.80   73.99
   9  -7   2  910.91   73.69
   9  -7   2  900.81   74.19
  -2   9   7  918.11   75.29
  -7   2   9  930.51   74.59
   7   2   9 1060.09   73.99
  -7  -2   9 1011.10   73.69
  -7  -2   9 1035.80   74.79
   7   2   9 1013.40   75.29
   2   9   7 1068.29   75.69
   0  -3   9  987.30   76.59
   0  -3   9  968.90   75.49
   9   0   3  969.90   75.39
   0   3   9  993.50   75.49
   9   0   3 1058.39   75.99
   0   3   9 1008.00   76.59
  -2   3   9 1051.99   80.09
   2  -3   9 1145.59   79.19
  -2   3   9 1122.39   78.99
   9  -2   3 1055.69   78.99
   2  -3   9 1071.39   80.29
   9  -2   3 1073.29   79.39
  -2  -3   9  944.11   79.99
   2   3   9  977.70   79.09
   9   2   3  964.20   78.99
   2   3   9 1148.49   80.99
   9   2   3  984.40   79.69
  -2  -3   9 1005.50   78.99
  -4   3   9   49.50    7.50
   4  -3   9   59.19    6.70
   9  -4   3   56.79    5.70
   4  -3   9   48.90    7.70
   9  -4   3   52.09    7.40
  -4   3   9   53.69    5.70
   4   3   9   34.70    8.10
  -4  -3   9   30.30    7.30
  -6   3   9  240.78   20.30
   9  -6   3  237.08   19.40
   9  -6   3  228.98   18.50
   6  -3   9  227.78   21.20
   6  -3   9  241.78   18.90
   8  -3   9  954.20   74.39
   3  -9   8  901.51   74.59
   9  -8   3  914.61   73.59
  -8   3   9  908.61   73.69
   3  -9   8  911.01   73.19
   9  -8   3  884.11   72.99
  -3   9   8  866.21   74.39
   8  -3   9  920.61   73.19
  -8  -3   9 1123.69   74.19
  -8  -3   9 1094.79   72.89
   8   3   9 1131.99   74.89
  -1   4   9  167.78   13.80
   9  -1   4  159.08   13.60
   1  -4   9  163.28   16.40
  -1   4   9  150.78   16.40
   9  -1   4  165.08   15.00
   1  -4   9  156.18   13.90
   9   1   4  176.58   13.80
   1   4   9  173.38   13.90
  -1  -4   9  178.78   16.40
  -1  -4   9  170.78   13.90
   9   1   4  199.68   15.50
   1   4   9  160.98   16.60
   3  -4   9   55.79    7.50
  -3   4   9   54.79    7.20
  -3  -4   9   27.00    4.30
   3   4   9   28.90    7.20
   9   3   4   31.70    4.60
   3   4   9   28.90    4.60
  -3  -4   9   26.80    6.70
   9   3   4   29.40    6.60
   9  -5   4   94.79    8.50
   9  -5   4  104.49   10.20
  -5   4   9   98.99    8.20
   5  -4   9  113.99   12.60
   5  -4   9  105.49    9.00
  -5   4   9  105.29   11.60
   5   4   9   82.49    9.20
   9   5   4   94.99   12.10
  -5  -4   9   83.39   11.80
   5   4   9   74.19   10.50
  -5  -4   9   73.29    8.50
   4  -9   7  320.57   30.70
  -7   4   9  342.87   30.00
   9  -7   4  340.27   29.60
   4  -9   7  342.87   29.00
   7  -4   9  352.96   30.70
   7  -4   9  337.37   28.90
   9  -7   4  335.87   28.60
   7   4   9  411.86   29.10
  -7  -4   9  413.46   30.50
   7   4   9  409.56   31.50
   4   9   7  438.36   31.80
  -7  -4   9  428.46   28.60
  -9   0   5  216.78   16.80
   0  -5   9  194.48   16.80
   9   0   5  197.88   16.70
   0   5   9  213.88   19.40
   0  -5   9  217.68   19.20
   9   0   5  222.58   18.40
   0   5   9  208.08   16.80
   2  -5   9  798.02   62.19
  -2   5   9  784.22   63.29
   9  -2   5  867.41   62.79
   2  -5   9  803.82   63.39
   9  -2   5  819.22   62.09
  -2   5   9  825.62   62.09
  -2  -5   9  797.32   63.29
   2   5   9  804.22   63.49
  -2  -5   9  805.52   62.09
   2   5   9  822.82   62.19
   9   2   5  817.82   62.09
   9   2   5  868.41   63.19
   9  -4   5  101.09    8.50
   4  -5   9   98.79   12.30
  -4   5   9  109.49   12.00
   4  -5   9   99.39    8.90
   9  -4   5   90.99   10.50
  -4  -5   9   79.99    8.50
   9   4   5   88.99   11.90
   4   5   9   69.99    9.90
   4   5   9   77.69    9.00
  -4  -5   9   75.39   10.20
   9  -6   5  366.26   30.10
   9  -6   5  374.76   29.00
   5  -9   6  383.16   29.30
   5  -9   6  380.66   30.90
  -6   5   9  361.96   30.60
   6  -5   9  378.66   31.00
   6  -5   9  381.16   29.20
   5  -9   8  212.78   18.40
  -8   5   9  210.38   19.60
   9  -8   5  226.78   19.70
   5  -9   8  228.08   21.20
   8  -5   9  216.88   20.80
   8  -5   9  215.48   18.40
  -5   9   8  208.48   20.40
   9  -8   5  214.88   18.10
   8   5   9  244.18   21.70
  -8  -5   9  236.68   20.60
   8   5   9  240.78   18.60
   5   9   8  257.27   22.00
   9   1   6  291.17   22.80
  -1  -6   9  290.37   22.80
  -1  -6   9  298.47   25.10
   9   1   6  292.07   24.50
  -9  -1   6  273.57   23.10
   1   6   9  293.37   22.90
   1   6   9  293.57   25.10
   9   3   6  439.86   34.50
   3   6   9  428.26   35.00
   9   3   6  426.66   33.00
  -3  -6   9  415.76   34.70
   3   6   9  432.16   33.00
  -3  -6   9  417.96   32.90
   5  -6   9  379.36   29.60
   6  -9   5  387.86   29.50
   5  -6   9  384.16   31.50
   9  -5   6  369.86   29.40
  -5   6   9  382.66   31.10
   9  -5   6  377.96   30.70
  -7   6   9  372.56   30.20
   7  -6   9  376.66   29.00
   6  -9   7  356.46   30.90
   9  -7   6  380.56   28.80
   9  -7   6  375.76   30.20
   6  -9   7  380.16   29.00
   7  -6   9  361.46   30.90
   7   6   9  344.27   29.10
  -7  -6   9  375.56   30.80
   9   7   6  391.46   31.60
   7   6   9  356.66   31.40
   6   9   7  369.76   31.80
   0  -7   9  428.46   33.20
   0   7   9  419.66   35.00
  -9   0   7  411.36   33.50
   9   0   7  440.86   33.10
   9   0   7  432.36   34.50
   0  -7   9  441.16   35.20
  -9   2   7  966.80   76.89
   2  -7   9  936.61   77.99
   2  -7   9  951.40   76.79
   9  -2   7  959.00   76.69
  -2   7   9  907.21   77.89
   9  -2   7  980.70   77.69
   2   7   9 1036.10   78.29
  -2  -7   9 1071.59   78.19
   9   2   7 1077.19   77.99
  -2  -7   9 1107.69   76.79
  -9  -2   7 1050.09   77.29
   9   2   7 1095.49   76.79
  -4   7   9  337.47   30.00
   4  -7   9  344.27   28.40
   4  -7   9  328.37   30.20
  -9   4   7  323.17   28.40
   7  -9   4  338.27   28.20
   9  -4   7  331.17   28.20
   9  -4   7  338.77   29.70
   9   4   7  429.96   30.60
   4   7   9  423.36   31.00
  -4  -7   9  421.46   30.50
   9   4   7  423.66   28.50
   9  -6   7  387.06   29.20
   6  -7   9  379.46   29.30
   6  -7   9  374.96   31.30
   9  -6   7  374.86   30.70
  -6   7   9  351.36   30.70
   7  -9   6  357.96   30.90
   7  -9   6  373.46   29.20
   6   7   9  373.56   31.90
   9   6   7  395.66   31.60
   7  -9   8   95.29   11.10
   8  -7   9   97.69    9.40
   8  -7   9   92.49   11.10
   9  -8   7   91.09    9.20
  -8   7   9   94.49   11.40
   7  -9   8   90.89    9.60
   9  -8   7   97.69   12.40
   9   8   7   64.89   12.10
   8   7   9   52.89   11.50
   7   9   8   57.79   11.80
   9  -1   8  919.21   77.89
  -1   8   9  902.01   78.09
  -9   1   8  979.60   77.29
   9  -1   8  919.51   76.79
   1  -8   9  940.61   78.29
   1  -8   9  939.31   76.89
   1   8   9 1067.49   78.49
  -9  -1   8 1054.59   77.39
  -1  -8   9 1124.59   78.39
   9   1   8 1094.39   76.89
  -1  -8   9 1111.19   76.89
   9   1   8 1106.19   78.19
  -9   3   8  909.81   76.69
   3  -8   9  896.61   76.49
   9  -3   8  983.60   77.49
   8  -9   3  915.71   77.09
   3  -8   9  922.11   77.79
  -3   8   9  900.21   77.69
   8  -9   3  919.81   76.29
   9  -3   8  949.31   76.39
  -9  -3   8 1114.89   76.19
   9   3   8 1151.68   76.59
  -9  -3   8 1138.09   77.29
   3   8   9 1156.58   78.29
   9   3   8 1161.38   78.09
   8  -9   5  210.58   19.90
   9  -5   8  208.58   18.10
   9  -5   8  215.18   20.40
   5  -8   9  209.78   21.00
  -9   5   8  212.38   18.70
   8  -9   5  212.88   18.00
  -5   8   9  210.98   20.50
   5  -8   9  219.68   18.30
  -9  -5   8  245.58   20.20
   9   5   8  251.47   21.50
   9   5   8  240.28   18.40
   5   8   9  246.38   21.70
   9  -7   8  100.39   13.10
   8  -9   7  100.39    9.90
   8  -9   7  105.79   13.10
   9  -7   8   96.59    9.70
   7  -8   9   83.09   10.00
   7  -8   9  125.79   14.00
  -7   8   9   93.59   12.30
   9   7   8   58.69   11.30
  -9   0   9    2.10    5.40
   0  -9   9    4.20    4.20
   0  -9   9    5.00    7.50
   0   9   9    1.70    7.00
   9  -9   0    2.00    2.90
   9   0   9   -2.20    3.90
   9   0   9    2.80    7.10
   9  -9   2  512.25   42.40
   9  -2   9  543.35   41.90
  -9   2   9  510.95   42.50
  -2   9   9  511.25   43.60
   2  -9   9  578.14   42.00
   2  -9   9  523.35   43.80
   9  -2   9  506.95   43.30
   9  -9   2  549.54   41.60
  -9  -2   9  572.94   41.30
  -9  -2   9  564.64   42.80
   2   9   9  556.94   44.00
   9   2   9  553.44   41.90
   9   2   9  575.64   43.80
   9  -9   4  363.96   31.30
   9  -4   9  335.47   30.30
  -9   4   9  359.46   31.00
  -4   9   9  364.26   32.20
   4  -9   9  340.27   30.40
   4  -9   9  381.16   32.50
   9  -4   9  383.16   32.20
   9  -9   4  343.77   30.10
  -9  -4   9  439.26   29.90
  -9  -4   9  460.15   31.90
   9   4   9  449.66   30.60
   9   4   9  470.55   33.20
   9  -6   9 1001.50   78.19
  -9   6   9  965.70   78.69
  -6   9   9 1027.70   79.49
   6  -9   9  986.20   78.19
   6  -9   9 1003.20   79.69
   9  -6   9  994.50   79.39
   9  -9   6  963.80   78.09
   9  -9   6 1003.20   79.19
   6   9   9 1179.68   80.39
   9   6   9 1202.88   80.29
   8  -9   9  112.69   12.00
   8  -9   9  127.59   15.70
   9  -8   9  127.69   15.50
   9  -9   8  118.09   11.70
   9  -9   8  124.39   15.40
   9  -8   9  126.09   11.80
   0   0  10  296.57   22.40
   0   0  10  268.07   24.50
  -2   0  10  158.48   13.20
  -2   0  10  162.38   16.10
   2   0  10  162.08   13.40
   2   0  10  160.88   16.40
  -4   0  10  428.76   33.70
   4   0  10  412.76   32.30
  -4   0  10  412.16   32.00
   6   0  10  662.33   51.19
  -6   0  10  649.14   50.89
  -6   0  10  685.93   52.29
   6   0  10  690.33   52.79
  10  -8   0  125.09   12.20
   0  10   8  142.99   16.50
  -8   0  10  139.19   11.30
  -8   0  10  128.79   14.40
  10  -8   0  147.49   11.40
   8   0  10  143.59   12.60
   8   0  10  138.19   15.80
   1  -1  10  734.93   59.09
   1  -1  10  727.83   57.69
  -1   1  10  741.53   57.69
  -1   1  10  712.63   58.99
  -1  -1  10  778.22   58.99
   1   1  10  802.62   57.69
  -1  -1  10  787.52   57.69
   1   1  10  786.02   59.09
  -3   1  10 1517.95  106.49
  -3   1  10 1508.75  107.59
   3  -1  10 1545.35  106.69
   3   1  10 1284.67  107.59
   3   1  10 1359.96  106.59
  -3  -1  10 1321.17  107.49
  -3  -1  10 1325.77  106.49
  -5   1  10  576.34   45.10
   5  -1  10  584.04   45.60
  -5   1  10  582.14   43.60
   5  -1  10  592.54   44.00
  10  -5   1  603.24   43.60
  -5  -1  10  538.95   45.10
   5   1  10  551.44   45.50
  -5  -1  10  552.84   43.60
  -7   1  10    8.50    2.60
  10  -7   1    4.10    2.80
  10  -7   1   11.40    3.80
   7  -1  10    3.50    4.10
   7  -1  10    3.20    6.80
  -7   1  10    9.10    6.00
   7   1  10   11.20    4.00
  -7  -1  10    4.00    6.00
  -7  -1  10    8.00    2.80
   7   1  10   10.60    7.10
  10  -9   1  159.98   12.90
  10  -9   1  135.19   14.10
   9  -1  10  153.68   13.80
   1 -10   9  143.69   17.30
   9  -1  10  150.88   16.90
  -9   1  10  140.19   15.30
   1 -10   9  165.78   13.90
  -1  10   9  128.29   17.50
  -9  -1  10  165.28   12.50
   9   1  10  162.38   13.90
   1  10   9  157.88   17.90
  10  -9  -1  170.98   12.70
  -9  -1  10  149.39   15.50
   9   1  10  139.89   17.10
   0  -2  10  175.18   16.20
  10   0   2  163.48   13.80
   0   2  10  153.28   13.40
  10   0   2  157.88   13.00
   0  -2  10  156.38   13.30
   0   2  10  167.58   16.30
  10  -2   2  950.70   69.59
   2  -2  10  956.20   70.89
  -2   2  10  968.30   69.49
  10  -2   2  917.51   69.29
  -2   2  10  925.01   70.69
   2  -2  10 1013.30   69.59
  -2  -2  10  865.91   69.39
   2   2  10  871.11   70.79
   2   2  10  861.91   69.49
  -2  -2  10  828.02   70.59
  -4   2  10  349.47   29.20
   4  -2  10  349.17   27.80
  10  -4   2  359.36   27.30
   4  -2  10  360.06   29.70
  10  -4   2  360.76   27.70
  -4   2  10  355.36   27.40
   6  -2  10  555.74   45.10
   6  -2  10  541.45   46.60
  10  -6   2  549.95   45.10
  -6   2  10  559.84   44.70
  10  -6   2  558.74   44.80
  -6   2  10  555.04   46.10
   6   2  10  722.83   47.10
  -6  -2  10  702.43   46.50
  10  -8   2  179.68   14.90
  10  -8   2  176.38   15.90
  -8   2  10  188.68   17.20
   8  -2  10  182.18   18.60
  -2  10   8  186.18   18.80
   8  -2  10  193.68   15.60
  10  -1   3 1599.04  108.29
   1  -3  10 1536.65  109.09
  -1   3  10 1556.84  107.89
  -1   3  10 1534.05  108.99
  10  -1   3 1433.56  107.69
   1  -3  10 1486.65  107.89
   1   3  10 1335.77  107.79
   1   3  10 1289.77  108.89
  -1  -3  10 1328.37  108.89
  10   1   3 1384.46  108.39
  -1  -3  10 1309.67  107.79
  10   1   3 1335.87  107.79
   3  -3  10  116.79   12.90
  -3   3  10   94.19    8.50
  10  -3   3   92.19    9.50
   3  -3  10   90.49    9.00
  10  -3   3   82.99    8.30
  -3   3  10   91.39   12.10
   5  -3  10  248.48   19.60
  10  -5   3  262.97   19.20
   5  -3  10  249.78   22.20
  -5   3  10  247.58   19.20
  -5   3  10  239.88   21.40
  10  -5   3  249.08   20.00
   5   3  10  225.18   22.10
  -5  -3  10  241.08   19.20
   5   3  10  251.17   19.70
  -5  -3  10  210.48   21.40
  10  -7   3  263.47   21.20
  -7   3  10  235.88   22.10
   7  -3  10  239.68   23.00
  10  -7   3  246.38   20.20
   7  -3  10  254.87   20.70
  -7  -3  10  255.37   20.10
  -7  -3  10  257.07   22.40
   7   3  10  280.57   23.70
   7   3  10  279.37   20.80
  10  -9   3  112.29   10.40
   3 -10   9  118.89   11.50
  -3  10   9  120.19   15.40
   9  -3  10  115.49   11.20
   3 -10   9  116.59   15.70
  -9   3  10  117.59   12.90
  10  -9   3  120.09   12.30
   9  -3  10  104.39   12.90
  10   0   4  416.96   32.30
   0  -4  10  426.86   34.20
   0   4  10  405.16   34.20
   0  -4  10  394.96   32.40
  10   0   4  451.25   33.40
   0   4  10  430.46   32.50
  -2   4  10  354.76   28.70
  -2   4  10  352.56   26.70
   2  -4  10  329.17   28.70
   2  -4  10  319.97   26.70
  10  -2   4  369.36   27.50
  10  -2   4  337.07   26.50
  10  -4   4 1298.07   90.09
   4  -4  10 1288.57   91.59
  10  -4   4 1321.27   90.69
  -4   4  10 1289.77   90.09
   4  -4  10 1289.47   90.29
  -4   4  10 1258.67   91.29
   4   4  10  984.80   90.19
  10   4   4 1023.70   91.09
   4   4  10  958.50   91.39
   6  -4  10  185.18   17.70
  10  -6   4  197.38   15.60
  -6   4  10  182.58   16.80
   6  -4  10  181.78   14.70
  10  -6   4  187.98   14.30
  -6   4  10  187.08   13.90
   6   4  10  158.28   18.00
  -6  -4  10  156.28   17.00
   6   4  10  158.38   14.80
  -6  -4  10  142.49   14.20
   4 -10   8  159.28   19.10
   8  -4  10  164.08   16.10
   8  -4  10  155.18   18.90
   4 -10   8  209.28   17.40
  -8   4  10  158.68   17.80
  10  -8   4  159.48   16.90
   8   4  10  230.88   20.20
   4  10   8  235.18   20.50
  -8  -4  10  217.88   15.40
  -8  -4  10  225.98   18.40
  -1   5  10  594.14   43.70
   1  -5  10  584.74   43.70
  -1   5  10  570.34   45.40
  10  -1   5  596.44   43.60
  10  -1   5  612.54   44.60
  -1  -5  10  550.84   45.20
   1   5  10  537.25   45.30
  10   1   5  565.84   44.70
  -1  -5  10  563.64   43.70
 -10  -1   5  532.55   43.70
   1   5  10  562.64   43.70
  10   1   5  571.44   43.60
  10  -3   5  235.48   20.30
  -3   5  10  242.38   19.00
  10  -3   5  255.27   19.10
  -3   5  10  222.38   21.60
   3  -5  10  239.78   22.00
   3  -5  10  253.97   19.30
  10   3   5  243.28   19.20
  -3  -5  10  231.78   19.10
  10   3   5  237.38   21.10
   3   5  10  235.18   22.00
  -3  -5  10  217.28   21.40
   3   5  10  239.88   19.40
  10  -5   5   16.10    4.20
   5  -5  10   27.10    7.90
   5  -5  10   22.70    4.80
  10  -5   5   19.00    6.00
  -5   5  10   20.70    6.90
  -5  -5  10   30.00    7.90
   5   5  10   27.10    4.90
  -5  -5  10   36.00    4.40
   5   5  10   23.60    6.90
  10   5   5   28.90    7.70
  10  -7   5  296.37   23.90
   7  -5  10  305.47   24.20
  10  -7   5  301.37   25.10
  -7   5  10  292.97   25.80
   5 -10   7  326.67   24.30
   7  -5  10  315.87   26.70
   5 -10   7  292.37   26.50
   5 -10   9  107.49   10.80
   9  -5  10  102.99   14.50
   9  -5  10  110.49   10.90
  10  -9   5  100.99   12.70
  -9   5  10  102.89   12.70
   5 -10   9  120.69   15.00
  10  -9   5  104.79   10.20
 -10   0   6  668.53   51.69
   0  -6  10  692.63   53.19
   0   6  10  677.53   51.59
   0   6  10  670.33   53.29
  10   0   6  680.13   52.59
   0  -6  10  668.53   51.59
  10   0   6  673.93   51.49
   2  -6  10  698.53   53.29
   2  -6  10  565.94   50.59
  10  -2   6  550.24   50.49
  10  -2   6  562.54   51.39
  -2   6  10  556.74   50.49
   2   6  10  716.13   52.49
  10   2   6  736.13   51.99
  10   2   6  730.63   50.69
  -2  -6  10  716.13   50.59
   2   6  10  751.92   50.79
  -2  -6  10  718.73   52.29
 -10  -2   6  695.43   51.09
   4  -6  10  184.38   15.20
  10  -4   6  201.18   16.70
  10  -4   6  198.28   14.80
  -4   6  10  200.78   17.90
   4  -6  10  193.18   18.00
  10   4   6  160.88   17.60
   4   6  10  203.78   16.40
   4   6  10  154.28   18.40
  -4  -6  10  167.08   18.00
  -4  -6  10  148.19   14.80
  10   4   6  156.68   15.00
   6 -10   6  214.28   20.90
   6  -6  10  220.18   21.40
   6 -10   6  237.08   18.60
  10  -6   6  228.88   18.30
  10  -6   6  242.68   20.10
  -6   6  10  215.68   20.70
   6  -6  10  220.68   18.60
  -6  -6  10  218.78   21.30
  -6  -6  10  224.98   18.30
   6   6  10  220.98   18.70
   6   6  10  235.38   22.00
  10   6   6  248.08   21.70
  10  -8   6  202.38   17.70
   6 -10   8  201.08   20.90
  10  -8   6  183.88   19.60
   6 -10   8  198.28   18.00
  -8   6  10  203.58   19.70
   8  -6  10  191.18   18.00
   8  -6  10  190.28   20.80
   6  10   8  250.37   22.00
  -8  -6  10  255.47   17.70
   8   6  10  235.28   18.30
   8   6  10  258.97   22.10
  -8  -6  10  255.07   21.30
   1  -7  10    9.80    4.30
  10  -1   7   13.50    6.40
  10  -1   7    7.30    3.80
   1  -7  10    8.90    7.30
  -1   7  10    7.60    7.10
 -10   1   7   10.60    4.40
  -1  -7  10    8.10    4.10
  10   1   7   14.70    6.70
  10   1   7   10.90    3.90
   1   7  10    7.90    7.20
 -10  -1   7   10.00    4.70
  -1  -7  10   18.50    7.60
  -3   7  10  260.77   24.10
  10  -3   7  263.97   23.20
   3  -7  10  330.07   26.80
  10  -3   7  260.77   21.60
   3  -7  10  253.27   21.80
  10   3   7  270.27   21.80
  -3  -7  10  288.37   24.60
  -3  -7  10  287.27   21.70
 -10  -3   7  264.57   22.70
  10   3   7  272.27   23.90
  10  -5   7  315.37   26.20
   7 -10   5  316.07   24.70
  -5   7  10  294.87   26.70
   7 -10   5  301.47   26.40
   5  -7  10  316.17   27.30
   5  -7  10  310.57   24.80
  10  -5   7  322.37   24.60
  -7   7  10 1201.28   92.49
   7 -10   7 1208.58   91.39
  10  -7   7 1230.68   92.39
  10  -7   7 1198.88   91.39
   7  -7  10 1210.58   92.89
   7  -7  10 1189.28   91.49
   7 -10   7 1199.38   92.69
   7 -10   9  666.33   51.99
   9  -7  10  632.94   51.79
   7 -10   9  630.04   50.09
   9  -7  10  630.04   50.09
  -9   7  10  620.34   50.89
  10  -9   7  647.34   49.90
  10  -9   7  624.54   51.29
   9   7  10  784.82   52.99
   0   8  10  131.19   16.40
   0  -8  10  155.48   12.90
 -10   0   8  133.49   13.40
   0  -8  10  133.09   16.50
  10   0   8  140.89   15.50
  10   0   8  147.89   12.60
   2  -8  10  183.08   15.60
   2  -8  10  181.08   18.70
 -10   2   8  183.58   15.90
  -2   8  10  182.68   18.70
  10  -2   8  183.48   15.50
  10  -2   8  199.58   17.80
   8 -10   2  175.98   15.10
  -4   8  10  141.99   16.80
   8 -10   4  163.38   15.60
 -10   4   8  159.28   13.80
  10  -4   8  157.38   13.50
   4  -8  10  151.48   13.80
   8 -10   4  154.58   13.40
  10  -4   8  152.18   16.00
   4  -8  10  156.28   17.20
  10  -6   8  184.88   19.80
  10  -6   8  195.68   17.40
   8 -10   6  198.98   19.70
   6  -8  10  203.38   17.70
   6  -8  10  200.78   20.90
  -6   8  10  193.88   20.00
   8 -10   6  195.78   17.40
   6   8  10  258.27   21.80
  10   6   8  264.37   21.60
  -6  -8  10  264.57   21.20
  -8   8  10   82.09   10.40
   8  -8  10   75.79   11.80
  10  -8   8   75.69    9.50
  10  -8   8   86.09   11.20
   8 -10   8   84.29    9.90
   8  -8  10   85.59   10.00
   8 -10   8   84.39   11.40
   8   8  10  141.79   16.50
  -1   9  10  143.79   17.70
   9 -10   1  158.78   13.20
  10  -1   9  147.09   13.90
   1  -9  10  166.28   14.10
 -10   1   9  134.19   14.80
   1  -9  10  189.28   21.20
  10  -1   9  149.09   16.70
  -1  -9  10  178.28   14.10
 -10  -1   9  146.09   15.10
  10   1   9  170.48   17.50
   1   9  10  139.49   17.80
  10   1   9  170.08   14.00
  -1  -9  10  167.48   18.00
   3  -9  10  122.19   12.10
   9 -10   3  118.89   11.30
   3  -9  10  114.39   15.80
  10  -3   9  116.99   14.90
  10  -3   9  126.49   11.90
  -3   9  10  118.99   15.80
   9 -10   3  117.49   13.50
 -10   3   9  113.29   12.70
  -3  -9  10  180.68   16.40
   3   9  10  176.88   17.00
   5  -9  10   89.49   12.20
  10  -5   9  106.39   14.10
   5  -9  10  112.39   10.80
   9 -10   5  100.09   10.00
 -10   5   9   89.19   11.10
  -5   9  10  106.79   14.30
   9 -10   5   89.99   12.80
  10  -5   9  102.49   10.50
   7  -9  10  622.74   49.20
  10  -7   9  647.34   49.10
  10  -7   9  650.33   50.79
   9 -10   7  610.04   49.00
   9 -10   7  635.34   50.69
  -7   9  10  680.23   50.79
   7  -9  10  633.34   51.19
   9 -10   9  612.84   47.30
   9 -10   9  594.44   49.30
   9  -9  10  608.94   47.30
   9  -9  10  611.04   49.50
  10  -9   9  588.14   49.10
  10  -9   9  591.74   47.30
   9   9  10  700.83   50.79
 -10   0  10  265.87   22.60
   0 -10  10  265.57   21.50
   0 -10  10  283.07   24.90
   0  10  10  262.77   24.80
  10 -10   0  254.17   20.70
  10   0  10  267.37   21.40
  10   0  10  246.08   24.20
  10  -2  10 1433.36  109.49
  10  -2  10 1457.55  110.79
 -10   2  10 1498.85  110.09
  10 -10   2 1392.56  109.19
  -2  10  10 1461.95  111.09
   2 -10  10 1421.96  109.49
   2 -10  10 1501.25  111.29
  10 -10   2 1420.36  109.89
  10 -10  -2 1418.76  109.09
  -2 -10  10 1472.05  111.19
   2  10  10 1471.45  111.29
 -10  -2  10 1380.96  108.99
 -10  -2  10 1418.96  110.19
  10   2  10 1444.56  109.49
  10   2  10 1502.95  111.09
  10 -10   4 1628.24  123.59
  10  -4  10 1613.54  122.89
 -10   4  10 1643.14  123.39
  -4  10  10 1643.34  124.39
   4 -10  10 1548.65  122.89
   4 -10  10 1626.64  124.49
  10  -4  10 1653.13  124.19
  10 -10   4 1587.84  122.69
 -10  -4  10 1533.45  122.49
 -10  -4  10 1666.63  123.89
   4  10  10 1655.33  124.79
  10   4  10 1627.14  122.99
  10   4  10 1694.43  124.59
  10  -6  10  778.52   59.09
  10  -6  10  809.72   60.79
 -10   6  10  767.02   59.59
   6 -10  10  751.92   59.09
   6 -10  10  785.72   61.09
  10 -10   6  791.82   60.29
  10 -10   6  781.92   58.89
   6  10  10  759.92   61.59
 -10  -6  10  728.43   58.69
 -10  -6  10  793.02   60.79
  10   6  10  739.03   61.29
  10  -8  10  136.39   12.30
   8 -10  10  133.59   12.50
   8 -10  10  115.89   16.70
  10  -8  10  120.99   16.40
  10 -10   8  126.69   12.10
  10 -10   8  119.69   15.70
 -10  -8  10   98.19   14.00
   8  10  10   96.59   15.50
  10   8  10   94.79   14.60
  10 -10  10  163.18   15.20
  10 -10  10  162.88   19.50
   1   0  11 1613.74  120.89
  -1   0  11 1546.85  121.99
  -1   0  11 1637.04  120.89
   3   0  11  897.01   68.39
   3   0  11  877.71   66.89
  -3   0  11  883.31   68.19
  -3   0  11  865.61   66.69
   5   0  11   66.89   10.00
   5   0  11   63.89    8.40
  -5   0  11   76.79    7.20
  -5   0  11   78.09    9.60
   7   0  11   78.89    8.30
  -7   0  11   53.79    6.40
   7   0  11   65.49   10.00
  11  -7   0   58.89    6.10
  -7   0  11   66.29    9.00
   0  11   9  579.04   46.10
  -9   0  11  600.14   44.80
   9   0  11  574.24   45.60
  -9   0  11  552.04   42.90
  11  -9   0  531.15   43.00
   9   0  11  565.64   43.60
   0   1  11 1520.25  120.49
   0   1  11 1607.04  119.39
   0  -1  11 1559.84  120.59
   0  -1  11 1627.64  119.39
   2  -1  11 1337.67  114.79
  -2   1  11 1333.47  114.69
  -2   1  11 1360.76  113.59
   2  -1  11 1342.97  113.69
   2   1  11 1734.23  113.79
  -2  -1  11 1743.73  114.99
   2   1  11 1690.83  115.09
   4  -1  11  716.93   57.19
  -4   1  11  666.63   55.29
  -4   1  11  668.53   56.79
   4  -1  11  670.03   55.49
  11  -4   1  646.64   55.19
  -4  -1  11  794.52   55.39
  -4  -1  11  777.22   56.89
   4   1  11  820.82   57.29
   4   1  11  811.82   55.59
   6  -1  11   19.20    7.40
  -6   1  11   18.20    6.90
   6  -1  11   19.50    4.60
  -6   1  11   22.00    3.40
  11  -6   1   19.40    3.30
  -6  -1  11   17.60    3.50
  -6  -1  11   22.00    7.10
   6   1  11   16.30    4.50
   6   1  11   19.70    7.70
  11  -8   1  870.91   68.39
  -8   1  11  890.91   69.69
   8  -1  11  883.01   70.29
   8  -1  11  887.51   68.79
  -8   1  11  864.91   68.29
  11  -8  -1  908.71   68.49
  -8  -1  11  955.30   68.39
   8   1  11  927.41   70.39
   8   1  11  923.51   68.79
  -8  -1  11  918.41   69.79
   1 -11  10   48.70    7.90
  10  -1  11   25.70    9.30
 -10   1  11   29.30    7.70
  10  -1  11   31.70    6.10
  11 -10   1   36.00    4.90
   1 -11  10   32.90   10.20
  11 -10   1   31.50    6.20
  -1  11  10   19.30    9.90
  10   1  11   60.59   10.10
   1  11  10   46.60   10.00
  10   1  11   53.19    6.30
 -10  -1  11   54.59    8.20
   1  -2  11 1332.17  100.89
  11  -1   2 1295.17  100.69
   1  -2  11 1336.27  102.09
  11  -1   2 1278.77  100.89
  -1   2  11 1383.96  100.79
  -1   2  11 1375.66  102.09
  -3   2  11  948.71   78.99
   3  -2  11 1025.80   79.29
   3  -2  11 1052.99   77.89
  11  -3   2 1011.40   77.59
  -3   2  11 1019.70   77.79
   3   2  11 1034.90   79.29
   3   2  11 1069.99   77.89
  -3  -2  11 1069.29   77.79
  -3  -2  11 1002.00   78.99
   5  -2  11    9.70    7.40
  -5   2  11   16.00    3.40
  11  -5   2   15.70    3.30
  -5   2  11   11.20    6.70
   5  -2  11   15.10    4.40
   5   2  11   28.40    7.90
  -5  -2  11   26.40    6.90
  11  -7   2   36.20    5.40
   7  -2  11   39.60    5.30
  11  -7   2   39.20    4.50
   7  -2  11   30.50    8.70
  -7   2  11   38.00    4.30
  -7   2  11   40.30    7.70
   7   2  11   31.10    8.30
   7   2  11   38.90    5.60
  -7  -2  11   38.40    4.50
  -7  -2  11   38.10    7.80
  11  -9   2  167.48   13.30
   2 -11   9  177.08   18.20
  11  -9   2  161.18   14.50
  -9   2  11  179.68   16.40
   2 -11   9  150.08   14.30
   9  -2  11  166.78   14.40
   9  -2  11  173.38   18.00
  -9  -2  11  179.48   16.50
  -9  -2  11  147.49   13.00
   9   2  11  184.38   18.90
   9   2  11  161.08   14.30
  11  -9  -2  128.49   13.30
   0   3  11  880.71   67.79
  11   0   3  875.71   66.79
   0  -3  11  855.51   66.39
  11   0   3  864.01   66.19
   0  -3  11  897.91   67.89
   0   3  11  873.31   66.39
  -2   3  11 1012.20   76.59
   2  -3  11 1003.90   78.19
  11  -2   3  978.70   76.89
  -2   3  11  947.71   77.89
   2  -3  11 1039.10   76.69
  11  -2   3  986.90   76.49
  -2  -3  11 1046.50   76.59
  -2  -3  11 1034.90   77.99
   2   3  11  994.60   78.09
   2   3  11 1059.79   76.69
  11  -4   3    0.20    4.10
  11  -4   3    1.80    3.10
  -4   3  11    3.80    3.10
   4  -3  11    0.00    3.90
   4  -3  11   -2.60    6.90
  -4   3  11    3.70    6.50
  -4  -3  11   11.50    6.70
  -4  -3  11   13.00    3.40
   4   3  11    9.00    7.20
   4   3  11   13.70    3.90
  11  -6   3  403.46   31.70
   6  -3  11  403.66   33.70
  11  -6   3  413.26   31.10
   6  -3  11  396.96   31.50
  -6   3  11  401.86   33.00
  -6   3  11  405.86   31.10
   8  -3  11 1932.11  148.99
  11  -8   3 1818.82  147.89
  -8   3  11 1837.52  148.39
  11  -8   3 1817.82  147.39
   3 -11   8 1838.82  147.69
   8   3  11 2112.09  147.79
   8   3  11 2070.99  149.29
  -8  -3  11 2034.90  147.39
  -8  -3  11 2132.89  148.79
   3 -11  10  231.38   20.30
  10  -3  11  200.48   23.20
   3 -11  10  226.08   24.10
  11 -10   3  220.68   19.40
 -10   3  11  198.48   21.30
  10  -3  11  224.48   20.20
  11 -10   3  209.68   20.70
  -3  11  10  217.68   23.60
 -10  -3  11  265.07   22.10
  10   3  11  288.87   24.60
 -10  -3  11  273.37   19.10
  10   3  11  265.27   20.30
  11 -10  -3  275.27   18.90
   3  11  10  268.37   24.80
  -1   4  11  683.23   56.69
  11  -1   4  666.53   56.59
   1  -4  11  672.23   58.19
  11  -1   4  681.63   57.29
   1  -4  11  677.33   56.69
  -1   4  11  683.33   58.19
   1   4  11  796.72   56.79
 -11  -1   4  789.22   56.69
  -1  -4  11  790.62   56.79
  11   1   4  843.82   57.59
   1   4  11  783.52   58.39
  11   1   4  799.72   56.69
  -1  -4  11  824.02   58.39
   3  -4  11    2.70    3.80
  -3   4  11    9.00    6.70
  -3   4  11    3.40    3.50
  11  -3   4   -0.30    3.20
   3  -4  11   -4.90    6.90
  11  -3   4   -2.80    4.70
   3   4  11   10.30    4.10
  -3  -4  11   12.70    3.60
   3   4  11   16.30    7.60
  11   3   4   15.50    6.60
  -3  -4  11   12.70    6.60
   5  -4  11  141.39   16.50
  11  -5   4  151.88   12.30
   5  -4  11  152.68   12.90
  -5   4  11  136.59   15.60
  -5   4  11  146.09   12.20
  11  -5   4  155.98   13.60
   5   4  11   94.29   16.30
  11  -7   4   64.99    7.50
   7  -4  11   70.79    8.60
  -7   4  11   55.09    6.70
   7  -4  11   63.59   10.00
  -7   4  11   66.89    9.40
  11  -7   4   67.39    8.10
   7   4  11  102.79   11.60
  -7  -4  11  104.59   12.30
  11  -9   4   52.39    7.30
   9  -4  11   46.70    6.00
  11  -9   4   51.19    5.60
   4 -11   9   38.60    6.20
  -9   4  11   63.69    8.60
   9  -4  11   55.59    9.80
   4 -11   9   53.79   10.10
   9   4  11   32.60    6.40
   4  11   9   37.40    9.30
  -9  -4  11   33.00    5.10
   9   4  11   37.10   10.40
  -9  -4  11   30.60    8.50
  11   0   5   70.49    7.70
   0   5  11   70.89    8.10
  11   0   5   72.49    8.80
   0   5  11   77.19   10.10
   0  -5  11   67.49    9.60
   0  -5  11   65.49    7.90
  11  -2   5   13.00    5.90
   2  -5  11   15.30    7.30
  -2   5  11   11.00    7.50
  -2  -5  11   43.30    5.00
 -11  -2   5   30.40    5.10
  -2  -5  11   28.90    7.70
   2   5  11   33.10    5.00
  11   2   5   31.50    4.70
  11   2   5   35.30    6.90
   2   5  11   32.60    7.90
  11  -4   5  161.98   14.40
   4  -5  11  140.79   16.60
  -4   5  11  146.69   12.60
  11  -4   5  151.08   12.70
   4  -5  11  142.59   13.00
  -4   5  11  145.09   16.30
   6  -5  11  405.26   30.20
  -6   5  11  411.46   29.50
  11  -6   5  412.16   28.40
  -6  -5  11  287.87   29.30
   6   5  11  289.87   27.50
   6   5  11  287.07   30.20
   8  -5  11 1301.47   93.09
  11  -8   5 1185.28   91.99
   8  -5  11 1195.28   91.39
  -8   5  11 1251.17   92.39
   5 -11   8 1224.18   92.99
  11  -8   5 1212.78   91.19
   5 -11   8 1178.88   91.39
  -8  -5  11 1181.08   92.59
  -8  -5  11 1161.38   91.09
   8   5  11 1185.28   91.49
   8   5  11 1172.88   93.19
  11 -10   5  401.76   29.80
  10  -5  11  382.46   28.50
  10  -5  11  394.96   31.50
  11 -10   5  357.56   28.10
   5 -11  10  392.36   31.80
 -10   5  11  380.36   29.70
   5 -11  10  382.96   28.60
 -10  -5  11  317.87   30.40
  10   5  11  278.97   31.60
  10   5  11  305.77   28.60
   5  11  10  326.77   32.40
   1  -6  11   22.50   12.30
  -1   6  11   12.50    7.70
  11  -1   6   16.70    4.20
  -1   6  11   23.30    4.40
  11  -1   6   21.40    6.70
   1  -6  11   20.50    4.60
 -11  -1   6   26.40    4.70
   1   6  11   28.30    7.20
  -1  -6  11   16.10    7.80
  11   1   6   27.60    4.70
  -1  -6  11   25.40    4.60
  11   1   6   25.70    7.10
   1   6  11   27.20    4.80
   3  -6  11  405.36   36.00
  11  -3   6  408.46   36.90
  11  -3   6  409.96   35.90
   3  -6  11  398.06   37.90
  -3   6  11  417.46   35.80
  -3   6  11  408.96   37.90
  -3  -6  11  578.74   38.40
   3   6  11  532.45   36.20
 -11  -3   6  553.34   36.70
  11   3   6  556.84   36.10
   5  -6  11  400.76   26.70
   5  -6  11  421.46   29.60
  -5   6  11  412.86   29.10
   5   6  11  282.27   26.60
  11   5   6  295.97   28.70
   5   6  11  277.47   29.40
  -5  -6  11  271.27   28.80
  11  -7   6  117.99   11.50
   7  -6  11  124.69   12.00
   6 -11   7  113.09   13.80
   6 -11   7  123.19   12.10
  11  -7   6  113.39   13.80
   7  -6  11  108.69   13.90
  -7   6  11  115.99   15.10
   7   6  11  146.09   12.50
   7   6  11  145.99   17.00
  -7  -6  11  162.68   15.90
   6 -11   9  468.65   38.10
  11  -9   6  426.16   36.70
   6 -11   9  440.16   35.60
   9  -6  11  436.96   35.70
   9  -6  11  455.05   38.10
  11  -9   6  430.26   35.30
  -9   6  11  455.75   36.90
   9   6  11  571.34   39.10
  11   0   7   75.99    9.40
  11   0   7   63.59    7.80
   0   7  11   67.89   10.30
   0  -7  11   54.79    9.70
   0  -7  11   59.49    8.00
 -11   0   7   59.49    8.20
  11  -2   7   35.20    5.10
   2  -7  11   26.80    8.40
   2  -7  11   34.60    5.50
  11  -2   7   38.40    7.40
  -2   7  11   41.00    8.90
  -2  -7  11   42.90    9.10
   2   7  11   34.20    5.30
  -2  -7  11   34.80    5.40
  11   2   7   37.90    5.40
   2   7  11   38.50    8.90
 -11  -2   7   33.70    6.10
  11   2   7   52.39    8.80
   7 -11   4   67.19    8.90
   4  -7  11   67.39    9.10
   4  -7  11   71.19   11.30
  -4   7  11   58.59   10.50
  11  -4   7   70.49    9.90
  11  -4   7   71.39    8.80
 -11  -4   7   95.99   11.20
   4   7  11   99.59    9.80
  11   4   7   95.19    9.30
  -4  -7  11  104.29    9.20
  -4  -7  11  116.09   13.70
   4   7  11   89.69   11.60
  11   4   7   96.09   11.20
   6  -7  11  114.09   14.50
   7 -11   6  138.39   15.70
   6  -7  11  122.69   12.50
  11  -6   7  120.99   14.60
  11  -6   7  116.79   12.10
  -6   7  11  122.09   15.50
   7 -11   6  130.89   12.50
   6   7  11  155.68   13.00
   6   7  11  165.18   17.50
  11   6   7  130.09   16.60
  -6  -7  11  166.68   16.90
   7 -11   8  664.53   51.29
  11  -8   7  655.23   50.49
   8  -7  11  664.63   49.40
  -8   7  11  675.83   50.79
   7 -11   8  661.13   49.40
  11  -8   7  684.43   49.20
   8  -7  11  658.53   51.59
  -8  -7  11  586.04   51.39
  -8  -7  11  579.44   49.10
   8   7  11  566.34   51.89
   7 -11  10  145.69   19.00
  11 -10   7  158.08   17.40
 -10   7  11  145.29   16.40
  11 -10   7  172.78   14.60
  10  -7  11  182.48   19.30
  10  -7  11  176.98   15.10
   7 -11  10  185.08   15.20
  10   7  11  118.89   17.20
 -10  -7  11  128.59   18.70
  11  -1   8  890.31   71.19
  11  -1   8  911.61   69.99
 -11   1   8  939.41   70.19
   1  -8  11  875.61   71.69
   1  -8  11  868.61   69.99
  -1   8  11  904.11   71.69
  11   1   8  992.50   71.59
 -11  -1   8  866.21   70.29
  11   1   8  919.31   69.99
  -1  -8  11  981.00   71.79
  -1  -8  11  941.91   69.99
   1   8  11  954.50   71.89
  11  -3   8 1894.01  152.08
  11  -3   8 1892.61  151.18
   3  -8  11 1809.72  152.58
   3  -8  11 1896.91  151.28
  -3   8  11 1888.01  152.58
   8 -11   3 1874.61  151.08
 -11  -3   8 2069.79  151.88
   3   8  11 2101.79  152.98
  -3  -8  11 2097.79  151.28
  11   3   8 2089.19  151.28
 -11  -3   8 2047.60  150.88
  -3  -8  11 2127.89  152.88
  11   3   8 2244.18  152.68
   8 -11   5 1245.38   94.29
  11  -5   8 1228.28   94.19
  11  -5   8 1242.18   93.09
  -5   8  11 1256.87   94.59
   5  -8  11 1169.58   93.19
   5  -8  11 1220.88   94.79
   8 -11   5 1231.48   93.09
  -5  -8  11 1260.77   94.89
   5   8  11 1201.78   95.09
  11   5   8 1276.77   94.89
  -5  -8  11 1165.28   93.09
 -11  -5   8 1239.48   94.09
  11  -7   8  653.13   48.70
   7  -8  11  634.14   51.09
  -7   8  11  672.03   50.49
  11  -7   8  686.03   50.29
   8 -11   7  680.33   48.80
   8 -11   7  650.13   50.49
   7  -8  11  661.43   48.90
  -7  -8  11  572.24   48.60
  11   7   8  587.24   51.29
   7   8  11  560.94   51.29
  -7  -8  11  596.54   50.99
   9  -8  11  113.49   11.90
  11  -9   8  118.79   15.20
   8 -11   9   99.99   11.90
  -9   8  11  116.79   14.30
  11  -9   8  110.89   11.50
   9  -8  11  113.79   13.90
   8 -11   9  109.49   15.90
  11   0   9  574.84   44.40
  11   0   9  572.24   46.40
   0  -9  11  569.14   44.50
   0   9  11  580.54   46.80
   0  -9  11  583.44   46.90
 -11   0   9  581.64   45.00
   9 -11   2  156.18   14.20
  -2   9  11  194.98   19.10
 -11   2   9  163.48   15.20
   2  -9  11  152.28   14.80
  11  -2   9  172.38   17.80
   2  -9  11  179.98   18.70
  11  -2   9  178.88   14.80
  11   2   9  168.58   14.90
  -2  -9  11  152.08   14.90
 -11  -2   9  169.18   15.90
   2   9  11  164.08   19.00
  -2  -9  11  179.28   19.40
  11   2   9  190.08   18.70
 -11   4   9   61.79    6.80
   4  -9  11   53.19   10.10
  -4   9  11   62.79   10.00
   9 -11   4   52.69    8.40
  11  -4   9   53.39    6.50
  11  -4   9   60.09    9.30
   4  -9  11   47.30    6.60
   9 -11   4   55.09    6.10
 -11  -4   9   30.70    8.10
   4   9  11   37.50   10.10
  11   4   9   30.60    6.80
  11   4   9   32.80    9.50
  -4  -9  11   38.50    9.90
  11  -6   9  449.86   36.70
   6  -9  11  461.35   37.60
  11  -6   9  439.76   34.70
  -6   9  11  472.95   37.10
   9 -11   6  439.26   36.50
   9 -11   6  441.26   34.70
   6  -9  11  419.16   34.80
  11  -8   9  110.19   11.80
   9 -11   8  109.99   13.60
  -8   9  11  122.49   15.30
  11  -8   9  129.99   15.90
   9 -11   8  100.29   11.90
   8  -9  11  113.39   12.10
   8  -9  11  118.39   17.00
   8   9  11  168.38   18.70
  11 -10   9  120.19   12.40
  11 -10   9  114.99   14.00
  10  -9  11  109.99   12.60
   9 -11  10  106.19   12.60
  10  -9  11  118.09   15.00
   9 -11  10  134.19   15.10
  10   9  11  178.98   19.90
  11  -1  10   31.80    9.50
  -1  10  11   21.90    9.70
  10 -11   1   44.20    5.30
   1 -10  11   39.60    6.30
   1 -10  11   14.40    9.50
 -11   1  10   24.60    7.00
  11  -1  10   32.70    6.30
  -1 -10  11   64.39    8.40
   1  10  11   48.40   11.30
 -11  -1  10   61.19    7.90
  11   1  10   39.80    9.70
  11   1  10   58.69    6.80
  -1 -10  11   53.59   10.30
  -3  10  11  203.08   23.00
 -11   3  10  192.18   20.20
  10 -11   3  195.18   20.80
  11  -3  10  211.68   19.50
   3 -10  11  177.18   23.00
  10 -11   3  226.48   19.00
   3 -10  11  223.68   19.50
  11  -3  10  209.48   22.30
 -11  -3  10  266.67   21.30
  11   3  10  273.57   19.90
  11   3  10  271.27   23.70
  -3 -10  11  280.87   23.70
 -11  -3  10  272.67   18.40
   3  10  11  261.87   23.90
 -11   5  10  392.96   29.70
  11  -5  10  398.06   29.30
  10 -11   5  410.46   31.00
  -5  10  11  407.76   32.20
  11  -5  10  420.46   31.70
   5 -10  11  408.56   29.50
   5 -10  11  391.46   32.50
  10 -11   5  395.16   29.10
 -11  -5  10  302.57   30.90
  11   5  10  302.07   29.40
  -5 -10  11  319.17   32.40
  11   5  10  315.87   32.50
   5  10  11  293.97   32.60
   7 -10  11  172.68   15.60
  11  -7  10  182.18   19.00
  10 -11   7  159.58   18.40
  11  -7  10  185.68   15.50
   7 -10  11  179.88   19.90
  10 -11   7  179.28   15.10
 -11  -7  10  128.69   18.90
  -7 -10  11  125.39   19.90
  10 -11   9  116.49   12.80
  11  -9  10  107.69   12.70
  11  -9  10  113.99   16.70
   9 -10  11  115.69   12.90
  10 -11   9  120.29   14.50
   9 -10  11  126.09   15.20
 -11  -9  10  168.58   18.20
   9  10  11  186.88   20.40
 -11   0  11 1819.12  131.39
   0 -11  11 1821.32  130.69
   0  11  11 1512.45  132.29
  11 -11   0 1762.22  130.29
  11 -11   0 1669.03  130.79
  11   0  11 1719.83  130.59
  11   0  11 1759.52  132.19
  11  -2  11 1126.49   89.89
  11  -2  11 1129.09   88.39
 -11   2  11 1173.18   88.99
  11 -11   2 1093.79   88.79
  11 -11   2 1150.68   88.09
  -2  11  11 1169.38   90.49
   2 -11  11 1137.49   88.39
   2 -11  11 1144.59   90.49
   2  11  11 1147.49   90.59
  11 -11  -2 1165.78   87.89
  -2 -11  11 1232.88   90.59
  -2 -11  11 1201.58   88.39
 -11  -2  11 1185.68   89.29
 -11  -2  11 1163.58   87.79
  11   2  11 1168.58   88.39
  11   2  11 1213.58   90.39
  11  -4  11  268.77   19.90
  11  -4  11  258.57   23.10
 -11   4  11  242.88   20.80
  11 -11   4  253.77   19.20
  -4  11  11  268.17   24.00
   4 -11  11  269.47   19.90
   4 -11  11  273.37   24.00
  11 -11   4  243.08   21.10
  11 -11  -4  204.48   18.20
  -4 -11  11  210.78   23.80
   4  11  11  232.28   24.70
 -11  -4  11  209.98   18.60
 -11  -4  11  196.08   21.70
  11   4  11  198.88   20.00
  11   4  11  203.78   23.90
  11  -6  11  639.84   50.59
  11  -6  11  642.84   52.79
 -11   6  11  619.24   51.09
   6 -11  11  654.73   50.69
   6 -11  11  623.04   52.89
  11 -11   6  616.84   51.79
  11 -11   6  645.84   50.39
   6  11  11  669.03   53.89
 -11  -6  11  701.63   50.19
 -11  -6  11  720.63   52.59
  11   6  11  684.63   53.59
  11  -8  11  532.25   44.10
  11  -8  11  534.05   41.60
   8 -11  11  545.35   41.60
   8 -11  11  492.45   44.10
  11 -11   8  525.25   43.40
  11 -11   8  547.45   41.40
   8  11  11  504.95   45.50
 -11  -8  11  543.35   44.30
 -11  -8  11  559.14   41.20
  11   8  11  503.65   44.90
  11 -10  11  238.98   22.40
  11 -10  11  244.68   26.10
  10 -11  11  258.77   22.40
  10 -11  11  271.57   26.50
  11 -11  10  249.58   22.30
  11 -11  10  246.38   25.80
 -11 -10  11  313.77   27.10
 -10 -11  11  330.87   27.60
  11  10  11  295.37   28.20
   0   0  12 4167.28  316.47
   0   0  12 4235.08  317.67
   2   0  12  917.81   69.59
   2   0  12  953.40   71.19
  -2   0  12  914.41   70.99
  -2   0  12  881.21   69.39
   4   0  12  744.73   58.19
   4   0  12  765.62   56.39
  -4   0  12  724.33   56.09
  -4   0  12  717.93   57.79
  -6   0  12  866.31   66.29
   6   0  12  872.21   66.59
  -6   0  12  860.41   67.79
   6   0  12  901.21   68.39
  12  -8   0  244.38   18.70
   8   0  12  225.18   23.20
  -8   0  12  240.98   18.80
  -8   0  12  239.68   21.90
   8   0  12  235.28   19.80
  12 -10   0  276.37   21.60
 -10   0  12  278.27   21.40
  10   0  12  269.17   22.80
   0 -12  10  278.57   26.10
 -10   0  12  286.87   24.60
  10   0  12  267.67   26.10
   1  -1  12  509.65   39.10
   1  -1  12  527.45   37.00
  12  -1   1  498.75   36.60
  -1   1  12  500.45   38.90
  -1   1  12  534.55   36.90
   1   1  12  385.96   38.80
  -1  -1  12  390.76   36.80
  12  -3   1  308.07   24.50
  -3   1  12  315.17   27.40
   3  -1  12  333.47   27.80
  -3   1  12  320.97   24.90
   3  -1  12  321.37   25.10
  12  -5   1   36.30    4.80
   5  -1  12   52.39    7.10
  -5   1  12   39.40    4.60
  -5   1  12   38.70    8.40
   5  -1  12   33.30    8.90
  -5  -1  12   33.50    4.70
   5   1  12   31.20    8.70
   5   1  12   31.20    5.30
  -5  -1  12   26.60    7.80
  12  -7   1  343.97   29.10
  -7   1  12  346.67   31.40
  -7   1  12  340.47   29.10
   7  -1  12  351.76   32.20
   7  -1  12  335.77   29.80
   7   1  12  417.36   32.60
  -7  -1  12  433.46   29.30
  -7  -1  12  432.66   31.70
   7   1  12  422.36   29.90
  -9   1  12  293.17   26.60
  12  -9   1  304.17   26.80
   9  -1  12  293.67   27.60
  -9   1  12  321.17   29.20
   9  -1  12  284.07   30.30
   9   1  12  407.16   27.80
  12  -9  -1  394.56   26.70
  -9  -1  12  388.96   26.80
  -9  -1  12  413.86   29.70
   9   1  12  372.86   30.80
   1 -12  11  872.51   64.89
  11  -1  12  889.21   64.89
  11  -1  12  886.51   66.99
 -11   1  12  928.81   65.89
  12 -11   1  851.91   64.29
  12 -11   1  835.52   64.89
   1 -12  11  913.11   67.59
   1  12  11  869.11   67.79
  11   1  12  825.92   64.89
  11   1  12  806.32   67.09
 -11  -1  12  790.82   64.09
 -11  -1  12  852.51   65.99
  -1 -12  11  815.82   64.79
  -1 -12  11  823.32   67.29
  12 -11  -1  774.12   64.19
   0   2  12  929.41   70.79
   0   2  12  906.61   69.19
  12   0   2  922.61   68.99
   0  -2  12  877.91   69.19
   0  -2  12  922.71   70.79
  -2   2  12  336.97   28.20
   2  -2  12  327.67   28.50
  12  -2   2  344.67   25.50
   2  -2  12  358.66   26.00
  -2   2  12  340.67   25.80
  12  -2   2  317.87   25.70
   2   2  12  310.47   28.40
   2   2  12  311.27   26.00
  -2  -2  12  323.37   25.80
  -2  -2  12  317.57   28.20
  12  -4   2  508.35   40.30
  -4   2  12  509.45   40.50
   4  -2  12  507.05   40.80
  -4   2  12  509.65   42.40
   4  -2  12  488.25   42.80
   4   2  12  683.73   43.30
  -6   2  12  556.04   49.99
   6  -2  12  588.14   48.70
  12  -6   2  593.14   48.20
   6  -2  12  599.14   50.59
  -6   2  12  583.24   48.20
   6   2  12  788.42   51.09
  -6  -2  12  780.42   50.49
  -8   2  12  112.19   13.70
  -8   2  12  101.29    9.00
  12  -8   2  104.49   10.20
   8  -2  12  111.09   15.40
  12  -8   2   93.29    9.30
   8  -2  12   93.79   10.90
  10  -2  12 1088.79   79.59
   2 -12  10 1123.79   79.59
  12 -10   2 1031.60   79.69
  12 -10   2 1090.09   79.19
 -10   2  12 1104.59   80.59
  10  -2  12 1074.69   81.49
   2 -12  10 1097.19   81.79
  10   2  12  980.70   81.49
 -10  -2  12  965.40   78.99
 -10  -2  12  974.30   80.59
  12 -10  -2  962.20   78.89
  -1   3  12  318.27   27.50
  -1   3  12  327.57   24.90
  12  -1   3  317.47   24.60
  12  -1   3  313.57   25.30
   1  -3  12  306.27   24.90
  12  -3   3  995.30   77.19
  -3   3  12 1028.30   77.29
  -3   3  12 1005.40   78.79
  12  -3   3 1017.30   77.49
   3  -3  12 1044.60   77.39
   3  -3  12 1010.80   78.99
  -3  -3  12 1001.00   77.29
   3   3  12 1024.00   78.99
  -3  -3  12 1015.90   78.79
   3   3  12 1049.59   77.39
  -5   3  12  255.77   24.70
   5  -3  12  265.87   22.50
  -5   3  12  253.47   22.00
   5  -3  12  267.07   25.40
  12  -5   3  269.17   22.50
  12  -5   3  273.47   21.90
  -5  -3  12  294.27   22.10
  -5  -3  12  314.37   25.00
   5   3  12  312.47   22.60
   5   3  12  311.37   25.60
  -7   3  12  120.09   15.80
   7  -3  12  133.39   17.30
   7  -3  12  120.19   13.00
  -7   3  12  126.89   12.00
  12  -7   3  136.19   13.20
  12  -7   3  136.39   12.20
   7   3  12  185.98   18.10
  -7  -3  12  160.48   12.30
  -7  -3  12  175.48   16.50
   7   3  12  167.88   13.40
  -9   3  12  131.59   15.80
   9  -3  12  125.79   17.80
   9  -3  12  127.49   13.40
   3 -12   9  125.89   13.30
  12  -9   3  122.79   13.40
   3 -12   9  133.29   17.50
  12  -9   3  135.89   12.20
  -9  -3  12  167.38   16.30
   9   3  12  153.78   13.50
   9   3  12  163.98   18.80
  -9  -3  12  156.28   12.00
  12 -11   3 1355.86   95.89
  12 -11   3 1339.77   95.09
   3 -12  11 1368.76   97.69
 -11   3  12 1412.16   96.29
  11  -3  12 1373.36   95.49
  11  -3  12 1384.66   97.39
   3 -12  11 1313.27   95.49
  -3 -12  11 1151.08   97.49
 -11  -3  12 1095.29   94.89
  11   3  12 1181.48   97.49
 -11  -3  12 1184.28   96.39
  12 -11  -3 1076.69   94.79
   3  12  11 1211.48   97.99
  11   3  12 1150.48   95.49
  12   0   4  703.03   55.99
   0  -4  12  742.93   57.19
   0  -4  12  715.23   55.39
  12   0   4  722.83   55.19
   0   4  12  751.42   55.39
   0   4  12  720.43   57.09
  -2   4  12  513.25   38.70
  -2   4  12  491.55   40.70
   2  -4  12  512.45   41.00
  12  -2   4  494.35   38.50
  12  -2   4  495.05   39.30
   2  -4  12  510.75   38.80
  12  -4   4 1603.24  121.09
  -4   4  12 1567.54  122.39
   4  -4  12 1600.64  121.29
   4  -4  12 1585.84  122.69
  -4   4  12 1656.03  121.19
  12  -4   4 1610.94  121.59
   4   4  12 1579.74  122.79
  -4  -4  12 1586.94  122.49
   4   4  12 1652.93  121.29
  -4  -4  12 1581.04  121.19
  12  -6   4  819.02   65.09
   6  -4  12  782.52   65.39
  -6   4  12  776.12   66.59
  12  -6   4  822.92   65.69
   6  -4  12  803.52   67.19
  -6   4  12  811.42   64.99
  -6  -4  12  957.80   66.99
   6   4  12  952.40   65.49
   6   4  12  931.81   67.59
  -6  -4  12  929.41   65.19
   8  -4  12  573.84   45.90
   8  -4  12  560.64   43.60
  12  -8   4  566.44   44.00
   4 -12   8  545.85   45.60
   4 -12   8  539.45   43.60
  -8   4  12  609.74   45.10
  12  -8   4  553.04   43.20
  10  -4  12 1762.92  131.69
  12 -10   4 1679.33  132.09
  10  -4  12 1812.22  133.39
   4 -12  10 1743.73  131.79
   4 -12  10 1779.12  133.59
 -10   4  12 1783.02  132.59
  12 -10   4 1739.23  131.49
  10   4  12 1687.13  131.79
  10   4  12 1724.23  133.59
 -10  -4  12 1764.32  132.89
 -10  -4  12 1668.03  131.29
   1  -5  12   35.50    7.80
  12  -1   5   42.90    7.10
  -1   5  12   42.80    8.90
   1  -5  12   37.40    5.30
  -1   5  12   39.20    5.30
  12  -1   5   35.20    4.80
   1   5  12   26.70    8.60
  12   1   5   28.50    4.90
  -1  -5  12   28.70    5.00
   1   5  12   41.30    5.40
  12   1   5   30.20    7.10
 -12  -1   5   35.40    4.80
  -1  -5  12   32.10    8.30
  12  -3   5  270.17   23.10
   3  -5  12  252.17   25.00
  -3   5  12  247.38   25.00
  -3   5  12  256.77   22.00
  12  -3   5  262.57   21.90
   3  -5  12  249.08   22.20
  12   3   5  325.17   24.20
  -3  -5  12  311.87   25.00
   3   5  12  310.97   22.50
  -3  -5  12  296.47   22.10
   5  -5  12   30.80    5.40
   5  -5  12   29.60    9.60
  -5   5  12   42.00    8.90
  12  -5   5   32.90    6.70
  12  -5   5   41.00    5.00
  -5   5  12   39.60    4.80
  -5  -5  12   30.20    5.30
  -5  -5  12   27.60    8.50
   5   5  12   34.50    5.80
   5   5  12   27.10    9.20
  12  -7   5  125.69   11.40
   7  -5  12  123.39   12.20
  -7   5  12  125.09   15.60
   7  -5  12  123.59   17.10
   5 -12   7  104.49   12.00
  12  -7   5  123.19   13.30
   7   5  12  184.48   18.10
  12  -9   5   47.00    6.70
  12  -9   5   51.19    8.40
   9  -5  12   45.80    7.20
   5 -12   9   53.29   11.10
  -9   5  12   58.89    9.60
   9  -5  12   42.00   10.70
   5 -12   9   45.60    7.40
  -9  -5  12   70.19    7.60
   9   5  12   83.19    9.70
   9   5  12   87.79   12.40
  -9  -5  12   81.79   10.60
  11  -5  12 1270.17   86.59
 -11   5  12 1190.88   85.29
   5 -12  11 1201.68   86.79
   5 -12  11 1148.39   84.49
  12 -11   5 1147.59   84.19
  11  -5  12 1198.88   84.49
  12 -11   5 1160.38   85.19
 -11  -5  12  948.71   83.89
  11   5  12 1032.00   86.79
 -11  -5  12  979.40   85.69
  11   5  12  940.71   84.39
  12   0   6  884.01   66.59
   0  -6  12  835.52   66.59
   0   6  12  892.91   68.59
  12   0   6  909.81   67.69
   0   6  12  863.51   66.59
   0  -6  12  870.91   68.39
  12  -2   6  578.04   58.19
   2  -6  12  591.04   57.39
 -12  -2   6  781.82   57.79
   2   6  12  800.42   59.79
  12   2   6  819.72   58.89
  12   2   6  814.52   57.49
   2   6  12  807.42   57.59
  -2  -6  12  777.92   59.39
  -2  -6  12  818.92   57.49
   4  -6  12  798.32   66.59
  12  -4   6  808.52   66.39
   4  -6  12  794.12   68.29
  12  -4   6  818.02   67.29
  -4   6  12  777.42   68.19
  -4  -6  12  870.21   66.49
   4   6  12  956.20   68.89
   4   6  12  980.60   66.79
  12   4   6  965.40   68.19
  -4  -6  12  990.50   68.49
   6 -12   6  482.85   38.80
   6  -6  12  477.45   41.30
  -6   6  12  467.95   40.80
  12  -6   6  458.75   38.60
  12  -6   6  453.35   39.60
   6  -6  12  465.95   38.90
  -6  -6  12  555.74   38.70
   6   6  12  546.35   41.90
   6   6  12  549.35   39.10
  -6  -6  12  559.44   41.10
  -8   6  12  248.58   23.10
   6 -12   8  202.58   20.60
   6 -12   8  232.28   23.90
   8  -6  12  246.88   24.40
  12  -8   6  233.28   21.90
  12  -8   6  218.48   20.00
   8  -6  12  237.78   20.60
  -8  -6  12  276.67   20.00
   8   6  12  285.57   20.80
   8   6  12  303.77   25.40
  10  -6  12  811.32   59.09
  12 -10   6  793.02   58.79
 -10   6  12  786.42   60.19
  12 -10   6  737.93   59.99
   6 -12  10  788.42   59.09
   6 -12  10  805.92   61.49
  10  -6  12  844.82   61.49
  10   6  12  698.63   59.19
 -10  -6  12  729.33   58.59
  10   6  12  733.63   61.79
 -10  -6  12  742.93   60.89
   1  -7  12  337.37   31.50
  12  -1   7  359.76   31.40
   1  -7  12  348.37   33.90
  -1   7  12  359.56   34.10
  12  -1   7  349.87   33.00
   1   7  12  460.85   34.60
  -1  -7  12  444.56   34.20
 -12  -1   7  437.36   31.70
  12   1   7  470.25   33.50
  -1  -7  12  415.86   31.50
  12   1   7  429.86   31.50
   1   7  12  435.36   31.60
   3  -7  12  127.69   13.70
  12  -3   7  124.09   15.60
  12  -3   7  129.19   13.40
   3  -7  12  126.79   17.50
  -3   7  12  139.59   17.80
  -3  -7  12  165.88   13.50
  12   3   7  182.18   17.20
   3   7  12  159.28   18.50
   3   7  12  170.08   14.10
 -12  -3   7  171.78   14.70
  12   3   7  165.48   13.70
  -3  -7  12  153.28   17.70
  12  -5   7  119.19   11.60
   7 -12   5  115.59   11.90
  12  -5   7  114.39   14.10
   5  -7  12  120.99   12.10
   5  -7  12  122.39   17.10
  -5   7  12  127.89   16.20
   5   7  12  177.28   17.60
  12  -7   7  795.72   61.99
   7  -7  12  772.62   63.09
  -7   7  12  835.32   62.59
  12  -7   7  814.22   60.79
   7  -7  12  783.02   60.99
   7 -12   7  832.52   62.89
   7 -12   7  746.03   60.89
  -9   7  12  416.06   33.80
  12  -9   7  434.16   31.80
   7 -12   9  377.26   34.80
  12  -9   7  403.76   33.50
   7 -12   9  418.96   32.10
   9  -7  12  346.87   35.00
   9  -7  12  409.56   32.10
  11  -7  12  388.16   30.00
 -11   7  12  368.46   30.80
   7 -12  11  384.16   33.40
  12 -11   7  382.86   31.60
  11  -7  12  404.26   33.30
   7 -12  11  384.46   30.00
  12 -11   7  382.46   29.60
 -11  -7  12  343.67   29.30
 -11  -7  12  329.37   32.60
  11   7  12  360.96   34.30
  12   0   8  234.78   19.60
 -12   0   8  233.78   19.90
  12   0   8  247.78   22.40
   0  -8  12  239.78   23.10
   0  -8  12  240.68   19.70
 -12  -2   8  202.98   18.50
  -2  -8  12  216.78   21.50
   2   8  12  213.38   21.90
  12   2   8  214.68   21.00
  12   2   8  217.38   17.90
  -2  -8  12  205.28   17.80
  12  -4   8  579.24   50.19
   8 -12   4  564.34   48.90
   4  -8  12  591.14   51.19
  12  -4   8  580.34   48.90
   4  -8  12  557.24   49.00
  -4   8  12  594.64   51.09
  -4  -8  12  731.43   49.10
 -12  -4   8  778.52   50.29
  12   4   8  755.82   49.20
   6  -8  12  212.08   23.50
  12  -6   8  240.28   21.60
  -6   8  12  229.68   22.70
  12  -6   8  219.08   19.20
   6  -8  12  221.98   19.50
   8 -12   6  212.78   19.40
   8 -12   6  229.78   22.40
   6   8  12  307.07   24.60
  -6  -8  12  267.47   23.50
   8 -12   8  699.03   54.99
  -8   8  12  738.83   54.69
   8  -8  12  675.43   52.99
  12  -8   8  699.43   52.79
  12  -8   8  704.33   54.29
   8 -12   8  661.63   52.89
   8  -8  12  725.93   55.49
   8   8  12  700.33   55.99
  -8  -8  12  613.54   52.69
  -8  -8  12  679.03   55.29
   8 -12  10  637.54   46.70
  12 -10   8  619.14   48.20
  10  -8  12  639.34   49.40
   8 -12  10  647.74   49.30
 -10   8  12  606.04   47.80
  10  -8  12  640.04   46.70
  12 -10   8  663.43   46.50
  10   8  12  518.05   49.90
 -10  -8  12  517.75   48.90
 -10  -8  12  503.05   46.20
  12  -1   9  280.17   27.50
   1  -9  12  306.77   30.70
  -1   9  12  312.97   30.80
   1  -9  12  296.27   27.60
  12  -1   9  292.87   29.90
 -12   1   9  289.67   27.80
 -12  -1   9  394.26   28.40
   1   9  12  431.76   31.50
  12   1   9  398.16   27.70
  12   1   9  406.96   30.80
  -1  -9  12  399.96   27.80
  -1  -9  12  409.26   31.10
   3  -9  12  124.29   18.20
  -3   9  12  121.59   18.10
   9 -12   3  128.19   13.40
  12  -3   9  119.29   16.80
   3  -9  12  140.59   14.20
  12  -3   9  132.69   13.90
 -12  -3   9  159.38   15.60
   3   9  12  169.98   19.00
  12   3   9  174.68   14.30
  -3  -9  12  162.18   14.10
  12   3   9  179.58   18.40
  -3  -9  12  186.18   19.10
 -12  -3   9  161.88   12.20
   5  -9  12   44.60    7.20
  12  -5   9   48.60    9.70
   5  -9  12   60.69   11.50
   9 -12   5   50.19    9.90
  -5   9  12   50.29   10.50
   9 -12   5   49.90    6.90
  12  -5   9   52.49    7.00
  12   5   9   92.29   11.70
  -5  -9  12   81.29   11.90
  -5  -9  12   80.59    9.00
   7  -9  12  420.96   35.10
  12  -7   9  407.26   36.90
  -7   9  12  439.76   37.30
  12  -7   9  434.26   34.90
   9 -12   7  424.46   37.20
   7  -9  12  434.36   38.20
   9 -12   7  413.26   35.00
  12   7   9  554.34   39.00
   7   9  12  542.55   39.30
  12  -9   9  275.87   26.50
   9 -12   9  232.58   26.90
  -9   9  12  269.47   26.00
   9  -9  12  286.97   24.00
   9  -9  12  249.28   27.60
   9 -12   9  292.27   23.90
  12  -9   9  295.17   23.70
  -9  -9  12  344.07   23.60
  -9  -9  12  302.07   28.10
   9   9  12  294.67   28.80
   9 -12  11  474.15   36.90
  12 -11   9  466.75   36.70
  12 -11   9  469.35   39.00
  11  -9  12  477.75   40.10
  11  -9  12  480.35   36.90
   9 -12  11  465.85   40.20
 -11  -9  12  431.86   36.40
  11   9  12  429.96   41.10
 -11  -9  12  497.85   40.40
  12   0  10  284.27   23.60
   0 -10  12  274.07   27.10
   0  10  12  302.57   27.70
  10 -12   0  295.37   22.80
  12   0  10  278.87   26.60
   0 -10  12  280.77   23.60
 -12   0  10  297.77   24.40
   2 -10  12 1228.38   80.49
  12  -2  10 1070.99   80.19
  10 -12   2 1095.79   79.99
   2 -10  12 1070.79   82.39
  12  -2  10 1081.59   81.79
 -12   2  10 1084.49   80.49
  -2  10  12 1135.39   82.49
  -2 -10  12  985.80   80.19
   2  10  12  965.60   82.39
 -12  -2  10  982.80   80.79
  12   2  10  975.90   81.99
  12   2  10  980.10   80.19
  -2 -10  12 1027.00   82.39
  10 -12   4 1716.03  133.39
  10 -12   4 1786.32  132.29
  -4  10  12 1775.42  134.19
   4 -10  12 1692.73  134.19
   4 -10  12 1755.02  132.49
  12  -4  10 1755.62  132.39
  12  -4  10 1719.53  133.69
  12   4  10 1797.32  134.39
 -12  -4  10 1720.33  131.99
  -4 -10  12 1762.12  134.49
 -12  -4  10 1763.82  133.39
  -4 -10  12 1762.82  132.49
  12   4  10 1735.43  132.49
   6 -10  12  797.92   59.39
  -6  10  12  799.32   61.39
  12  -6  10  780.92   60.99
  12  -6  10  836.22   59.29
  10 -12   6  764.82   60.69
   6 -10  12  809.62   61.79
  10 -12   6  817.92   59.19
  12   6  10  743.23   61.99
 -12  -6  10  725.63   60.79
 -12  -6  10  778.32   58.79
  -6 -10  12  761.62   61.79
   6  10  12  676.33   61.89
  -6 -10  12  723.13   59.19
   8 -10  12  651.53   48.70
  12  -8  10  658.03   45.60
   8 -10  12  653.03   45.70
  12  -8  10  634.24   47.70
  10 -12   8  626.04   45.50
  10 -12   8  607.84   47.70
  -8 -10  12  516.95   45.40
 -12  -8  10  530.15   47.80
  -8 -10  12  514.85   48.50
   8  10  12  499.25   48.90
  12   8  10  516.65   48.90
  10 -10  12  967.50   67.19
  10 -10  12  893.61   69.59
  10 -12  10  940.41   67.19
  10 -12  10  888.61   69.29
  12 -10  10  945.81   67.09
  12 -10  10  907.61   69.09
 -10 -10  12  776.12   69.59
 -10 -10  12  796.52   66.89
  10  10  12  715.13   70.19
   1 -11  12  878.41   65.69
  11 -12   1  871.41   66.19
  12  -1  11  878.21   65.69
  12  -1  11  895.81   67.59
 -12   1  11  923.51   66.29
   1 -11  12  930.21   68.19
  11 -12   1  862.21   65.19
  -1  11  12  924.71   68.19
  -1 -11  12  844.32   68.09
  12   1  11  820.62   67.79
   1  11  12  809.62   68.09
  -1 -11  12  787.82   65.59
 -12  -1  11  864.41   66.49
  11 -12  -1  787.72   65.09
  12   1  11  808.42   65.59
   3 -11  12 1357.96   93.99
  12  -3  11 1388.26   95.69
  11 -12   3 1339.67   94.69
 -12   3  11 1383.06   94.39
   3 -11  12 1354.66   96.19
  11 -12   3 1282.37   93.59
  -3  11  12 1214.38   95.89
  12  -3  11 1365.26   93.89
 -12  -3  11 1082.49   93.19
  12   3  11 1077.89   95.69
  -3 -11  12 1143.49   93.79
  -3 -11  12 1163.58   95.99
 -12  -3  11 1167.88   94.69
  12   3  11 1173.28   93.89
   3  11  12 1158.08   96.09
  11 -12  -3 1110.59   93.29
  11 -12   5 1155.18   81.99
  11 -12   5 1140.59   83.29
  12  -5  11 1181.08   82.19
  12  -5  11 1176.48   83.99
   5 -11  12 1142.09   82.29
   5 -11  12 1162.48   84.49
 -12   5  11 1108.29   82.39
  -5  11  12 1270.27   84.69
 -12  -5  11  938.41   81.59
 -12  -5  11 1003.30   83.39
   5  11  12  968.90   84.69
  12   5  11 1022.80   84.49
  -5 -11  12 1017.00   84.49
  -5 -11  12  988.00   82.09
  12   5  11  918.71   82.19
  11 -12   7  384.66   29.60
  12  -7  11  398.66   32.80
  12  -7  11  391.26   29.70
  11 -12   7  361.06   32.00
   7 -11  12  396.36   30.00
   7 -11  12  407.46   33.60
   7  11  12  342.17   34.40
 -12  -7  11  374.76   32.60
  -7 -11  12  337.47   29.80
  -7 -11  12  364.56   33.90
  12   7  11  341.47   34.00
 -12  -7  11  346.57   29.10
  12  -9  11  469.95   39.20
  11 -12   9  496.85   39.20
  12  -9  11  468.55   36.60
   9 -11  12  467.65   40.00
  11 -12   9  444.26   36.50
   9 -11  12  461.85   36.60
 -12  -9  11  452.25   39.80
   9  11  12  412.06   41.10
  -9 -11  12  477.05   40.50
  12   9  11  469.35   41.20
  12 -11  11 1245.98   92.89
  12 -11  11 1195.68   94.79
  11 -12  11 1209.28   92.89
  11 -12  11 1204.78   94.99
  11 -11  12 1220.88   92.89
  11 -11  12 1175.98   94.99
 -12 -11  11 1245.48   95.49
 -11 -11  12 1242.18   95.59
 -12   0  12  316.47   25.80
   0 -12  12  280.87   24.40
   0 -12  12  316.17   28.90
   0  12  12  312.77   29.00
  12 -12   0  284.87   23.20
  12 -12   0  277.17   24.20
  12   0  12  283.27   24.30
  12   0  12  327.37   28.30
  12  -2  12   23.60   10.50
  12  -2  12   19.60    6.10
 -12   2  12   24.20    7.50
  12 -12   2   18.60    6.80
  -2  12  12   18.60   10.50
   2 -12  12   16.20    6.40
   2 -12  12   15.50    9.80
   2  12  12   49.80   12.80
  12 -12  -2   40.00    4.50
  -2 -12  12   37.80   11.20
  -2 -12  12   35.00    6.60
 -12  -2  12   38.80    8.50
 -12  -2  12   42.50    4.20
  12   2  12   40.40    6.50
  12   2  12   40.00   12.00
  12  -4  12  195.68   15.70
  12  -4  12  165.38   19.90
 -12   4  12  195.18   16.60
  12 -12   4  187.78   17.00
   4 -12  12  207.78   15.90
   4 -12  12  202.68   20.90
   4  12  12  133.39   19.00
  12 -12  -4  139.39   13.20
  -4 -12  12  160.88   15.60
  -4 -12  12  150.18   21.20
 -12  -4  12  152.48   13.80
 -12  -4  12  144.09   18.20
  12   4  12  150.48   15.80
  12   4  12  136.49   20.90
  12 -12   6  129.69   16.90
  12  -6  12  150.48   14.90
 -12   6  12  154.48   15.40
  12 -12   6  158.88   14.20
   6 -12  12  158.28   15.10
   6 -12  12  150.58   20.30
  12  -6  12  157.18   19.60
  12  -8  12  244.58   24.40
  12  -8  12  218.78   20.20
  12 -12   8  200.18   22.70
   8 -12  12  203.78   20.20
   8 -12  12  215.98   25.20
  12 -12   8  195.68   19.70
  -8 -12  12  303.17   26.20
 -12  -8  12  270.37   19.40
  12   8  12  282.17   26.50
  12 -10  12  470.25   43.90
  12 -10  12  505.65   41.10
  12 -12  10  486.95   43.60
  10 -12  12  535.35   41.10
  10 -12  12  454.85   44.10
  12 -12  10  524.05   41.00
 -10 -12  12  545.35   45.40
 -12 -10  12  559.74   44.90
 -12 -10  12  589.34   40.90
  12 -12  12  126.09   16.70
  12 -12  12  112.59   14.20
 -12 -12  12  160.58   21.90
   1   0  13  100.39   10.40
   1   0  13   98.39   12.40
  -1   0  13  114.19   14.90
  -1   0  13  108.49   10.10
   3   0  13   15.00    4.60
  -3   0  13    8.50    7.70
   3   0  13    5.00    8.10
  -3   0  13    6.90    3.80
   5   0  13   50.49    9.90
  -5   0  13   45.60    6.60
  -5   0  13   49.50    9.20
   5   0  13   54.29    6.50
   7   0  13   82.19   10.30
  -7   0  13  100.09   11.70
  13  -7   0   86.39    7.90
  -7   0  13   89.29    8.60
   7   0  13   88.89   12.40
  -9   0  13  758.92   58.79
   9   0  13  786.62   59.49
  13  -9   0  785.22   58.79
  -9   0  13  812.02   60.99
   9   0  13  730.23   61.69
  11   0  13   50.49   11.60
   0 -13  11   48.50   11.80
  13 -11   0   67.19    6.90
   0 -13  11   57.39    7.90
  11   0  13   55.79    7.70
 -11   0  13   58.29   10.00
   0   1  13  103.19    9.80
   0  -1  13  103.49    9.80
   0  -1  13   90.39   12.00
   0   1  13   79.69   11.90
  13  -2   1 1150.18  100.89
  -2   1  13 1203.58  101.09
   2  -1  13 1213.88  102.79
  -2   1  13 1222.78  102.59
   2  -1  13 1218.78  101.29
  -2  -1  13 1522.35  101.29
  -2  -1  13 1485.15  102.89
   2   1  13 1541.05  103.09
   2   1  13 1499.95  101.29
  -4   1  13 1056.89   85.89
  -4   1  13 1098.19   87.49
   4  -1  13 1100.39   86.09
  13  -4   1 1107.99   85.69
   4  -1  13 1106.59   87.79
  -4  -1  13 1156.38   85.99
   4   1  13 1222.08   87.99
  -4  -1  13 1245.78   87.69
  13  -6   1   41.20    5.20
   6  -1  13   45.40    6.30
  -6   1  13   42.40    8.90
   6  -1  13   49.99   10.10
  -6   1  13   45.00    6.10
   6   1  13    8.90    9.10
  13  -8   1  329.47   23.80
   8  -1  13  333.37   24.80
   8  -1  13  325.97   28.30
  -8   1  13  336.87   23.80
  -8   1  13  349.96   27.00
   8   1  13  273.07   24.80
   8   1  13  261.87   28.00
  -8  -1  13  266.37   26.80
  -8  -1  13  259.97   23.80
  13 -10   1  576.54   42.70
 -10   1  13  591.44   44.90
 -10   1  13  556.04   42.50
  10  -1  13  564.74   43.40
   1 -13  10  564.74   46.20
  10  -1  13  598.24   46.20
   1 -13  10  558.34   43.40
 -10  -1  13  545.75   44.90
  10   1  13  544.35   46.20
  10   1  13  549.35   43.40
 -10  -1  13  536.95   42.50
  13 -10  -1  524.05   42.40
 -12   1  13  394.56   31.40
   1 -13  12  384.76   30.10
  12  -1  13  386.56   30.00
  12  -1  13  378.56   33.40
   1 -13  12  357.26   34.00
  13 -12   1  352.16   29.50
  13 -12   1  382.76   28.90
  13 -12  -1  358.46   28.70
  -1 -13  12  374.46   30.00
 -12  -1  13  343.77   31.50
  12   1  13  369.46   33.70
  -1 -13  12  358.86   34.00
  12   1  13  364.46   30.00
   1  -2  13 1224.88  102.29
  -1   2  13 1212.58  103.69
  -1   2  13 1233.98  102.19
  13  -1   2 1187.28  102.09
   1  -2  13 1230.58  103.79
  -1  -2  13 1491.65  102.29
   1   2  13 1539.65  102.39
  -1  -2  13 1501.55  103.99
   1   2  13 1558.54  104.09
  -3   2  13   96.39    9.90
   3  -2  13  100.79   10.50
  -3   2  13   92.89   12.40
   3  -2  13  107.09   15.30
  13  -3   2   90.19    9.30
  -3  -2  13  113.39   14.90
   3   2  13  121.19   10.80
  -3  -2  13  120.89   10.10
   3   2  13  131.69   15.70
   5  -2  13   32.70    8.90
  13  -5   2   31.80    4.10
  -5   2  13   38.30    8.70
  -5   2  13   31.80    4.50
   5  -2  13   32.30    5.50
   5   2  13    8.30    8.80
  -5  -2  13    7.90    7.90
   7  -2  13  187.78   19.80
  13  -7   2  169.08   14.20
   7  -2  13  172.98   15.50
  -7   2  13  168.88   18.20
  -7   2  13  170.38   14.20
  -7  -2  13  166.78   14.40
   7   2  13  186.28   20.10
  -7  -2  13  189.98   18.40
   7   2  13  163.68   15.40
   9  -2  13  665.83   52.79
   9  -2  13  566.14   54.79
  13  -9   2  679.83   52.19
  -9   2  13  655.13   51.99
  -9   2  13  701.63   54.19
   9   2  13  693.63   52.79
  -9  -2  13  712.83   52.19
   9   2  13  744.53   55.59
  -9  -2  13  750.12   54.39
  13 -11   2  311.77   26.40
  13 -11   2  368.86   25.80
  11  -2  13  356.76   26.80
  11  -2  13  329.57   30.20
 -11   2  13  347.17   28.40
   2 -13  11  356.76   26.90
  -2 -13  11  317.47   30.60
 -11  -2  13  326.17   28.70
  11   2  13  318.37   26.80
  11   2  13  309.67   30.80
 -11  -2  13  301.27   25.40
  13 -11  -2  294.07   25.20
   0  -3  13    8.30    4.20
   0   3  13    7.90    4.30
  13   0   3    9.40    3.60
   0   3  13    2.40    7.90
   0  -3  13    8.00    8.10
   2  -3  13   87.99   11.90
  -2   3  13   94.89    9.90
  13  -2   3   97.29    9.90
  -2   3  13   93.79   12.20
  13  -2   3   94.19    9.30
   2  -3  13   89.19   10.20
   2   3  13  120.59   10.40
  -2  -3  13  107.19    9.90
  -2  -3  13  116.99   14.80
   2   3  13  106.89   12.50
   4  -3  13  203.18   16.70
   4  -3  13  188.28   20.50
  -4   3  13  183.58   19.80
  -4   3  13  181.98   16.10
  13  -4   3  195.98   15.70
   4   3  13  191.98   16.60
   4   3  13  191.28   20.60
  -4  -3  13  197.48   19.70
  -4  -3  13  203.88   16.00
  13  -6   3  409.06   33.20
  -6   3  13  400.66   35.60
   6  -3  13  411.66   36.50
   6  -3  13  384.16   33.70
  -6   3  13  411.16   33.20
  -6  -3  13  472.15   35.90
  -6  -3  13  439.56   33.30
   6   3  13  481.15   33.90
   6   3  13  491.15   36.90
  13  -8   3  991.50   77.49
   8  -3  13  956.70   77.89
  -8   3  13  990.30   79.09
   8  -3  13  996.20   79.79
  -8   3  13  950.70   77.39
   8   3  13 1110.19   77.99
  -8  -3  13 1080.19   79.39
  -8  -3  13 1050.69   77.49
   8   3  13 1091.59   80.29
 -10   3  13  259.87   22.20
  10  -3  13  238.88   20.00
  13 -10   3  245.88   19.90
   3 -13  10  230.48   20.10
  10  -3  13  263.67   24.00
   3 -13  10  282.77   24.70
  13 -10   3  242.28   19.00
  10   3  13  192.98   24.60
 -10  -3  13  197.28   22.60
  10   3  13  186.98   20.00
   3 -13  12  483.55   33.50
  13 -12   3  419.66   33.50
  12  -3  13  450.65   36.60
  13 -12   3  456.85   32.60
 -12   3  13  449.06   34.50
   3 -13  12  423.96   36.70
  12  -3  13  455.55   33.30
  -3 -13  12  482.15   40.60
  12   3  13  357.06   33.40
 -12  -3  13  357.96   32.10
 -12  -3  13  372.56   35.10
  -3 -13  12  373.86   33.20
  12   3  13  380.16   37.20
  -1   4  13 1115.69   87.59
  13  -1   4 1111.59   87.49
   1  -4  13 1120.09   89.39
  -1   4  13 1105.39   89.19
  13  -1   4 1110.69   87.99
   1  -4  13 1073.19   87.59
  13   1   4 1203.98   87.59
  -1  -4  13 1197.78   89.39
  -1  -4  13 1161.58   87.59
  13   1   4 1194.38   88.39
   1   4  13 1212.78   89.39
   1   4  13 1261.07   87.69
   3  -4  13  184.88   20.40
  -3   4  13  190.78   16.00
  -3   4  13  177.28   20.00
  13  -3   4  195.38   16.80
   3  -4  13  190.28   16.40
  13  -3   4  187.98   15.70
   3   4  13  184.98   20.30
  -3  -4  13  186.78   19.80
   3   4  13  204.68   16.60
  -3  -4  13  202.18   16.10
  -5   4  13  156.18   13.50
  13  -5   4  156.98   13.40
   5  -4  13  149.19   14.40
   5  -4  13  151.38   18.80
  -5   4  13  120.79   17.70
  13  -5   4  152.98   14.30
  -5  -4  13  176.68   18.10
   5   4  13  172.28   19.30
   5   4  13  164.58   14.30
  -5  -4  13  173.08   13.70
  13  -7   4  628.24   48.70
   7  -4  13  623.04   50.99
  -7   4  13  648.04   50.19
  13  -7   4  648.84   48.10
  -7   4  13  624.14   48.00
   7  -4  13  613.74   48.50
  -7  -4  13  583.54   48.10
   7   4  13  632.84   48.60
   7   4  13  647.04   51.29
  -7  -4  13  652.63   50.49
   9  -4  13 1055.49   79.39
  13  -9   4 1065.79   78.99
   9  -4  13 1103.59   81.49
   4 -13   9 1080.09   81.39
  13  -9   4 1061.89   79.59
  -9   4  13 1118.69   80.79
   4 -13   9 1052.09   79.39
   9   4  13  952.90   79.39
   9   4  13 1020.80   81.69
  -9  -4  13 1013.10   80.79
  -9  -4  13  938.91   78.89
   4 -13  11  263.97   25.60
  13 -11   4  254.47   20.20
  11  -4  13  284.67   25.50
   4 -13  11  245.58   21.10
  11  -4  13  248.78   21.20
 -11   4  13  254.57   23.00
  13 -11   4  241.98   21.40
 -11  -4  13  222.98   19.70
  11   4  13  229.68   26.00
 -11  -4  13  243.18   23.80
  11   4  13  246.38   21.30
   0  -5  13   36.60    5.90
  13   0   5   46.50    7.60
   0  -5  13   81.69   14.50
   0   5  13   45.10    9.90
  13   0   5   48.50    5.80
   0   5  13   51.89    6.20
  -2   5  13   27.10    5.00
   2  -5  13   28.80    5.00
   2  -5  13   35.90    9.20
  -2   5  13   34.00    8.90
  13  -2   5   30.80    6.50
   2   5  13    6.40    8.40
  13   2   5   12.60    4.50
  13   2   5   13.80    6.80
  -2  -5  13    7.50    7.70
   2   5  13   11.40    5.00
 -13  -2   5   14.40    4.60
  -2  -5  13   12.30    4.50
  -4   5  13  159.78   13.70
   4  -5  13  145.59   19.10
  13  -4   5  150.48   15.10
  -4   5  13  146.79   18.20
   4  -5  13  142.09   14.20
  13  -4   5  146.89   13.60
   4   5  13  169.18   19.20
  -4  -5  13  185.58   18.10
   4   5  13  166.78   14.60
  -4  -5  13  175.88   13.80
  -6   5  13  375.76   32.40
  -6   5  13  395.26   35.30
  13  -6   5  374.36   33.40
  13  -6   5  366.66   32.50
   6  -5  13  366.46   35.80
   6   5  13  532.85   36.80
  -6  -5  13  522.25   35.70
  -6  -5  13  476.15   32.60
  13  -8   5 1022.20   81.69
   5 -13   8 1023.80   81.99
  13  -8   5  995.50   82.39
   8  -5  13  984.00   81.89
   8  -5  13 1025.30   83.89
  -8   5  13  995.90   83.29
  -8  -5  13 1152.68   81.69
   8   5  13 1206.18   82.09
   8   5  13 1168.28   84.49
  -8  -5  13 1201.08   83.69
  13 -10   5  136.69   11.60
  13 -10   5  139.09   13.70
  10  -5  13  138.29   15.60
 -10   5  13  134.59   15.70
   5 -13  10  120.09   12.80
  10  -5  13  134.69   12.90
   5 -13  10  139.59   18.50
 -10  -5  13   99.99   14.00
  10   5  13   91.59   15.40
 -10  -5  13   87.79   10.90
  10   5  13  100.79   12.90
   5 -13  12  181.88   22.30
  13 -12   5  182.18   15.90
  13 -12   5  176.18   17.90
  12  -5  13  205.68   21.80
 -12   5  13  188.48   18.10
   5 -13  12  203.18   17.30
  12  -5  13  187.98   17.00
  -5 -13  12  153.18   20.10
 -12  -5  13  151.38   20.10
  12   5  13  150.78   20.70
   1  -6  13   41.80    9.70
  -1   6  13   53.29   10.30
   1  -6  13   40.60    6.20
  13  -1   6   51.99    8.50
  13  -1   6   55.09    6.30
  -1   6  13   53.49    6.60
   3  -6  13  380.86   33.90
  13  -3   6  392.06   33.70
  13  -3   6  414.86   35.00
  -3   6  13  399.76   36.50
   3  -6  13  409.46   36.70
  -3   6  13  386.86   33.70
 -13  -3   6  485.15   34.50
  13   3   6  489.05   35.80
   3   6  13  471.15   34.20
   3   6  13  491.55   37.30
  -3  -6  13  497.05   36.70
  -3  -6  13  438.06   33.80
   5  -6  13  361.36   32.10
   5  -6  13  391.86   35.30
  -5   6  13  379.16   34.70
  13  -5   6  371.96   31.80
  13  -5   6  369.76   33.00
  -5  -6  13  486.75   32.00
  -5  -6  13  514.15   35.10
   6 -13   7  392.26   33.20
  13  -7   6  427.66   32.90
  13  -7   6  426.16   34.10
  -7   6  13  443.86   35.70
   6 -13   7  407.76   35.60
   7  -6  13  410.66   36.40
   7  -6  13  401.96   33.30
  -7  -6  13  457.65   35.90
   7   6  13  443.46   33.70
   7   6  13  458.25   37.20
  -7  -6  13  397.76   32.90
  -9   6  13  690.63   49.60
   6 -13   9  676.23   47.90
   6 -13   9  674.33   50.59
   9  -6  13  682.63   47.90
   9  -6  13  650.33   50.59
  13  -9   6  665.23   47.50
  13  -9   6  644.44   48.60
   9   6  13  498.45   50.49
  -9  -6  13  544.35   47.30
  -9  -6  13  530.45   49.70
   9   6  13  521.45   47.80
  11  -6  13   13.40    6.00
   6 -13  11    2.20   10.20
   6 -13  11   23.00    6.60
  11  -6  13   13.00   10.20
 -11   6  13   17.60    8.10
  13 -11   6   18.80    7.70
  13 -11   6   15.40    5.40
  11   6  13   37.70   12.50
 -11  -6  13   36.70   10.30
  11   6  13   26.60    6.60
   0  -7  13  122.89   15.70
  13   0   7  100.79   11.50
   0   7  13   82.79   10.50
   0   7  13  101.89   13.10
  13   0   7   82.59   10.10
   0  -7  13   97.39   10.40
   2  -7  13  153.48   14.90
  -2   7  13  159.58   19.40
  13  -2   7  176.18   17.30
   2  -7  13  133.19   19.40
  13  -2   7  170.88   14.60
   2   7  13  176.78   15.20
  -2  -7  13  157.88   14.80
   2   7  13  179.48   20.20
  13   2   7  165.28   14.90
  13   2   7  177.98   18.10
 -13  -2   7  174.28   15.20
  -2  -7  13  177.68   19.20
   4  -7  13  640.74   50.89
  -4   7  13  668.83   50.79
  13  -4   7  610.84   49.50
  13  -4   7  618.64   48.20
  13   4   7  680.53   50.49
 -13  -4   7  672.43   49.20
  -4  -7  13  534.05   50.39
   4   7  13  656.33   51.39
  -4  -7  13  591.74   48.30
   4   7  13  618.64   48.50
   7 -13   6  404.66   32.90
   7 -13   6  405.96   35.10
   6  -7  13  398.36   32.90
   6  -7  13  428.36   36.30
  -6   7  13  433.96   35.50
  13  -6   7  430.76   32.70
  13  -6   7  433.36   34.20
   6   7  13  417.46   36.60
  -6  -7  13  390.76   32.60
  -6  -7  13  444.66   35.80
   6   7  13  420.76   33.10
   8  -7  13  506.35   39.90
   7 -13   8  523.95   40.00
  13  -8   7  499.35   41.10
   8  -7  13  506.85   43.00
  13  -8   7  520.85   39.60
   7 -13   8  451.75   42.20
  -8   7  13  516.15   42.00
  -8  -7  13  522.95   39.60
   8   7  13  493.35   43.30
  -8  -7  13  536.35   42.60
   8   7  13  523.25   40.10
 -10   7  13  163.28   16.70
  10  -7  13  146.39   16.70
  13 -10   7  129.49   13.20
   7 -13  10  132.59   19.10
   7 -13  10  149.49   14.10
  13 -10   7  139.99   16.20
  10  -7  13  140.09   14.00
 -10  -7  13  135.89   18.50
 -10  -7  13  115.09   12.80
  10   7  13  129.99   18.10
  12  -7  13  140.19   14.80
  12  -7  13  148.59   19.90
   7 -13  12  163.48   20.90
   7 -13  12  144.09   15.00
 -12   7  13  137.69   15.70
  13 -12   7  145.59   17.10
  13 -12   7  168.88   14.10
  12   7  13  139.39   19.20
 -12  -7  13  144.49   19.30
  -7 -13  12  129.09   18.60
 -12  -7  13  127.69   13.30
  13  -1   8  342.67   26.70
  13  -1   8  344.27   24.20
   1  -8  13  343.37   27.90
  -1   8  13  353.16   28.20
  -1  -8  13  271.07   24.20
  -1  -8  13  260.87   27.50
   1   8  13  265.27   27.90
  13   1   8  283.17   26.70
  13   1   8  283.07   24.20
 -13  -1   8  266.67   24.30
  13  -3   8  950.10   79.69
   3  -8  13  980.60   79.89
  -3   8  13  997.40   81.79
   3  -8  13  958.30   81.79
  13  -3   8  968.60   80.89
  13   3   8 1101.19   79.89
 -13  -3   8 1123.79   80.49
  -3  -8  13 1088.29   79.89
  -3  -8  13 1125.89   81.99
   3   8  13 1096.19   82.29
  13   3   8 1162.88   81.69
  13  -5   8  971.50   84.79
   8 -13   5 1028.80   83.79
  13  -5   8 1025.80   83.69
   5  -8  13  973.30   85.79
  -5   8  13 1014.50   85.59
   5  -8  13 1012.50   83.89
   5   8  13 1241.88   86.49
  -5  -8  13 1241.88   86.19
  13   5   8 1213.98   85.99
 -13  -5   8 1262.27   85.09
  -5  -8  13 1173.38   83.79
  13  -7   8  531.55   40.20
   8 -13   7  507.55   40.40
   7  -8  13  518.45   43.60
  13  -7   8  510.55   41.90
   8 -13   7  518.85   42.80
  -7   8  13  512.45   42.90
   7  -8  13  505.75   40.50
  -7  -8  13  540.45   40.30
  -7  -8  13  527.55   43.40
   7   8  13  505.35   44.00
   8 -13   9  482.55   39.40
  -9   8  13  466.75   38.50
   8 -13   9  485.75   36.60
   9  -8  13  464.35   40.00
   9  -8  13  488.25   36.60
  13  -9   8  464.15   36.30
  13  -9   8  474.45   38.00
  -9  -8  13  349.87   39.00
  13 -11   8   37.00    6.60
 -11   8  13   38.60    8.70
   8 -13  11   43.00    7.20
   8 -13  11   33.70   11.20
  11  -8  13   31.60    7.00
  13 -11   8   38.50    9.50
  11  -8  13   24.20   11.10
 -11  -8  13   -1.30   10.20
  11   8  13   10.70   11.60
   0   9  13  817.92   66.29
   0  -9  13  986.50   67.89
 -13   0   9  809.92   63.89
  13   0   9  810.02   63.79
  13   0   9  821.92   65.59
   0  -9  13  795.82   63.79
  13  -2   9  684.83   55.79
   9 -13   2  660.63   53.89
   2  -9  13  663.33   56.59
  13  -2   9  669.23   54.09
  -2   9  13  728.63   56.79
   2  -9  13  650.23   54.19
  -2  -9  13  712.03   54.19
  13   2   9  753.92   54.29
 -13  -2   9  727.73   54.69
  13   2   9  764.72   56.39
  -2  -9  13  755.62   56.79
  13  -4   9 1065.89   77.99
   4  -9  13 1042.30   80.39
   9 -13   4 1051.89   77.99
   9 -13   4 1089.39   79.39
   4  -9  13 1074.79   78.19
  -4   9  13 1112.69   80.39
  13  -4   9 1070.39   79.49
  -4  -9  13  959.70   77.99
  13   4   9  951.10   78.09
  13   4   9  994.80   80.09
 -13  -4   9  949.21   77.49
  -4  -9  13  997.50   80.19
 -13  -4   9  975.50   78.89
  13  -6   9  690.23   48.20
  -6   9  13  681.33   50.89
   6  -9  13  680.03   48.40
   9 -13   6  678.93   48.20
  13  -6   9  663.63   49.90
   6  -9  13  671.33   51.39
   9 -13   6  660.93   50.29
  -6  -9  13  557.24   50.89
 -13  -6   9  551.84   49.80
   6   9  13  535.15   51.39
  13   6   9  558.14   50.89
  -6  -9  13  533.15   48.10
   8  -9  13  492.15   36.60
  13  -8   9  454.05   38.30
   8  -9  13  464.75   40.00
   9 -13   8  402.96   38.80
   9 -13   8  491.15   36.50
  13  -8   9  461.45   36.30
  -8   9  13  481.05   39.00
   8   9  13  417.16   43.40
   9 -13  10  356.96   34.10
  13 -10   9  376.06   30.40
  13 -10   9  373.36   32.80
   9 -13  10  402.86   30.70
  10  -9  13  370.16   30.70
  10  -9  13  383.96   34.70
 -10   9  13  359.96   32.60
 -10  -9  13  384.36   30.30
  10   9  13  381.46   35.60
 -10  -9  13  409.66   34.60
  13 -12   9  189.78   20.60
   9 -13  12  210.18   17.40
   9 -13  12  195.68   23.00
  13 -12   9  191.28   16.90
  12  -9  13  154.88   22.20
  12  -9  13  196.58   17.30
  12   9  13  150.58   20.60
 -12  -9  13  162.58   16.30
 -12  -9  13  155.58   22.50
  -9 -13  12  160.88   23.70
   1 -10  13  608.04   47.40
  13  -1  10  582.54   44.40
 -13   1  10  573.84   44.60
   1 -10  13  571.84   44.50
  13  -1  10  597.34   46.80
  10 -13   1  568.44   44.00
  -1  10  13  596.24   47.70
 -13  -1  10  558.24   45.00
  13   1  10  593.24   47.00
  13   1  10  570.94   44.50
  -1 -10  13  562.34   47.30
  -1 -10  13  534.85   44.40
   1  10  13  536.95   47.60
  -3  10  13  281.37   23.50
  13  -3  10  247.68   18.40
  10 -13   3  250.57   17.90
  13  -3  10  239.98   21.90
   3 -10  13  241.78   18.50
  10 -13   3  238.08   20.40
   3 -10  13  246.38   23.10
 -13  -3  10  169.38   16.50
  13   3  10  175.58   22.50
  13   3  10  183.88   18.40
 -13  -3  10  180.58   19.70
  -3 -10  13  177.38   22.50
   3  10  13  182.28   23.50
  -3 -10  13  180.78   18.20
  13  -5  10  133.29   12.50
  -5  10  13  153.48   18.20
  10 -13   5  138.89   15.80
  10 -13   5  142.29   12.10
   5 -10  13  142.29   18.50
   5 -10  13  139.39   12.90
  13  -5  10  128.19   16.40
   5  10  13  137.29   20.50
  -5 -10  13   86.29   12.60
 -13  -5  10  108.69   13.50
 -13  -5  10   90.69   10.50
  -5 -10  13  105.49   16.00
  13   5  10   99.79   15.00
  -7  10  13  127.59   17.90
  10 -13   7  145.59   17.60
  13  -7  10  134.29   13.60
  10 -13   7  138.49   13.50
  13  -7  10  140.59   17.50
   7 -10  13  129.19   13.90
   7 -10  13  138.99   16.90
 -13  -7  10  137.99   18.00
  13   7  10  125.69   16.50
   7  10  13  124.09   16.80
  -7 -10  13  128.59   13.70
  -7 -10  13  144.79   19.90
   9 -10  13  353.66   34.50
  10 -13   9  371.36   33.60
  13  -9  10  365.36   33.00
  10 -13   9  382.26   30.60
   9 -10  13  384.36   30.70
  13  -9  10  377.56   30.40
   9  10  13  379.16   35.60
  -9 -10  13  374.26   34.60
 -13  -9  10  401.66   34.00
  -9 -10  13  392.86   30.50
  10 -13  11  331.27   30.90
  13 -11  10  333.57   26.30
  13 -11  10  345.07   29.70
  11 -10  13  329.37   31.30
  11 -10  13  327.97   26.60
  10 -13  11  314.97   26.60
 -11 -10  13  284.57   26.10
 -11 -10  13  304.97   31.10
  11  10  13  313.57   32.90
   0 -11  13   74.89   16.50
  13   0  11   70.59    8.60
  11 -13   0   73.69    8.40
   0 -11  13   74.69    8.50
   0  11  13   38.20   11.90
  13   0  11   58.59   11.90
 -13   0  11   58.39    9.10
  13  -2  11  362.96   27.20
  13  -2  11  372.66   30.40
  -2  11  13  357.26   31.50
   2 -11  13  355.56   31.30
  11 -13   2  368.96   26.60
 -13   2  11  351.26   27.60
   2 -11  13  385.26   27.50
  11 -13   2  345.87   28.30
 -13  -2  11  305.77   28.30
  -2 -11  13  290.07   31.10
  11 -13  -2  308.37   26.20
  -2 -11  13  319.87   27.20
  13   2  11  294.47   30.80
  13   2  11  293.37   27.30
   2  11  13  303.87   31.40
   4 -11  13  253.67   20.60
  -4  11  13  253.97   25.20
  13  -4  11  246.58   20.40
  11 -13   4  242.88   22.20
  13  -4  11  220.08   23.70
  11 -13   4  245.08   19.90
   4 -11  13  261.47   25.10
 -13  -4  11  218.88   18.80
 -13  -4  11  227.78   22.30
   4  11  13  231.28   25.60
  13   4  11  227.78   20.50
  -4 -11  13  232.38   25.60
  -4 -11  13  243.38   20.50
  13   4  11  243.38   25.20
  13  -6  11   11.00    9.20
  11 -13   6   11.00    8.70
  11 -13   6   13.00    5.60
  -6  11  13   16.60   10.80
  13  -6  11    9.20    6.00
   6 -11  13   12.80    6.60
   6 -11  13   18.80   10.90
  13   6  11   20.10   11.50
  -6 -11  13   39.40   12.00
 -13  -6  11   36.70    9.70
  -6 -11  13   38.30    6.40
   6  11  13   35.50   12.40
  11 -13   8   37.30    6.50
   8 -11  13   16.80   11.00
  11 -13   8   26.10   10.00
  13  -8  11   25.40   10.00
   8 -11  13   31.00    6.90
  13  -8  11   39.60    6.40
  -8 -11  13    4.00    6.40
  -8 -11  13   15.30   11.70
 -13  -8  11    6.80   10.30
 -13  -8  11   18.20    5.40
   8  11  13   12.50   11.80
  13   8  11   12.70   12.40
  10 -11  13  320.87   26.40
  13 -10  11  318.67   29.50
  10 -11  13  299.87   30.80
  13 -10  11  322.67   26.20
  11 -13  10  311.57   29.90
  11 -13  10  320.87   26.20
 -13 -10  11  324.17   30.80
 -10 -11  13  296.27   26.10
 -10 -11  13  338.27   31.60
  10  11  13  296.67   32.60
  13 -12  11  776.12   65.19
  11 -13  12  787.72   62.89
  11 -13  12  756.82   65.69
  12 -11  13  796.42   62.89
  13 -12  11  806.72   62.79
  12 -11  13  803.02   65.69
 -13 -12  11  877.91   66.29
 -11 -13  12  846.92   66.69
 -12 -11  13  851.91   62.69
 -12 -11  13  842.42   66.29
   1 -12  13  384.26   34.10
 -13   1  12  373.76   30.80
  13  -1  12  401.36   30.00
   1 -12  13  409.76   30.10
  -1  12  13  375.56   34.40
  12 -13   1  359.86   30.40
  13  -1  12  386.56   33.60
  12 -13   1  391.06   29.20
  -1 -12  13  350.46   33.90
  -1 -12  13  364.86   30.10
  12 -13  -1  360.46   29.00
  13   1  12  351.36   30.10
 -13  -1  12  357.06   31.30
   1  12  13  346.27   34.40
  13   1  12  353.26   34.00
   3 -12  13  452.05   36.80
  12 -13   3  451.75   33.70
 -13   3  12  443.36   33.20
  12 -13   3  454.55   32.20
  -3  12  13  457.85   37.00
   3 -12  13  458.35   33.00
  13  -3  12  437.36   36.00
  13  -3  12  457.95   32.80
  -3 -12  13  389.76   37.00
   3  12  13  351.86   36.90
 -13  -3  12  376.16   34.30
  13   3  12  385.56   32.90
  12 -13  -3  351.66   31.50
  -3 -12  13  381.46   32.80
 -13  -3  12  363.46   31.50
  13   3  12  367.56   36.50
  13  -5  12  199.38   20.20
   5 -12  13  184.68   21.50
  12 -13   5  166.58   14.70
  13  -5  12  182.28   15.60
   5 -12  13  191.88   15.80
  12 -13   5  184.88   17.90
 -13  -5  12  160.08   18.50
  -5 -12  13  141.59   18.50
  -5 -12  13  143.69   15.60
  13   5  12  152.48   21.70
   5  12  13  124.89   19.10
 -13  -5  12  136.79   13.60
  13   5  12  144.29   15.80
   7 -12  13  137.99   17.40
  13  -7  12  148.99   14.30
  12 -13   7  151.68   17.50
  12 -13   7  156.58   13.90
   7 -12  13  137.09   14.50
  13  -7  12  137.09   19.10
  -7 -12  13  109.49   17.30
 -13  -7  12  128.39   12.70
  -7 -12  13  134.09   14.40
 -13  -7  12  131.49   18.60
  13   7  12  121.59   17.60
   7  12  13  130.39   19.00
  12 -13   9  192.48   17.00
  12 -13   9  169.98   21.00
  13  -9  12  199.08   17.40
  13  -9  12  187.88   21.90
   9 -12  13  212.08   23.50
   9 -12  13  204.58   17.60
 -13  -9  12  165.68   16.50
 -13  -9  12  181.78   22.30
  13   9  12  150.78   20.50
  -9 -12  13  167.28   17.20
  -9 -12  13  185.48   24.50
  13 -11  12  761.52   63.69
  13 -11  12  798.32   61.29
  12 -13  11  782.72   61.19
  12 -13  11  772.42   63.79
  11 -12  13  769.62   64.29
  11 -12  13  677.33   61.19
 -11 -12  13  852.71   65.19
 -11 -12  13  835.62   61.19
 -13 -11  12  838.12   61.09
 -13 -11  12  849.12   64.79
 -13   0  13   20.60    7.90
   0 -13  13   16.30    6.50
   0 -13  13   -5.90   11.40
  13 -13   0    9.30    4.10
  13 -13   0    8.80    5.30
  13   0  13   10.70    6.30
  13   0  13    2.30   10.40
  13  -2  13  619.44   49.90
 -13   2  13  648.44   47.80
  13  -2  13  639.84   47.10
  13 -13   2  597.34   47.30
   2 -13  13  610.24   47.10
   2 -13  13  631.34   50.49
  13 -13   2  636.94   46.40
  13 -13  -2  530.15   46.00
   2  13  13  584.44   50.89
  -2 -13  13  606.44   50.79
  -2 -13  13  587.34   47.10
 -13  -2  13  577.14   48.40
  13   2  13  592.34   47.10
  13   2  13  599.24   50.39
  13 -13   4  572.44   49.40
  13  -4  13  636.84   48.80
 -13   4  13  602.24   49.20
  13 -13   4  609.44   48.20
  13  -4  13  596.04   51.39
   4 -13  13  639.24   48.90
   4 -13  13  594.74   51.99
  -4 -13  13  635.24   48.90
 -13  -4  13  623.64   47.90
 -13  -4  13  659.33   50.59
  -4 -13  13  695.03   52.79
  13   4  13  636.24   49.00
  13   4  13  667.23   52.49
  13 -13   6   68.29   10.10
  13  -6  13   60.39    8.30
 -13   6  13   59.89    8.50
  13 -13   6   59.39    7.40
  13  -6  13   55.49   12.00
   6 -13  13   58.69    8.40
   6 -13  13   57.89   13.30
  -6 -13  13   32.20    8.00
 -13  -6  13   43.20   11.00
  -6 -13  13   37.70   13.60
  13   6  13   43.30   13.70
  13  -8  13   63.29    9.00
  13  -8  13   56.39   13.00
  13 -13   8   61.99    8.40
  13 -13   8   45.00   11.00
   8 -13  13   60.39    8.90
   8 -13  13   65.79   13.80
  -8 -13  13  111.19   15.40
  13   8  13  112.19   15.40
  13 -10  13  637.04   45.10
  13 -10  13  588.44   48.30
  13 -13  10  609.84   44.90
  13 -13  10  568.64   47.40
  10 -13  13  621.34   45.10
  10 -13  13  625.54   49.00
 -10 -13  13  517.85   44.90
 -10 -13  13  465.95   48.90
 -13 -10  13  514.25   44.50
 -13 -10  13  541.95   48.60
  13 -13  12  651.43   56.99
  13 -12  13  647.94   53.99
  13 -12  13  648.74   56.99
  13 -13  12  644.04   53.89
  12 -13  13  665.53   57.39
  12 -13  13  640.54   53.89
 -12 -13  13  740.03   58.59
 -12 -13  13  748.03   53.89
 -13 -13  12  738.13   58.39
 -13 -12  13  724.93   53.79
 -13 -12  13  788.02   58.49
   0   0  14 3113.09  235.98
   0   0  14 3144.79  237.38
   2   0  14  632.74   49.99
  -2   0  14  607.34   47.50
  -2   0  14  636.34   49.80
   2   0  14  607.44   47.60
   4   0  14   18.70    8.90
  -4   0  14   13.90    4.20
  -4   0  14   16.50    8.90
   4   0  14   11.40    5.00
  -6   0  14  230.78   19.30
   6   0  14  255.87   24.40
  -6   0  14  273.57   23.40
   6   0  14  226.08   20.20
  14  -8   0   54.29    6.10
   8   0  14   71.79    9.30
  -8   0  14   56.69    7.10
  -8   0  14   53.79   10.40
   8   0  14   61.49   11.70
  10   0  14   51.39    7.50
  10   0  14   49.20   11.80
 -10   0  14   47.90    5.40
  14 -10   0   43.60    6.10
 -10   0  14   55.99   10.00
  14 -12   0  726.13   55.39
  12   0  14  714.63   56.29
  12   0  14  767.32   59.39
 -12   0  14  720.63   57.49
   0 -14  12  714.93   56.29
   1  -1  14  213.28   16.30
   1  -1  14  238.58   20.70
  -1   1  14  200.88   16.10
  -1   1  14  226.28   20.50
  -1  -1  14  174.78   20.10
   1   1  14  157.88   16.20
  -1  -1  14  169.38   16.00
   1   1  14  176.58   20.20
  14  -3   1  343.97   25.60
  -3   1  14  363.46   29.30
  -3   1  14  336.77   26.10
   3  -1  14  368.36   29.80
   3  -1  14  359.66   26.40
  -3  -1  14  248.88   28.80
   3   1  14  273.47   29.30
  14  -5   1  537.05   42.50
   5  -1  14  532.65   43.20
  -5   1  14  525.85   42.80
  -5   1  14  559.24   45.20
   5  -1  14  567.54   46.00
   5   1  14  660.93   46.20
  -7   1  14  791.72   67.49
   7  -1  14  736.33   65.89
  14  -7   1  776.32   65.29
  -7   1  14  766.92   65.39
   7  -1  14  779.32   67.99
   7   1  14  988.00   66.09
  -7  -1  14  970.80   65.59
   7   1  14  991.40   68.49
  -7  -1  14  990.00   67.79
  -9   1  14  134.59   17.30
  14  -9   1  145.19   12.30
  -9   1  14  137.99   12.30
   9  -1  14  148.29   19.70
   9  -1  14  157.38   14.30
   1 -14  11   50.29   12.70
   1 -14  11   52.69    7.90
  11  -1  14   60.89    8.00
  14 -11   1   54.09    7.20
 -11   1  14   55.49   10.20
  11  -1  14   37.40   11.40
  11   1  14   63.39   13.10
  11   1  14   52.59    7.60
  14 -11  -1   62.19    6.40
  -1 -14  11   46.70   12.20
 -11  -1  14   83.39   11.30
 -11  -1  14   53.49    6.60
   1 -14  13   -4.20   11.00
 -13   1  14   -1.90    7.70
  14 -13   1    0.50    4.30
   1 -14  13    0.70    6.60
  13  -1  14    5.50   11.50
  13  -1  14    4.00    6.50
  14 -13  -1   16.80    3.90
 -13  -1  14   24.50    8.90
  13   1  14   15.30    7.00
  13   1  14   17.50   12.10
  -1 -14  13    3.50    6.50
  -1 -14  13   11.40   12.10
   0   2  14  630.04   49.40
   0  -2  14  605.14   49.30
   0   2  14  606.94   47.00
   0  -2  14  608.54   47.00
  -2   2  14  291.37   24.40
  -2   2  14  257.37   20.70
  14  -2   2  279.07   20.20
   2  -2  14  253.67   20.90
  -2  -2  14  168.98   24.00
  -4   2  14  373.66   31.90
   4  -2  14  377.96   32.70
  -4   2  14  351.66   28.90
   4  -2  14  350.86   29.30
  14  -4   2  371.16   28.60
   4   2  14  411.56   32.60
   4   2  14  374.36   29.40
  -4  -2  14  368.16   29.00
  -4  -2  14  382.46   32.10
  -6   2  14  355.56   32.50
  -6   2  14  353.26   29.50
  14  -6   2  361.86   29.20
   6  -2  14  342.27   30.10
   6  -2  14  359.96   33.30
  -6  -2  14  412.06   32.80
  -6  -2  14  408.76   29.60
   6   2  14  406.16   33.50
   6   2  14  423.16   30.20
  -8   2  14  159.78   17.70
   8  -2  14  154.78   14.10
  -8   2  14  153.18   12.50
  14  -8   2  143.89   12.40
   8  -2  14  152.08   19.40
  -8  -2  14  126.89   12.60
   8   2  14  134.59   16.70
  -8  -2  14  150.28   17.80
   8   2  14  135.79   14.20
 -10   2  14    4.00    8.30
  10  -2  14   16.20    6.40
   2 -14  10   23.10   10.60
  14 -10   2   22.80    4.30
  10  -2  14    0.90   10.20
 -10   2  14   14.20    3.60
   2 -14  10   11.60    6.20
 -10  -2  14    9.20    4.00
 -10  -2  14   21.40    9.50
  10   2  14   22.10   11.20
  10   2  14    9.10    6.10
 -12   2  14  234.08   23.90
   2 -14  12  244.38   27.40
  14 -12   2  231.68   21.00
  12  -2  14  246.48   26.80
  12  -2  14  236.18   22.30
   2 -14  12  241.68   22.40
  -2 -14  12  291.27   22.40
 -12  -2  14  273.37   20.60
 -12  -2  14  288.87   25.00
  12   2  14  289.07   28.10
  12   2  14  288.67   22.50
  -2 -14  12  270.47   27.80
   1  -3  14  345.47   26.50
   1  -3  14  371.16   30.00
  -1   3  14  339.27   26.40
  -1   3  14  348.67   29.70
  14  -1   3  370.46   26.10
  -1  -3  14  262.57   29.20
   1   3  14  253.67   29.40
  -3   3  14 1153.78   88.29
  -3   3  14 1167.08   90.19
   3  -3  14 1183.38   88.49
  14  -3   3 1203.48   88.19
   3  -3  14 1179.38   90.39
  -3  -3  14 1130.49   88.29
  -3  -3  14 1175.78   90.29
   3   3  14 1142.99   90.39
   3   3  14 1147.09   88.49
   5  -3  14  743.03   62.09
  -5   3  14  761.82   63.79
  14  -5   3  785.12   61.69
  -5   3  14  765.12   61.79
   5  -3  14  791.42   64.39
  -5  -3  14 1011.60   61.89
  14  -7   3  396.76   30.80
   7  -3  14  415.76   35.00
  -7   3  14  387.16   33.70
  -7   3  14  389.56   30.80
   7  -3  14  400.76   31.50
  -9   3  14  404.26   33.00
  14  -9   3  440.16   33.30
   3 -14   9  417.26   34.10
   9  -3  14  428.66   34.10
  -9   3  14  423.36   36.00
   9  -3  14  437.06   37.40
  -9  -3  14  453.25   36.60
  -9  -3  14  440.16   33.30
   9   3  14  427.86   34.10
   9   3  14  443.36   38.00
   3 -14  11  455.55   33.20
  14 -11   3  432.56   32.80
  14 -11   3  432.96   32.10
  11  -3  14  417.96   36.40
 -11   3  14  443.26   34.80
  11  -3  14  437.36   33.10
   3 -14  11  442.46   37.00
  11   3  14  351.56   33.00
 -11  -3  14  359.36   31.90
 -11  -3  14  378.26   35.00
  11   3  14  394.06   37.40
   3 -14  13   49.20   12.40
  13  -3  14   39.20    7.10
  14 -13   3   47.90    5.80
  14 -13   3   30.60    6.90
   3 -14  13   29.60    7.30
 -13   3  14   31.60    8.30
  13  -3  14   44.30   11.60
  -3 -14  13    6.50   12.10
  13   3  14    7.80   12.00
  -3 -14  13   14.60    7.10
  13   3  14   10.10    7.30
 -13  -3  14   15.20    9.70
  14   0   4   13.00    5.90
  14   0   4   10.40    4.20
   0  -4  14   13.80    4.80
   0   4  14   12.60    4.70
   0  -4  14    7.90    8.10
   0   4  14   23.70    9.50
  -2   4  14  366.66   29.40
  14  -2   4  387.76   29.20
  -2   4  14  381.56   32.60
  14  -2   4  374.76   29.80
   2  -4  14  362.06   29.60
   2  -4  14  397.16   32.80
  -2  -4  14  405.16   32.50
  -2  -4  14  348.07   29.30
   2   4  14  366.06   29.60
  -4   4  14  364.36   29.30
  -4   4  14  386.66   32.60
   4  -4  14  366.16   29.70
   4  -4  14  397.96   33.10
  14  -4   4  376.56   29.60
  14  -4   4  363.76   29.10
  14  -6   4  438.36   36.70
  -6   4  14  439.46   36.70
   6  -4  14  432.86   40.20
   6  -4  14  545.35   38.20
  14  -6   4  405.96   37.10
  -6   4  14  405.06   39.50
  -6  -4  14  519.45   36.90
   6   4  14  531.15   37.40
   6   4  14  538.75   40.90
  -6  -4  14  531.05   39.90
  -8   4  14  189.78   15.10
  14  -8   4  184.38   15.60
  14  -8   4  201.48   16.40
   8  -4  14  203.68   21.70
   4 -14   8  192.98   16.70
  -8   4  14  185.58   19.80
   8  -4  14  204.48   16.60
   8   4  14  154.28   16.70
  -8  -4  14  170.58   20.00
   8   4  14  168.78   22.10
  -8  -4  14  157.88   15.40
  14 -10   4  282.77   20.90
   4 -14  10  277.47   21.90
  10  -4  14  281.77   22.00
 -10   4  14  291.17   24.50
  10  -4  14  262.07   26.10
  14 -10   4  256.57   21.80
   4 -14  10  286.07   26.50
  10   4  14  190.08   26.70
  10   4  14  209.38   22.00
 -10  -4  14  182.68   24.50
  12  -4  14   86.09   13.60
  12  -4  14   82.59   11.50
   4 -14  12   83.19   14.60
   4 -14  12   83.39   11.50
  14 -12   4   78.59    9.50
  14 -12   4   81.99    9.60
 -12   4  14   89.89   11.10
  12   4  14   69.39    9.40
  -4 -14  12   77.89   14.70
  12   4  14   73.99   14.30
 -12  -4  14   67.39    8.70
 -12  -4  14   73.59   12.60
  14  -1   5  552.94   46.50
  -1   5  14  569.94   49.30
   1  -5  14  538.95   46.70
   1  -5  14  536.65   49.10
  -1   5  14  535.85   46.70
  14  -1   5  565.94   47.40
   1   5  14  738.73   46.90
  -1  -5  14  695.43   46.80
  -1  -5  14  739.73   49.60
  -3   5  14  755.02   57.99
   3  -5  14  740.23   58.09
   3  -5  14  738.43   60.59
  14  -3   5  751.92   58.59
  -3   5  14  790.52   60.39
  14  -3   5  775.42   57.89
  -5   5  14  987.50   80.59
   5  -5  14 1034.10   83.19
  14  -5   5 1001.00   80.59
  -5   5  14 1025.80   82.79
  14  -5   5  974.40   81.19
   5   5  14 1180.78   83.59
  -5  -5  14 1116.69   82.89
   5   5  14 1157.68   81.09
  -5  -5  14 1107.39   80.79
  -7   5  14  126.49   14.60
  14  -7   5  125.69   13.00
   7  -5  14  148.89   18.30
   7  -5  14  166.18   14.90
  14  -7   5  122.29   11.50
  -7  -5  14   96.69   11.40
  -7  -5  14   93.99   13.90
   7   5  14  105.89   14.70
   7   5  14  155.68   16.30
   5 -14   9  290.17   26.20
  14  -9   5  272.77   22.30
  14  -9   5  279.47   21.10
   5 -14   9  253.57   21.90
   9  -5  14  275.87   26.40
  -9   5  14  276.47   25.00
   9  -5  14  266.77   22.00
   9   5  14  234.38   22.10
   9   5  14  233.38   27.00
  -9  -5  14  242.38   25.20
  -9  -5  14  233.78   20.90
  14 -11   5  508.25   38.50
 -11   5  14  534.95   40.70
  11  -5  14  527.55   42.50
  14 -11   5  518.15   39.60
   5 -14  11  527.05   39.10
   5 -14  11  517.05   42.50
  11  -5  14  527.15   39.20
  11   5  14  372.66   42.40
 -11  -5  14  382.16   41.20
  13  -5  14   74.79   12.90
   5 -14  13   90.89   11.50
   5 -14  13   75.69   13.80
  -5 -14  13   49.60    8.80
  13   5  14   34.10   13.60
 -13  -5  14   43.10   11.40
  -5 -14  13   54.69   14.30
  13   5  14   42.80    8.40
 -13  -5  14   58.69    6.60
  14   0   6  229.28   22.20
   0  -6  14  312.67   28.20
   0   6  14  234.48   20.50
   0  -6  14  236.08   20.40
  14   0   6  250.97   20.40
   0   6  14  267.07   25.00
   2  -6  14  373.66   34.30
  14  -2   6  364.36   30.70
  -2   6  14  340.87   30.90
  14  -2   6  370.16   32.10
   2  -6  14  355.26   30.90
  -2   6  14  342.67   34.20
  14   2   6  441.46   31.00
   2   6  14  434.26   34.90
  -2  -6  14  414.66   30.90
  -2  -6  14  420.06   34.20
  14   2   6  425.16   32.80
   2   6  14  410.36   31.20
 -14  -2   6  417.96   30.90
  -4   6  14  417.56   36.40
   4  -6  14  427.86   36.70
  14  -4   6  427.16   37.60
   4  -6  14  415.46   39.90
  14  -4   6  430.76   36.40
  -4   6  14  466.85   39.60
   4   6  14  534.25   37.10
 -14  -4   6  536.55   37.50
  -4  -6  14  517.05   36.60
  -4  -6  14  541.45   39.70
   6  -6  14  230.78   21.30
   6  -6  14  225.58   25.50
  14  -6   6  229.98   20.80
  14  -6   6  239.78   22.10
  -6   6  14  238.98   24.90
  -6  -6  14  280.07   20.80
   6   6  14  274.17   21.40
   6   6  14  292.47   26.30
  -6  -6  14  283.77   25.00
  -8   6  14   28.00    9.70
   6 -14   8   14.30    6.20
   6 -14   8   14.50    9.70
  14  -8   6   14.40    5.10
  14  -8   6   12.70    6.90
   8  -6  14   22.40    6.20
   8  -6  14   16.60   10.50
  -8  -6  14   10.50    9.40
   8   6  14   20.80   11.10
   8   6  14   24.80    6.20
  -8  -6  14   33.00    5.30
  14 -10   6  136.09   12.70
  10  -6  14  144.89   16.70
 -10   6  14  151.98   17.10
   6 -14  10  138.69   13.80
  14 -10   6  132.79   14.80
  10  -6  14  130.69   13.50
   6 -14  10  151.38   18.80
 -10  -6  14  117.19   15.70
  10   6  14   99.79   17.30
  10   6  14   91.09   13.70
  14 -12   6  136.19   12.30
  12  -6  14  137.79   13.60
   6 -14  12  134.19   13.70
  12  -6  14  127.39   16.30
 -12   6  14  125.99   15.20
   6 -14  12  120.89   16.20
  14 -12   6  117.49   14.60
  -6 -14  12   92.49   16.00
 -12  -6  14  101.79   14.80
  12   6  14   85.19   16.00
  12   6  14   93.39   13.80
 -12  -6  14   99.79   11.30
   1  -7  14  784.72   68.89
   1  -7  14  765.32   66.59
  14  -1   7  800.02   66.49
  14  -1   7  793.82   67.79
  -1   7  14  756.62   66.59
  14   1   7 1007.20   68.29
  -1  -7  14  972.60   69.09
  -1  -7  14  938.01   66.69
   1   7  14  965.70   66.79
   1   7  14  986.10   69.39
  -3   7  14  404.26   46.40
   3   7  14  624.24   47.60
   3   7  14  564.14   44.30
 -14  -3   7  605.64   44.60
  -3  -7  14  600.84   46.90
  -3  -7  14  571.64   44.10
  14   3   7  616.24   46.10
  -5   7  14  138.09   17.70
   5  -7  14  136.89   18.70
  14  -5   7  122.29   11.90
   7 -14   5  129.39   12.40
   5  -7  14  131.29   12.70
  14  -5   7  119.39   14.40
   5   7  14  102.49   15.30
  -5  -7  14  107.29   14.60
   5   7  14  115.59   12.80
 -14  -5   7  118.29   14.20
  -5  -7  14  107.79   11.90
   7 -14   7  318.27   29.50
   7  -7  14  336.47   26.50
  -7   7  14  310.47   29.50
  14  -7   7  347.47   26.10
  14  -7   7  316.27   27.60
   7 -14   7  334.47   26.50
   7  -7  14  336.87   30.70
   7   7  14  329.27   30.80
  -7  -7  14  315.57   26.10
  -7  -7  14  308.57   29.80
   7   7  14  309.97   26.70
  14  -9   7   85.19   11.10
  14  -9   7   82.69   10.40
   7 -14   9   70.79    9.70
  -9   7  14   77.79   12.40
   9  -7  14   81.29   11.60
   9  -7  14   63.29   13.50
   7 -14   9   79.19   13.60
  -9  -7  14  109.49   10.30
  -9  -7  14  102.29   13.60
   9   7  14  131.59   14.50
   9   7  14  107.09   15.20
  11  -7  14  146.19   17.30
   7 -14  11  143.49   20.30
   7 -14  11  148.19   14.80
  11  -7  14  139.59   14.30
  14 -11   7  136.09   13.50
  14 -11   7  148.39   16.20
 -11   7  14  151.18   17.00
 -11  -7  14  119.19   16.30
  11   7  14  112.69   17.40
 -11  -7  14  127.79   12.90
  14 -13   7   82.69   11.50
  13  -7  14   92.49   14.10
  13  -7  14   84.19    9.80
  14 -13   7   90.79   10.90
   7 -14  13   65.19    9.70
   7 -14  13   76.99   14.70
 -13  -7  14   66.99    9.60
  13   7  14   93.49   17.10
 -13  -7  14   71.09   13.70
  -7 -14  13   82.89   10.10
  -7 -14  13   63.69   16.10
   0  -8  14   43.30   10.90
   0  -8  14   50.89    7.10
  14   0   8   48.90    9.80
   0   8  14   51.79   11.60
  14   0   8   59.59    7.20
   2  -8  14  155.68   13.90
  14  -2   8  162.08   17.10
   2  -8  14  157.78   19.80
  14  -2   8  156.18   13.70
  -2   8  14  134.19   19.20
  -2  -8  14  137.39   13.80
   2   8  14  144.79   19.70
  14   2   8  136.89   17.80
  14   2   8  130.29   13.90
  -2  -8  14  141.79   18.80
 -14  -2   8  129.69   14.00
  14  -4   8  215.18   16.60
   4  -8  14  223.58   22.20
  14  -4   8  202.38   19.10
   4  -8  14  195.88   16.90
  -4   8  14  222.18   21.50
   8 -14   4  192.18   16.60
  -4  -8  14  157.58   21.00
  14   4   8  158.78   20.60
   4   8  14  169.08   22.10
  -4  -8  14  160.28   16.60
 -14  -4   8  170.48   18.00
   8 -14   6   16.90    6.00
  -6   8  14   20.20    9.80
   6  -8  14   14.00    6.20
   8 -14   6   25.00    9.50
  14  -6   8   13.20    5.50
   6  -8  14   17.00   10.30
  14  -6   8   20.80    8.20
  -6  -8  14   28.10   10.40
  -6  -8  14   30.70    6.00
   6   8  14   18.70   11.10
 -14  -6   8   23.10    8.50
  -8   8  14  353.46   30.70
   8 -14   8  332.47   27.50
   8  -8  14  355.56   27.70
  14  -8   8  355.36   29.30
  14  -8   8  358.36   27.30
   8  -8  14  341.77   31.80
   8 -14   8  355.96   30.80
  -8  -8  14  324.87   31.30
  -8  -8  14  305.77   27.20
   8   8  14  305.67   32.70
  10  -8  14   28.40   11.90
 -10   8  14   47.60   10.00
   8 -14  10   26.70    7.30
  14 -10   8   44.20    6.70
  14 -10   8   46.40    9.50
  10  -8  14   38.70    7.50
   8 -14  10   37.00   11.30
  10   8  14   30.80   12.70
 -10  -8  14   15.00   11.00
 -10  -8  14   40.90    6.60
  12  -8  14   54.29   13.00
  12  -8  14   58.39    9.00
  14 -12   8   54.49   10.80
   8 -14  12   55.79    8.70
   8 -14  12   57.19   13.60
  14 -12   8   56.59    8.00
 -12  -8  14   72.39   13.20
  12   8  14   46.80   15.10
 -12  -8  14   66.99    7.60
  -8 -14  12   51.19   13.50
   1  -9  14  185.18   28.00
  -1   9  14  138.59   23.40
  -1  -9  14  239.58   23.60
 -14  -1   9  234.18   19.20
  14   1   9  232.18   22.40
  14   1   9  218.58   19.00
   1   9  14  222.98   24.00
  -1  -9  14  235.78   19.10
  14  -3   9  438.46   35.00
  14  -3   9  448.46   37.20
   9 -14   3  444.46   34.80
  -3   9  14  484.95   38.80
   3  -9  14  440.26   38.60
  14   3   9  466.85   38.10
  -3  -9  14  447.16   35.10
 -14  -3   9  425.66   35.70
   3   9  14  448.36   39.10
  -3  -9  14  439.26   38.30
  14   3   9  430.16   35.10
   5  -9  14  271.17   21.50
  -5   9  14  272.87   25.80
   9 -14   5  296.77   24.30
  14  -5   9  268.97   21.20
   5  -9  14  250.17   26.20
  14  -5   9  275.47   23.80
   9 -14   5  268.27   21.30
   5   9  14  261.97   26.70
  14   5   9  208.88   25.30
 -14  -5   9  238.78   23.10
  -5  -9  14  245.98   25.80
  -5  -9  14  227.18   21.10
 -14  -5   9  220.88   20.00
   9 -14   7   62.69   12.00
   7  -9  14   76.69    9.50
  -7   9  14   83.79   13.50
   9 -14   7   70.69    9.20
   7  -9  14   84.79   13.90
  14  -7   9   84.39   10.60
  14  -7   9   74.79   11.70
  -7  -9  14  101.79   10.70
 -14  -7   9  115.49   12.90
  -7  -9  14   97.09   14.30
   7   9  14  109.29   16.10
   9  -9  14  158.08   21.30
  14  -9   9  155.28   14.30
   9 -14   9  146.29   15.00
   9 -14   9  152.98   19.70
  14  -9   9  166.48   17.70
  -9   9  14  163.88   18.50
   9  -9  14  158.78   15.10
   9   9  14  112.19   18.40
  -9  -9  14  131.49   14.20
  -9  -9  14  119.29   17.10
  14 -11   9  477.55   37.50
  11  -9  14  439.76   41.40
   9 -14  11  473.85   41.40
  11  -9  14  473.55   37.90
  14 -11   9  479.75   39.70
   9 -14  11  490.25   37.80
 -11  -9  14  493.95   41.50
  11   9  14  430.76   42.40
 -11  -9  14  489.55   37.40
   9 -14  13  261.57   30.20
  13  -9  14  288.27   24.40
   9 -14  13  291.37   24.60
  14 -13   9  250.37   27.10
  14 -13   9  303.07   24.10
  13  -9  14  265.87   29.00
  13   9  14  254.77   31.80
  -9 -14  13  293.67   24.60
  -9 -14  13  278.87   30.80
 -13  -9  14  283.57   29.20
 -13  -9  14  286.17   23.60
  14   0  10   65.89   11.20
   0  10  14   50.29   12.80
   0 -10  14   36.00   11.70
   0 -10  14   41.20    7.40
 -14   0  10   65.79    7.60
  14   0  10   43.90    7.00
  14  -2  10   18.30    9.30
   2 -10  14   17.10    6.10
  -2  10  14   16.90   11.30
   2 -10  14   19.20   11.10
  14  -2  10   17.50    5.80
  10 -14   2   20.90    5.20
  -2 -10  14   16.50   10.80
 -14  -2  10   16.50    6.70
  -2 -10  14   15.30    6.00
   2  10  14   12.50   11.40
  14   2  10   17.20   10.20
  14   2  10   12.80    6.30
   4 -10  14  271.37   24.70
  -4  10  14  272.57   24.40
   4 -10  14  272.57   19.40
  14  -4  10  278.37   22.90
  10 -14   4  270.47   22.00
  -4 -10  14  202.38   24.00
 -14  -4  10  180.28   20.70
  14   4  10  194.88   23.90
   4  10  14  202.08   25.30
 -14  -4  10  189.18   17.40
  -4 -10  14  196.48   19.00
  14   4  10  192.48   19.40
  14  -6  10  142.19   12.80
  14  -6  10  142.89   16.60
   6 -10  14  118.89   15.60
  10 -14   6  135.49   12.60
  -6  10  14  135.39   18.70
  10 -14   6  146.09   16.70
   6 -10  14  151.28   13.10
   6  10  14   87.89   15.50
  -6 -10  14   98.69   12.70
 -14  -6  10  100.39   13.50
 -14  -6  10   92.59   10.80
  -6 -10  14   99.39   15.80
  14   6  10   92.59   15.40
  10 -14   8   42.70   11.00
  14  -8  10   51.09    7.50
   8 -10  14   36.10    7.50
   8 -10  14   38.60   11.70
  10 -14   8   39.00    7.30
  14  -8  10   51.99   10.60
  -8  10  14   40.10   10.90
  -8 -10  14   37.10   12.70
   8  10  14   15.60   11.30
  -8 -10  14   33.20    6.80
 -14  -8  10   29.00   11.20
  10 -14  10   89.99   13.00
  14 -10  10   87.29   12.40
  14 -10  10  101.29   13.90
  10 -10  14   94.79   13.10
  10 -14  10  112.39   14.90
  10 -10  14  109.69   16.10
 -14 -10  10  144.49   19.20
  10  10  14  140.19   17.10
  10 -14  12   43.20    8.40
  10 -14  12   31.50   13.20
  14 -12  10   35.30   11.10
  14 -12  10   39.60    7.90
  12 -10  14   46.30   13.40
  12 -10  14   51.89    8.50
 -10 -14  12   31.70   13.80
 -12 -10  14   53.99    7.80
  12  10  14   65.49   16.40
 -12 -10  14   39.10   13.40
  -1  11  14   63.09   13.50
  11 -14   1   63.89    7.30
   1 -11  14   51.79   12.40
   1 -11  14   56.89    8.30
  14  -1  11   55.79    8.00
  14  -1  11   53.69   11.60
 -14  -1  11   70.39    9.30
  14   1  11   56.79   12.30
  -1 -11  14   59.69    8.00
  -1 -11  14   93.29   17.20
  14   1  11   65.89    8.40
  11 -14  -1   77.99    8.30
   1  11  14   42.90   13.10
  14  -3  11  445.26   33.20
  11 -14   3  436.36   32.70
   3 -11  14  451.25   33.30
  11 -14   3  430.86   34.70
   3 -11  14  424.76   37.10
  14  -3  11  428.16   35.90
  -3  11  14  441.56   37.30
  -3 -11  14  391.56   37.00
   3  11  14  375.96   37.50
  14   3  11  406.66   36.90
  14   3  11  366.66   33.30
  -3 -11  14  393.36   33.20
 -14  -3  11  399.06   34.40
  14  -5  11  495.35   38.70
   5 -11  14  504.55   36.30
  11 -14   5  531.35   36.00
  14  -5  11  526.45   36.20
  -5  11  14  547.95   40.20
  11 -14   5  514.15   38.20
   5 -11  14  509.75   40.30
  -5 -11  14  383.96   36.00
 -14  -5  11  382.66   35.00
  14   5  11  385.26   39.70
 -14  -5  11  408.26   37.80
  -5 -11  14  373.26   39.70
   5  11  14  357.16   40.20
  14  -7  11  133.09   17.90
  11 -14   7  148.49   18.00
   7 -11  14  145.69   14.30
  14  -7  11  151.88   14.00
  11 -14   7  135.59   13.70
  -7  11  14  152.98   19.70
   7 -11  14  128.99   17.20
 -14  -7  11  125.49   18.10
  -7 -11  14  118.99   17.50
  -7 -11  14  108.69   13.90
  14   7  11  125.59   17.20
   7  11  14  108.19   17.70
 -14  -7  11  127.29   12.30
  14  -9  11  504.75   38.70
  11 -14   9  464.25   41.40
   9 -11  14  509.85   38.90
  11 -14   9  495.65   38.60
  14  -9  11  463.95   41.00
   9 -11  14  503.15   43.10
   9  11  14  448.76   43.80
  -9 -11  14  491.45   42.80
  -9 -11  14  493.65   38.70
 -14  -9  11  482.45   42.10
  14 -11  11  469.45   40.50
  11 -11  14  485.15   44.90
  11 -14  11  502.55   40.60
  14 -11  11  461.85   43.00
  11 -11  14  497.05   40.70
  11 -14  11  456.95   43.90
 -11 -11  14  556.44   45.20
 -14 -11  11  572.94   44.90
  11  11  14  543.85   46.80
 -11 -11  14  588.64   40.50
  11 -14  13  134.79   16.80
  13 -11  14  154.68   16.90
  11 -14  13  151.18   19.90
  14 -13  11  139.39   18.10
  13 -11  14  153.08   19.80
  14 -13  11  143.39   16.60
 -11 -14  13  221.68   26.00
 -13 -11  14  208.28   24.50
 -14 -13  11  210.68   24.10
 -14   0  12  747.33   57.39
  12 -14   0  693.83   56.19
  14   0  12  742.23   56.89
   0 -12  14  738.73   56.79
  14   0  12  771.52   59.69
   0  12  14  744.53   60.19
   0 -12  14  744.03   59.99
  12 -14   0  718.93   57.19
  12 -14   2  211.38   22.80
  12 -14   2  233.48   21.10
  14  -2  12  226.18   22.00
  14  -2  12  234.18   26.10
 -14   2  12  224.58   21.90
   2 -12  14  242.48   26.90
   2 -12  14  252.37   22.20
  -2  12  14  213.68   27.10
  -2 -12  14  306.67   27.40
  -2 -12  14  289.77   22.20
  14   2  12  297.47   22.50
 -14  -2  12  287.57   23.70
  14   2  12  304.07   27.30
  12 -14  -2  284.47   20.70
   2  12  14  274.47   27.90
  12 -14   4   76.09    9.70
   4 -12  14   76.29   13.60
  14  -4  12   92.59   12.90
  -4  12  14   81.39   13.90
  12 -14   4   97.39   11.00
  14  -4  12   78.69   10.80
   4 -12  14   71.79    9.00
  12 -14  -4   60.39    7.70
  14   4  12   63.09    8.80
  14   4  12   60.29   13.20
   4  12  14   72.69   14.30
 -14  -4  12   55.59    7.40
 -14  -4  12   73.39   11.10
  -4 -12  14   77.29   14.70
  -4 -12  14   66.49    8.90
  12 -14   6  117.09   16.10
  14  -6  12  136.89   13.10
  14  -6  12  123.39   14.80
   6 -12  14  127.79   13.10
   6 -12  14  144.99   17.30
  12 -14   6  120.89   12.20
  -6 -12  14   84.19   14.80
 -14  -6  12   94.29   14.20
  14   6  12  110.59   16.90
  -6 -12  14   94.59   13.10
 -14  -6  12   91.39   10.60
   6  12  14   68.89   15.20
  14  -8  12   56.09    8.50
   8 -12  14   64.69    8.90
   8 -12  14   61.69   14.10
  12 -14   8   69.29   12.10
  12 -14   8   56.29    8.30
  14  -8  12   58.59   12.00
  -8 -12  14   60.79    8.70
   8  12  14   51.69   14.60
  -8 -12  14   58.59   13.80
 -14  -8  12   59.49   12.50
  14   8  12   60.99   15.90
 -14  -8  12   66.99    7.50
  12 -14  10   48.50    8.20
  12 -14  10   35.30   11.90
  14 -10  12   35.30   12.00
  10 -12  14   42.40   14.30
  14 -10  12   43.00    7.90
  10 -12  14   44.30    8.60
 -10 -12  14   49.30   13.50
 -10 -12  14   59.19    8.50
 -14 -10  12   57.09    7.90
 -14 -10  12   57.69   13.10
  12 -14  12  193.68   18.30
  14 -12  12  188.78   23.10
  12 -12  14  208.38   24.70
  14 -12  12  195.28   18.10
  12 -14  12  188.88   23.80
  12 -12  14  182.58   18.60
 -12 -12  14  117.99   21.70
 -14   1  13    2.90    6.80
   1 -13  14    8.30   11.30
  14  -1  13    6.10   10.60
  14  -1  13   11.00    6.60
  13 -14   1    8.40    6.30
  -1  13  14   -5.90   11.50
  13 -14   1   -1.80    4.40
   1 -13  14    1.10    6.50
  -1 -13  14   12.90    6.70
  13 -14  -1   18.30    5.70
 -14  -1  13   15.00    7.90
  14   1  13   22.00   11.50
   1  13  14   26.70   13.50
  -1 -13  14    7.70   12.30
  14   1  13   12.60    6.80
  13 -14  -1   14.20    4.30
   3 -13  14   42.60    7.70
  14  -3  13   38.80    7.40
  13 -14   3   39.70    5.90
  13 -14   3   36.20    7.90
 -14   3  13   35.40    7.10
   3 -13  14   31.90   12.20
  14  -3  13   28.30   11.00
   3  13  14   -5.10   12.40
  14   3  13    8.30    6.80
  -3 -13  14    5.50    6.80
 -14  -3  13   13.20    9.00
  -3 -13  14    7.20   12.30
  14   3  13   19.60   11.70
  14  -5  13   93.69   13.60
   5 -13  14   64.29   13.60
  14  -5  13   93.79   11.30
   5 -13  14   93.39   11.70
  13 -14   5   78.69   10.60
 -14  -5  13   49.30   11.30
  14   5  13   46.40   14.00
   5  13  14   32.40   12.00
 -14  -5  13   55.19    6.70
  -5 -13  14   55.49    8.80
  -5 -13  14   47.00   14.50
   7 -13  14   82.89   10.00
  14  -7  13   90.99   12.20
  13 -14   7   81.59   12.20
  13 -14   7   81.19    9.30
  14  -7  13   80.79   13.50
   7 -13  14   77.29   14.30
 -14  -7  13   67.09    9.50
 -14  -7  13   81.79   13.60
  14   7  13   82.09   16.20
  -7 -13  14   87.59   16.60
  -7 -13  14   79.99    9.80
   9 -13  14  291.97   24.00
  14  -9  13  256.07   28.00
  14  -9  13  293.47   23.90
  13 -14   9  273.07   23.50
   9 -13  14  271.47   29.70
  13 -14   9  243.38   27.00
  14   9  13  266.87   31.20
  -9 -13  14  282.37   24.00
 -14  -9  13  267.67   28.50
 -14  -9  13  283.57   23.00
  -9 -13  14  265.77   30.20
  14 -11  13  156.58   19.30
  13 -14  11  145.89   18.90
  14 -11  13  161.48   17.00
  13 -14  11  151.88   16.80
  11 -13  14  138.89   17.20
  11 -13  14  161.18   20.10
 -11 -13  14  228.88   25.30
 -14 -11  13  238.38   25.00
  14 -13  13   57.29   14.50
  13 -13  14   38.50   14.50
  14 -13  13   58.39    9.80
  13 -14  13   42.50   14.60
  13 -13  14   54.09   10.00
  13 -14  13   50.89    9.70
 -13 -13  14  104.39   16.60
 -13 -14  13  100.29   18.10
 -13 -13  14   84.99    9.70
 -14 -13  13   88.29   16.80
 -14   0  14 1377.66  104.89
   0 -14  14 1385.66  104.19
   0 -14  14 1389.06  106.99
  14 -14   0 1334.57  103.39
  14   0  14 1376.76  104.09
  14   0  14 1335.17  106.69
  14 -14   2  595.74   48.60
 -14   2  14  607.84   49.60
  14  -2  14  649.83   52.29
  14  -2  14  634.94   48.90
   2 -14  14  632.54   52.69
  14 -14   2  634.04   48.10
  14 -14  -2  648.44   47.70
 -14  -2  14  621.44   50.39
  -2 -14  14  628.04   49.00
  14   2  14  608.44   49.10
  14   2  14  623.94   52.79
  14 -14   4   26.80    8.40
  14  -4  14   48.30    8.70
 -14   4  14   33.70    8.30
  14 -14   4   46.90    7.00
  14  -4  14   27.50   12.20
   4 -14  14   49.00    8.80
   4 -14  14   40.90   13.10
  -4 -14  14   74.49    8.80
 -14  -4  14   69.89    8.20
 -14  -4  14   60.99   11.50
  -4 -14  14   62.19   15.60
  14   4  14   60.59    9.30
  14   4  14   63.49   14.00
  14  -6  14   37.80    7.90
  14  -6  14   29.90   12.30
  14 -14   6   24.10    6.80
  14 -14   6   43.10    9.20
   6 -14  14   37.20    7.80
   6 -14  14   39.00   13.60
  -6 -14  14   45.30    8.00
  -6 -14  14   20.30   14.10
 -14  -6  14   33.50    5.60
 -14  -6  14   23.50   10.90
  14   6  14   26.90   13.70
  14  -8  14   25.70    7.70
  14  -8  14   41.70   12.30
  14 -14   8   24.30    6.90
  14 -14   8   27.30   10.00
   8 -14  14   29.80    7.90
   8 -14  14   11.40   13.00
  -8 -14  14   23.80    7.90
  -8 -14  14   18.70   13.90
 -14  -8  14   23.50    6.00
 -14  -8  14   20.40   11.90
  14   8  14   22.50   14.00
  14 -10  14   75.19   10.60
  14 -10  14   78.99   14.80
  14 -14  10   77.89    9.90
  14 -14  10  100.59   14.10
  10 -14  14   79.09   10.70
  10 -14  14   86.49   16.00
 -10 -14  14   68.39   10.80
 -10 -14  14   69.69   16.80
 -14 -10  14   72.99    9.50
 -14 -10  14   79.79   15.50
  14 -14  12  453.85   42.80
  14 -12  14  505.75   39.60
  14 -12  14  485.25   43.50
  14 -14  12  528.55   39.60
  12 -14  14  530.45   44.50
  12 -14  14  514.65   39.70
 -12 -14  14  527.85   45.20
 -12 -14  14  476.95   39.40
 -14 -14  12  429.56   44.40
 -14 -12  14  459.15   39.00
 -14 -12  14  461.05   44.50
  14 -14  14  958.80   82.79
  14 -14  14 1012.30   79.89
 -14 -14  14 1102.29   84.29
 -14 -14  14 1072.69   79.79
  -1   0  15   20.20    9.30
   1   0  15   11.50    5.10
   1   0  15   23.20    9.90
  -1   0  15   12.90    5.00
   3   0  15  814.52   62.39
   3   0  15  751.92   59.79
  -3   0  15  835.32   62.09
  -3   0  15  741.93   59.59
  -5   0  15 1112.19   88.79
   5   0  15 1208.48   91.29
   5   0  15 1157.78   89.09
  -5   0  15 1216.58   90.89
  -7   0  15    8.10    4.10
   7   0  15    7.70    5.60
   7   0  15   16.70   10.40
  -7   0  15   12.40    9.10
  -9   0  15    9.90    4.00
   9   0  15   11.70    6.00
   9   0  15   19.20   10.90
  -9   0  15    8.00    8.80
 -11   0  15   16.90    3.90
   0 -15  11   12.10    6.70
 -11   0  15   29.50    9.50
  15 -11   0   15.20    3.80
  11   0  15   20.60   12.00
  11   0  15   19.60    6.70
   0 -15  11   17.00   10.90
  15 -13   0    1.90    3.80
 -13   0  15    5.10    8.80
   0 -15  13  -13.10   11.70
  13   0  15    6.20    6.70
  13   0  15    2.50   12.20
   0 -15  13    1.50    7.00
   0   1  15   15.30    5.00
   0  -1  15   14.60    5.20
   0   1  15   22.40    9.60
   0  -1  15    5.90    9.40
  -2   1  15 1911.51  148.89
  -2   1  15 1802.82  147.19
   2  -1  15 1911.81  149.09
   2  -1  15 1837.62  147.29
  -2  -1  15 2129.59  149.09
   2   1  15 1961.90  147.29
   2   1  15 2094.89  149.19
  -2  -1  15 1954.10  147.19
  15  -4   1 1038.40   83.99
  -4   1  15 1123.19   86.39
   4  -1  15 1085.89   84.59
   4  -1  15 1097.89   86.79
  -4   1  15 1090.69   84.29
   4   1  15 1149.78   84.59
  -4  -1  15 1173.28   86.49
  -4  -1  15 1140.29   84.39
   6  -1  15  307.87   28.60
  15  -6   1  298.37   23.00
  -6   1  15  305.67   23.50
  -6   1  15  323.07   27.60
   6  -1  15  324.27   24.50
  -6  -1  15  268.87   23.60
   6   1  15  285.37   24.40
   6   1  15  272.57   28.30
  -6  -1  15  284.47   27.40
  15  -8   1  187.08   14.10
  -8   1  15  178.68   14.50
  -8   1  15  211.78   19.60
   8  -1  15  179.58   16.20
   8  -1  15  193.08   21.60
   8   1  15  144.79   21.40
  -8  -1  15  158.38   19.60
   8   1  15  144.59   16.10
  -8  -1  15  150.38   14.60
  10  -1  15  362.96   34.40
 -10   1  15  370.56   29.20
  15 -10   1  385.46   29.20
  10  -1  15  368.96   30.50
 -10   1  15  377.06   32.80
  10   1  15  385.06   34.60
 -10  -1  15  362.46   29.30
 -10  -1  15  392.06   33.10
  10   1  15  388.46   30.60
   1 -15  12  606.94   45.80
  12  -1  15  561.44   49.10
 -12   1  15  571.14   47.30
  12  -1  15  577.54   45.70
   1 -15  12  572.14   49.60
  15 -12   1  594.04   44.70
 -12  -1  15  570.84   47.50
  12   1  15  573.84   45.70
  -1 -15  12  615.44   45.80
  12   1  15  575.64   49.50
  -1 -15  12  570.64   49.50
   1 -15  14   41.60   14.40
  15 -14   1   44.10    5.80
 -14   1  15   37.90    9.40
  14  -1  15   54.69    8.20
  14  -1  15   46.20   13.60
   1 -15  14   41.90    8.20
  -1 -15  14   38.00    8.30
  14   1  15   26.80   13.10
  -1 -15  14   31.30   13.30
  14   1  15   37.00    8.80
 -14  -1  15   36.00   10.10
   1  -2  15 1917.51  147.19
  -1   2  15 1974.20  147.19
   1  -2  15 1821.22  145.29
  -1   2  15 1806.92  145.29
  -1  -2  15 1921.11  145.29
  -1  -2  15 1906.51  146.99
   1   2  15 2125.49  147.39
   1   2  15 1925.41  145.39
  -3   2  15  684.33   58.19
   3  -2  15  643.14   55.99
  15  -3   2  670.53   55.49
   3  -2  15  657.73   58.59
  -3   2  15  644.84   55.79
  -3  -2  15  807.22   55.89
   3   2  15  813.22   56.09
  -3  -2  15  856.31   58.59
   3   2  15  833.32   58.89
   5  -2  15 1067.49   83.79
   5  -2  15 1133.99   86.09
  15  -5   2 1096.59   83.29
  -5   2  15 1119.69   85.59
  -5   2  15 1058.89   83.49
   5   2  15 1092.09   85.99
   5   2  15 1103.49   83.89
  -5  -2  15 1062.59   83.49
  -5  -2  15 1190.98   85.79
  15  -7   2   30.10    4.40
  -7   2  15   33.80    4.90
   7  -2  15   39.10   11.00
   7  -2  15   30.70    6.30
  -7   2  15   25.50    9.50
   7   2  15    8.90    9.90
   7   2  15   11.40    6.20
  -7  -2  15    6.50    9.30
  -9   2  15   67.39    7.80
   9  -2  15   66.49   13.00
  15  -9   2   72.59    7.70
   9  -2  15   71.79    8.70
  -9   2  15   60.69   11.60
  -9  -2  15   59.79    7.00
   9   2  15   96.09   13.30
   9   2  15   44.10   13.10
  -9  -2  15   56.89   11.60
  11  -2  15  331.27   32.30
  11  -2  15  334.07   28.10
  15 -11   2  329.07   26.80
 -11   2  15  340.07   30.10
   2 -15  11  329.87   28.20
   2 -15  11  341.87   32.60
 -11  -2  15  369.66   30.90
 -11  -2  15  351.36   26.80
  11   2  15  343.17   28.10
  11   2  15  359.26   33.10
  15 -13   2  652.13   46.70
   2 -15  13  626.94   51.49
 -13   2  15  619.44   48.80
  13  -2  15  593.44   51.09
  13  -2  15  624.34   47.70
   2 -15  13  663.83   47.70
  13   2  15  554.94   47.70
  -2 -15  13  587.64   51.79
  -2 -15  13  592.84   47.70
 -13  -2  15  573.74   49.50
  13   2  15  559.34   51.29
   0   3  15  838.92   62.69
   0   3  15  750.92   60.19
   0  -3  15  741.13   60.19
   0  -3  15  841.52   62.89
   2  -3  15  666.33   57.09
  -2   3  15  676.43   56.89
  -2   3  15  643.44   54.49
   2  -3  15  648.84   54.59
  15  -2   3  666.33   54.29
  -2  -3  15  848.12   57.39
  -2  -3  15  768.72   54.59
   2   3  15  798.32   54.79
   4  -3  15  335.17   32.20
  15  -4   3  319.37   27.80
   4  -3  15  324.37   28.50
  -4   3  15  313.67   28.10
  -4   3  15  319.47   31.50
   4   3  15  406.56   28.80
  -4  -3  15  402.96   28.30
  -4  -3  15  411.16   32.00
   4   3  15  420.96   32.60
  -6   3  15    9.20    9.10
   6  -3  15    3.60    9.70
   6  -3  15    1.70    5.50
  15  -6   3    3.10    3.90
  -6   3  15    8.20    4.40
   6   3  15   10.00    9.60
  -6  -3  15   11.90    4.70
   6   3  15   11.40    5.50
  -6  -3  15    8.00    9.00
  -8   3  15   41.10    5.70
  15  -8   3   41.20    5.70
   8  -3  15   37.70    7.30
  -8   3  15   35.70   10.10
   8  -3  15   36.70   11.30
  -8  -3  15   67.09    7.50
   8   3  15   65.39   12.90
   8   3  15   51.09    7.00
  -8  -3  15   61.79   11.10
 -10   3  15  110.89   12.90
  10  -3  15  114.19   12.40
  10  -3  15  102.99   14.80
   3 -15  10  102.79   12.20
   3 -15  10   91.69   14.60
  15 -10   3  109.49   10.00
 -10  -3  15   82.69   13.20
  10   3  15   83.29   15.60
  10   3  15   81.59   12.20
 -10  -3  15   79.69    9.90
 -12   3  15  495.95   40.60
  12  -3  15  471.75   38.80
  15 -12   3  490.65   37.90
   3 -15  12  433.86   42.70
  12  -3  15  478.75   42.50
   3 -15  12  490.35   39.00
 -12  -3  15  505.85   41.30
  12   3  15  504.55   39.10
 -12  -3  15  479.55   37.70
  -3 -15  12  492.15   39.10
  -3 -15  12  509.85   43.30
  12   3  15  528.15   43.50
  14  -3  15  203.78   25.00
  14  -3  15  196.08   19.30
  15 -14   3  198.88   17.50
   3 -15  14  201.48   19.40
   3 -15  14  213.98   25.90
 -14   3  15  204.58   20.10
  14   3  15  232.98   26.30
  14   3  15  206.88   19.70
 -14  -3  15  198.38   22.20
  -3 -15  14  199.88   19.50
  -3 -15  14  216.28   26.80
   1  -4  15 1090.29   88.49
  -1   4  15 1146.59   88.59
  15  -1   4 1119.39   86.29
   1  -4  15 1091.79   86.49
  -1   4  15 1096.19   86.39
   1   4  15 1204.68   88.79
  -1  -4  15 1170.18   86.49
   1   4  15 1144.59   86.49
  -1  -4  15 1182.98   88.59
   3  -4  15  307.57   31.80
  15  -3   4  330.77   27.40
  -3   4  15  308.67   27.60
  -3   4  15  314.87   31.20
   3  -4  15  325.97   28.00
  -3  -4  15  395.46   27.70
   3   4  15  418.46   32.10
  -3  -4  15  425.66   31.80
  -5   4  15  280.17   25.30
   5  -4  15  280.67   21.40
   5  -4  15  280.77   26.00
  15  -5   4  265.87   20.50
  -5   4  15  271.17   20.70
  -5  -4  15  225.68   20.70
  -5  -4  15  237.08   25.10
   5   4  15  234.88   26.30
   5   4  15  215.58   21.30
   7  -4  15  102.19   12.00
  15  -7   4   96.19   10.30
  -7   4  15   96.59   10.30
  -7   4  15  117.39   13.90
   7  -4  15  103.29   14.50
  -7  -4  15  115.79   13.80
   7   4  15  106.29   12.20
   7   4  15  112.89   15.30
  -7  -4  15  104.49   10.60
   4 -15   9   -0.10    6.00
   9  -4  15   -0.30    6.10
  -9   4  15   -0.50    8.90
   4 -15   9    1.80   10.00
  15  -9   4    7.20    4.50
   9  -4  15   13.50   10.80
  -9  -4  15    5.30    4.40
   9   4  15    3.00   10.70
  -9  -4  15    1.30    9.40
   9   4  15    3.70    6.30
  11  -4  15  199.58   23.10
  11  -4  15  185.58   17.60
  15 -11   4  192.68   16.10
 -11   4  15  177.98   20.30
   4 -15  11  186.18   17.60
   4 -15  11  182.08   23.10
  11   4  15  186.98   24.30
 -11  -4  15  184.48   21.40
 -11  -4  15  171.28   15.70
  11   4  15  191.98   17.80
  15 -13   4  517.85   39.70
 -13   4  15  510.35   41.70
   4 -15  13  516.75   44.80
  13  -4  15  514.55   44.20
   4 -15  13  578.14   40.80
  13  -4  15  532.65   40.60
  -4 -15  13  524.45   40.70
  13   4  15  465.95   45.10
 -13  -4  15  466.15   39.30
  -4 -15  13  489.45   45.10
 -13  -4  15  484.15   43.00
  15   0   5 1208.78   90.89
   0   5  15 1183.78   90.29
  15   0   5 1219.38   90.09
   0  -5  15 1187.98   92.49
   0   5  15 1192.68   92.59
   0  -5  15 1134.49   90.19
   2  -5  15 1096.69   85.69
  -2   5  15 1167.38   85.69
  -2   5  15 1094.79   83.29
  15  -2   5 1061.69   83.79
  15  -2   5 1122.69   83.19
   2  -5  15 1030.20   83.39
   2   5  15 1133.09   85.99
   2   5  15 1094.59   83.49
  -2  -5  15 1129.39   85.49
  -2  -5  15 1046.90   83.29
   4  -5  15  271.77   21.60
  -4   5  15  265.87   21.10
  15  -4   5  275.77   20.90
  15  -4   5  272.87   21.60
   4  -5  15  316.27   26.60
  -4   5  15  289.47   25.80
  -4  -5  15  217.68   25.20
   4   5  15  210.98   26.10
   4   5  15  226.58   21.70
  -4  -5  15  227.28   21.00
   6  -5  15   47.10    7.00
   6  -5  15   44.50   11.80
  15  -6   5   50.89    7.10
  -6   5  15   49.80   11.00
  -6   5  15   55.59    6.20
  15  -6   5   54.29    6.10
   6   5  15   18.70   11.00
  -6  -5  15   17.40   10.40
   6   5  15   27.30    7.10
   8  -5  15   74.79    9.30
   5 -15   8   75.69    8.90
  15  -8   5   72.79    8.80
  15  -8   5   70.09    9.20
   8  -5  15   71.99   13.50
  -8   5  15   78.09   12.30
   8   5  15   83.19   14.80
   8   5  15   75.09    9.30
  -8  -5  15   80.39   12.50
  -8  -5  15   85.69    9.20
 -10   5  15    9.40    9.50
  10  -5  15   14.50    6.90
  15 -10   5   20.90    6.30
   5 -15  10    7.40    6.50
  10  -5  15    8.90   11.10
  15 -10   5   11.70    5.00
   5 -15  10   13.10   11.40
 -10  -5  15    6.90    9.90
  10   5  15   21.40   12.40
  10   5  15   11.10   12.00
 -10  -5  15    7.40    4.60
   5 -15  12  155.38   17.40
   5 -15  12  173.48   23.30
  12  -5  15  176.58   17.60
 -12   5  15  165.18   19.60
  15 -12   5  174.78   17.30
  12  -5  15  156.58   23.00
  15 -12   5  169.48   16.00
 -12  -5  15  189.68   22.10
  12   5  15  214.98   24.60
  -5 -15  12  225.08   24.60
 -12  -5  15  197.28   15.60
  12   5  15  189.88   17.50
  14  -5  15  156.18   23.20
   5 -15  14  146.79   20.50
  15 -14   5  168.68   16.00
   5 -15  14  166.08   17.70
 -14   5  15  140.19   17.40
  14  -5  15  182.78   17.50
  14   5  15  182.38   18.00
 -14  -5  15  183.08   15.10
  14   5  15  204.18   25.70
  -5 -15  14  183.08   17.90
  -5 -15  14  205.58   26.20
 -14  -5  15  202.98   22.00
  15  -1   6  323.47   23.60
  -1   6  15  298.67   28.30
  -1   6  15  293.87   23.80
   1  -6  15  301.27   23.80
   1  -6  15  302.37   28.00
  15  -1   6  289.07   25.00
   1   6  15  305.37   28.40
  -1  -6  15  258.47   27.70
  -1  -6  15  270.37   23.50
   1   6  15  272.77   23.90
  15   1   6  287.37   23.60
  15   1   6  278.77   25.30
   3  -6  15    8.90   10.40
  15  -3   6   12.00    6.70
  -3   6  15    6.90    4.90
  -3   6  15    5.40   10.10
  15  -3   6    8.20    4.70
   3  -6  15   10.30    5.60
 -15  -3   6    8.10    5.20
   3   6  15   15.40    6.00
   3   6  15   14.70   10.00
  -3  -6  15    7.80    5.10
  -3  -6  15   15.90    9.30
   5  -6  15   50.89   11.70
  15  -5   6   48.00    6.20
  15  -5   6   48.50    8.00
   5  -6  15   52.49    7.30
  -5   6  15   53.79   11.30
  -5  -6  15   21.30   10.90
   5   6  15   23.00   12.50
  15  -7   6  276.77   22.70
  -7   6  15  293.77   27.30
   7  -6  15  282.17   28.00
   7  -6  15  274.87   23.50
   6 -15   7  271.27   23.20
  15  -7   6  269.37   23.80
  -7  -6  15  263.57   22.60
   7   6  15  296.07   28.80
   7   6  15  299.47   23.60
  -7  -6  15  288.57   27.40
   9  -6  15  162.48   20.90
   6 -15   9  143.79   19.90
  15  -9   6  121.29   14.60
   6 -15   9  151.38   14.50
   9  -6  15  131.19   14.20
  15  -9   6  149.59   13.20
  -9   6  15  169.28   18.50
   9   6  15  125.89   18.00
  -9  -6  15  123.09   12.90
   9   6  15  116.89   14.40
  -9  -6  15  128.79   16.30
   6 -15  11    1.80    6.60
  11  -6  15    4.50   11.70
  11  -6  15    4.00    6.70
 -11   6  15    2.80    8.90
  15 -11   6    3.50    6.90
   6 -15  11    0.90   11.00
  15 -11   6    6.70    5.40
 -11  -6  15   14.60   10.80
  11   6  15   26.70   12.10
 -11  -6  15   14.60    5.00
  11   6  15   27.00    7.90
  15 -13   6  123.19   13.00
  13  -6  15  110.89   13.00
   6 -15  13   97.89   15.60
   6 -15  13   98.99   13.20
 -13   6  15   97.69   11.60
  13  -6  15  103.09   15.60
  15 -13   6   87.49   11.00
  -6 -15  13   67.59   17.00
 -13  -6  15   68.09    8.60
 -13  -6  15   76.49   14.00
  13   6  15   57.99   16.40
  -6 -15  13   67.29   10.40
   0   7  15    9.60    5.40
   0   7  15    7.10   11.10
  15   0   7   10.70    8.00
   0  -7  15    7.20    5.30
   0  -7  15    8.10   10.10
  15   0   7   10.80    5.40
  15  -2   7   12.40    7.60
   2  -7  15   32.10   11.10
   2  -7  15   25.00    5.90
  -2   7  15   25.80   11.00
  -2  -7  15    8.50   16.00
  -2  -7  15   12.10    5.50
  15   2   7   21.40    8.90
  15   2   7   10.90    5.90
   2   7  15   12.20   10.00
   2   7  15   11.20    5.50
  -4   7  15  104.29   14.60
  15  -4   7  103.89   11.40
  15  -4   7  124.39   14.10
   4  -7  15  109.29   15.30
   4  -7  15   97.59   12.20
 -15  -4   7  118.29   13.10
   4   7  15  114.19   15.70
  -4  -7  15  105.99   14.20
   4   7  15  115.59   12.20
  -4  -7  15  102.69   11.60
   7 -15   6  281.47   23.80
  15  -6   7  285.47   23.40
   6  -7  15  320.57   28.70
  15  -6   7  290.17   24.80
   6  -7  15  281.77   24.00
  -6   7  15  261.57   27.80
   6   7  15  278.87   24.10
  -6  -7  15  297.67   27.90
  -6  -7  15  300.27   23.50
   6   7  15  284.77   29.00
  15  -8   7   69.19    9.80
   7 -15   8   59.99   12.60
  15  -8   7   65.29    8.00
   8  -7  15  111.59   13.40
   7 -15   8   53.99    8.60
   8  -7  15   67.89   13.60
  -8   7  15   60.09   12.50
   8   7  15   74.19    9.60
  -8  -7  15   73.49    9.50
   8   7  15   73.69   13.30
  -8  -7  15   79.69   13.00
   7 -15  10   14.00    6.60
  10  -7  15   10.00    6.80
  15 -10   7    9.20    5.50
   7 -15  10    8.00   10.70
  15 -10   7   12.00    7.60
  10  -7  15    3.70   11.30
 -10   7  15   13.20    9.80
 -10  -7  15   21.90   11.00
  10   7  15    8.90   12.80
 -10  -7  15   16.40    5.40
   7 -15  12   42.90    8.60
  15 -12   7   65.49    8.10
   7 -15  12   60.59   13.60
  15 -12   7   62.69   10.20
  12  -7  15   75.79    9.30
  12  -7  15   57.99   13.90
 -12   7  15   55.29   10.50
  12   7  15   67.89   15.50
 -12  -7  15   67.69    9.20
 -12  -7  15   75.89   13.50
   7 -15  14   53.19   15.20
  14  -7  15   83.69   14.90
   7 -15  14   74.09   10.50
  15 -14   7   84.69    9.70
  14  -7  15   67.39   10.40
 -14  -7  15  111.29   15.00
  -7 -15  14   88.69   10.60
 -14  -7  15   91.29   10.10
  -7 -15  14   90.59   17.90
  14   7  15   72.99   16.40
   1  -8  15  185.28   21.20
   1  -8  15  178.08   15.60
  15  -1   8  190.58   15.60
  -1   8  15  178.48   21.60
  15  -1   8  180.78   18.40
  -1  -8  15  145.39   20.60
   1   8  15  171.88   21.60
  -1  -8  15  138.19   15.40
  15   1   8  153.98   19.10
  15   1   8  163.88   15.60
  15  -3   8   34.00    6.90
   3  -8  15   40.40    7.20
   3  -8  15   30.20   11.40
  15  -3   8   46.50    9.50
  -3   8  15   34.20   11.30
   3   8  15   46.00   11.90
  -3  -8  15   60.99    7.10
 -15  -3   8   61.59    7.90
  -3  -8  15   77.79   12.70
  15   3   8   66.99   11.00
   5  -8  15   76.09   13.90
   5  -8  15   78.39    9.30
  15  -5   8   68.09   10.00
   8 -15   5   81.99    8.90
  15  -5   8   62.89   10.60
  -5   8  15   96.19   13.80
   5   8  15   85.09   13.30
  -5  -8  15   75.19   10.20
  -5  -8  15   76.19   13.30
 -15  -5   8   91.19   10.90
   7  -8  15   54.39   13.10
   8 -15   7   66.29   12.30
   7  -8  15   58.09    8.50
   8 -15   7   56.59    8.20
  15  -7   8   58.49    9.90
  15  -7   8   61.69    7.80
  -7   8  15   72.99   13.10
   7   8  15   76.19   13.90
 -15  -7   8   76.29   11.10
  -7  -8  15   65.29    7.90
  -7  -8  15   61.99   12.60
   8 -15   9   91.09   14.20
  15  -9   8   99.19   11.20
  -9   8  15   99.99   13.70
  15  -9   8   86.49   11.70
   9  -8  15   94.89   14.90
   8 -15   9   91.89   12.00
   9  -8  15  105.09   12.50
   9   8  15   76.69   15.30
  -9  -8  15   83.59   10.80
  -9  -8  15   90.09   14.60
  11  -8  15   18.20   12.10
 -11   8  15   17.50    9.00
   8 -15  11    8.70    6.90
  15 -11   8   12.00    8.40
   8 -15  11    6.50   11.40
  11  -8  15   14.80    7.30
  15 -11   8   12.20    6.20
 -11  -8  15   10.60    5.70
  11   8  15   19.30   13.50
 -11  -8  15    7.30   11.20
   8 -15  13   62.39    9.60
  15 -13   8   66.09   11.40
  13  -8  15   72.69   15.00
   8 -15  13   65.59   14.80
  13  -8  15   68.19    9.70
  15 -13   8   79.79    9.20
 -13  -8  15   69.79   14.30
  -8 -15  13   67.99   15.90
 -13  -8  15   70.69    8.40
  13   8  15   76.79   17.20
  -8 -15  13   77.79   10.20
  15   0   9    4.10    5.70
   0  -9  15   -5.20   10.00
   0   9  15    2.70   11.40
   0  -9  15    9.70    5.80
  15   0   9   16.10    9.20
  15  -2   9   73.29    8.10
   2  -9  15   71.89    8.30
  -2   9  15   72.89   12.80
  15  -2   9   65.59   11.10
   2  -9  15   61.89   12.20
  -2  -9  15   55.19    7.70
  15   2   9   49.40    7.50
  15   2   9   57.59   11.30
  -2  -9  15   42.40   12.10
   2   9  15   49.00   12.70
 -15  -2   9   52.19    8.00
  15  -4   9    4.70    5.40
   9 -15   4    2.80    5.50
   4  -9  15    6.90   10.10
  15  -4   9    6.00    8.60
   4  -9  15    0.30    5.90
  -4   9  15    0.40   10.90
  -4  -9  15    4.50   10.40
  15   4   9   -7.20    9.30
 -15  -4   9    7.60    6.90
  -4  -9  15    4.50    5.90
   4   9  15   -7.50   11.00
   9 -15   6  134.29   18.90
  15  -6   9  146.09   17.30
  15  -6   9  147.49   14.20
  -6   9  15  164.18   19.90
   6  -9  15  170.78   15.50
   6  -9  15  156.78   21.60
   9 -15   6  159.58   14.50
   6   9  15  119.09   18.10
 -15  -6   9  127.49   17.20
  -6  -9  15  125.79   17.20
  -6  -9  15  125.59   14.10
  -8   9  15  112.09   14.20
  15  -8   9   77.49   11.80
   8  -9  15   78.79   14.50
   9 -15   8   78.39   13.80
   8  -9  15   90.59   12.00
   9 -15   8   87.89   11.60
  15  -8   9   88.19   11.20
  -8  -9  15   81.89   14.50
  -8  -9  15   80.69    9.70
 -15  -8   9   99.29   13.90
   8   9  15   78.69   15.30
  15 -10   9   11.00    6.10
   9 -15  10    6.70   10.70
  15 -10   9    7.70    8.90
  10  -9  15   10.10   11.90
   9 -15  10   16.30    6.80
  10  -9  15   10.80    7.20
 -10   9  15   11.50    9.40
 -10  -9  15   23.20    6.60
 -10  -9  15   15.10   11.60
  10   9  15   24.40   14.50
   9 -15  12   36.70   12.90
  15 -12   9   39.20    7.60
  12  -9  15   49.70   14.10
   9 -15  12   36.20    8.50
  12  -9  15   46.70    8.80
  15 -12   9   34.10   10.30
  12   9  15   30.70   15.20
 -12  -9  15   36.30   13.20
  -9 -15  12   38.80   13.40
 -12  -9  15   34.60    7.00
  14  -9  15   57.09    9.30
   9 -15  14   64.99    9.60
  15 -14   9   61.49    8.80
   9 -15  14   56.59   15.20
  15 -14   9   61.29   11.70
  14  -9  15   77.79   14.70
 -14  -9  15   42.20    7.70
  14   9  15   40.20   17.60
  -9 -15  14   34.80   15.90
 -14  -9  15   48.40   14.20
  -9 -15  14   48.50    9.40
  -1  10  15  381.76   34.80
   1 -10  15  382.96   34.60
  10 -15   1  375.56   29.90
  15  -1  10  386.66   30.30
   1 -10  15  355.96   30.30
  15  -1  10  394.66   33.30
   1  10  15  355.56   34.70
  15   1  10  391.66   30.50
  -1 -10  15  385.26   30.40
 -15  -1  10  358.16   30.40
  15   1  10  385.56   33.60
  -1 -10  15  370.86   34.40
   3 -10  15  105.49   14.80
  -3  10  15  102.29   14.90
  15  -3  10  102.99   11.50
  10 -15   3  101.39   11.20
   3 -10  15   98.09   11.70
  15  -3  10  123.49   13.70
 -15  -3  10   90.29   11.10
  -3 -10  15   84.79   11.70
   3  10  15   75.09   14.30
  15   3  10   85.09   13.90
  15   3  10   79.39   11.90
  -3 -10  15   95.69   17.20
  10 -15   5   23.30    6.00
  15  -5  10    8.50    8.90
   5 -10  15   -0.50   10.80
  15  -5  10   12.10    5.90
  10 -15   5   21.70    9.60
   5 -10  15    8.40    6.60
  -5  10  15    5.20   11.70
 -15  -5  10    9.20    8.10
  -5 -10  15   10.90    6.30
  15   5  10    8.20   10.70
  -5 -10  15    5.80   10.90
 -15  -5  10   11.00    3.80
   5  10  15   10.90   11.90
  10 -15   7    5.40    9.80
  10 -15   7   12.30    6.50
  15  -7  10    4.50    9.10
   7 -10  15    4.00    6.60
  15  -7  10    9.70    6.00
  -7  10  15    7.10   10.70
   7 -10  15    0.30   11.30
  -7 -10  15   12.50   11.40
   7  10  15    2.50   13.60
  -7 -10  15   13.30    6.10
 -15  -7  10   17.90    9.70
 -15  -7  10    9.20    4.60
  -9  10  15   11.90   10.00
   9 -10  15   19.00    7.20
   9 -10  15   17.30   11.90
  15  -9  10   11.10    9.20
  15  -9  10   15.10    6.70
  10 -15   9   14.60    6.90
  10 -15   9   17.80   11.20
 -15  -9  10    7.20   10.40
  -9 -10  15   14.70    6.40
  -9 -10  15   12.20   12.30
   9  10  15    1.00   12.60
  10 -15  11   40.00    8.20
  10 -15  11   49.70   13.20
  15 -11  10   51.49    7.90
  11 -10  15   40.60   14.10
  11 -10  15   41.50    8.40
  15 -11  10   47.20   11.00
 -11 -10  15   68.59   14.40
  11  10  15   35.00   14.00
 -11 -10  15   38.00    7.60
 -15 -11  10   44.10   13.30
  13 -10  15  338.37   26.70
  10 -15  13  311.07   26.70
  15 -13  10  343.47   26.20
  13 -10  15  293.07   31.60
  15 -13  10  274.47   29.00
  10 -15  13  298.87   32.30
  13  10  15  256.17   34.20
 -10 -15  13  285.97   33.30
 -13 -10  15  298.07   25.80
 -13 -10  15  306.47   32.20
 -10 -15  13  321.17   26.80
   0 -11  15    4.70   14.90
   0 -11  15   12.00    6.40
  15   0  11   13.30    6.20
  11 -15   0   14.10    5.30
   0  11  15   31.50   12.40
  15   0  11   26.10   10.90
  15  -2  11  342.27   28.20
  -2  11  15  346.87   33.30
   2 -11  15  335.97   33.00
  11 -15   2  319.57   27.70
  11 -15   2  323.57   29.70
   2 -11  15  345.17   28.40
  15  -2  11  340.27   31.40
  -2 -11  15  360.96   32.80
  15   2  11  334.87   28.40
  -2 -11  15  363.86   28.40
 -15  -2  11  352.86   29.10
  15   2  11  404.16   32.50
   2  11  15  359.06   33.70
  15  -4  11  203.78   21.30
  15  -4  11  195.18   17.30
  11 -15   4  178.48   16.80
   4 -11  15  204.68   24.10
  -4  11  15  187.08   23.70
   4 -11  15  210.08   17.70
  11 -15   4  185.08   20.20
  -4 -11  15  181.08   23.80
 -15  -4  11  156.18   19.10
   4  11  15  169.68   24.30
  15   4  11  215.18   23.40
  -4 -11  15  177.48   17.50
  -6  11  15   12.40   11.40
   6 -11  15    6.00    6.70
  11 -15   6   15.00    9.90
  11 -15   6    7.30    6.20
  15  -6  11    0.50    9.60
  15  -6  11    5.40    6.20
   6 -11  15    1.90   12.30
  -6 -11  15   10.50    6.50
 -15  -6  11   15.60    9.30
  15   6  11   15.40   11.90
  -6 -11  15    4.20   11.50
   6  11  15   15.40   11.90
 -15  -6  11   17.50    4.30
  -8  11  15    1.40   10.80
   8 -11  15    7.40    7.00
  11 -15   8   13.40    6.60
  11 -15   8    9.20   10.40
   8 -11  15   11.70   12.00
  15  -8  11   19.00    9.60
  15  -8  11    9.40    6.50
  -8 -11  15   -2.50   11.60
  -8 -11  15    6.30    6.50
 -15  -8  11   11.20   10.70
 -15  -8  11   13.00    5.30
   8  11  15    3.40   13.20
  11 -15  10   51.19   13.00
  15 -10  11   43.40   11.60
  10 -11  15   62.19    9.00
  10 -11  15   55.09   14.90
  11 -15  10   41.00    8.40
  15 -10  11   59.09    8.30
 -10 -11  15   42.60    8.10
  10  11  15   38.10   14.00
 -15 -10  11   53.09   13.90
 -10 -11  15   57.49   14.40
  15 -12  11  388.36   34.70
  12 -11  15  384.96   36.80
  15 -12  11  396.56   31.70
  11 -15  12  402.56   32.00
  11 -15  12  383.46   36.40
  12 -11  15  398.16   32.00
 -12 -11  15  367.66   31.40
 -12 -11  15  374.66   37.10
  12  11  15  352.16   39.20
 -15 -12  11  373.46   36.80
 -11 -15  12  395.96   38.00
  15 -14  11  187.88   22.80
  15 -14  11  193.58   18.70
  14 -11  15  196.08   25.10
  11 -15  14  227.38   26.80
  11 -15  14  193.78   19.30
  14 -11  15  189.08   19.10
 -11 -15  14  192.48   24.50
 -15 -14  11  184.48   26.20
 -14 -11  15  161.48   17.80
 -11 -15  14  175.68   19.00
 -14 -11  15  162.98   22.40
  15  -1  12  580.34   45.20
  12 -15   1  559.54   46.00
  15  -1  12  615.04   48.40
   1 -12  15  595.34   45.40
  12 -15   1  566.74   44.60
  -1  12  15  597.04   49.30
   1 -12  15  558.04   48.90
  -1 -12  15  597.24   45.40
  -1 -12  15  540.35   48.90
  12 -15  -1  569.54   44.40
  15   1  12  573.24   48.50
 -15  -1  12  551.14   45.70
  15   1  12  606.34   45.40
   1  12  15  564.84   49.30
  15  -3  12  482.85   38.20
   3 -12  15  464.75   38.30
   3 -12  15  473.95   42.40
  -3  12  15  496.15   42.60
  12 -15   3  459.15   37.70
  12 -15   3  456.35   39.50
  15  -3  12  479.25   41.30
  15   3  12  488.35   38.40
  15   3  12  506.65   42.20
 -15  -3  12  511.55   39.60
   3  12  15  483.35   43.30
  -3 -12  15  510.75   38.40
  12 -15  -3  465.05   37.20
  -3 -12  15  496.85   42.60
  -5  12  15  194.28   23.90
   5 -12  15  187.28   24.50
  15  -5  12  170.58   21.60
   5 -12  15  169.18   17.60
  12 -15   5  165.68   20.00
  12 -15   5  168.88   16.70
  15  -5  12  147.09   17.10
  15   5  12  212.38   24.10
  12 -15  -5  198.58   15.30
  -5 -12  15  202.78   24.20
 -15  -5  12  184.28   15.20
   5  12  15  191.08   24.80
  -5 -12  15  193.68   17.60
 -15  -5  12  222.48   20.50
   7 -12  15   72.39   15.50
  12 -15   7   74.29   12.20
  15  -7  12   65.69    9.10
   7 -12  15   60.49    9.30
  12 -15   7   60.39    8.70
  15  -7  12   40.30   11.90
 -15  -7  12   72.59    8.70
  -7 -12  15   64.89    8.90
  15   7  12   75.39   16.30
  -7 -12  15   71.69   14.80
 -15  -7  12   75.09   12.60
   7  12  15   54.99   15.20
   9 -12  15   56.09   15.40
  12 -15   9   36.80    8.10
  12 -15   9   47.40   11.90
   9 -12  15   42.10    8.80
  15  -9  12   40.70    8.10
  15  -9  12   29.60   11.50
  -9 -12  15   54.79    8.70
   9  12  15   54.59   16.60
 -15  -9  12   52.29   13.00
 -15  -9  12   53.79    7.10
  -9 -12  15   48.30   14.60
  11 -12  15  391.66   37.80
  15 -11  12  398.36   32.20
  11 -12  15  421.56   32.70
  12 -15  11  406.06   36.40
  15 -11  12  384.66   35.50
  12 -15  11  419.46   32.40
 -15 -11  12  367.66   31.70
 -11 -12  15  370.96   32.00
 -11 -12  15  391.86   38.10
 -15 -11  12  378.96   36.90
  13 -12  15  395.56   34.40
  13 -12  15  366.16   39.00
  12 -15  13  402.56   39.00
  15 -13  12  376.66   37.40
  12 -15  13  362.56   34.30
  15 -13  12  384.06   34.10
 -15 -13  12  472.55   40.20
 -12 -15  13  477.85   41.20
 -13 -12  15  430.26   33.90
 -12 -15  13  488.95   34.50
 -13 -12  15  465.35   40.30
   0  13  15    8.20   12.60
 -15   0  13   -0.30    6.70
   0 -13  15   -6.20    6.70
  13 -15   0   -4.40    6.10
  13 -15   0   -1.50    4.60
  15   0  13    8.30    6.70
  15   0  13    8.20   11.60
   0 -13  15    4.40   11.70
  15  -2  13  621.84   46.70
   2 -13  15  675.03   46.90
   2 -13  15  609.44   50.69
  13 -15   2  594.24   47.30
  15  -2  13  623.94   49.80
  -2  13  15  642.94   51.39
  13 -15   2  595.44   45.90
  15   2  13  595.94   50.29
  -2 -13  15  571.34   46.70
  -2 -13  15  549.65   50.69
   2  13  15  569.34   51.29
 -15  -2  13  571.04   47.70
  15   2  13  572.54   46.80
  13 -15  -2  550.04   45.60
  15  -4  13  544.75   43.00
  13 -15   4  493.95   41.00
   4 -13  15  528.45   39.90
  13 -15   4  537.75   39.30
  15  -4  13  538.85   39.80
   4 -13  15  533.25   44.30
   4  13  15  481.35   45.40
  15   4  13  475.35   44.20
  15   4  13  452.35   39.90
  -4 -13  15  506.55   44.50
 -15  -4  13  443.66   41.40
  -4 -13  15  473.05   39.90
   6 -13  15   88.29   10.30
   6 -13  15   84.79   15.30
  13 -15   6  104.39   12.60
  15  -6  13  103.59   12.50
  15  -6  13  115.99   14.70
  13 -15   6  100.49   11.30
  15   6  13   65.29   15.60
   6  13  15   60.59   17.40
 -15  -6  13   66.09   12.90
  -6 -13  15   66.89   10.20
 -15  -6  13   60.29    9.00
  -6 -13  15   56.29   15.10
   8 -13  15   67.69    9.70
   8 -13  15   72.09   15.40
  13 -15   8   65.59   12.70
  15  -8  13   62.19    9.40
  13 -15   8   78.59    9.50
  15  -8  13   88.29   13.60
  -8 -13  15   71.59    9.70
 -15  -8  13   73.19    9.90
  -8 -13  15   74.59   15.70
 -15  -8  13   89.89   14.70
  15   8  13   76.89   16.30
  10 -13  15  317.77   32.80
  13 -15  10  307.57   30.70
  15 -10  13  296.67   30.60
  15 -10  13  328.47   26.90
  10 -13  15  332.67   27.20
  13 -15  10  342.17   26.90
 -15 -10  13  304.27   26.00
 -10 -13  15  304.07   33.40
 -10 -13  15  306.87   26.80
 -15 -10  13  279.87   31.80
  15 -12  13  443.06   35.40
  12 -13  15  354.16   40.20
  12 -13  15  377.66   35.60
  13 -15  12  368.76   39.20
  13 -15  12  404.66   35.40
  15 -12  13  360.96   38.60
 -13 -15  12  493.65   41.70
 -12 -13  15  499.65   35.30
 -15 -12  13  451.85   41.00
 -15 -12  13  482.75   34.90
 -12 -13  15  503.35   41.80
  13 -15  14   92.89   11.80
  14 -13  15   90.39   17.10
  15 -14  13   84.19   16.00
  14 -13  15   77.39   11.70
  13 -15  14   92.89   17.40
  15 -14  13   93.49   11.70
 -13 -15  14  104.49   19.20
 -14 -13  15   97.99   11.50
 -13 -15  14   97.29   12.00
 -15 -14  13   79.09   18.20
 -14 -13  15   94.39   18.70
 -15 -14  13   88.29   11.20
  15  -1  14   66.19   13.90
   1 -14  15   42.40    8.50
  15  -1  14   43.10    8.90
  14 -15   1   51.89    6.40
   1 -14  15   40.90   13.90
 -15   1  14   47.70    8.70
  -1 -14  15   39.30    8.50
  -1 -14  15   26.20   13.80
 -15  -1  14   39.70    9.60
  15   1  14   34.90   13.20
  15   1  14   35.40    8.50
  14 -15  -1   54.79    7.20
  15  -3  14  186.08   24.60
   3 -14  15  209.18   26.00
  15  -3  14  202.88   19.10
  14 -15   3  209.28   18.40
  14 -15   3  188.48   17.70
   3 -14  15  199.48   19.30
  15   3  14  213.88   26.00
  -3 -14  15  211.98   26.30
  -3 -14  15  208.08   19.50
  15   3  14  211.78   19.60
 -15  -3  14  212.08   21.50
  14 -15   5  156.18   15.70
   5 -14  15  153.38   17.20
  14 -15   5  145.89   18.00
  15  -5  14  137.29   16.80
  15  -5  14  179.78   22.70
   5 -14  15  126.59   19.70
  -5 -14  15  214.68   25.00
  15   5  14  207.18   25.10
  -5 -14  15  205.78   17.40
 -15  -5  14  200.88   21.00
  14 -15   7   74.49    9.50
   7 -14  15   79.39   10.70
  14 -15   7   75.29   12.30
  15  -7  14   90.99   14.90
  15  -7  14   66.69   10.40
   7 -14  15   42.00   16.20
  -7 -14  15   98.89   10.50
  -7 -14  15   74.39   15.60
  15   7  14   92.39   16.90
 -15  -7  14   86.49    9.80
 -15  -7  14  103.89   14.60
  14 -15   9   55.09   12.20
  15  -9  14   52.19    9.10
  15  -9  14   61.79   13.60
   9 -14  15   77.79   17.00
  14 -15   9   65.49    8.90
   9 -14  15   56.99    9.30
 -15  -9  14   31.20   13.70
  -9 -14  15   48.30    9.40
  -9 -14  15   44.10   17.10
 -15  -9  14   43.70    7.60
  11 -14  15  209.48   26.90
  14 -15  11  196.48   19.10
  14 -15  11  208.28   24.70
  15 -11  14  206.88   19.50
  15 -11  14  199.18   24.70
  11 -14  15  205.58   19.90
 -11 -14  15  179.68   19.30
 -11 -14  15  147.39   23.30
 -15 -11  14  191.98   18.30
 -15 -11  14  188.28   26.40
  15 -13  14   92.59   12.00
  15 -13  14   83.39   16.70
  14 -15  13  103.99   12.30
  14 -15  13   85.59   16.10
  13 -14  15   90.89   12.10
  13 -14  15   97.69   18.20
 -13 -14  15   68.99   18.20
 -15 -13  14   99.09   13.60
 -15 -13  14   77.29   18.50
 -14 -15  13  102.09   12.00
 -14 -15  13   75.19   17.80
 -13 -14  15  107.69   12.20
 -15   0  15  133.99   16.60
   0 -15  15  129.29   15.50
   0 -15  15  132.89   18.80
  15   0  15  135.39   15.50
  15   0  15  145.69   18.70
  15  -2  15  511.65   42.10
 -15   2  15  443.76   37.90
  15 -15   2  479.05   36.50
  15  -2  15  480.25   37.50
   2 -15  15  491.05   37.80
   2 -15  15  449.16   42.70
  -2 -15  15  465.35   37.70
  -2 -15  15  437.46   43.00
 -15  -2  15  455.25   39.20
  15   2  15  452.55   37.90
  15   2  15  458.95   42.30
  15  -4  15  348.37   33.20
  15  -4  15  372.06   28.70
   4 -15  15  369.96   28.90
   4 -15  15  323.27   34.40
  15 -15   4  371.06   27.50
  -4 -15  15  298.57   34.20
  -4 -15  15  333.47   28.80
 -15  -4  15  314.87   31.20
  15   4  15  293.87   28.70
  15   4  15  314.07   34.70
  15  -6  15  148.69   17.60
  15  -6  15  127.79   15.00
  15 -15   6  126.09   13.50
   6 -15  15  140.39   18.90
   6 -15  15  160.48   15.20
  -6 -15  15   95.09   18.20
  -6 -15  15  107.99   15.30
 -15  -6  15  106.09   16.30
 -15  -6  15  109.59   12.70
  15   6  15   98.59   18.40
  15  -8  15  212.38   19.80
  15  -8  15  188.88   25.30
  15 -15   8  217.48   18.90
  15 -15   8  256.57   21.50
   8 -15  15  212.68   20.00
   8 -15  15  188.28   27.40
  -8 -15  15  187.68   19.90
  -8 -15  15  177.68   24.40
 -15  -8  15  188.98   17.60
 -15  -8  15  180.08   22.00
  15   8  15  148.89   24.00
  15 -10  15  260.07   23.50
  15 -10  15  239.88   28.80
  15 -15  10  245.68   23.00
  15 -15  10  241.08   26.30
  10 -15  15  273.87   23.80
  10 -15  15  243.38   31.00
 -10 -15  15  279.47   23.70
 -10 -15  15  257.97   31.60
 -15 -10  15  248.98   22.00
 -15 -10  15  248.68   29.50
  15 -15  12  140.69   20.70
  15 -12  15  185.48   19.70
  15 -12  15  162.78   21.90
  15 -15  12  173.28   19.40
  12 -15  15  175.68   23.90
  12 -15  15  166.78   19.90
 -12 -15  15  231.48   29.80
 -15 -15  12  221.08   27.90
 -15 -12  15  240.58   18.70
 -15 -12  15  233.88   27.80
  15 -14  15   -6.10   13.40
  15 -15  14    8.40   13.80
  15 -14  15    0.60    9.10
  14 -15  15    2.10   14.80
  15 -15  14   -7.20    8.90
  14 -15  15    2.80    9.30
 -14 -15  15    1.60   17.20
 -15 -14  15    6.60   16.40
 -14 -15  15   -3.00    8.60
 -15 -15  14    6.30   17.30
 -15 -14  15   -1.40    8.20
 -15 -15  14   -1.50    8.30
   0   0  16 9541.75  735.43
   0   0  16 9999.00  737.03
  -2   0  16 2087.19  164.08
  -2   0  16 2238.98  165.98
   2   0  16 2161.78  164.18
   2   0  16 2206.48  166.18
   4   0  16  187.48   17.10
   4   0  16  188.88   22.20
  -4   0  16  188.48   16.30
  -4   0  16  198.28   21.40
  -6   0  16   96.49   10.20
  -6   0  16  103.89   13.70
   6   0  16   96.29   14.40
   6   0  16   93.99   11.80
   8   0  16  131.89   14.40
   8   0  16  143.89   17.60
  -8   0  16  140.59   12.60
  -8   0  16  148.09   18.70
  10   0  16   56.19   12.40
 -10   0  16   66.49   11.40
  10   0  16   35.40    8.00
 -10   0  16   56.49    6.10
   0 -16  12  328.17   32.00
 -12   0  16  270.27   29.00
  12   0  16  330.17   32.30
  12   0  16  329.87   26.60
 -14   0  16  802.22   65.39
   0 -16  14  849.91   64.29
  14   0  16  823.72   67.89
  14   0  16  834.72   64.19
   1  -1  16 1017.60   87.99
  -1   1  16 1022.70   87.89
  -1   1  16 1139.79   90.19
   1  -1  16 1149.58   90.39
   1   1  16 1183.48   87.99
  -1  -1  16 1167.68   87.99
  -1  -1  16 1338.37   90.59
   1   1  16 1290.67   90.59
  -3   1  16 1151.58   87.99
  -3   1  16 1100.59   85.69
   3  -1  16 1157.68   85.89
   3  -1  16 1164.48   88.39
  -3  -1  16 1151.68   88.09
  -3  -1  16 1091.69   85.69
   3   1  16 1124.59   88.29
   3   1  16 1096.79   85.89
  -5   1  16  101.39   10.90
  16  -5   1   92.49    9.50
   5  -1  16  177.58   23.00
  -5   1  16  112.79   14.20
   5  -1  16  107.39   12.30
  -5  -1  16  113.79   11.10
   5   1  16  112.29   14.80
  -5  -1  16  125.09   14.90
   5   1  16  123.59   12.20
   7  -1  16  121.79   14.00
   7  -1  16  140.59   17.00
  -7   1  16  124.39   12.30
  -7   1  16  127.79   18.40
  -7  -1  16  141.89   18.60
   7   1  16  179.68   16.40
   7   1  16  123.09   16.70
  -7  -1  16  135.69   12.50
   9  -1  16  145.09   15.40
  -9   1  16  170.68   19.50
  -9   1  16  154.38   13.60
  16  -9   1  148.79   12.80
   9  -1  16  142.99   18.30
  -9  -1  16  156.58   13.60
   9   1  16  167.68   22.00
   9   1  16  159.48   15.50
  -9  -1  16  165.48   20.00
 -11   1  16  105.99   10.50
  16 -11   1  116.19   10.60
  11  -1  16  123.49   14.00
 -11   1  16  118.69   14.80
   1 -16  11  115.49   13.80
  11  -1  16  132.29   17.30
   1 -16  11  121.69   16.90
  13  -1  16  323.07   28.10
   1 -16  13  401.56   30.20
  13  -1  16  345.57   33.80
 -13   1  16  333.97   29.90
   1 -16  13  299.57   33.60
 -13  -1  16  339.87   30.50
  -1 -16  13  354.06   34.10
  13   1  16  333.47   34.00
  13   1  16  321.27   28.20
  -1 -16  13  304.37   28.20
   1 -16  15  352.26   37.00
  15  -1  16  357.46   36.60
 -15   1  16  365.56   32.20
   1 -16  15  377.06   31.40
  15  -1  16  382.56   31.10
  -1 -16  15  364.66   37.20
  15   1  16  362.86   31.40
  15   1  16  373.96   37.20
  -1 -16  15  382.06   31.20
 -15  -1  16  395.06   33.00
   0  -2  16 2091.99  162.38
   0  -2  16 2217.48  164.38
   0   2  16 2210.88  164.38
   0   2  16 2083.69  162.38
  -2   2  16  306.17   27.80
  -2   2  16  295.57   31.70
   2  -2  16  304.97   28.00
   2  -2  16  317.27   32.20
   2   2  16  419.96   32.50
   2   2  16  424.76   28.20
  -2  -2  16  410.66   32.20
  -4   2  16   83.49   10.90
  16  -4   2   89.79    9.70
   4  -2  16  102.29   14.50
  -4   2  16  106.39   14.20
   4  -2  16  102.79   11.90
  -4  -2  16  117.69   11.10
   4   2  16  117.99   12.20
   4   2  16  129.79   15.10
  -4  -2  16  146.49   17.70
  -6   2  16   70.09   12.10
   6  -2  16   65.79   13.10
  16  -6   2   60.89    7.80
  -6   2  16   73.49    9.10
   6  -2  16   66.99    8.80
  -6  -2  16   91.99   12.70
  -6  -2  16   84.09    9.00
   6   2  16   90.19   12.40
  16  -8   2   50.19    7.20
   8  -2  16   52.99    8.30
   8  -2  16   53.79   12.70
  -8   2  16   60.19    6.90
  -8   2  16   61.69   11.70
  -8  -2  16   78.99    8.50
   8   2  16   78.49   14.10
  -8  -2  16   77.69   12.20
   8   2  16   70.59    8.70
  16 -10   2  125.89   11.70
 -10   2  16  145.89   18.20
  10  -2  16  137.29   14.30
   2 -16  10  116.79   14.20
   2 -16  10  115.89   16.10
 -10   2  16  121.39   11.50
  10  -2  16  123.09   17.00
  10   2  16  202.08   22.20
 -12   2  16   93.29   12.40
   2 -16  12   77.79   15.30
   2 -16  12   80.59   10.30
  12  -2  16   90.19   14.30
  12  -2  16   94.49   12.20
  16 -12   2   82.29    9.00
  12   2  16   65.49   14.00
  -2 -16  12   64.89   10.00
 -12  -2  16   67.49    8.40
 -12  -2  16   82.89   13.20
  12   2  16   72.39   10.20
  -2 -16  12   65.59   15.70
 -14   2  16  334.47   28.30
  14  -2  16  341.07   26.70
  14  -2  16  388.46   33.10
   2 -16  14  311.27   32.50
   2 -16  14  361.66   26.70
  -2 -16  14  281.97   26.80
  14   2  16  279.27   32.90
  14   2  16  249.18   26.80
  -2 -16  14  285.17   33.30
 -14  -2  16  272.97   29.20
  -1   3  16 1105.49   85.79
  -1   3  16 1199.38   88.19
   1  -3  16 1117.89   85.79
   1  -3  16 1185.98   88.29
   1   3  16 1121.69   85.89
  -1  -3  16 1059.59   85.79
   1   3  16 1106.79   88.09
  -1  -3  16 1148.09   88.19
   3  -3  16 1453.55  105.59
  -3   3  16 1430.56  105.39
  16  -3   3 1480.35  105.19
   3  -3  16 1516.45  108.09
  -3   3  16 1456.25  107.59
   3   3  16 1302.77  105.59
  -3  -3  16 1257.07  105.39
   3   3  16 1301.07  107.69
  -3  -3  16 1323.07  107.59
   5  -3  16  287.07   27.60
  16  -5   3  285.47   21.40
  -5   3  16  300.27   21.90
  -5   3  16  259.07   26.30
   5  -3  16  313.27   22.90
  -5  -3  16  220.28   21.80
  -5  -3  16  244.58   26.50
   5   3  16  220.68   22.40
   5   3  16  299.47   31.70
  16  -7   3  158.18   13.20
   7  -3  16  155.78   15.20
  -7   3  16  171.08   19.30
   7  -3  16  145.89   21.10
  -7   3  16  156.48   13.70
  -7  -3  16  146.99   13.70
  -7  -3  16  133.29   19.80
   7   3  16  146.69   15.00
   7   3  16  138.19   18.50
  -9   3  16  181.58   19.80
  -9   3  16  158.48   13.40
   9  -3  16  156.18   21.90
  16  -9   3  165.08   13.60
   9  -3  16  146.99   15.60
   3 -16   9  154.68   15.50
  -9  -3  16  162.68   20.10
  -9  -3  16  147.19   13.80
   9   3  16  141.79   15.60
   9   3  16  128.69   17.70
   3 -16  11  227.68   19.50
  16 -11   3  222.38   17.50
   3 -16  11  214.98   25.30
 -11   3  16  221.78   22.50
  11  -3  16  243.18   25.50
  11  -3  16  234.48   19.40
  11   3  16  141.59   23.00
 -11  -3  16  143.79   20.60
   3 -16  13   40.30   13.30
  16 -13   3   41.50    6.30
 -13   3  16   23.40    9.90
  13  -3  16   34.20   12.90
   3 -16  13   32.10    8.30
  13  -3  16   26.40    8.10
  -3 -16  13   56.79    8.60
 -13  -3  16   55.99    7.20
  13   3  16   58.59    9.10
  -3 -16  13   48.80   15.00
 -13  -3  16   67.09   12.40
  13   3  16   73.99   15.40
   3 -16  15  198.98   20.00
 -15   3  16  138.79   18.40
   3 -16  15  147.49   21.70
  15  -3  16  170.98   18.70
  16 -15   3  179.88   16.30
  15  -3  16  185.48   22.20
  -3 -16  15  187.68   26.20
  15   3  16  221.88   19.10
  -3 -16  15  209.48   19.20
 -15  -3  16  222.28   22.20
  15   3  16  193.28   26.80
   0   4  16  177.38   21.40
   0   4  16  161.98   15.70
   0  -4  16  177.08   21.60
   0  -4  16  178.08   15.70
  -2   4  16  100.19   13.90
   2  -4  16  101.39   14.80
  -2   4  16   82.79   11.10
   2  -4  16   87.69   11.60
  16  -2   4   99.19   10.50
  -2  -4  16  103.79   11.10
   2   4  16  113.49   11.60
   2   4  16  120.09   14.50
  -2  -4  16  119.59   14.40
   4  -4  16   71.29   13.30
   4  -4  16   66.39    8.20
  -4   4  16   62.09    7.70
  -4   4  16   72.59   12.80
  16  -4   4   66.39    8.40
  -6   4  16  180.08   17.10
  -6   4  16  185.08   22.30
   6  -4  16  186.98   18.00
   6  -4  16  181.88   24.00
  16  -6   4  178.38   16.80
  -6  -4  16  223.78   17.40
   6   4  16  253.37   24.60
   6   4  16  239.18   18.40
  -6  -4  16  227.68   22.90
  -8   4  16  131.39   15.30
   8  -4  16  134.99   13.70
  -8   4  16  134.69   11.50
  16  -8   4  128.19   11.60
   8  -4  16  129.89   16.10
  -8  -4  16   95.09   15.10
   8   4  16   92.19   15.70
  -8  -4  16   99.09   11.80
   8   4  16  149.19   16.50
   4 -16  10  419.96   39.70
  16 -10   4  460.95   35.00
 -10   4  16  461.35   38.50
  10  -4  16  473.65   40.10
  10  -4  16  440.56   36.00
   4 -16  10  437.46   36.00
 -10  -4  16  451.85   35.10
  10   4  16  452.25   40.80
  10   4  16  446.26   36.20
 -10  -4  16  453.55   39.00
   4 -16  12  226.88   20.20
   4 -16  12  219.08   25.60
  12  -4  16  202.28   25.40
  12  -4  16  202.98   19.60
  16 -12   4  212.98   17.80
 -12   4  16  187.98   21.90
 -12  -4  16  195.58   23.80
  12   4  16  209.28   19.70
  -4 -16  12  188.08   25.90
  12   4  16  228.68   26.80
 -12  -4  16  201.78   17.40
  14  -4  16   13.90   12.50
   4 -16  14    0.80   12.50
   4 -16  14   -8.80    7.40
 -14   4  16   -4.60    8.00
  14  -4  16   -2.10    7.60
  16 -14   4    3.10    5.30
 -14  -4  16    1.80   10.90
  -4 -16  14   -6.40   23.60
  14   4  16   -7.80   13.30
  -4 -16  14  -10.20    7.80
  14   4  16    4.40    7.00
  -1   5  16  104.39   15.00
   1  -5  16   96.49   14.30
   1  -5  16   98.59   11.60
  16  -1   5  102.49   11.00
  -1   5  16   99.39   11.70
  -1  -5  16  116.79   11.50
  -1  -5  16  111.89   14.80
   1   5  16  105.39   12.00
   1   5  16  108.79   14.80
   3  -5  16  310.57   27.10
  16  -3   5  298.07   21.20
  -3   5  16  277.77   26.60
  -3   5  16  279.47   21.70
   3  -5  16  285.57   21.90
  16  -3   5  250.07   21.50
   3   5  16  215.98   26.80
   3   5  16  227.38   21.90
  -3  -5  16  222.68   26.10
  -3  -5  16  218.18   21.40
   5  -5  16   54.49    8.10
  -5   5  16   66.89   12.60
  -5   5  16   67.29    9.10
  16  -5   5   69.29    8.60
   5  -5  16   58.79   12.90
   5   5  16   47.50   13.50
  -5  -5  16   59.59   12.80
   5   5  16   67.49    8.40
  -5  -5  16   62.19    7.40
  -7   5  16   13.70   10.50
  16  -7   5   19.00    5.10
   7  -5  16   12.00   11.30
   7  -5  16   16.00    6.40
  -7  -5  16   23.60   11.00
   7   5  16   25.40   13.40
  -7  -5  16   26.40    5.60
   7   5  16   22.70    6.90
   9  -5  16   89.59   10.00
   5 -16   9   77.59    9.60
   5 -16   9   74.49   13.60
   9  -5  16   92.59   14.50
  -9   5  16   73.89   12.80
  16  -9   5   78.89    9.70
   9   5  16   68.29    9.50
   9   5  16   73.69   15.00
  -9  -5  16   68.29   13.20
  -9  -5  16   76.59    9.60
  16 -11   5  192.58   16.90
  11  -5  16  188.48   24.60
  11  -5  16  210.28   18.60
   5 -16  11  187.78   18.50
 -11   5  16  181.38   21.40
   5 -16  11  200.58   24.50
  13  -5  16   21.10   13.00
  16 -13   5   14.60    5.60
  13  -5  16    6.50    7.30
 -13   5  16   13.20    8.80
   5 -16  13   19.30    7.70
  16 -13   5    5.00    2.20
   5 -16  13   21.00   12.50
  -5 -16  13    4.30    7.60
  13   5  16   13.60    8.10
  13   5  16    3.40   13.70
 -13  -5  16   -1.90    4.80
  -5 -16  13   -4.30   13.30
 -13  -5  16   -1.70   11.20
  15  -5  16   86.69   15.60
  16 -15   5   76.89   10.60
   5 -16  15   62.09   10.20
  15  -5  16   67.69   10.50
   5 -16  15   56.99   16.30
  -5 -16  15   55.39   16.20
  15   5  16   87.89   17.20
 -15  -5  16   91.39   14.50
  -5 -16  15   87.79   10.90
   0   6  16   96.89   14.80
   0   6  16  116.99   11.80
   0  -6  16  110.59   15.20
   0  -6  16   93.29   11.60
  16   0   6   98.59   13.40
  16   0   6   97.89   11.20
  16  -2   6   73.79    9.60
  16  -2   6   69.19    8.20
  -2   6  16   59.49   13.10
   2  -6  16   61.49    8.60
   2  -6  16   95.19   16.50
  -2   6  16   67.49    8.70
   2   6  16   94.09   14.60
  -2  -6  16   82.59   13.00
  -2  -6  16   99.19   10.00
   2   6  16  108.99   11.20
   4  -6  16  184.38   24.00
  16  -4   6  183.28   17.60
  16  -4   6  181.88   18.50
  -4   6  16  179.58   17.70
   4  -6  16  192.48   18.30
  -4   6  16  207.78   23.50
  -4  -6  16  236.38   23.70
   4   6  16  222.18   24.90
   4   6  16  240.78   18.90
  -4  -6  16  230.38   17.80
 -16  -4   6  232.18   18.70
  16  -6   6  134.09   13.70
  -6   6  16  144.89   20.40
  16  -6   6  130.59   14.80
   6  -6  16  176.58   15.50
   6  -6  16  150.08   21.40
  -6  -6  16  139.39   13.80
   6   6  16  157.18   22.00
  -6  -6  16  186.58   20.90
   6   6  16  155.08   15.20
   6 -16   8  136.69   13.70
   8  -6  16  142.19   17.50
  -8   6  16  136.29   18.90
   8  -6  16  130.79   14.10
  16  -8   6  137.79   12.40
   6 -16   8  138.19   16.20
  16  -8   6  140.49   13.20
   8   6  16  116.09   17.10
  -8  -6  16   98.59   15.50
  -8  -6  16   97.29   12.20
   8   6  16   92.99   12.20
  16 -10   6  307.87   23.20
  10  -6  16  303.17   29.50
   6 -16  10  274.17   23.70
  10  -6  16  278.27   23.80
 -10   6  16  288.27   26.90
   6 -16  10  265.37   28.50
  16 -10   6  283.37   22.70
 -10  -6  16  259.17   22.50
 -10  -6  16  245.88   27.90
  10   6  16  249.18   23.90
  12  -6  16  287.27   29.60
   6 -16  12  282.27   29.30
  16 -12   6  283.77   23.00
 -12   6  16  260.47   26.10
   6 -16  12  303.07   24.30
  12  -6  16  292.57   24.20
 -12  -6  16  271.67   28.60
  12   6  16  247.38   30.80
  12   6  16  255.47   24.30
 -12  -6  16  264.17   22.60
 -14   6  16    6.00    7.60
   6 -16  14   26.20   13.80
  14  -6  16    3.60   12.60
  16 -14   6   15.40    6.20
  14  -6  16   15.70    8.00
   6 -16  14   13.70    7.90
 -14  -6  16   17.30    5.40
  -6 -16  14   14.10    8.10
 -14  -6  16   25.60   12.30
  14   6  16   12.10   14.80
  -6 -16  14    6.00   15.10
  16  -1   7  110.79   15.30
   1  -7  16  122.59   13.20
  -1   7  16   99.09   15.90
  -1   7  16  145.69   13.40
   1  -7  16  104.89   16.20
  16  -1   7  116.09   13.10
  -1  -7  16  149.79   20.10
  16   1   7  157.78   13.30
   1   7  16  134.69   13.60
  -1  -7  16  136.29   13.20
   1   7  16  144.29   16.70
  16   1   7  111.19   15.80
  16  -3   7  165.38   14.50
  -3   7  16  158.58   21.20
   3  -7  16  162.28   21.30
   3  -7  16  171.98   15.60
  16  -3   7  157.98   16.40
  -3  -7  16  123.69   17.40
   3   7  16  153.68   21.90
   3   7  16  138.19   15.10
  -3  -7  16  145.79   14.50
   5  -7  16   13.50   12.50
  -5   7  16   19.80   11.40
  16  -5   7   21.40    5.60
  16  -5   7   23.00    7.60
   5  -7  16   22.30    6.60
 -16  -5   7   30.00    7.90
  -5  -7  16   16.50   10.40
  -5  -7  16   28.80    6.00
   5   7  16   35.20    7.10
   5   7  16   21.00   11.90
  16  -7   7   60.59    9.10
  16  -7   7   56.79    7.80
   7  -7  16   54.99    8.60
  -7   7  16   58.39   12.40
   7 -16   7   39.70   11.80
   7 -16   7   53.29    8.40
   7  -7  16   43.30   12.90
  -7  -7  16   87.29   13.60
   7   7  16   86.29   14.50
  -7  -7  16   88.79    9.60
   9  -7  16   98.19   15.90
   7 -16   9   78.39   14.70
  16  -9   7   85.69   11.50
  -9   7  16  104.49   15.00
   9  -7  16   86.19   11.10
   7 -16   9   91.69   12.70
  16  -9   7   89.39   13.10
   9   7  16  123.79   15.80
  -9  -7  16  117.09   11.40
  -9  -7  16  115.29   15.40
   9   7  16  111.49   13.20
   7 -16  11   82.59   10.10
  16 -11   7  116.89   11.50
  16 -11   7   87.39   10.90
   7 -16  11   89.39   15.10
  11  -7  16   92.29   12.60
  11  -7  16   89.99   15.50
 -11   7  16   88.99   12.80
  11   7  16   66.79   14.90
 -11  -7  16   40.60   14.10
 -11  -7  16   61.09    8.60
  13  -7  16  118.69   14.70
  16 -13   7  122.99   13.00
   7 -16  13  117.99   14.70
   7 -16  13  103.39   17.20
 -13   7  16  114.89   13.70
  13  -7  16  118.49   17.50
  -7 -16  13  106.09   19.00
  13   7  16  107.19   18.60
 -13  -7  16  121.89   16.90
  -7 -16  13  112.09   12.80
 -13  -7  16  103.19   12.00
   7 -16  15    1.60    8.20
   7 -16  15   19.20   14.30
  15  -7  16    8.40   13.00
  15  -7  16    4.90    8.00
  16 -15   7    1.80    6.80
 -15  -7  16   11.80    5.40
  -7 -16  15   12.30   16.90
  -7 -16  15   13.00    8.70
 -15  -7  16   11.10   12.70
  15   7  16   23.60   15.20
   0  -8  16  133.19   17.20
   0  -8  16  140.49   13.90
  16   0   8  144.69   14.10
   0   8  16  138.49   17.70
  16   0   8  130.79   17.20
  -2   8  16   64.39   13.40
  16  -2   8   64.79    8.30
   2  -8  16   48.00    7.80
  16  -2   8   54.59   10.50
   2  -8  16   54.09   12.10
  -2  -8  16   64.79   13.40
   2   8  16   79.19   14.00
  16   2   8   76.19   11.70
  -2  -8  16   76.09    9.90
  16  -4   8  132.59   15.60
  -4   8  16  131.69   16.70
   4  -8  16  154.48   21.00
   4  -8  16  119.49   13.40
  16  -4   8  136.59   12.60
  -4  -8  16  101.19   16.20
 -16  -4   8  108.09   13.80
   4   8  16  110.59   17.00
  -4  -8  16  113.89   12.70
   8 -16   6  128.79   15.50
   6  -8  16  134.29   13.80
  16  -6   8  152.08   12.80
  -6   8  16  145.39   19.90
  16  -6   8  142.19   15.40
   8 -16   6  145.19   13.60
   6  -8  16  112.49   16.70
   6   8  16   88.69   16.30
  -6  -8  16   95.39   15.90
  -6  -8  16   90.19   12.90
 -16  -6   8  114.39   14.00
  16  -8   8  193.98   17.90
  16  -8   8  186.18   19.50
   8 -16   8  218.08   18.60
   8  -8  16  207.18   18.80
   8  -8  16  192.08   25.00
   8 -16   8  195.48   23.40
  -8   8  16  209.08   23.30
  -8  -8  16  185.18   17.70
   8   8  16  212.88   26.20
  -8  -8  16  185.28   23.90
 -16  -8   8  223.58   21.90
 -10   8  16  216.78   21.90
  16 -10   8  154.78   19.00
   8 -16  10  172.38   18.10
   8 -16  10  166.18   23.70
  10  -8  16  187.58   24.70
  10  -8  16  191.98   18.30
  16 -10   8  185.38   17.10
 -10  -8  16  209.88   24.20
 -10  -8  16  203.18   17.10
  10   8  16  212.48   26.10
   8 -16  12  256.67   21.70
   8 -16  12  233.68   27.40
  12  -8  16  239.98   27.80
 -12   8  16  234.78   23.60
  16 -12   8  246.68   20.70
  12  -8  16  236.88   21.70
  16 -12   8  186.28   21.10
 -12  -8  16  242.28   27.70
 -12  -8  16  258.07   20.40
  12   8  16  219.18   29.50
  14  -8  16    5.00   13.20
   8 -16  14    0.00   14.40
  16 -14   8    7.90    6.80
  16 -14   8    1.00    2.20
   8 -16  14    8.80    8.00
  14  -8  16    2.80    7.90
  -8 -16  14    0.60    8.40
 -14  -8  16   12.20    5.80
  14   8  16    7.70   14.60
 -14  -8  16   14.90   12.80
  -8 -16  14   10.30   16.00
  -1   9  16  154.18   22.00
   1  -9  16  161.98   15.50
  16  -1   9  150.68   18.80
  16  -1   9  146.29   15.40
   1  -9  16  155.08   22.60
  -1  -9  16  157.68   22.50
  16   1   9  168.18   15.60
  -1  -9  16  168.18   15.30
  16   1   9  161.78   19.50
   1   9  16  158.98   22.10
  -3   9  16  173.68   22.00
  16  -3   9  174.68   15.30
  16  -3   9  173.78   18.80
   3  -9  16  151.28   15.70
   3  -9  16  159.08   22.40
   9 -16   3  176.08   15.30
   3   9  16  158.18   20.00
  16   3   9  149.19   20.00
  -3  -9  16  155.18   15.40
 -16  -3   9  145.89   15.90
  -3  -9  16  157.28   21.50
  16  -5   9   92.89   12.00
   5  -9  16   98.89   15.40
   5  -9  16   91.19   11.80
  -5   9  16   79.09   14.30
  16  -5   9   84.39   10.90
   9 -16   5   89.39   13.10
   9 -16   5   93.19   11.40
  -5  -9  16   69.99    9.20
 -16  -5   9   91.69   11.40
   5   9  16   71.39   14.50
  -5  -9  16   74.69   14.40
   9 -16   7   98.69   14.80
  -7   9  16  109.09   15.00
   7  -9  16   93.39   12.60
   7  -9  16   87.79   15.70
   9 -16   7   89.29   12.40
  16  -7   9   85.49   11.70
  16  -7   9   89.29   12.30
  -7  -9  16  101.69   12.00
 -16  -7   9  120.89   16.40
  -7  -9  16  104.79   15.60
   7   9  16  113.09   17.40
  16  -9   9   86.49   12.30
   9  -9  16  118.69   17.20
  16  -9   9   92.29   12.60
   9  -9  16   96.69   13.60
   9 -16   9   92.79   13.10
   9 -16   9   96.19   15.20
  -9   9  16   98.69   14.50
 -16  -9   9  125.19   15.50
  -9  -9  16  102.39   16.30
   9   9  16  103.69   17.60
  -9  -9  16  116.09   12.20
  16 -11   9   90.69   11.30
  11  -9  16   68.99    9.40
 -11   9  16   73.69   12.60
   9 -16  11   73.49    9.70
  11  -9  16   92.49   15.70
  16 -11   9   77.99   11.40
   9 -16  11   61.39   14.50
 -11  -9  16   48.20   14.30
 -11  -9  16   57.89    8.90
  11   9  16   47.00   16.10
  13  -9  16  148.99   16.40
   9 -16  13  149.49   19.90
   9 -16  13  140.59   16.40
  16 -13   9  141.79   15.20
  13  -9  16  139.59   19.10
 -13  -9  16  146.89   14.40
 -13  -9  16  138.19   19.50
  13   9  16  110.89   21.20
  -9 -16  13  122.29   21.50
   9 -16  15    9.10    8.70
  15  -9  16    9.10   12.70
  15  -9  16    6.90    8.30
   9 -16  15    8.90   14.40
  16 -15   9    7.30    7.60
  15   9  16   28.00   16.80
  -9 -16  15   20.10   14.90
 -15  -9  16   33.90   14.50
  -9 -16  15   22.90    9.20
 -15  -9  16   12.60    6.30
  16   0  10   56.79    8.00
   0 -10  16   47.00    7.80
   0  10  16   32.10   12.10
  16   0  10   49.10   11.30
   0 -10  16   44.10   12.50
  10 -16   2  121.09   15.10
  16  -2  10  128.99   15.50
   2 -10  16  185.18   24.80
  -2  10  16  133.69   18.60
   2 -10  16  128.19   15.70
  16  -2  10  140.79   17.40
  -2 -10  16  171.08   22.20
  16   2  10  213.78   21.10
  16   2  10  190.18   15.90
 -16  -2  10  191.28   15.80
   2  10  16  213.78   23.70
  -2 -10  16  191.08   15.90
  10 -16   4  427.16   34.60
  -4  10  16  461.45   39.20
  16  -4  10  434.06   34.50
  10 -16   4  408.36   36.90
  16  -4  10  420.66   36.80
   4 -10  16  448.16   39.80
   4 -10  16  428.06   34.80
  -4 -10  16  435.66   34.60
   4  10  16  426.16   39.70
  16   4  10  446.46   38.40
  -4 -10  16  433.66   39.10
 -16  -4  10  448.26   35.60
  -6  10  16  287.97   28.30
  10 -16   6  261.47   22.70
   6 -10  16  289.17   23.20
  16  -6  10  256.37   25.20
  10 -16   6  275.87   26.50
  16  -6  10  281.97   22.60
   6 -10  16  292.87   29.50
 -16  -6  10  280.57   25.40
  -6 -10  16  251.37   22.80
  -6 -10  16  259.67   28.40
   6  10  16  259.77   29.60
 -16  -6  10  244.38   21.30
  16  -8  10  199.78   20.70
   8 -10  16  199.78   18.60
  -8  10  16  195.88   22.90
  16  -8  10  168.48   17.80
  10 -16   8  165.88   22.50
  10 -16   8  162.88   18.10
   8 -10  16  215.38   25.70
  -8 -10  16  219.88   25.00
  -8 -10  16  205.58   17.90
 -16  -8  10  227.68   22.50
   8  10  16  196.28   26.80
 -10  10  16  284.57   28.40
  10 -16  10  269.07   24.70
  10 -16  10  274.97   29.30
  10 -10  16  267.17   25.00
  16 -10  10  271.17   24.20
  16 -10  10  246.48   26.60
  10 -10  16  256.67   30.50
 -10 -10  16  366.66   31.00
  10  10  16  307.07   32.40
 -16 -10  10  325.27   29.40
 -10 -10  16  316.07   24.20
  10 -16  12  165.38   20.50
  12 -10  16  167.68   17.40
  16 -12  10  153.58   19.80
  12 -10  16  175.78   24.60
  10 -16  12  190.18   17.70
  16 -12  10  169.98   16.70
 -16 -12  10  153.28   19.90
  12  10  16  142.99   22.60
 -12 -10  16  153.38   16.20
 -12 -10  16  161.48   21.30
  10 -16  14   11.70    8.50
  10 -16  14   12.10   14.40
  14 -10  16   22.80    8.60
  14 -10  16    7.10   13.30
  16 -14  10   16.10    7.60
  16 -14  10   10.40    5.70
 -14 -10  16   16.00    7.00
  14  10  16    6.50   15.80
 -14 -10  16   42.70   15.10
 -10 -16  14   24.70    9.30
 -10 -16  14   11.50   16.60
   1 -11  16   99.19   14.20
  16  -1  11  107.39   13.70
  -1  11  16  121.59   16.80
  -1 -11  16   54.29   13.90
  16   1  11   54.79    8.90
   1  11  16   49.70   14.00
  -1 -11  16   59.39    8.70
  11 -16  -1   62.49    7.70
  16   1  11   54.49   12.80
   3 -11  16  208.58   23.30
  11 -16   3  209.68   18.90
  16  -3  11  201.08   20.30
   3  11  16  123.89   19.70
  -3 -11  16  141.89   15.70
  16   3  11  144.49   15.90
 -16  -3  11  128.79   16.50
  16   3  11  140.69   18.60
  -3 -11  16  134.99   19.20
  16  -5  11  158.58   21.00
  11 -16   5  190.68   17.00
   5 -11  16  193.08   25.10
   5 -11  16  159.78   17.60
  -5  11  16  199.48   24.00
  16  -5  11  190.08   17.20
  11 -16   5  194.08   20.80
  -7  11  16  112.19   14.90
  16  -7  11   81.49    9.40
   7 -11  16   78.09   10.00
  11 -16   7   72.59   13.00
   7 -11  16   84.69   14.70
  16  -7  11   72.49   12.20
  11 -16   7   82.19    9.50
 -16  -7  11   73.39   12.60
  -7 -11  16   70.19   14.70
  -7 -11  16   67.69    9.60
 -16  -7  11   65.49    7.80
   7  11  16   60.69   16.60
   9 -11  16   73.89    9.80
  11 -16   9   75.29    9.20
   9 -11  16   71.59   16.00
  11 -16   9   61.39   13.60
  16  -9  11   63.69    9.00
  16  -9  11   75.69   12.30
 -16  -9  11   71.49   14.30
  -9 -11  16   57.79    9.10
   9  11  16   44.80   16.50
 -16  -9  11   50.39    7.80
  -9 -11  16   57.49   15.20
  11 -11  16  168.78   21.30
  11 -11  16  183.78   17.60
  16 -11  11  143.99   16.60
  11 -16  11  175.68   17.30
  11 -16  11  165.38   20.00
  16 -11  11  149.88   17.90
 -11 -11  16  147.49   20.80
 -11 -11  16  160.48   16.50
  11  11  16  136.69   22.00
 -16 -11  11  172.08   20.80
  13 -11  16   44.80    9.30
  11 -16  13   37.20    9.20
  13 -11  16   40.00   15.00
  16 -13  11   48.30   11.80
  16 -13  11   39.40    8.60
  11 -16  13   44.30   15.00
 -11 -16  13   37.10   15.70
 -13 -11  16   46.60   15.60
 -13 -11  16   38.50    8.20
 -16 -13  11   32.60   14.20
  15 -11  16   87.89   11.80
  15 -11  16   88.29   17.10
  11 -16  15   87.09   11.90
  16 -15  11   90.49   11.20
  11 -16  15  101.59   18.70
 -15 -11  16   80.89   10.30
 -15 -11  16   84.09   17.90
 -11 -16  15   74.79   11.70
 -11 -16  15   81.59   20.70
 -16 -15  11   73.69   17.40
   0  12  16  308.67   32.60
   0 -12  16  321.47   32.40
   0 -12  16  340.27   27.30
  16   0  12  337.67   27.20
  16   0  12  304.97   31.20
  12 -16   0  316.37   26.10
   2 -12  16   86.69   11.90
  16  -2  12  102.19   12.00
  16  -2  12   94.59   14.20
  -2  12  16   82.29   16.30
  12 -16   2   85.29   11.60
   2 -12  16   83.49   15.60
  12 -16   2   84.39   10.50
 -16  -2  12   81.49   10.40
   2  12  16   67.89   15.50
  -2 -12  16  122.99   23.50
  16   2  12   70.19    9.90
  12 -16  -2   64.19    9.50
  16   2  12   78.09   14.20
  -2 -12  16   75.39   10.00
  16  -4  12  198.18   23.40
  12 -16   4  205.68   18.60
  12 -16   4  206.78   21.70
  16  -4  12  208.58   19.10
  -4  12  16  223.88   26.00
   4 -12  16  190.58   26.50
   4 -12  16  209.78   19.60
  -4 -12  16  223.28   26.10
  -4 -12  16  211.58   19.50
 -16  -4  12  208.48   21.10
  16   4  12  219.48   25.50
   4  12  16  223.48   26.70
  12 -16  -4  203.48   17.40
  16  -6  12  286.77   27.30
  12 -16   6  281.07   26.60
   6 -12  16  288.07   23.90
  12 -16   6  291.77   23.30
   6 -12  16  230.58   30.10
  -6  12  16  291.17   29.50
  16  -6  12  276.77   23.50
  -6 -12  16  256.77   23.80
 -16  -6  12  268.77   26.50
   6  12  16  235.38   30.30
  16   6  12  273.27   30.20
  -6 -12  16  269.87   30.10
  12 -16   8  239.98   21.60
  12 -16   8  223.58   25.50
  16  -8  12  232.88   25.30
  16  -8  12  235.18   21.70
   8 -12  16  257.77   29.10
   8 -12  16  236.08   22.20
  -8 -12  16  266.87   21.90
 -16  -8  12  246.88   26.00
   8  12  16  228.48   30.30
 -16  -8  12  250.67   20.40
  -8 -12  16  251.27   29.00
  12 -16  10  171.38   17.30
  12 -16  10  169.48   22.80
  16 -10  12  171.78   21.10
  16 -10  12  158.98   17.10
  10 -12  16  178.58   22.30
  10 -12  16  167.98   17.60
 -10 -12  16  157.98   21.40
  10  12  16  125.59   22.00
 -16 -10  12  161.78   15.70
 -10 -12  16  158.08   17.10
 -16 -10  12  174.48   23.40
  16 -12  12   99.09   13.60
  12 -16  12   94.79   16.50
  16 -12  12   95.59   14.50
  12 -12  16  115.09   14.80
  12 -12  16  101.69   17.90
  12 -16  12  106.79   14.30
 -12 -16  12   67.79   16.70
 -12 -12  16   88.29   11.20
 -12 -12  16   64.09   17.20
 -16 -12  12   86.89   17.80
 -16 -12  12   74.39   10.40
  12 -16  14  158.68   21.70
  14 -12  16  164.88   21.50
  12 -16  14  171.98   18.80
  14 -12  16  159.38   18.80
  16 -14  12  152.48   18.10
  16 -14  12  161.88   22.10
 -16 -14  12  163.38   17.70
 -14 -12  16  179.18   23.20
 -16 -14  12  172.08   22.10
 -12 -16  14  183.28   24.80
 -12 -16  14  191.88   18.70
 -14 -12  16  176.38   17.40
   1 -13  16  323.67   33.00
  -1  13  16  330.67   33.90
  13 -16   1  324.57   27.50
  13 -16   1  312.57   25.80
  16  -1  13  323.07   27.10
  16  -1  13  328.17   31.50
   1 -13  16  313.87   27.20
  16   1  13  345.27   27.30
  -1 -13  16  331.37   32.70
  13 -16  -1  298.27   25.60
  -1 -13  16  309.57   27.10
   1  13  16  350.76   34.20
 -16  -1  13  316.87   27.30
  16   1  13  323.67   31.90
  16  -3  13   24.10   12.00
   3 -13  16   49.90   13.40
  13 -16   3   41.00    7.10
  13 -16   3   27.10    9.30
   3 -13  16   31.10   13.70
  -3  13  16   61.49   14.30
  16   3  13   60.29   14.20
  16   3  13   53.69    8.70
  -3 -13  16   68.89    9.10
 -16  -3  13   56.99   10.10
  -3 -13  16   62.89   14.40
   3  13  16   59.09   16.20
   5 -13  16    9.80    7.30
  13 -16   5   12.70    9.10
  16  -5  13   19.40   11.30
  13 -16   5   11.70    6.40
  16  -5  13   19.20    7.10
   5 -13  16   21.60   13.50
  -5 -13  16  -11.20    6.90
  16   5  13  -14.80   12.50
   5  13  16   -1.60   13.20
 -16  -5  13   -4.50    9.20
  -5 -13  16   -8.80   12.40
   7 -13  16  128.69   18.80
  16  -7  13  114.49   13.70
  16  -7  13  110.29   15.50
   7 -13  16  107.99   14.20
  13 -16   7  124.29   13.30
  13 -16   7  102.19   14.30
 -16  -7  13  113.59   15.50
  -7 -13  16  115.29   14.20
 -16  -7  13   90.19   10.90
   7  13  16   93.39   19.40
  16   7  13  103.49   19.20
  -7 -13  16  100.39   18.00
   9 -13  16  141.69   16.50
   9 -13  16  144.69   20.10
  13 -16   9  143.69   20.80
  16  -9  13  149.88   16.10
  13 -16   9  151.28   15.90
  16  -9  13  161.18   18.20
 -16  -9  13  134.79   14.30
 -16  -9  13  145.99   18.50
  -9 -13  16  144.59   20.50
  -9 -13  16  134.99   16.20
  16 -11  13   41.90   12.70
  11 -13  16   31.90   15.30
  13 -16  11   40.20    9.10
  11 -13  16   46.20    9.40
  16 -11  13   41.50    8.80
  13 -16  11   33.50   13.80
 -16 -11  13   49.80    8.00
 -16 -11  13   44.10   15.00
 -11 -13  16   43.70    9.30
 -11 -13  16   38.50   16.10
  13 -16  13  282.67   28.80
  13 -16  13  273.97   22.50
  16 -13  13  263.57   22.20
  16 -13  13  263.47   26.50
  13 -13  16  268.77   22.80
  13 -13  16  276.57   29.70
 -13 -16  13  174.28   22.10
 -13 -13  16  249.68   30.60
 -16 -13  13  208.08   30.10
 -16 -13  13  184.18   21.30
 -13 -13  16  195.18   21.60
 -13 -16  13  208.58   30.20
  15 -13  16  250.27   30.10
  16 -15  13  290.87   23.70
  16 -15  13  247.28   27.70
  13 -16  15  270.47   24.30
  13 -16  15  243.98   30.80
  15 -13  16  278.37   24.20
 -15 -13  16  230.38   32.10
 -13 -16  15  237.78   23.60
 -15 -13  16  207.48   22.60
 -13 -16  15  231.18   33.00
 -16 -15  13  246.28   31.30
 -16 -15  13  244.08   23.10
   0 -14  16  762.02   68.09
  16   0  14  834.52   67.59
  14 -16   0  803.02   63.49
  16   0  14  855.61   64.49
   0 -14  16  890.81   64.59
  16  -2  14  356.46   26.70
   2 -14  16  352.96   26.90
  16  -2  14  368.76   31.70
   2 -14  16  338.67   33.00
  14 -16   2  340.37   25.30
 -16  -2  14  256.67   27.50
  16   2  14  241.78   32.00
  16   2  14  268.27   26.80
  -2 -14  16  294.97   26.70
  -2 -14  16  263.27   32.40
   4 -14  16    2.80    7.50
  14 -16   4   -0.50    5.80
  16  -4  14    3.90    7.40
   4 -14  16    8.30   13.10
  16  -4  14    4.90   11.70
  -4 -14  16   -8.20   12.40
  16   4  14    3.80   13.00
 -16  -4  14    2.00    9.40
  -4 -14  16    3.40    7.50
  14 -16   6   10.80    9.10
   6 -14  16   15.80    8.10
  16  -6  14   12.10   11.70
  14 -16   6   21.50    7.00
  16  -6  14   34.30    8.10
   6 -14  16   22.20   15.50
 -16  -6  14   13.40   11.10
  16   6  14   16.10   14.50
  -6 -14  16   10.20   14.60
  -6 -14  16   15.30    7.90
  16  -8  14    2.40    7.50
  14 -16   8    1.20   10.20
   8 -14  16    1.40   15.50
  14 -16   8    3.70    7.20
   8 -14  16   21.40    7.90
  16  -8  14    6.50   11.60
 -16  -8  14   -7.10   11.50
  -8 -14  16    3.00    7.90
 -16  -8  14    5.40    5.20
  -8 -14  16    4.80   14.50
  10 -14  16   14.40   15.20
  14 -16  10   14.70   11.50
  10 -14  16    9.50    8.70
  14 -16  10   11.00    7.80
  16 -10  14   19.20    8.10
  16 -10  14   -4.00   11.30
 -16 -10  14   18.20   13.80
 -10 -14  16   20.50    8.50
 -16 -10  14   17.20    6.60
 -10 -14  16    6.70   14.90
  16 -12  14  156.58   20.50
  14 -16  12  159.98   18.60
  12 -14  16  163.88   21.90
  12 -14  16  152.78   19.20
  16 -12  14  164.18   18.70
  14 -16  12  156.78   20.90
 -12 -14  16  186.08   18.40
 -14 -16  12  236.78   28.20
 -16 -12  14  174.78   22.10
 -16 -12  14  184.88   17.40
 -12 -14  16  203.68   28.20
  16 -14  14  336.97   39.30
  14 -14  16  388.26   36.00
  14 -16  14  399.86   40.70
  16 -14  14  408.36   35.90
  14 -14  16  351.26   40.90
  14 -16  14  420.56   36.10
 -16 -14  14  433.16   42.50
 -16 -14  14  480.65   35.40
 -14 -14  16  470.95   43.30
 -14 -14  16  482.25   35.70
 -14 -16  14  480.65   35.90
 -14 -16  14  477.55   43.00
  16  -1  15  366.36   31.50
   1 -15  16  404.16   31.70
  16  -1  15  388.56   36.30
   1 -15  16  365.36   37.20
  15 -16   1  425.66   29.70
  16   1  15  388.36   36.80
  -1 -15  16  376.06   31.60
  16   1  15  362.16   31.60
  -1 -15  16  318.57   36.90
 -16  -1  15  332.87   32.00
  16  -3  15  189.98   18.30
   3 -15  16  171.68   18.70
  16  -3  15  173.38   24.80
  15 -16   3  163.88   16.40
   3 -15  16  131.89   21.60
  -3 -15  16  218.28   18.70
 -16  -3  15  212.48   21.10
  16   3  15  212.98   26.50
  -3 -15  16  146.09   21.50
  16   3  15  198.18   18.80
   5 -15  16   64.89   10.90
  16  -5  15   72.49   10.40
  16  -5  15   71.99   15.30
  15 -16   5   73.79    9.20
   5 -15  16   64.99   17.00
  -5 -15  16   96.69   11.20
  -5 -15  16   70.09   17.20
  16   5  15   98.29   17.60
 -16  -5  15   86.29   13.90
   7 -15  16    4.10   16.20
  15 -16   7   12.60    7.00
  16  -7  15    3.10    7.80
  16  -7  15   10.30   12.30
   7 -15  16    8.00    8.10
  16   7  15    2.80   15.80
 -16  -7  15    9.70   11.90
  -7 -15  16   13.20    8.00
  -7 -15  16   15.70   15.70
   9 -15  16   17.80   14.70
   9 -15  16    7.80    8.70
  16  -9  15    9.90    8.30
  16  -9  15   -0.60   12.60
  15 -16   9   14.00    7.70
 -16  -9  15   25.10   14.10
  -9 -15  16   21.10   15.60
 -16  -9  15   16.00    6.20
  -9 -15  16   28.20    8.60
  11 -15  16   74.69   18.00
  15 -16  11   79.49   14.50
  16 -11  15   82.39   11.40
  16 -11  15   86.49   16.30
  15 -16  11   96.49   11.30
  11 -15  16   88.49   12.00
 -11 -15  16   97.19   19.30
 -15 -16  11   62.79   17.30
 -11 -15  16   79.79   11.30
 -16 -11  15   81.39   17.30
 -16 -11  15   78.49    9.90
  13 -15  16  270.67   24.30
  13 -15  16  231.98   30.80
  15 -16  13  268.47   23.80
  15 -16  13  245.08   28.80
  16 -13  15  268.97   23.90
  16 -13  15  235.58   29.00
 -13 -15  16  221.98   23.30
 -13 -15  16  241.88   32.70
 -16 -13  15  255.17   31.80
 -15 -16  13  238.18   23.40
 -15 -16  13  237.18   32.40
 -16 -13  15  243.48   22.60
  16 -15  15  185.78   27.00
  15 -15  16  184.78   24.50
  16 -15  15  210.48   21.80
  15 -16  15  207.58   28.10
  15 -15  16  208.98   22.00
  15 -16  15  202.38   21.90
 -15 -15  16  221.18   31.20
 -15 -16  15  220.08   27.60
 -15 -15  16  201.18   20.70
 -16 -15  15  219.08   30.80
 -15 -16  15  198.38   20.80
 -16 -15  15  214.38   20.60
 -16   0  16  594.84   49.80
   0 -16  16  668.33   49.50
   0 -16  16  559.24   54.19
  16   0  16  637.64   49.40
  16   0  16  634.14   53.79
  16  -2  16  329.77   32.30
  16  -2  16  327.47   26.30
   2 -16  16  294.27   33.30
   2 -16  16  317.27   26.50
  -2 -16  16  269.27   33.10
  -2 -16  16  274.27   26.40
 -16  -2  16  282.67   28.00
  16   2  16  289.97   26.50
  16   2  16  279.97   33.10
  16  -4  16  107.89   15.10
  16  -4  16  110.99   17.90
  16 -16   4   95.89   12.30
   4 -16  16  105.19   15.10
   4 -16  16   73.39   18.10
  -4 -16  16  113.79   19.60
 -16  -4  16  144.29   16.10
  -4 -16  16  117.29   15.40
  16   4  16  109.59   15.60
  16   4  16  128.79   19.40
  16  -6  16  111.69   17.60
  16  -6  16   97.79   12.90
   6 -16  16  106.09   13.10
   6 -16  16  110.29   19.20
  16 -16   6  103.89   13.40
  -6 -16  16  111.89   20.70
  -6 -16  16  147.69   16.00
 -16  -6  16  141.89   17.30
  16   6  16  129.99   20.70
  16  -8  16   51.79   15.10
  16  -8  16   59.69   10.30
   8 -16  16   75.99   10.60
   8 -16  16   65.29   16.80
  16 -16   8   73.19    9.40
  -8 -16  16   31.10   18.30
  -8 -16  16   43.80   10.30
 -16  -8  16   54.79   15.70
  16   8  16   61.99   18.10
  16 -10  16  118.29   18.00
  16 -10  16  100.69   12.00
  16 -16  10  113.39   14.30
  10 -16  16  115.29   19.00
  10 -16  16  120.79   15.70
 -10 -16  16   79.39   20.70
 -10 -16  16   69.19   11.80
 -16 -10  16   78.99   18.00
 -16 -10  16   77.29   10.20
  16 -12  16   97.09   13.20
  16 -12  16  126.89   19.00
  16 -16  12  115.59   15.80
  12 -16  16  116.99   20.40
  12 -16  16   94.49   13.40
 -12 -16  16  107.89   21.20
 -12 -16  16  116.09   16.00
 -16 -16  12  102.59   19.40
 -16 -12  16  102.49   13.80
 -16 -12  16  134.29   20.10
  16 -14  16  128.79   20.60
  16 -16  14  130.29   19.50
  16 -14  16  137.99   18.80
  14 -16  16  113.29   21.20
  16 -16  14  130.99   15.90
  14 -16  16  151.68   19.10
 -14 -16  16  156.28   23.50
 -16 -14  16  180.88   23.40
 -14 -16  16  176.58   18.30
 -16 -16  14  184.28   23.50
 -16 -14  16  161.18   17.00
 -16 -16  14  185.18   18.50
   1   0  17   42.20   11.40
  -1   0  17   26.50    6.10
  -1   0  17   44.30   11.20
   1   0  17   39.40    6.60
  -3   0  17  289.27   24.60
   3   0  17  309.17   29.80
   3   0  17  305.47   25.10
  -3   0  17  324.97   29.30
  -5   0  17  332.97   30.30
   5   0  17  331.37   26.50
  -5   0  17  307.47   25.70
   7   0  17   52.69    8.10
   7   0  17   51.39   13.30
  -7   0  17   64.89   12.40
  -7   0  17   64.59    8.40
  -9   0  17   61.29   12.30
   9   0  17   56.19   13.80
  -9   0  17   59.89    8.30
   9   0  17   67.09    9.00
  11   0  17  229.08   26.70
   0 -17  11  217.88   20.30
 -11   0  17  215.28   24.00
   0 -17  11  207.88   26.20
 -11   0  17  214.98   17.90
 -13   0  17   70.99   12.60
   0 -17  13   69.39   16.30
  13   0  17   65.29   15.70
   0 -17  13   66.59   10.00
  13   0  17   72.19    9.80
 -15   0  17  201.18   22.70
  15   0  17  236.58   28.60
  15   0  17  208.08   21.10
   0 -17  15  222.08   28.90
   0 -17  15  226.48   21.00
   0   1  17   41.50    6.40
   0  -1  17   27.90    6.40
   0  -1  17   41.20   11.30
   0   1  17   37.40   11.30
  -2   1  17 1749.03  126.69
   2  -1  17 1828.52  129.19
   2  -1  17 1749.12  126.79
  -2   1  17 1758.22  128.89
  -2  -1  17 1544.45  126.59
   2   1  17 1572.94  126.69
   2   1  17 1580.44  128.89
  -2  -1  17 1606.54  128.79
  -4   1  17  257.87   26.50
  -4   1  17  271.47   21.20
   4  -1  17  278.77   22.00
   4  -1  17  254.57   27.20
   4   1  17  244.68   21.90
  -4  -1  17  255.47   26.50
   4   1  17  247.08   27.00
  -4  -1  17  239.78   21.20
   6  -1  17    6.00   10.60
   6  -1  17    8.50    5.90
  -6   1  17   -1.10    9.80
  -6   1  17    4.70    5.00
   6   1  17    9.90   11.70
  -6  -1  17    0.40    9.70
  -6  -1  17    3.20    4.70
   6   1  17   -4.70    6.00
  -8   1  17   20.50   10.40
   8  -1  17   15.80    6.70
  -8   1  17   14.80    5.00
   8  -1  17   16.20   12.10
   8   1  17   28.60    7.00
   8   1  17   33.70   13.40
  -8  -1  17   26.20    5.10
  -8  -1  17   29.70   11.00
 -10   1  17   57.79    6.50
  10  -1  17   44.50   14.00
 -10   1  17   62.59   12.10
  10  -1  17   51.19    8.40
  10   1  17   52.59    8.20
  10   1  17   54.09   14.50
 -10  -1  17   58.69    8.00
 -10  -1  17   52.29   12.10
 -12   1  17  245.78   25.90
   1 -17  12  245.08   29.10
   1 -17  12  265.97   23.20
  12  -1  17  238.98   23.10
  12  -1  17  227.68   29.30
  12   1  17  259.37   29.80
  -1 -17  12  285.57   23.10
 -12  -1  17  234.78   26.50
  12   1  17  268.97   23.00
  -1 -17  12  333.57   34.60
 -14   1  17  104.29   14.30
  14  -1  17  102.49   17.90
   1 -17  14   99.29   18.70
   1 -17  14  104.59   12.50
  14  -1  17  119.69   14.70
  14   1  17  112.09   14.90
 -14  -1  17  115.09   15.00
  -1 -17  14  111.59   15.10
  -1 -17  14  106.79   18.80
  14   1  17  128.89   18.30
 -16   1  17   33.10    9.70
   1 -17  16   19.30   15.90
  16  -1  17   35.80    9.50
   1 -17  16   37.30    9.50
  16  -1  17   55.79   15.70
  16   1  17   69.89   16.40
  -1 -17  16   60.89   16.30
 -16  -1  17   74.39   11.00
  -1   2  17 1743.43  128.69
   1  -2  17 1769.32  128.89
   1  -2  17 1727.73  126.39
  -1   2  17 1673.03  126.39
  -1  -2  17 1576.34  126.29
   1   2  17 1619.44  126.39
   1   2  17 1606.74  128.59
  -1  -2  17 1638.74  128.59
   3  -2  17  230.18   19.60
   3  -2  17  216.68   24.60
  -3   2  17  238.68   24.40
  -3   2  17  223.88   19.00
   3   2  17  188.38   28.30
   5  -2  17  163.48   21.20
  -5   2  17  144.69   19.40
  17  -5   2  142.19   11.30
  -5   2  17  152.58   12.50
   5  -2  17  152.38   13.80
  -5  -2  17   95.79   12.40
   5   2  17   97.69   16.60
  -5  -2  17  107.99   16.20
   5   2  17   95.99   13.50
   7  -2  17  107.69   15.40
  -7   2  17   93.69   10.40
   7  -2  17   96.69   12.10
  17  -7   2   96.09    9.10
  -7   2  17  102.29   14.10
   7   2  17   55.59   14.30
   9  -2  17   69.19    9.10
   9  -2  17   75.89   14.70
  17  -9   2   74.19    7.60
  -9   2  17   89.09   12.80
  -9   2  17   68.39    8.50
  -9  -2  17   39.30   12.70
   9   2  17   30.70   14.20
  17 -11   2  271.27   22.00
  11  -2  17  237.58   29.80
   2 -17  11  244.28   24.20
  11  -2  17  286.07   24.90
 -11   2  17  228.98   27.00
   2 -17  11  255.07   29.60
  11   2  17  309.17   24.50
  11   2  17  339.27   31.30
 -11  -2  17  304.37   22.50
 -11  -2  17  320.07   28.40
  13  -2  17  274.67   31.80
 -13   2  17  284.37   28.50
  13  -2  17  305.57   26.10
   2 -17  13  306.17   31.80
   2 -17  13  324.67   26.20
  13   2  17  279.87   32.20
  -2 -17  13  334.87   26.40
 -13  -2  17  293.17   29.70
  13   2  17  293.67   26.20
  -2 -17  13  260.97   32.20
   2 -17  15  214.78   29.40
 -15   2  17  206.18   22.60
  15  -2  17  243.28   21.70
  15  -2  17  232.98   28.90
   2 -17  15  253.27   22.10
  -2 -17  15  231.18   22.00
 -15  -2  17  215.68   24.70
  15   2  17  203.48   29.60
  15   2  17  230.38   22.20
  -2 -17  15  227.48   29.70
   0   3  17  320.17   29.20
   0   3  17  308.27   24.60
   0  -3  17  290.67   29.40
   0  -3  17  283.97   24.40
  -2  -3  17  123.19   12.70
  -2  -3  17  145.99   16.60
   2   3  17  116.59   13.30
   2   3  17  120.89   15.30
  -4   3  17   31.60   11.40
   4  -3  17   36.60    7.00
  -4   3  17   37.50    6.50
  17  -4   3   41.60    5.50
   4  -3  17   26.30   12.20
  -4  -3  17   49.80    6.50
  -4  -3  17   52.99   12.00
   4   3  17   41.60    7.40
   4   3  17   48.90   12.10
   6  -3  17  190.98   18.10
   6  -3  17  184.18   23.60
  -6   3  17  175.78   22.10
  -6   3  17  198.78   16.40
  17  -6   3  179.28   15.70
  -6  -3  17  212.68   22.70
   6   3  17  201.08   24.10
  -6  -3  17  177.98   16.40
   6   3  17  183.98   17.40
  -8   3  17  403.56   32.90
   8  -3  17  447.66   33.90
   8  -3  17  400.46   38.60
  17  -8   3  422.36   32.70
  -8   3  17  423.56   37.00
  -8  -3  17  432.66   33.10
   8   3  17  385.76   38.70
  -8  -3  17  437.26   37.50
  10  -3  17  150.48   15.30
  17 -10   3  150.38   12.30
   3 -17  10  148.59   18.30
  10  -3  17  132.39   18.00
 -10   3  17  157.88   19.30
   3 -17  10  150.58   15.00
  10   3  17  105.99   17.50
 -10  -3  17  110.39   16.60
 -10  -3  17  111.49   12.80
  10   3  17  130.09   15.10
  12  -3  17  257.07   29.90
   3 -17  12  237.58   24.10
  17 -12   3  301.47   22.20
 -12   3  17  270.27   27.00
   3 -17  12  289.97   30.40
  12  -3  17  260.07   24.10
 -12  -3  17  262.07   22.20
 -12  -3  17  270.67   28.20
  12   3  17  322.07   25.10
  -3 -17  12  266.07   30.80
  12   3  17  274.47   30.90
  14  -3  17  442.06   35.40
 -14   3  17  423.16   36.60
  14  -3  17  457.75   40.50
   3 -17  14  413.06   40.80
  -3 -17  14  411.26   41.70
 -14  -3  17  434.36   38.30
  14   3  17  418.06   41.50
  14   3  17  423.26   35.40
  -3 -17  14  441.46   35.60
   3 -17  16  149.69   18.50
  16  -3  17  160.58   18.20
   3 -17  16  106.09   21.50
  16  -3  17  157.08   21.30
  16   3  17  202.18   27.90
  16   3  17  188.68   18.70
  -3 -17  16  168.18   23.40
  -3 -17  16  205.68   18.80
 -16  -3  17  172.08   21.70
  -1   4  17  252.97   26.70
   1  -4  17  332.47   32.10
   1  -4  17  267.57   21.60
  -1   4  17  252.27   21.40
  -1  -4  17  242.08   21.50
   1   4  17  238.58   21.50
  -1  -4  17  267.67   26.70
   1   4  17  245.58   26.90
   3  -4  17   44.20   12.40
  -3   4  17   40.90   12.30
  17  -3   4   33.10    5.90
  -3   4  17   35.10    6.80
   3  -4  17   32.10    7.10
   3   4  17   50.69   12.70
  -3  -4  17   55.89   12.70
  -3  -4  17   54.59    7.10
   3   4  17   55.29    7.50
  -5   4  17  102.89   11.10
   5  -4  17  108.09   15.40
   5  -4  17  103.39   12.10
  -5   4  17   89.09   14.50
  17  -5   4  101.19   10.30
  -5  -4  17   99.49   14.90
   5   4  17   91.89   12.50
  -5  -4  17  100.69   11.20
   5   4  17   95.29   16.50
  17  -7   4    9.20    4.60
   7  -4  17    7.60    6.90
  -7   4  17   11.20    5.10
   7  -4  17   26.10   12.30
  -7   4  17    4.40   10.10
  -7  -4  17    5.50   11.20
   7   4  17   31.50    9.60
   7   4  17   28.60   13.50
  -7  -4  17   16.90    5.30
   4 -17   9  107.69   15.60
   9  -4  17  114.89   13.40
   9  -4  17   99.99   16.40
   4 -17   9  108.59   13.10
  17  -9   4   96.49   10.60
  -9   4  17   97.59   14.70
  -9  -4  17   99.79   11.20
   9   4  17  113.39   18.20
   9   4  17  110.39   13.70
  -9  -4  17  113.69   15.60
  11  -4  17   57.79   14.90
   4 -17  11   78.69   15.40
  11  -4  17   70.59    9.80
 -11   4  17   72.29   13.40
   4 -17  11   68.79   10.00
  17 -11   4   71.19    9.50
 -11  -4  17   80.59    9.70
  11   4  17   97.39   17.00
  11   4  17   80.79   10.20
 -11  -4  17   83.49   14.50
  13  -4  17  106.79   16.60
   4 -17  13  124.19   13.80
   4 -17  13   81.59   16.30
 -13   4  17  106.89   13.70
  17 -13   4  101.99   10.60
  13  -4  17  120.89   13.90
  -4 -17  13   81.79   11.20
  13   4  17   80.89   11.80
 -13  -4  17   96.69   15.30
  -4 -17  13   65.19   17.30
 -13  -4  17   74.09   10.00
  13   4  17   60.89   17.80
   4 -17  15   13.80   14.50
  15  -4  17   14.70   14.10
  15  -4  17   16.00    8.50
 -15   4  17    6.00    7.90
  17 -15   4    7.30    4.50
   4 -17  15   18.40    8.60
  15   4  17   14.70    9.40
  -4 -17  15   15.00   14.20
  15   4  17   11.50   15.50
  -4 -17  15   23.10    8.80
 -15  -4  17   29.50   12.30
   0  -5  17  367.26   31.40
   0  -5  17  299.47   26.10
   0   5  17  355.86   31.70
   0   5  17  305.47   26.30
  -2   5  17  158.88   13.70
  17  -2   5  160.38   12.80
  -2   5  17  135.49   17.10
   2  -5  17  169.38   21.40
   2  -5  17  158.48   13.70
   2   5  17   94.99   16.20
   2   5  17   99.79   13.80
  -2  -5  17   95.79   15.70
  -2  -5  17  106.09   13.10
   4  -5  17   90.29   15.10
  -4   5  17  110.69   11.30
  -4   5  17   99.89   14.90
   4  -5  17  100.79   11.90
  17  -4   5   92.29   10.50
  -4  -5  17   90.99   14.30
  -4  -5  17   90.59   11.10
   4   5  17  101.59   14.70
   4   5  17   87.39   12.30
   6  -5  17  176.68   16.30
  -6   5  17  158.78   19.10
  -6   5  17  165.18   15.10
  17  -6   5  170.68   14.90
   6  -5  17  155.48   23.00
  17  -8   5  345.77   26.20
   8  -5  17  327.37   27.30
   5 -17   8  338.57   27.30
  -8   5  17  351.76   31.30
   8  -5  17  337.67   32.60
   8   5  17  322.17   27.60
  -8  -5  17  310.47   31.40
   8   5  17  302.17   33.10
  -8  -5  17  308.77   26.40
 -10   5  17  176.88   22.00
  10  -5  17  194.18   18.10
   5 -17  10  179.58   18.00
   5 -17  10  182.38   23.70
  10  -5  17  184.58   24.40
  17 -10   5  201.98   16.10
  10   5  17  175.88   25.40
 -10  -5  17  175.38   23.00
 -10  -5  17  165.68   16.00
  10   5  17  164.58   18.00
  12  -5  17   79.79   16.30
  17 -12   5   89.79   10.60
  12  -5  17   76.79   10.80
   5 -17  12   84.09   16.00
   5 -17  12   95.69   13.20
 -12   5  17   88.69   13.30
  12   5  17   78.79   10.80
 -12  -5  17   97.99   10.60
  12   5  17   87.39   16.10
 -12  -5  17  114.09   15.70
  17 -14   5  252.07   21.60
 -14   5  17  226.28   24.00
   5 -17  14  241.08   23.50
  14  -5  17  243.38   29.60
   5 -17  14  238.28   30.00
  14  -5  17  254.57   23.40
  14   5  17  254.37   23.80
  14   5  17  309.97   31.90
  -5 -17  14  251.57   32.10
 -14  -5  17  259.17   28.40
  -5 -17  14  306.27   24.00
   5 -17  16   67.79   11.10
  16  -5  17   74.59   16.60
  16  -5  17   47.50   10.40
   5 -17  16   33.00   16.40
  16   5  17   90.59   18.70
  -5 -17  16  107.39   11.60
  -5 -17  16   54.69   17.60
 -16  -5  17   88.89   15.20
   1  -6  17    7.20   11.40
  -1   6  17    3.20   10.90
  -1   6  17    4.50    5.60
  17  -1   6    3.60    5.40
   1  -6  17    2.20    5.80
  -1  -6  17    4.30   12.30
   1   6  17   -4.20    6.00
  -1  -6  17   -0.30    5.40
   1   6  17    9.50   11.10
   3  -6  17  195.98   24.40
   3  -6  17  198.08   17.80
  -3   6  17  207.78   23.90
  -3   6  17  203.08   17.30
  17  -3   6  205.38   17.00
  17  -3   6  163.48   17.30
  -3  -6  17  191.08   17.30
   3   6  17  198.68   24.70
   3   6  17  194.98   18.10
  -3  -6  17  183.38   23.50
  -5  -6  17   82.69   10.60
  -5  -6  17  101.49   15.40
   5   6  17   82.19   10.30
   5   6  17   85.29   15.80
 -17  -5   6   83.89   10.50
  17  -7   6    5.10    5.10
  -7   6  17   -4.80   10.60
   6 -17   7   -5.30    6.20
   7  -6  17   -1.30    6.10
   7  -6  17   -0.30   12.00
   7   6  17   22.30   16.90
   7   6  17    6.00    7.20
  -7  -6  17    8.40   11.70
  -7  -6  17   10.00    5.60
   6 -17   9  330.77   33.00
   6 -17   9  316.37   28.50
  17  -9   6  316.57   27.40
  -9   6  17  339.67   31.90
   9  -6  17  330.17   33.60
   9  -6  17  292.37   28.40
   9   6  17  374.86   28.70
  -9  -6  17  378.16   27.60
  -9  -6  17  390.86   33.40
   9   6  17  391.26   34.90
  11  -6  17  203.58   21.30
 -11   6  17  213.28   24.30
   6 -17  11  192.08   26.30
  11  -6  17  207.88   27.40
   6 -17  11  204.98   20.90
  17 -11   6  210.28   19.70
  11   6  17  259.97   21.60
 -11  -6  17  276.87   27.30
 -11  -6  17  259.07   19.70
  11   6  17  292.47   28.90
  17 -13   6  125.29   13.60
   6 -17  13  128.29   16.00
   6 -17  13  110.79   18.60
  13  -6  17  126.09   15.90
  13  -6  17  131.89   19.10
 -13   6  17  126.79   15.40
 -13  -6  17  140.09   13.20
  -6 -17  13  139.39   16.30
  -6 -17  13  121.39   19.00
  13   6  17  110.99   19.10
 -13  -6  17  165.58   18.40
  15  -6  17   14.70   14.20
  15  -6  17   15.80    8.90
   6 -17  15   12.70    8.70
   6 -17  15    5.80   14.30
  17 -15   6   14.20    6.70
  15   6  17   24.20   16.00
  -6 -17  15   23.60    9.20
 -15  -6  17   34.40   13.20
  -6 -17  15   25.30   16.00
   0  -7  17   58.89   13.80
   0   7  17   64.89    8.00
   0  -7  17   59.89    8.10
  17   0   7   65.39    7.90
  17   0   7   61.29   10.10
   0   7  17   54.09   14.30
  -2   7  17  102.39   15.40
   2  -7  17  114.89   11.50
   2  -7  17  133.09   18.40
  17  -2   7   96.69   11.00
  17  -2   7   89.49   10.60
  -2  -7  17   63.09    9.50
  -2  -7  17   50.99   13.90
   2   7  17   49.70   14.10
  17  -4   7   15.10    7.10
  17  -4   7    3.60    5.60
   4  -7  17    8.70    6.60
   4  -7  17   11.50   13.00
  -4   7  17    8.40   11.20
  -4  -7  17   19.00   11.70
 -17  -4   7   13.10    6.20
   4   7  17   31.70   13.00
   4   7  17   20.80    6.50
  -4  -7  17   18.20    5.90
   6  -7  17    3.10    6.80
  -6   7  17    9.80   11.30
   7 -17   6    4.10    6.40
  17  -6   7    7.30    6.50
  17  -6   7    8.30    5.60
   6  -7  17    1.00   11.50
 -17  -6   7   17.90    8.00
   6   7  17   13.10    6.80
   6   7  17   16.00   13.00
  -6  -7  17    7.40    5.90
  -6  -7  17    5.80   12.10
   7 -17   8   14.10   12.20
  -8   7  17    6.60   11.60
   8  -7  17    7.40   12.80
  17  -8   7    6.50    4.30
   8  -7  17    9.70    6.70
  17  -8   7   13.40    5.70
   7 -17   8   12.80    6.90
  -8  -7  17   12.20   11.40
   8   7  17   25.10    8.00
  -8  -7  17   31.20    5.90
   8   7  17   64.99   24.90
   7 -17  10   19.40   12.50
  17 -10   7   29.80    6.40
  10  -7  17   22.10   13.40
 -10   7  17   15.70   11.30
  10  -7  17   32.90    8.70
   7 -17  10   28.40    7.80
 -10  -7  17   33.90   12.70
 -10  -7  17   44.70    6.90
  10   7  17   46.70   15.80
   7 -17  12   65.79    9.80
 -12   7  17   80.89   12.50
  12  -7  17   51.89   15.60
   7 -17  12   46.00   14.70
  12  -7  17   59.69    9.50
  17 -12   7   61.69    8.50
 -12  -7  17   70.49    8.30
 -12  -7  17   81.19   15.30
  12   7  17   53.89   16.60
   7 -17  14  222.38   20.80
  17 -14   7  206.38   19.10
  14  -7  17  197.98   27.80
  14  -7  17  215.58   20.90
   7 -17  14  234.78   28.50
 -14  -7  17  205.58   18.60
 -14  -7  17  221.18   27.00
  -7 -17  14  208.18   29.60
  -7 -17  14  218.48   21.20
  14   7  17  185.68   24.70
   7 -17  16   14.80   16.50
  16  -7  17    5.20   13.90
  17 -16   7   17.10    7.20
  16  -7  17    0.90    9.20
   7 -17  16   19.50    9.40
  -7 -17  16   25.20    9.40
  16   7  17   33.10   17.00
 -16  -7  17   25.60   14.10
  -7 -17  16   12.60   17.90
  -1   8  17   14.20   12.00
   1  -8  17   29.90   18.80
   1  -8  17   14.10    6.90
  17  -1   8   15.20    8.50
  17  -1   8   15.80    6.30
  17   1   8   19.00    6.70
   1   8  17   24.50   12.80
  -1  -8  17   27.10    6.90
  17   1   8   18.90    9.00
  -1  -8  17   21.30   12.20
  17  -3   8  402.56   34.90
  -3   8  17  411.66   38.20
   3  -8  17  417.66   33.80
  17  -3   8  425.16   33.50
  -3  -8  17  428.66   33.60
  -3  -8  17  452.95   38.40
   3   8  17  408.06   38.70
   5  -8  17  327.77   33.40
  17  -5   8  331.07   28.70
  -5   8  17  354.46   32.70
  17  -5   8  323.97   27.20
   5  -8  17  340.17   27.80
   8 -17   5  337.67   27.50
 -17  -5   8  336.27   28.50
  -5  -8  17  328.77   27.40
  -5  -8  17  353.36   33.30
   7  -8  17    2.20    7.10
  17  -7   8   10.10    6.30
   7  -8  17   14.50   12.80
   8 -17   7   14.20   11.20
  -7   8  17   27.50   11.80
   8 -17   7    8.60    6.90
  17  -7   8   27.30    7.70
 -17  -7   8   33.40    9.80
  -7  -8  17   25.30    6.40
   7   8  17   17.00   13.20
  -7  -8  17   14.50   11.60
   9  -8  17  284.57   30.70
   8 -17   9  275.27   24.00
   8 -17   9  301.87   28.90
  17  -9   8  291.37   23.30
   9  -8  17  303.27   24.40
  -9   8  17  294.37   28.20
  -9  -8  17  264.97   23.30
   9   8  17  222.48   31.30
  -9  -8  17  248.18   29.80
 -17  -9   8  255.97   27.30
  11  -8  17  284.27   23.50
  17 -11   8  271.97   22.40
 -11   8  17  255.27   26.40
  11  -8  17  262.57   29.40
   8 -17  11  249.88   29.00
   8 -17  11  284.07   23.50
 -11  -8  17  230.58   22.00
 -11  -8  17  247.48   29.40
  11   8  17  237.68   30.80
  13  -8  17   96.39   11.90
  17 -13   8   94.59   10.80
  13  -8  17   95.39   17.50
   8 -17  13   86.29   11.60
   8 -17  13  114.29   17.80
  -8 -17  13   77.59   18.70
 -13  -8  17   92.89   11.70
  13   8  17  105.99   19.90
 -13  -8  17   94.99   16.90
   8 -17  15   21.60   14.70
  15  -8  17    7.70    8.60
  15  -8  17    8.70   14.10
  17 -15   8    4.40    6.90
   8 -17  15   13.90    8.50
  -8 -17  15    7.40    9.20
 -15  -8  17   -0.80   13.90
  -8 -17  15   -8.70   16.30
  15   8  17    0.50   15.80
 -15  -8  17   -4.50    5.90
   0  -9  17   66.79   15.10
   0  -9  17   55.79    8.70
  17   0   9   66.79    8.80
   0   9  17   61.39   14.80
  17   0   9   67.69   11.80
   2  -9  17   71.79   13.20
  17  -2   9   73.19   11.10
  17  -2   9   74.59    8.20
   2  -9  17   56.29    7.90
  -2   9  17   56.29   13.40
  -2  -9  17   44.30   13.80
  -2  -9  17   35.40    7.80
   2   9  17   39.70   13.60
  17   2   9   42.50   11.50
   4  -9  17   88.09   11.10
  17  -4   9  104.19   12.90
   9 -17   4  101.49   12.40
  17  -4   9   86.59   12.10
  -4   9  17  111.69   15.70
   4  -9  17  108.99   17.00
  -4  -9  17  106.29   15.70
  -4  -9  17  102.99   12.30
 -17  -4   9  100.09   12.90
   4   9  17  106.89   15.60
   9 -17   6  330.07   29.10
  17  -6   9  334.87   28.70
   9 -17   6  312.77   32.40
  17  -6   9  317.47   30.40
  -6   9  17  316.87   33.80
   6  -9  17  332.47   29.30
   6  -9  17  324.47   34.90
 -17  -6   9  382.46   27.70
  -6  -9  17  381.16   28.90
  -6  -9  17  406.96   35.10
   6   9  17  413.76   35.80
 -17  -6   9  401.96   30.90
   9 -17   8  268.67   28.30
  17  -8   9  300.27   23.50
   8  -9  17  299.57   30.70
  17  -8   9  291.27   25.10
   9 -17   8  290.67   24.00
  -8   9  17  319.67   29.20
   8  -9  17  292.37   24.50
   8   9  17  231.48   30.70
  -8  -9  17  260.17   30.40
  -8  -9  17  248.58   23.50
 -17  -8   9  242.58   27.20
  17 -10   9  101.89   12.60
  10  -9  17  104.39   14.00
 -10   9  17  110.99   15.30
   9 -17  10  101.19   15.90
   9 -17  10  109.79   13.90
  10  -9  17   90.59   17.50
 -10  -9  17   91.09   12.50
  10   9  17   89.29   18.50
 -17 -10   9  120.29   16.20
 -10  -9  17   87.29   16.60
  12  -9  17  104.89   13.00
   9 -17  12  102.19   14.80
  12  -9  17  100.59   18.00
  17 -12   9  115.99   13.30
   9 -17  12  108.89   17.90
  12   9  17   90.29   19.90
 -12  -9  17  120.09   13.00
 -12  -9  17  116.69   18.10
  14  -9  17  206.48   20.30
   9 -17  14  221.18   20.40
  14  -9  17  188.18   27.10
  17 -14   9  239.28   19.10
   9 -17  14  196.68   28.20
  -9 -17  14  151.28   23.90
  -9 -17  14  208.78   20.60
  14   9  17  143.19   24.20
 -14  -9  17  176.68   18.10
 -14  -9  17  201.08   27.50
  16  -9  17   25.40    9.40
  16  -9  17    9.70   14.90
   9 -17  16   29.90    9.60
  17 -16   9   10.00    3.90
  17 -16   9   26.50    8.30
   9 -17  16   17.30   15.80
 -16  -9  17   29.00    9.20
  -9 -17  16   18.30    9.40
 -16  -9  17   12.60   15.90
  -9 -17  16   24.30   16.70
   1 -10  17   41.20    8.00
  -1  10  17   39.80   14.60
  17  -1  10   52.99   11.50
  10 -17   1   62.69    7.60
  17  -1  10   48.30    8.20
   1 -10  17   51.89   14.10
  -1 -10  17   58.29    8.00
  17   1  10   57.29    8.50
  17   1  10   48.10   11.80
   1  10  17   49.20   15.50
  -1 -10  17   56.69   15.40
  10 -17   3  152.58   14.60
  17  -3  10  141.79   18.50
  17  -3  10  156.68   14.80
   3 -10  17  159.08   15.20
   3 -10  17  137.39   19.00
  -3  10  17  150.98   18.80
   3  10  17  122.89   19.80
  -3 -10  17  126.29   14.90
  -3 -10  17  125.59   19.40
  17   3  10  127.89   17.00
  17  -5  10  191.38   17.40
  17  -5  10  183.48   20.60
  10 -17   5  196.98   17.60
  -5  10  17  174.78   24.40
   5 -10  17  211.28   18.20
   5 -10  17  179.68   25.80
  10 -17   5  187.48   21.90
  -5 -10  17  178.28   24.70
  -5 -10  17  174.88   17.50
 -17  -5  10  170.08   19.30
   5  10  17  176.08   22.60
  -7  10  17   36.10   13.90
  17  -7  10   32.00    7.60
  10 -17   7   36.50    7.90
   7 -10  17   28.20    8.30
   7 -10  17   20.40   15.00
  10 -17   7   23.00   11.50
  17  -7  10   29.30    9.90
 -17  -7  10   50.59   10.90
  -7 -10  17   50.29    7.60
  -7 -10  17   40.90   13.80
   7  10  17   48.60   15.20
 -17  -7  10   46.70    5.70
  -9  10  17  108.49   16.10
   9 -10  17  106.39   14.60
  10 -17   9  105.49   14.10
   9 -10  17  106.79   17.70
  10 -17   9   96.49   15.90
  17  -9  10  105.19   13.10
  17  -9  10  127.29   16.00
  -9 -10  17  107.59   17.30
   9  10  17   72.89   17.50
  -9 -10  17  115.59   13.10
 -17  -9  10  112.39   15.60
  10 -17  11   80.79   11.30
  11 -10  17  104.29   17.70
  10 -17  11   94.19   16.30
  17 -11  10   89.49   12.80
  11 -10  17   93.19   11.20
  11  10  17   71.79   17.80
 -11 -10  17   92.29   17.90
 -17 -11  10   93.99   16.20
 -11 -10  17  110.39   12.70
  17 -13  10   27.20    8.10
  10 -17  13   21.30   15.30
  13 -10  17    9.70   15.10
  13 -10  17   18.10    9.10
  10 -17  13   18.50    9.30
 -13 -10  17   54.19   15.60
 -10 -17  13   44.80   17.80
 -17 -13  10   56.99   15.10
 -13 -10  17   42.10    7.70
  13  10  17   47.80   17.80
  10 -17  15   -5.70    8.90
  10 -17  15   11.50   15.80
  15 -10  17   -7.00    9.20
  15 -10  17   -5.30   13.70
  17 -15  10    6.00    7.90
 -17 -15  10    3.80   13.70
 -15 -10  17    0.00    6.50
 -10 -17  15    2.20    9.50
 -15 -10  17    5.20   15.00
 -10 -17  15    3.90   17.10
  17   0  11  217.88   25.20
  17   0  11  242.88   21.20
   0 -11  17  230.38   20.90
   0 -11  17  251.17   28.40
  11 -17   0  228.38   20.10
   0  11  17  249.08   28.40
  -2  11  17  284.07   31.10
   2 -11  17  246.88   31.00
   2 -11  17  264.77   24.50
  11 -17   2  260.37   23.90
  17  -2  11  251.37   27.60
  17  -2  11  252.47   24.30
  17   2  11  308.47   28.80
  -2 -11  17  322.67   24.40
   2  11  17  324.77   31.70
  -2 -11  17  318.67   30.40
  17   2  11  318.17   24.60
  17  -4  11   71.59   13.00
  11 -17   4   99.59   11.40
   4 -11  17   68.59   15.10
   4 -11  17   63.59    9.50
  -4  11  17   75.49   15.20
  11 -17   4   77.99   13.00
  17  -4  11   63.89    9.40
  17   4  11   78.89   14.60
  -4 -11  17  105.09   12.30
 -17  -4  11   96.49   13.30
  -4 -11  17   92.99   16.30
   4  11  17   72.79   16.80
   6 -11  17  195.78   20.60
  11 -17   6  202.08   24.00
  17  -6  11  204.28   23.20
   6 -11  17  216.98   28.10
  11 -17   6  209.78   20.20
  17  -6  11  203.08   20.00
  -6  11  17  220.08   26.40
  -6 -11  17  254.17   27.60
   6  11  17  262.17   28.70
 -17  -6  11  251.07   22.70
  -6 -11  17  265.47   20.40
  11 -17   8  233.98   22.20
  11 -17   8  266.57   26.80
   8 -11  17  251.07   22.70
  17  -8  11  273.77   22.00
   8 -11  17  259.97   30.20
  -8  11  17  290.87   28.10
  17  -8  11  251.67   24.80
 -17  -8  11  244.98   26.10
  -8 -11  17  237.28   29.50
 -17  -8  11  236.18   20.70
  -8 -11  17  250.47   22.10
   8  11  17  211.38   30.70
  10 -11  17  107.69   12.00
  11 -17  10  100.39   11.70
  11 -17  10   83.09   15.90
  17 -10  11   86.59   10.80
  10 -11  17   78.69   17.30
  17 -10  11  100.49   13.40
 -17 -10  11   94.39   15.80
  10  11  17   76.59   18.30
 -10 -11  17   91.49   17.20
 -10 -11  17   93.69   11.30
 -17 -10  11   88.29   11.70
  12 -11  17  307.87   25.80
  11 -17  12  295.17   31.60
  11 -17  12  294.37   25.70
  17 -12  11  292.97   25.00
  12 -11  17  298.17   32.40
 -11 -17  12  271.67   33.60
 -12 -11  17  296.17   32.40
 -17 -12  11  282.87   31.40
 -12 -11  17  271.97   24.70
  12  11  17  232.28   34.60
  11 -17  14  324.77   34.40
  17 -14  11  341.87   27.10
  14 -11  17  300.67   33.60
  11 -17  14  344.07   27.80
  14 -11  17  348.47   28.00
 -11 -17  14  273.87   36.30
 -17 -14  11  285.47   33.60
 -14 -11  17  287.87   34.40
 -14 -11  17  269.57   26.40
 -11 -17  14  304.87   27.90
  11 -17  16   46.20   17.40
  16 -11  17   35.60   15.90
  11 -17  16   51.59   11.00
  17 -16  11   48.90    9.70
  16 -11  17   40.10    9.90
 -16 -11  17   46.00    8.30
 -16 -11  17   48.70   16.90
 -17 -16  11   37.10   16.20
 -11 -17  16   38.40   10.70
 -11 -17  16   43.10   20.10
  12 -17   1  244.48   24.50
  -1  12  17  241.58   30.10
  12 -17   1  264.37   21.90
   1 -12  17  263.47   23.00
   1 -12  17  277.47   30.50
  17  -1  12  218.18   27.00
  17  -1  12  255.17   23.00
  17   1  12  272.47   27.90
   1  12  17  252.47   30.10
  12 -17  -1  279.97   21.90
  -1 -12  17  281.47   22.90
  -1 -12  17  244.78   29.30
  17   1  12  258.57   23.20
   3 -12  17  274.37   30.80
  17  -3  12  250.67   23.30
   3 -12  17  257.37   23.50
  -3  12  17  257.37   30.10
  17  -3  12  274.47   27.20
  12 -17   3  253.97   22.60
  12 -17   3  256.77   25.50
  -3 -12  17  267.97   23.40
 -17  -3  12  287.67   24.00
   3  12  17  294.67   31.00
  -3 -12  17  277.77   30.10
  12 -17  -3  265.67   21.90
  17   3  12  291.77   28.80
  12 -17   5   86.39   10.20
  12 -17   5   98.29   13.60
  17  -5  12   82.59   10.40
   5 -12  17   68.99   17.50
   5 -12  17   83.79   10.90
  -5  12  17  106.99   17.70
  17  -5  12   94.69   14.20
  -5 -12  17  105.39   13.10
  -5 -12  17   73.19   16.30
 -17  -5  12  111.39   13.00
   5  12  17   78.69   16.70
  17   5  12   86.09   17.20
  -7  12  17   67.59   15.10
   7 -12  17   67.59   16.80
  17  -7  12   61.19   12.40
   7 -12  17   64.49    9.80
  17  -7  12   60.29    9.30
  12 -17   7   63.79   13.10
  12 -17   7   64.39    9.20
   7  12  17   55.19   17.70
  -7 -12  17   65.99   16.20
 -17  -7  12   69.19   12.80
  -7 -12  17   80.19   10.20
  17  -9  12  103.29   13.90
   9 -12  17   94.09   17.60
  17  -9  12  113.19   14.70
  12 -17   9  102.39   16.00
   9 -12  17  107.49   14.80
  12 -17   9  102.59   14.20
  -9 -12  17  108.39   13.90
 -17  -9  12  101.29   16.00
  -9 -12  17  106.59   18.50
   9  12  17   85.09   18.90
 -17  -9  12  110.19   11.90
  12 -17  11  306.37   25.50
  17 -11  12  308.57   25.00
  11 -12  17  294.17   25.90
  17 -11  12  308.27   28.00
  11 -12  17  258.47   32.60
  12 -17  11  264.67   30.60
 -11 -12  17  278.27   32.90
  11  12  17  238.68   35.00
 -11 -12  17  272.17   24.90
 -17 -11  12  279.97   30.90
 -17 -11  12  277.07   24.20
  13 -12  17  134.59   21.60
  12 -17  13  145.19   21.30
  13 -12  17  133.69   18.90
  17 -13  12  133.49   18.10
  12 -17  13  163.58   19.00
 -13 -12  17  191.68   17.70
 -12 -17  13  212.78   19.40
 -13 -12  17  201.08   27.60
 -17 -13  12  201.08   26.30
 -17 -13  12  195.48   17.50
 -12 -17  13  191.38   25.10
  15 -12  17   10.80   15.10
  15 -12  17   11.70    9.70
  17 -15  12   14.00    8.90
  12 -17  15   16.80   10.00
  12 -17  15    8.30   15.30
 -17 -15  12   15.00   16.80
 -12 -17  15   32.30    9.70
 -17 -15  12   21.40    8.50
 -15 -12  17   15.50    7.90
 -15 -12  17    6.50   16.30
 -12 -17  15   10.80   16.80
   0  13  17   69.99   17.30
   0 -13  17   73.99    9.90
   0 -13  17   55.79   15.20
  17   0  13   68.49   14.60
  13 -17   0   83.49    9.90
  17   0  13   71.39   10.10
   2 -13  17  294.07   33.80
  17  -2  13  284.17   26.60
  17  -2  13  315.37   31.10
  13 -17   2  328.37   27.70
   2 -13  17  315.97   26.70
  13 -17   2  314.17   25.60
  -2  13  17  306.07   33.70
  -2 -13  17  335.07   33.30
  -2 -13  17  301.87   26.60
  17   2  13  316.07   26.80
  17   2  13  315.67   32.00
  13 -17  -2  319.37   24.90
   2  13  17  291.27   34.10
  -4  13  17  125.09   19.80
  13 -17   4  101.29   13.40
  17  -4  13  104.29   13.20
   4 -13  17   93.99   16.30
   4 -13  17  121.19   14.00
  17  -4  13  120.39   15.70
  13 -17   4  109.29   12.30
 -17  -4  13   80.29   12.50
  17   4  13   99.19   16.60
  -4 -13  17   56.19   16.60
  -4 -13  17   85.59   11.30
   4  13  17   63.49   17.30
  17  -6  13  126.59   14.90
   6 -13  17  142.39   20.60
  13 -17   6  118.49   14.70
  13 -17   6  114.09   15.80
   6 -13  17  120.59   15.50
  17  -6  13  127.49   16.90
 -17  -6  13  144.29   19.00
   6  13  17  110.89   18.60
  -6 -13  17  141.29   15.60
  -6 -13  17  131.29   19.40
  17   6  13  150.48   20.30
  13 -17   8  101.09   14.90
  17  -8  13   98.39   14.70
  13 -17   8   95.99   11.10
  17  -8  13   95.99   11.20
   8 -13  17   81.89   17.60
   8 -13  17   89.49   11.80
  -8 -13  17   81.99   17.80
 -17  -8  13   98.19   15.20
 -17  -8  13  109.59   12.50
  -8 -13  17   95.29   11.30
   8  13  17   75.99   18.80
  10 -13  17   15.40    9.40
  17 -10  13   27.40    8.40
  10 -13  17    8.30   15.00
  13 -17  10   25.40    8.50
  13 -17  10   20.00   12.40
  17 -10  13   30.70   11.80
 -10 -13  17   56.29    8.90
 -10 -13  17   40.60   16.70
 -17 -10  13   50.39   15.40
  17 -12  13  138.79   17.20
  13 -17  12  127.39   17.50
  17 -12  13  197.98   20.90
  12 -13  17  140.89   18.30
  13 -17  12  125.39   19.90
  12 -13  17  139.09   21.70
 -12 -13  17  208.48   27.80
 -13 -17  12  149.49   21.10
 -17 -12  13  180.48   21.20
  13 -17  14   82.19   12.00
  17 -14  13   90.69   11.80
  14 -13  17   78.29   12.30
  14 -13  17   85.29   18.10
  13 -17  14   66.99   17.80
 -13 -17  14   75.69   20.00
 -13 -17  14  101.09   12.10
 -17 -14  13   96.79   11.30
 -14 -13  17   79.29   18.90
 -14 -13  17   89.39   11.10
 -17 -14  13   80.79   18.40
  13 -17  16   48.10   11.30
  16 -13  17   45.50   11.10
  17 -16  13   51.59   10.70
  16 -13  17   41.20   16.40
  13 -17  16   22.60   16.70
 -17 -16  13   68.69   11.20
 -17 -16  13   53.89   19.10
 -16 -13  17   73.49   19.30
 -13 -17  16   51.39   19.40
 -13 -17  16   59.59   10.60
 -16 -13  17   74.29    9.70
  17  -1  14  100.39   16.60
   1 -14  17   98.69   17.90
   1 -14  17  126.89   14.60
  14 -17   1  106.89   11.80
  17  -1  14  119.09   14.80
   1  14  17   96.39   19.50
  -1 -14  17  111.69   14.60
  17   1  14  117.19   14.80
  -1 -14  17   84.89   17.40
  17   1  14  126.89   17.60
   3 -14  17  455.75   36.20
  17  -3  14  462.55   36.10
  14 -17   3  447.46   35.20
  17  -3  14  434.16   39.90
   3 -14  17  420.66   42.30
  17   3  14  461.35   41.60
   3  14  17  440.06   43.00
  17   3  14  451.85   36.30
  -3 -14  17  412.16   41.90
 -17  -3  14  419.16   36.90
  -3 -14  17  446.96   36.30
   5 -14  17  221.78   30.70
  17  -5  14  230.98   27.80
  17  -5  14  236.28   23.00
  14 -17   5  241.08   22.30
   5 -14  17  266.77   24.10
 -17  -5  14  260.37   25.90
  -5 -14  17  270.07   30.80
  17   5  14  284.47   30.40
  -5 -14  17  298.57   23.60
   7 -14  17  197.48   29.20
  14 -17   7  212.98   19.80
  14 -17   7  196.38   23.00
  17  -7  14  228.48   20.30
   7 -14  17  206.68   20.80
  17  -7  14  215.58   25.10
  -7 -14  17  174.88   24.30
 -17  -7  14  205.88   24.80
  -7 -14  17  241.58   20.80
   9 -14  17  211.98   28.90
  17  -9  14  184.68   24.60
  14 -17   9  230.38   19.80
  17  -9  14  204.18   20.00
   9 -14  17  245.18   20.80
  14 -17   9  193.98   23.90
  -9 -14  17  183.58   20.20
 -17  -9  14  184.28   17.80
  -9 -14  17  183.08   24.80
 -17  -9  14  186.58   22.40
  17 -11  14  319.67   27.30
  11 -14  17  323.47   28.00
  11 -14  17  345.47   35.50
  14 -17  11  358.46   27.50
  17 -11  14  314.07   31.30
  14 -17  11  331.97   31.90
 -11 -14  17  297.47   27.10
 -17 -11  14  263.37   25.80
 -11 -14  17  258.57   35.40
 -17 -11  14  291.57   33.90
  17 -13  14   91.79   12.20
  14 -17  13   66.09   17.10
  17 -13  14  122.59   15.10
  14 -17  13   90.59   12.50
  13 -14  17   78.39   12.50
  13 -14  17   95.69   19.20
 -14 -17  13   66.09   18.00
 -14 -17  13   97.09   12.90
 -13 -14  17  106.59   14.40
 -13 -14  17   89.99   20.70
 -17 -13  14   89.69   19.00
 -17 -13  14   94.79   11.20
  14 -17  15   15.40   15.80
  17 -15  14    8.50    3.80
  17 -15  14   31.60    9.80
  15 -14  17   27.30   10.20
  15 -14  17   22.50   16.30
  14 -17  15   23.00   10.40
 -17 -15  14   22.80   17.10
 -15 -14  17   14.20    8.40
 -14 -17  15   10.30   16.90
 -15 -14  17   12.20   16.50
 -17 -15  14   18.80    8.60
 -14 -17  15   17.90   10.10
  17   0  15  203.58   21.10
  17   0  15  232.38   27.60
   0 -15  17  199.48   28.90
   0 -15  17  223.28   20.90
   2 -15  17  239.28   21.80
   2 -15  17  217.28   29.30
  15 -17   2  249.48   19.60
  17  -2  15  243.38   21.80
  17  -2  15  223.38   27.50
  -2 -15  17  229.68   22.10
  17   2  15  220.68   28.50
  -2 -15  17  198.58   29.40
  17   2  15  220.38   22.00
 -17  -2  15  208.88   21.90
  15 -17   4    7.90    3.00
   4 -15  17   14.80    8.60
  17  -4  15   12.90    8.20
  15 -17   4   27.70    6.70
  17  -4  15   11.80   13.10
   4 -15  17   15.90   14.50
  -4 -15  17   13.20   15.40
 -17  -4  15   20.00   10.20
  17   4  15   16.70   14.70
  -4 -15  17   17.00    8.70
  17  -6  15   17.90   13.10
  15 -17   6   15.40    7.00
   6 -15  17   29.70   17.40
  17  -6  15   20.80    8.50
   6 -15  17   21.70    9.00
  -6 -15  17   18.80    8.70
  -6 -15  17   26.60   15.90
 -17  -6  15   21.40   11.90
  17   6  15   18.80   16.50
   8 -15  17    2.30   14.70
  17  -8  15    6.00    8.10
  15 -17   8   10.70    7.60
   8 -15  17    3.30    8.70
  17  -8  15    0.30   12.20
  15 -17   8   -0.90    2.70
  -8 -15  17   -3.40    8.50
 -17  -8  15   12.00   12.80
  -8 -15  17   -4.70   15.70
  17 -10  15   -6.10   12.60
  10 -15  17  -10.10   15.00
  17 -10  15   -7.50    8.20
  10 -15  17   -0.70    9.00
  15 -17  10    0.30    8.00
 -17 -10  15    7.60    6.30
 -10 -15  17   22.50   17.10
 -10 -15  17    6.20    8.60
 -17 -10  15   25.80   14.60
  12 -15  17    3.30    9.80
  17 -12  15    7.80    9.00
  17 -12  15   19.60   13.70
  12 -15  17   -0.30   15.40
  15 -17  12   10.50    9.30
  15 -17  12   12.50   12.90
 -15 -17  12   19.60   15.60
 -17 -12  15   16.90    7.30
 -12 -15  17   18.40   16.60
 -12 -15  17   18.80    8.80
 -17 -12  15   13.70   15.90
  15 -17  14   13.80    9.60
  14 -15  17   19.60   16.00
  17 -14  15   29.90    9.90
  14 -15  17   26.80   10.60
  15 -17  14   32.80   15.30
 -14 -15  17   17.30    9.60
 -15 -17  14   23.10    9.60
 -15 -17  14    1.40   16.80
 -17 -14  15   33.40   16.90
 -17 -14  15   17.30    8.30
 -14 -15  17   21.90   17.50
   1 -16  17   39.10    9.70
  17  -1  16   37.60    9.90
  17  -1  16   51.59   15.60
   1 -16  17   43.30   16.50
  17   1  16   73.29   10.60
  -1 -16  17   43.80   16.80
  -1 -16  17   68.39   10.20
  17   1  16   78.99   16.30
   3 -16  17  131.49   22.10
  17  -3  16  149.99   21.00
  17  -3  16  144.99   18.10
   3 -16  17  173.18   18.50
  17   3  16  181.08   18.90
 -17  -3  16  185.88   20.20
  17   3  16  189.48   22.60
  -3 -16  17  153.58   22.80
  -3 -16  17  189.28   18.80
  17  -5  16   68.49   15.90
  17  -5  16   53.59   10.70
   5 -16  17   75.99   11.10
  16 -17   5   67.49    9.30
   5 -16  17   43.00   17.70
  -5 -16  17  107.39   12.00
 -17  -5  16  111.69   14.60
  17   5  16  101.29   19.10
  -5 -16  17   65.79   18.10
  16 -17   7    8.80    7.50
   7 -16  17    3.10   16.40
   7 -16  17   11.90    9.10
  17  -7  16   13.80    8.60
  17  -7  16    2.50   13.30
 -17  -7  16   29.70   13.40
  17   7  16   31.20   17.20
  -7 -16  17   26.70    9.30
  -7 -16  17   18.60   16.60
  17  -9  16   12.30   13.40
   9 -16  17   25.50    9.60
   9 -16  17   12.30   16.30
  16 -17   9   13.20    7.90
  17  -9  16   21.10    9.00
 -17  -9  16   10.90   14.70
  -9 -16  17   20.70    9.30
  -9 -16  17   16.70   17.10
  17 -11  16   18.70   14.10
  11 -16  17   47.60   10.90
  11 -16  17   35.50   16.90
  16 -17  11   43.70    9.70
  17 -11  16   50.49   10.10
 -17 -11  16   41.80   16.90
 -16 -17  11   48.80   16.90
 -11 -16  17   56.89   10.60
 -11 -16  17   64.09   19.20
 -17 -11  16   37.30    7.90
  17 -13  16   53.39   15.40
  17 -13  16   41.20   10.60
  13 -16  17   49.60   11.50
  13 -16  17   44.50   18.00
  16 -17  13   51.49   10.80
 -13 -16  17   68.69   19.60
 -17 -13  16   58.89    9.20
 -17 -13  16   57.39   18.90
 -16 -17  13   50.89   10.70
 -16 -17  13   74.99   20.00
 -13 -16  17   54.79   10.30
   0 -17  17  385.86   33.10
   0 -17  17  338.17   39.80
  17   0  17  404.86   33.10
  17   0  17  402.66   39.00
  17  -2  17  257.97   27.90
   2 -17  17  249.88   29.80
  -2 -17  17  156.58   23.90
 -17  -2  17  143.59   19.90
  -2 -17  17  197.88   20.20
  17   2  17  206.58   20.00
  17   2  17  160.18   23.50
  17  -4  17   -1.20    9.20
  17  -4  17   -6.30   13.40
  17 -17   4    1.10    1.30
   4 -17  17    5.70    8.80
   4 -17  17    9.70   18.40
  -4 -17  17    9.20   16.70
 -17  -4  17   -4.70   10.60
  -4 -17  17   -6.80    9.00
  17   4  17    0.90   16.10
  17  -6  17   63.89   11.00
  17  -6  17   60.79   16.20
  17 -17   6   66.09    9.30
   6 -17  17   64.89   11.40
   6 -17  17   51.09   17.70
  -6 -17  17   79.99   19.10
 -17  -6  17  119.99   16.70
  -6 -17  17  100.39   11.70
  17   6  17   83.79   18.80
  17  -8  17   45.10   10.40
  17  -8  17   49.90   15.30
  17 -17   8   68.09    9.40
   8 -17  17   43.10   10.70
   8 -17  17   45.70   18.60
  -8 -17  17   65.49   19.10
 -17  -8  17   60.89   16.40
  -8 -17  17   64.79   10.90
  17 -10  17   21.60   14.60
  17 -10  17   32.30    9.90
  10 -17  17   32.50   10.40
  10 -17  17   33.70   16.90
  17 -17  10   37.90    9.20
 -10 -17  17   19.00   18.80
 -10 -17  17   47.00   11.00
 -17 -10  17   36.50   16.60
  17 -17  12  101.79   12.10
  17 -12  17  103.49   12.40
  17 -12  17   77.59   17.50
  12 -17  17   85.19   19.30
  12 -17  17   93.29   13.00
 -12 -17  17   69.89   20.80
 -12 -17  17   68.29   12.30
 -17 -12  17   59.39   19.00
 -17 -17  12   75.09   11.90
 -17 -17  12   70.19   19.60
 -17 -12  17   64.59   10.00
   0   0  18 1547.15  117.09
   0   0  18 1538.65  119.59
   2   0  18   -2.50    5.80
   2   0  18    4.40   11.50
  -2   0  18    6.30   10.80
  -2   0  18    3.00    5.60
   4   0  18  315.07   31.90
   4   0  18  335.97   26.70
  -4   0  18  312.37   26.20
  -4   0  18  332.17   30.90
   6   0  18   72.49   14.60
  -6   0  18   76.79    9.60
  -6   0  18   73.69   13.30
   6   0  18   65.59    8.90
   8   0  18  162.58   20.40
   8   0  18  170.98   17.00
  -8   0  18  175.88   15.10
  -8   0  18  152.18   21.90
  10   0  18  134.09   18.40
  10   0  18  113.39   14.00
 -10   0  18  109.29   15.50
 -10   0  18   94.99   11.00
  12   0  18   13.70   14.50
 -12   0  18    7.90   10.70
   0 -18  12   14.60    8.00
   0 -18  12    3.70   13.50
  12   0  18    1.10    7.60
   0 -18  14   19.60   16.10
  14   0  18   31.70    8.40
  14   0  18   23.20   15.00
 -14   0  18   20.90   10.90
   0 -18  14   39.10    9.00
  16   0  18   90.59   12.40
   0 -18  16   78.29   18.70
  16   0  18   86.89   19.40
   0 -18  16  102.39   12.40
 -16   0  18   92.69   13.40
   1  -1  18  605.04   56.59
  -1   1  18  595.84   53.19
  -1   1  18  583.34   56.39
   1   1  18  786.32   57.09
  -1  -1  18  792.22   53.39
  -1  -1  18  790.92   56.89
  -3   1  18  136.99   14.80
  -3   1  18  125.99   18.30
   3  -1  18  123.59   18.50
   3  -1  18  124.69   15.40
   3   1  18  204.78   22.60
  -3  -1  18  189.68   15.00
   3   1  18  195.58   15.70
  -3  -1  18  193.38   21.60
  -5   1  18   24.30   11.60
   5  -1  18   40.30   13.10
  -5   1  18   33.00    6.20
   5  -1  18   21.00    7.10
  -5  -1  18   27.40    5.80
   5   1  18   33.50   12.50
  -5  -1  18   33.00   11.70
   5   1  18   17.40    7.00
  -7   1  18   10.50   10.60
   7  -1  18    7.60    6.70
  -7   1  18   13.60    5.10
   7  -1  18   23.60   13.30
  -7  -1  18    0.90    5.10
   7   1  18    0.60    6.60
  -7  -1  18   -2.20   10.50
   7   1  18   12.00   12.00
  -9   1  18   66.89   13.00
   9  -1  18   56.69    8.90
  -9   1  18   66.79    8.90
   9  -1  18   52.29   14.80
   9   1  18   40.40   14.30
   9   1  18   62.19    9.10
  -9  -1  18   62.59   13.30
  -9  -1  18   68.19    7.40
 -11   1  18   49.70    8.60
   1 -18  11   46.60   14.90
 -11   1  18   66.39   12.30
   1 -18  11   45.70    8.80
  11  -1  18   45.90   15.00
  11  -1  18   45.70    8.60
  11   1  18   21.10   14.60
 -11  -1  18   38.80   12.30
  11   1  18   28.30    8.60
 -11  -1  18   33.00    5.90
 -13   1  18  435.36   39.10
  13  -1  18  457.05   36.80
  13  -1  18  455.65   42.60
   1 -18  13  443.76   42.50
   1 -18  13  472.75   37.10
 -13  -1  18  452.05   39.80
  -1 -18  13  453.95   44.20
  -1 -18  13  441.96   37.00
  13   1  18  445.76   36.90
  13   1  18  443.86   42.80
   1 -18  15  493.65   49.10
   1 -18  15  596.04   43.50
  15  -1  18  569.54   48.80
 -15   1  18  512.35   44.80
  15   1  18  543.75   43.60
 -15  -1  18  545.65   45.20
  -1 -18  15  535.35   43.50
  -1 -18  15  483.05   49.20
  15   1  18  524.05   49.20
  17  -1  18  122.39   16.10
   1 -18  17   89.39   12.50
  17  -1  18  101.59   18.70
   1 -18  17   68.19   19.30
  17   1  18   82.49   18.80
  17   1  18   90.49   12.90
  -1 -18  17   92.59   13.00
  -1 -18  17   62.99   19.10
   0  -2  18    3.40   10.60
   0  -2  18    2.70    5.80
   0   2  18   -3.90    5.80
   0   2  18   11.40   11.20
   2  -2  18  342.87   29.00
  -2   2  18  296.97   23.30
  -2   2  18  301.07   28.70
   2  -2  18  316.57   23.70
   2   2  18  246.28   23.50
  -2  -2  18  254.77   28.50
  -2  -2  18  244.08   23.20
   2   2  18  269.77   28.90
  -4   2  18  822.02   58.39
  -4   2  18  791.92   61.59
   4  -2  18  844.52   62.39
   4  -2  18  864.71   58.79
   4   2  18  663.13   58.59
   4   2  18  709.13   61.99
  -4  -2  18  700.03   61.49
  -4  -2  18  690.83   58.29
   6  -2  18  382.46   27.70
   6  -2  18  376.46   33.20
  -6   2  18  394.36   31.70
  -6   2  18  370.46   26.80
   6   2  18  260.77   32.80
  -6  -2  18  291.97   26.80
   6   2  18  290.87   27.60
  -6  -2  18  292.07   31.60
  -8   2  18  142.79   13.40
   8  -2  18  129.19   15.30
   8  -2  18  130.79   18.70
  -8   2  18  129.29   17.00
   8   2  18  140.59   19.40
  -8  -2  18  161.38   21.00
  -8  -2  18  148.89   13.70
   8   2  18  152.18   15.40
  10  -2  18  294.47   32.30
 -10   2  18  282.17   24.40
 -10   2  18  294.27   29.70
   2 -18  10  292.27   26.30
  10  -2  18  296.37   26.30
  10   2  18  331.67   26.30
 -10  -2  18  327.47   24.80
 -10  -2  18  327.77   30.50
  10   2  18  332.47   33.10
   2 -18  12   89.39   16.80
  12  -2  18   82.19   16.30
   2 -18  12  108.19   13.90
  12  -2  18   95.69   11.20
 -12   2  18   93.09   13.80
  12   2  18   85.99   11.20
  -2 -18  12   86.79   11.20
  12   2  18   71.09   16.10
 -12  -2  18   76.19    9.40
  -2 -18  12   77.09   17.40
 -12  -2  18   67.29   14.40
  14  -2  18   12.90   15.60
   2 -18  14   -3.50   14.10
 -14   2  18    5.90   10.00
  14  -2  18   15.70    8.40
   2 -18  14    9.00    8.30
 -14  -2  18    5.80   11.40
  -2 -18  14   16.70   15.50
  -2 -18  14   16.10    9.00
  14   2  18   17.70    8.80
  14   2  18   32.60   16.20
   2 -18  16   84.39   19.70
  16  -2  18  113.79   16.80
  16  -2  18  106.29   19.50
   2 -18  16  103.29   14.20
  -2 -18  16  144.89   22.00
  -2 -18  16  152.48   17.10
  16   2  18  162.38   17.60
  16   2  18  189.88   23.00
 -16  -2  18  148.19   19.70
  -1   3  18  125.09   14.80
   1  -3  18  127.49   15.00
  -1   3  18  142.19   18.60
   1  -3  18  129.69   18.40
   1   3  18  158.68   22.00
   1   3  18  189.28   15.10
  -1  -3  18  185.48   21.90
  -1  -3  18  186.88   15.10
  -3   3  18  441.96   34.90
   3  -3  18  422.56   35.20
   3  -3  18  428.16   39.70
  -3   3  18  438.36   39.20
   3   3  18  457.75   35.20
  -3  -3  18  458.55   39.40
   3   3  18  462.35   39.80
  -3  -3  18  439.16   34.90
  -5   3  18   71.29   13.40
   5  -3  18   49.60   13.90
   5  -3  18   66.19    8.40
  18  -5   3   58.69    7.40
  -5   3  18   59.19    7.10
   5   3  18   40.50    8.20
   5   3  18   37.10   13.60
  -5  -3  18   48.20    7.60
  -5  -3  18   47.90   12.70
   7  -3  18    1.40   11.90
  -7   3  18    7.50   10.70
  18  -7   3    5.30    4.10
   7  -3  18    5.50    6.90
  -7   3  18    7.00    5.30
   7   3  18   15.80   13.80
   7   3  18   14.60    7.40
  -7  -3  18   11.00   12.00
  -7  -3  18    8.40    5.70
  -9   3  18   76.29   14.40
  -9   3  18   78.89   10.40
   9  -3  18  100.19   13.70
   9  -3  18   96.89   16.70
  -9  -3  18  110.19   11.10
   9   3  18  106.59   17.40
  -9  -3  18  133.39   16.00
   9   3  18  110.19   13.50
   3 -18  11   77.09   15.40
 -11   3  18   76.69   14.00
   3 -18  11   50.89    9.50
  11  -3  18   58.99    9.60
  11  -3  18   89.49   16.00
  11   3  18   58.19    9.80
 -11  -3  18   69.39   14.20
 -11  -3  18   68.29    7.60
  11   3  18   62.19   16.60
   3 -18  13   42.00    8.90
  13  -3  18   47.10   14.60
 -13   3  18   28.40   11.00
  13  -3  18   31.60    9.10
   3 -18  13   37.30   15.40
  -3 -18  13   32.80    9.30
  13   3  18   21.20    9.00
  -3 -18  13   25.70   15.40
  13   3  18   37.70   16.00
 -13  -3  18   39.10   12.60
  15  -3  18   59.29   16.80
  15  -3  18   65.49   10.20
   3 -18  15   37.40   16.20
 -15   3  18   46.60   10.50
   3 -18  15   72.99   10.80
  -3 -18  15   42.00   18.40
  -3 -18  15   52.39   10.30
 -15  -3  18   57.09   13.30
  15   3  18   50.09    9.90
  15   3  18   48.80   17.50
   3 -18  17    7.60   16.00
   3 -18  17    1.80    9.00
  17  -3  18    5.40    9.10
  17  -3  18   26.10   15.80
  17   3  18    4.30    9.40
  -3 -18  17   -0.70    9.50
  17   3  18   14.20   16.50
  -3 -18  17  -15.30   16.50
 -17  -3  18   -0.50   10.30
   0  -4  18  324.97   27.00
   0   4  18  325.07   27.00
   0   4  18  348.77   32.20
   0  -4  18  331.17   32.10
  -2   4  18  829.32   58.29
  -2   4  18  853.91   61.89
   2  -4  18  808.22   58.39
   2  -4  18  830.22   61.99
  -2  -4  18  716.93   61.49
   2   4  18  694.73   58.29
  -2  -4  18  677.13   58.09
   2   4  18  650.93   61.59
  18  -4   4  380.96   30.20
  -4   4  18  359.06   35.30
  -4   4  18  378.76   30.70
   4  -4  18  397.96   31.10
   4  -4  18  406.36   36.10
  -6   4  18  230.48   17.60
   6  -4  18  261.07   19.60
  18  -6   4  229.58   17.00
  -6   4  18  230.88   24.10
   6  -4  18  221.78   25.10
   6   4  18  148.99   21.50
  -6  -4  18  159.88   21.20
  -6  -4  18  156.68   17.60
   6   4  18  167.58   18.60
   8  -4  18    7.00    7.10
   8  -4  18   10.90   12.80
  18  -8   4   13.10    4.90
  -8   4  18   19.40    5.40
  -8   4  18   13.90   11.70
  -8  -4  18   22.90    6.10
  -8  -4  18   19.20   11.70
   8   4  18    9.70    7.20
   8   4  18   20.30   12.70
  18 -10   4  294.57   23.40
 -10   4  18  289.27   29.20
  10  -4  18  272.37   31.30
   4 -18  10  284.67   25.30
  10  -4  18  274.17   25.40
   4 -18  10  263.27   30.30
  10   4  18  283.07   32.20
 -10  -4  18  310.67   29.90
  10   4  18  302.37   25.80
 -10  -4  18  310.57   23.90
  12  -4  18  237.78   23.10
   4 -18  12  228.58   29.00
 -12   4  18  249.28   26.10
   4 -18  12  238.68   23.10
  12  -4  18  238.88   29.80
  12   4  18  275.87   31.20
  12   4  18  265.77   23.30
 -12  -4  18  271.27   21.10
 -12  -4  18  270.07   28.20
  -4 -18  12  244.98   30.20
 -14   4  18  107.79   14.30
   4 -18  14   67.89   17.60
  14  -4  18   99.39   12.20
  14  -4  18  111.69   18.30
   4 -18  14   78.29   12.00
  14   4  18  110.39   15.10
  -4 -18  14  106.09   19.40
  14   4  18   94.19   19.30
 -14  -4  18  112.89   16.70
  -4 -18  14  130.29   15.70
  16  -4  18  145.79   17.70
   4 -18  16  170.58   18.00
   4 -18  16  121.99   21.40
  16  -4  18  143.69   20.90
 -16  -4  18  142.39   18.50
  -4 -18  16  113.39   22.10
  16   4  18  164.38   23.30
  -4 -18  16  156.28   18.00
  16   4  18  154.78   18.00
  -1   5  18   31.80   13.10
   1  -5  18   29.30   13.60
   1  -5  18   26.60    6.70
  -1   5  18   25.90    6.70
  -1  -5  18   22.50   12.00
   1   5  18   28.00    7.00
  -1  -5  18   28.60    6.90
   1   5  18   28.00   12.30
  -3   5  18   69.09    7.80
  -3   5  18   54.89   14.00
   3  -5  18   58.79    8.30
   3  -5  18   53.99   13.50
  18  -3   5   70.69    8.90
  -3  -5  18   40.80    7.70
   3   5  18   44.50    8.20
  -3  -5  18   56.49   13.50
   3   5  18   43.10   14.00
   5  -5  18  309.07   31.50
  -5   5  18  293.97   24.90
   5  -5  18  296.37   25.70
  18  -5   5  302.07   24.60
  -5   5  18  308.97   30.70
   5   5  18  310.07   26.00
  -5  -5  18  300.57   30.70
 -18  -5   5  324.67   26.00
   5   5  18  308.07   31.90
  -5  -5  18  305.87   25.10
  -7   5  18  687.53   54.69
   7  -5  18  702.53   55.89
   7  -5  18  756.92   52.09
  18  -7   5  639.74   50.79
   7   5  18  630.14   56.09
  -7  -5  18  626.84   54.79
  -7  -5  18  627.14   50.99
   7   5  18  623.04   51.59
   5 -18   9  463.85   36.80
   5 -18   9  473.25   40.80
  -9   5  18  493.65   40.30
   9  -5  18  485.15   36.90
   9  -5  18  478.95   41.90
  18  -9   5  466.15   35.60
   9   5  18  431.76   36.80
   9   5  18  422.16   42.30
  -9  -5  18  402.86   40.80
  -9  -5  18  431.76   35.90
 -11   5  18  130.29   16.10
  11  -5  18  137.49   19.20
  18 -11   5  129.79   12.10
  11  -5  18  142.39   15.30
   5 -18  11  121.09   15.00
   5 -18  11  112.89   17.60
 -11  -5  18  118.69   17.40
 -11  -5  18   96.89   12.50
  11   5  18   96.69   13.00
  11   5  18  123.39   19.90
 -13   5  18   26.00   10.60
   5 -18  13   16.30   14.20
  13  -5  18   10.10   14.10
   5 -18  13   13.40    8.30
  13  -5  18   13.60    8.20
  -5 -18  13   14.10   15.50
  13   5  18    3.70    8.40
  13   5  18    4.30   15.40
  -5 -18  13    4.10    8.80
 -13  -5  18   11.00    5.50
 -13  -5  18    5.50   12.90
   5 -18  15    9.40   15.10
   5 -18  15    8.20    8.80
  15  -5  18    2.20    8.70
  15  -5  18    8.20   14.60
 -15  -5  18   16.60   13.50
  -5 -18  15    5.10   16.20
  -5 -18  15   10.30    9.30
  15   5  18    6.40   16.00
  17  -5  18   34.70   15.60
   5 -18  17   26.10    9.70
   5 -18  17   20.00   17.90
  17  -5  18   18.80    9.20
 -17  -5  18   30.00   13.30
  -5 -18  17   14.20   17.60
  -5 -18  17   24.20   10.00
  17   5  18    6.00   17.20
   0  -6  18   62.79   13.30
   0   6  18   69.29   14.00
   0  -6  18   68.89    8.80
   0   6  18   73.69    8.90
  -2   6  18  368.26   27.60
   2  -6  18  376.36   28.00
   2  -6  18  359.76   33.40
  18  -2   6  365.56   27.20
  -2   6  18  360.76   33.20
   2   6  18  288.87   27.80
  -2  -6  18  288.27   27.40
   2   6  18  317.27   33.60
  -2  -6  18  307.17   32.70
  -4   6  18  202.98   24.90
  -4   6  18  220.68   18.00
   4  -6  18  205.48   25.60
   4  -6  18  235.28   18.60
  18  -4   6  235.08   17.80
  -4  -6  18  174.68   17.90
   4   6  18  172.38   18.70
   4   6  18  151.48   22.30
  -4  -6  18  156.88   24.60
   6  -6  18  203.18   26.10
   6  -6  18  170.48   19.00
  18  -6   6  184.88   17.90
  -6   6  18  164.08   21.40
   6   6  18  224.68   19.40
 -18  -6   6  239.78   20.40
  -6  -6  18  224.98   18.40
   6   6  18  232.48   27.00
  -6  -6  18  238.38   25.90
   8  -6  18   48.60    8.80
  -8   6  18   39.40   12.70
   6 -18   8   39.00   13.00
  18  -8   6   40.00    6.70
   6 -18   8   33.80    8.20
   8  -6  18   59.69   14.80
  -8  -6  18   81.69   14.30
   8   6  18   87.99   16.40
  18 -10   6   74.59    9.80
   6 -18  10   82.29   15.40
 -10   6  18   92.39   14.10
   6 -18  10   81.19   10.10
  10  -6  18   80.69   10.10
  10  -6  18   62.09   15.70
 -10  -6  18   51.99    8.30
  10   6  18   55.79   16.00
 -10  -6  18   71.79   15.30
   6 -18  12  194.68   26.70
   6 -18  12  210.18   19.70
  18 -12   6  199.68   17.60
 -12   6  18  222.08   23.10
  12  -6  18  200.88   19.70
  12  -6  18  197.88   27.40
  12   6  18  162.48   24.20
  12   6  18  176.78   19.90
 -12  -6  18  174.58   25.80
 -12  -6  18  201.28   17.70
   6 -18  14   53.89   16.20
  14  -6  18   59.49   10.00
 -14   6  18   58.19   10.90
  14  -6  18   56.49   16.20
   6 -18  14   53.39   10.00
 -14  -6  18   66.69   15.60
  14   6  18   35.00   17.40
  -6 -18  14   43.90   18.90
  -6 -18  14   51.09   10.50
 -14  -6  18   55.89    7.50
  16  -6  18   38.80   15.70
   6 -18  16   62.19   10.70
  16  -6  18   67.19   10.50
   6 -18  16   37.70   17.20
  16   6  18   35.50   17.90
  -6 -18  16   42.50   17.90
  -6 -18  16   40.00   10.80
 -16  -6  18   58.09   15.50
  -1   7  18    8.50    6.20
   1  -7  18    4.60    6.30
  -1   7  18    1.30   11.90
   1  -7  18    9.20   13.20
  18  -1   7    8.10    5.70
  -1  -7  18    8.10    6.50
   1   7  18    8.20   13.30
   1   7  18   -2.10    7.00
  -1  -7  18   -1.90   11.20
  18  -3   7    9.20    6.30
   3  -7  18   25.50   12.40
  -3   7  18    6.10   12.30
   3  -7  18    5.20    6.60
  18  -3   7    5.00    5.80
  -3  -7  18   12.80    6.10
   3   7  18   16.00    7.20
  -3  -7  18   19.00   13.50
   3   7  18   -1.00   13.10
  -5   7  18  672.63   54.79
  18  -5   7  692.43   50.59
   5  -7  18  703.43   51.19
   5  -7  18  617.64   55.09
 -18  -5   7  642.34   51.29
  -5  -7  18  670.43   54.99
   5   7  18  620.04   50.99
   5   7  18  623.64   55.49
  -5  -7  18  630.24   50.69
   7  -7  18 1246.88   94.19
  -7   7  18 1263.47   93.49
   7  -7  18 1247.68   90.79
   7 -18   7 1234.08   90.69
   7 -18   7 1235.98   93.19
  18  -7   7 1259.67   90.29
   7   7  18 1080.59   90.69
 -18  -7   7 1150.58   91.69
  -7  -7  18 1128.49   90.29
   7   7  18 1066.79   94.09
  -7  -7  18 1122.79   93.59
  -9   7  18  942.31   69.69
  18  -9   7  880.61   66.19
   7 -18   9  898.71   66.79
   9  -7  18  883.81   70.79
   9  -7  18  924.51   66.99
   7 -18   9  874.21   70.09
  -9  -7  18  830.12   66.29
   9   7  18  814.92   71.09
   9   7  18  775.62   66.89
  -9  -7  18  813.42   70.19
   7 -18  11  134.19   15.50
 -11   7  18  129.69   16.60
   7 -18  11  120.89   18.80
  11  -7  18  131.49   19.30
  11  -7  18  158.08   16.20
  18 -11   7  125.69   13.40
 -11  -7  18  115.99   18.40
 -11  -7  18  120.49   13.70
  11   7  18  107.59   20.30
  13  -7  18   11.90   14.30
 -13   7  18   -0.90    9.30
  13  -7  18   -0.10    8.10
   7 -18  13   -1.50    8.40
  18 -13   7   -2.50    6.10
   7 -18  13   13.50   14.40
  13   7  18    9.70   16.20
  -7 -18  13   -2.90   16.10
  -7 -18  13   -5.50    8.80
 -13  -7  18   11.80   13.50
 -13  -7  18   -1.40    6.10
  15  -7  18    4.10    8.80
   7 -18  15   14.10   15.60
  15  -7  18    3.50   14.90
   7 -18  15    9.50    9.00
  18 -15   7   16.10    6.80
 -15  -7  18    6.00   15.20
  -7 -18  15   18.80   17.00
  -7 -18  15   19.20    9.50
  15   7  18    9.90   17.20
   7 -18  17    9.10    9.50
  17  -7  18   11.60    9.40
  17  -7  18   12.60   15.00
  18 -17   7    5.80    5.40
   7 -18  17   11.30   19.30
 -17  -7  18   -0.10   14.00
  -7 -18  17   16.30    9.80
  17   7  18   13.50   17.70
  -7 -18  17    4.20   17.50
   0  -8  18  178.28   25.30
   0  -8  18  175.68   17.20
   0   8  18  169.48   21.60
  18   0   8  190.28   17.00
  18   0   8  176.38   19.40
  18  -2   8  141.99   14.80
   2  -8  18  148.59   19.30
  -2   8  18  150.88   19.40
  18  -2   8  128.19   16.10
   2  -8  18  120.19   15.10
   2   8  18  172.18   23.40
  -2  -8  18  163.78   14.90
  -2  -8  18  163.58   19.90
   4  -8  18   10.70   12.10
  -4   8  18    3.70   12.30
  18  -4   8    4.20    6.10
   4  -8  18   19.00    7.30
  18  -4   8   12.70    7.20
  -4  -8  18   13.10   13.30
  -4  -8  18   22.90    6.90
   4   8  18   26.20   13.80
   8 -18   6   30.60    8.10
  -6   8  18   47.50   14.00
   6  -8  18   45.20    8.80
   8 -18   6   35.90   12.00
   6  -8  18   53.79   14.50
  18  -6   8   48.80    7.50
  -6  -8  18  103.39   15.60
   6   8  18   96.39   16.70
  -8   8  18  135.29   17.10
   8  -8  18  115.79   18.00
   8 -18   8  110.79   16.90
   8 -18   8   97.09   12.30
   8  -8  18  115.49   14.80
  18  -8   8  104.49   13.10
   8   8  18  157.18   19.50
 -18  -8   8  157.08   18.20
  -8  -8  18  139.39   18.00
   8 -18  10  102.29   16.90
   8 -18  10  106.09   14.40
 -10   8  18  103.99   15.70
  18 -10   8  111.99   12.60
  10  -8  18  107.89   18.00
  10  -8  18   85.79   11.60
 -10  -8  18  111.39   12.70
 -10  -8  18  125.89   17.80
  10   8  18   93.69   18.60
 -18 -10   8  125.99   15.70
  18 -12   8  241.38   21.60
   8 -18  12  263.97   23.00
  12  -8  18  245.48   23.20
  12  -8  18  259.67   30.10
 -12   8  18  219.98   25.30
   8 -18  12  247.58   29.30
  12   8  18  212.58   32.10
 -12  -8  18  249.18   30.20
 -12  -8  18  259.87   21.60
  14  -8  18   13.10    9.30
  14  -8  18   22.50   15.20
  18 -14   8   30.30    7.40
   8 -18  14   20.70    9.10
   8 -18  14   32.00   15.20
 -14  -8  18   17.60   14.70
  14   8  18   22.30   18.00
 -14  -8  18   21.90    6.90
  -8 -18  14   43.20   18.50
  -8 -18  14   30.00    9.40
  16  -8  18   10.00   15.00
  18 -16   8    8.40    7.50
   8 -18  16   14.00    9.70
   8 -18  16   16.30   17.10
  16  -8  18   15.70    9.50
  16   8  18   13.50   18.20
  -8 -18  16   19.10   10.10
  -8 -18  16   15.40   17.20
 -16  -8  18   45.90   16.00
  18  -1   9   59.39   10.90
  18  -1   9   65.99    8.90
   1  -9  18   61.29    8.80
  -1   9  18   61.09   15.60
   1  -9  18   43.20   14.10
  -1  -9  18   53.09    8.20
  18   1   9   67.09   12.10
   1   9  18   56.59   16.10
  -1  -9  18   80.19   14.10
  -3   9  18   80.89   16.80
   9 -18   3   86.69   10.50
   3  -9  18  103.39   18.80
  18  -3   9   91.89   12.30
  18  -3   9   97.89   12.60
   3  -9  18   96.89   13.20
  -3  -9  18  124.29   18.00
  -3  -9  18  114.59   12.60
   3   9  18  108.19   17.30
   5  -9  18  473.65   37.00
   9 -18   5  474.25   36.80
  18  -5   9  467.65   37.80
  18  -5   9  479.35   36.50
   9 -18   5  447.86   39.70
  -5   9  18  506.75   41.90
   5  -9  18  461.25   42.50
   5   9  18  409.26   42.60
  -5  -9  18  435.56   36.50
  -5  -9  18  459.95   42.20
 -18  -5   9  425.46   37.30
   9 -18   7  905.91   66.09
   9 -18   7  862.71   68.89
  18  -7   9  880.61   65.69
   7  -9  18  852.51   70.19
  -7   9  18  869.01   69.29
 -18  -7   9  836.32   67.39
  -7  -9  18  841.02   65.79
   7   9  18  795.12   70.59
  -7  -9  18  826.12   69.99
  -9   9  18  616.94   52.29
   9  -9  18  609.64   49.10
   9 -18   9  610.14   48.90
  18  -9   9  587.54   48.30
   9  -9  18  624.24   53.99
   9 -18   9  583.74   52.39
  -9  -9  18  643.44   48.50
   9   9  18  572.44   54.49
  -9  -9  18  686.83   53.89
 -18  -9   9  681.93   51.69
  11  -9  18   97.89   13.00
   9 -18  11  108.29   14.70
  18 -11   9   90.89   13.20
  11  -9  18  101.39   19.00
 -11   9  18  100.19   15.60
   9 -18  11   95.69   17.30
  11   9  18  109.39   18.90
 -11  -9  18  114.49   13.20
 -18 -11   9  157.38   18.20
 -11  -9  18  124.79   18.70
   9 -18  13   19.80   14.20
  13  -9  18   22.80   14.90
  18 -13   9   18.10    7.40
  13  -9  18   15.50    8.70
   9 -18  13    7.40    8.60
  18 -13   9   -6.70    3.50
 -18 -13   9    3.50   12.80
 -13  -9  18    6.20   14.80
 -13  -9  18   18.10    6.90
  13   9  18    6.90   15.90
  -9 -18  13   -3.50   16.20
   9 -18  15    3.90   16.90
  15  -9  18    4.20    8.80
   9 -18  15    4.50    9.10
  18 -15   9   -1.20    7.60
  15  -9  18   12.70   14.80
  15   9  18   10.70   17.70
  -9 -18  15   18.30   19.00
  -9 -18  15    9.80    9.80
 -15  -9  18    8.20    6.80
 -15  -9  18   14.20   15.70
   9 -18  17    8.20   18.90
  17  -9  18   11.90   15.10
  17  -9  18   16.00    9.70
  18 -17   9    3.30    7.80
   9 -18  17   -1.70    9.80
  -9 -18  17    2.30   17.90
  -9 -18  17    9.50   10.10
 -17  -9  18   -4.00   15.80
   0  10  18   90.09   16.50
  18   0  10   97.29   14.20
   0 -10  18  100.09   18.00
  18   0  10  120.69   13.20
   0 -10  18   94.29   13.10
  18  -2  10  303.67   28.30
   2 -10  18  291.27   32.70
  10 -18   2  309.87   25.60
  18  -2  10  301.97   25.90
  -2  10  18  293.77   32.20
   2 -10  18  282.77   25.90
  18   2  10  331.77   29.80
   2  10  18  334.27   33.40
  -2 -10  18  342.07   33.00
  -2 -10  18  295.47   25.70
   4 -10  18  272.37   24.90
  10 -18   4  310.07   24.60
  10 -18   4  256.37   27.80
   4 -10  18  266.27   31.50
  -4  10  18  266.67   31.10
  18  -4  10  284.97   24.40
  18  -4  10  263.67   26.70
  -4 -10  18  318.57   24.60
   4  10  18  300.57   32.10
  -4 -10  18  318.07   32.10
   6 -10  18   85.89   10.50
  18  -6  10   84.19    9.70
  10 -18   6   81.49   13.90
   6 -10  18   59.49   16.20
  -6  10  18   81.49   15.70
  10 -18   6   75.59    9.80
  18  -6  10  121.59   14.30
 -18  -6  10   58.69   11.10
  -6 -10  18   63.39    9.90
  -6 -10  18   56.69   17.00
   6  10  18   59.69   17.20
  10 -18   8  109.49   16.60
  -8  10  18  120.19   17.60
   8 -10  18  104.99   19.40
  10 -18   8  110.39   14.70
   8 -10  18  128.59   15.30
  18  -8  10   94.29   13.70
  -8 -10  18  114.69   14.00
 -18  -8  10  131.19   15.70
 -18  -8  10  131.89   11.80
  -8 -10  18  132.19   19.40
   8  10  18   95.49   19.40
 -10  10  18  413.26   37.20
  10 -10  18  403.96   33.80
  10 -18  10  418.56   33.60
  18 -10  10  388.96   33.00
  10 -10  18  403.66   40.20
  10 -18  10  406.36   38.30
 -10 -10  18  414.76   40.30
  10  10  18  374.56   41.10
 -10 -10  18  427.36   33.10
 -18 -10  10  399.66   37.30
  18 -12  10  392.66   31.80
  10 -18  12  407.06   32.60
  12 -10  18  387.76   38.70
  12 -10  18  413.36   32.80
  10 -18  12  406.46   37.80
  12  10  18  330.07   40.10
 -18 -12  10  377.46   37.50
 -12 -10  18  380.86   39.20
 -12 -10  18  356.66   31.60
  18 -14  10   52.29    8.70
  14 -10  18   29.10   15.80
  14 -10  18   45.90   10.50
  10 -18  14   48.90   10.30
  10 -18  14   32.40   16.40
 -18 -14  10   42.50   15.60
 -10 -18  14   38.40   10.20
 -14 -10  18   44.40   17.10
 -14 -10  18   31.30    8.00
  14  10  18   28.00   19.10
 -10 -18  14   39.80   18.50
  18 -16  10   50.29    9.90
  16 -10  18   63.39   17.40
  16 -10  18   59.09   11.10
  10 -18  16   60.79   18.60
  10 -18  16   53.39   11.40
 -18 -16  10   49.80   16.90
 -10 -18  16   34.40   18.20
 -16 -10  18   72.39   10.80
 -10 -18  16   73.19   11.90
 -16 -10  18   58.59   18.40
  18  -1  11   58.49   12.10
  18  -1  11   48.10    8.20
   1 -11  18   50.79    8.50
   1 -11  18   35.30   16.50
  11 -18   1   49.60    7.60
  -1  11  18   47.00   15.00
  11 -18  -1   27.40    6.90
  -1 -11  18   17.20   14.20
   1  11  18   21.60   14.80
  18   1  11   30.00   11.60
  18   1  11   36.80    8.70
  -1 -11  18   29.20    8.20
  -3  11  18   72.99   15.90
  11 -18   3   79.79    9.20
   3 -11  18   60.29    9.10
   3 -11  18   60.69   15.40
  11 -18   3   70.19   13.00
  18  -3  11   91.89   10.20
  18  -3  11   68.49   12.70
  -3 -11  18   59.89    9.80
  -3 -11  18   56.39   15.60
   3  11  18   77.79   18.10
  18   3  11   65.49   14.70
  18  -5  11  135.49   18.00
   5 -11  18  136.99   15.20
   5 -11  18  116.29   17.70
  -5  11  18  151.68   19.20
  18  -5  11  126.59   14.10
  11 -18   5  110.99   14.00
  11 -18   5  140.49   16.30
  -5 -11  18  112.79   19.10
  -5 -11  18  107.29   14.30
   5  11  18   99.59   20.00
 -18  -5  11  105.89   15.80
  -7  11  18  145.79   19.60
  11 -18   7  142.19   15.40
  18  -7  11  178.38   17.60
   7 -11  18  133.89   20.00
  11 -18   7  132.29   17.40
  18  -7  11  132.59   14.70
   7 -11  18  117.99   15.80
   7  11  18   78.09   19.40
  -7 -11  18  119.39   14.90
  -7 -11  18  137.29   20.70
 -18  -7  11  128.99   15.80
  11 -18   9   94.49   12.00
  11 -18   9  106.39   16.80
   9 -11  18  109.49   15.20
   9 -11  18   90.89   18.90
  -9  11  18  100.79   17.60
  18  -9  11  100.09   13.80
  -9 -11  18  119.49   13.90
   9  11  18  104.49   19.60
  -9 -11  18  127.49   19.40
 -18  -9  11  111.39   11.80
 -18  -9  11  123.39   16.10
  18 -11  11   40.60    8.50
  11 -11  18   30.00   16.20
  11 -18  11   38.80   14.60
  11 -18  11   35.60    9.30
  11 -11  18   29.50   10.00
 -11 -11  18   52.19    8.40
 -18 -11  11   48.20   15.80
 -18 -11  11   47.80    7.80
  11  11  18   89.29   20.40
 -11 -11  18   60.49   17.50
  13 -11  18    5.80    9.00
  11 -18  13   19.20    9.40
  13 -11  18   10.40   15.80
  11 -18  13    4.10   14.90
  18 -13  11   21.30    8.10
 -13 -11  18   -1.30   15.40
 -11 -18  13    6.70   16.30
 -18 -13  11    3.40   14.40
 -13 -11  18    5.10    7.40
  13  11  18    2.60   16.90
  15 -11  18   48.30   17.30
  11 -18  15   42.70   10.60
  18 -15  11   58.69    9.60
  11 -18  15   55.99   18.20
  15 -11  18   56.99   11.70
 -11 -18  15   49.60   17.10
 -15 -11  18   56.09    9.00
 -15 -11  18   56.29   18.30
 -11 -18  15   50.79   11.20
 -18 -15  11   54.09   18.00
  11 -18  17  -10.20   10.20
  17 -11  18    8.40   10.00
  18 -17  11    3.80    8.70
  11 -18  17    7.20   16.60
  17 -11  18   -2.00   14.30
 -11 -18  17    3.70   10.10
 -17 -11  18    6.50   16.30
 -11 -18  17   13.60   19.30
 -18 -17  11   22.50   17.20
  18   0  12   19.50   12.10
  18   0  12    3.60    7.30
   0 -12  18   14.80   13.00
  12 -18   0   14.10    6.10
   0 -12  18    5.60    7.50
   0  12  18   -7.70   14.10
  18  -2  12  116.99   13.30
   2 -12  18  101.69   20.50
  12 -18   2   90.29   11.70
  -2  12  18   94.99   17.40
   2 -12  18   80.29   10.60
  12 -18   2   98.59   13.20
  18  -2  12   94.79   14.70
  -2 -12  18   65.69   17.40
  -2 -12  18   70.89   10.40
   2  12  18   90.49   18.10
  12 -18  -2   78.99   10.80
  18   2  12   80.19   15.10
   4 -12  18  265.77   23.20
  12 -18   4  251.67   22.60
  12 -18   4  223.08   25.90
   4 -12  18  216.28   30.70
  18  -4  12  222.38   26.40
  18  -4  12  251.27   23.00
  -4  12  18  261.17   30.60
  -4 -12  18  270.67   30.50
  12 -18  -4  288.17   21.10
   4  12  18  228.38   31.70
 -18  -4  12  283.87   23.50
  -4 -12  18  278.17   23.30
  18   4  12  239.58   29.50
   6 -12  18  224.88   28.80
  12 -18   6  195.08   19.00
  -6  12  18  213.38   27.40
   6 -12  18  214.48   19.90
  18  -6  12  183.48   22.60
  12 -18   6  190.18   23.50
  18  -6  12  214.28   19.30
  -6 -12  18  188.58   27.40
  -6 -12  18  193.78   19.40
 -18  -6  12  186.58   21.60
   6  12  18  198.08   25.60
  12 -18   8  240.58   28.00
  18  -8  12  261.27   22.80
  18  -8  12  286.27   25.00
   8 -12  18  251.07   31.60
   8 -12  18  262.07   23.70
  12 -18   8  263.27   23.20
  -8 -12  18  239.68   30.90
  -8 -12  18  246.28   23.00
 -18  -8  12  245.18   26.70
   8  12  18  227.18   32.80
  12 -18  10  402.36   36.50
  18 -10  12  385.66   31.40
  12 -18  10  427.46   31.80
  10 -12  18  379.56   39.10
  10 -12  18  403.16   32.20
 -10 -12  18  359.06   31.40
 -18 -10  12  364.76   30.40
 -10 -12  18  333.67   38.30
 -18 -10  12  360.66   35.90
  10  12  18  297.87   41.00
  18 -12  12  155.98   16.20
  12 -18  12  142.19   17.10
  12 -18  12  152.68   20.30
  12 -12  18  127.99   21.20
  12 -12  18  171.48   17.80
 -12 -12  18  108.29   21.40
 -18 -12  12  129.79   20.10
 -18 -12  12  127.79   15.20
 -12 -12  18  129.99   15.90
 -12 -18  12  125.59   22.40
  18 -14  12   17.70    8.70
  14 -12  18    4.90   15.50
  12 -18  14    8.80    9.30
  12 -18  14   16.00   15.70
  14 -12  18   22.60   10.10
 -18 -14  12   16.40    8.20
 -14 -12  18   26.50   17.00
 -14 -12  18    4.80    7.70
 -12 -18  14   13.80   18.00
 -12 -18  14    7.40    9.30
 -18 -14  12   16.40   14.90
  12 -18  16   27.20   10.40
  16 -12  18   23.60    9.80
  12 -18  16   28.90   16.90
  18 -16  12   26.50    9.40
  16 -12  18   28.20   16.40
 -16 -12  18   33.90    8.30
 -18 -16  12   19.50   17.30
 -12 -18  16   52.79   19.10
 -16 -12  18   24.10   18.20
 -18 -16  12   39.80    9.60
 -12 -18  16   35.70   10.40
   1 -13  18  442.16   37.00
  13 -18   1  441.16   36.00
   1 -13  18  438.26   43.50
  18  -1  13  492.55   41.00
  -1  13  18  516.85   44.30
  18  -1  13  455.25   37.10
  -1 -13  18  455.45   36.90
  -1 -13  18  429.66   43.50
  13 -18  -1  422.56   35.70
   1  13  18  459.95   44.00
  18   1  13  451.35   41.10
  18   1  13  485.55   37.10
   3 -13  18   29.60    8.60
  13 -18   3   48.50    7.80
  -3  13  18   37.70   15.40
  18  -3  13   39.00    9.10
  18  -3  13   34.50   13.10
   3 -13  18   30.30   15.30
  18   3  13   50.29   13.80
  -3 -13  18   49.99   15.70
  -3 -13  18   43.80    9.10
   3  13  18   32.40   16.00
  13 -18   5   13.90    6.90
   5 -13  18   10.10   14.00
  13 -18   5   31.70   10.90
   5 -13  18    9.90    8.30
  -5  13  18   14.00   14.50
  18  -5  13   16.70    7.90
  18  -5  13   13.80   11.30
  -5 -13  18   10.50   14.80
  13 -18  -5    4.20    2.20
  -5 -13  18    7.90    8.20
   5  13  18    5.10   15.80
 -18  -5  13    8.30    8.90
  18   5  13   16.30   15.20
   7 -13  18   -7.30    8.10
  18  -7  13   -2.40    7.50
  18  -7  13   14.60   11.00
  13 -18   7    0.10   11.10
   7 -13  18    8.70   15.90
  13 -18   7  -12.60    7.30
  -7 -13  18   -5.00    7.90
 -18  -7  13   -3.40   10.60
   7  13  18    1.00   17.80
  -7 -13  18    4.70   15.20
  13 -18   9   15.50    8.10
   9 -13  18   15.30   17.10
   9 -13  18   17.00    9.40
  13 -18   9   10.10   12.50
  18  -9  13   10.20    8.00
  -9 -13  18   10.90   15.50
 -18  -9  13   25.30   12.70
   9  13  18    4.60   16.00
  -9 -13  18    8.50    7.80
  13 -18  11    6.60   13.60
  13 -18  11   16.70    9.10
  11 -13  18   -5.50   15.60
  11 -13  18    6.70    9.50
  18 -11  13    8.90    8.20
 -18 -11  13   -4.30   14.00
 -11 -13  18    5.20    7.90
 -18 -11  13    5.50    6.60
 -11 -13  18    1.90   16.20
  13 -18  13  254.37   21.50
  13 -13  18  252.77   22.00
  18 -13  13  239.98   20.80
  13 -18  13  238.48   28.60
  13 -13  18  236.68   29.80
 -13 -18  13  167.78   25.90
 -18 -13  13  179.98   24.70
 -13 -13  18  180.98   20.10
 -13 -13  18  187.88   26.40
 -13 -18  13  166.28   21.70
 -18 -13  13  177.08   19.40
  15 -13  18  267.57   24.30
  13 -18  15  244.18   31.50
  18 -15  13  245.58   23.30
  15 -13  18  236.98   31.30
  13 -18  15  269.47   24.20
 -15 -13  18  222.28   28.90
 -13 -18  15  240.68   24.00
 -18 -15  13  224.38   22.40
 -13 -18  15  239.58   33.70
 -18 -15  13  251.47   32.50
 -15 -13  18  211.28   22.30
   0  14  18   19.00   16.70
  18   0  14   27.40   13.50
   0 -14  18   27.90    8.70
  18   0  14   27.10    9.10
   0 -14  18   17.70   17.70
  18  -2  14   14.20   12.90
   2 -14  18    8.10    8.10
   2 -14  18   14.20   16.10
  14 -18   2   16.80    6.30
  18  -2  14    6.80    8.30
  18   2  14   27.00   13.80
  -2 -14  18   25.40   15.90
  -2 -14  18    7.20    8.00
   2  14  18   27.70   16.70
  18   2  14   22.60    8.50
  14 -18  -2    4.00    5.40
  18  -4  14   88.69   16.20
   4 -14  18   85.39   18.10
  18  -4  14  109.89   14.40
   4 -14  18   92.49   12.00
  14 -18   4   93.69   12.80
  18   4  14  118.49   18.90
 -18  -4  14  111.59   15.00
  -4 -14  18   81.69   18.40
   4  14  18  124.09   22.20
  -4 -14  18  109.29   14.70
  18  -6  14   41.90    9.30
   6 -14  18   48.10   15.90
  14 -18   6   61.79    9.10
   6 -14  18   54.29   10.20
  18  -6  14   51.59   13.50
 -18  -6  14   53.19   12.20
  -6 -14  18   49.20    9.50
  -6 -14  18   52.99   17.00
  14 -18   8   25.00   11.40
  18  -8  14   23.90    8.50
   8 -14  18   28.50   17.50
   8 -14  18   18.40    9.20
  14 -18   8   19.90    8.10
  18  -8  14   28.80   12.30
  -8 -14  18   29.80    9.40
  -8 -14  18   20.60   16.50
 -18  -8  14   22.60   12.50
  10 -14  18   35.40   10.40
  10 -14  18   30.40   16.40
  18 -10  14   29.70    9.10
  14 -18  10   43.10    9.70
  14 -18  10   49.30   13.70
 -10 -14  18   41.10   17.70
 -18 -10  14   34.70   14.70
 -10 -14  18   47.50    9.90
  14 -18  12   18.30   14.20
  12 -14  18   13.10   10.30
  12 -14  18   13.90   16.40
  14 -18  12   17.30    9.40
  18 -12  14   23.00    9.00
  18 -12  14    4.40    3.30
 -14 -18  12   15.30   18.60
 -12 -14  18   16.50   17.10
 -18 -12  14    9.90    7.10
 -18 -12  14    5.70   15.10
 -12 -14  18   12.60    8.20
  18 -14  14   17.20    9.40
  14 -18  14   23.00   10.70
  14 -14  18   18.70   16.90
  14 -14  18   22.40   10.40
  14 -18  14   17.00   15.30
 -14 -18  14   35.90   20.30
 -14 -18  14   34.50   10.10
 -14 -14  18   19.70   18.30
 -18 -14  14   38.80    8.60
 -14 -14  18   40.90    9.40
 -18 -14  14   45.70   17.40
   1 -15  18  559.84   43.70
  18  -1  15  589.64   44.00
   1 -15  18  527.75   50.39
  18  -1  15  534.15   48.00
  -1 -15  18  485.15   49.40
  18   1  15  526.05   43.70
  -1 -15  18  539.85   43.70
  18   1  15  560.74   48.40
  15 -18   3   69.59    8.60
  18  -3  15   64.99   10.40
   3 -15  18   66.89   10.50
  18  -3  15   75.59   15.40
   3 -15  18   47.90   19.70
  -3 -15  18   53.89   10.30
  18   3  15   62.59   16.40
  -3 -15  18   41.90   16.90
  18  -5  15    4.00    8.80
  15 -18   5    5.00    6.90
   5 -15  18   17.10   15.10
  18  -5  15   -7.60   12.40
   5 -15  18    6.30    8.30
  18   5  15    3.50   15.00
  -5 -15  18   -8.90    8.20
  -5 -15  18    9.40   16.00
 -18  -5  15    1.40    9.70
   7 -15  18    7.60   15.90
  18  -7  15   15.50    8.30
  15 -18   7    3.20    3.10
  18  -7  15   15.20   12.90
   7 -15  18    7.50    8.90
  15 -18   7   10.50    7.80
  -7 -15  18    8.20    8.60
  -7 -15  18   20.90   16.70
 -18  -7  15   26.20   12.30
  15 -18   9   -2.90    2.70
  15 -18   9    6.30    8.40
  18  -9  15   16.40   12.90
   9 -15  18   -4.40   17.20
  18  -9  15    9.60    8.70
   9 -15  18    3.40    9.30
  -9 -15  18   -2.40   16.30
  -9 -15  18   11.30    8.60
 -18  -9  15    4.20   13.70
  18 -11  15   49.90   10.50
  11 -15  18   61.19   18.30
  15 -18  11   55.19   10.50
  11 -15  18   58.69   11.70
 -11 -15  18   62.79   19.40
 -11 -15  18   75.89   11.50
 -18 -11  15   56.29   17.20
 -15 -18  11   77.99   20.60
  15 -18  13  258.47   23.70
  15 -18  13  242.18   29.00
  13 -15  18  254.17   32.10
  13 -15  18  263.77   24.20
  18 -13  15  260.77   23.30
 -15 -18  13  212.88   29.60
 -15 -18  13  228.68   23.50
 -18 -13  15  215.58   21.40
 -13 -15  18  217.48   22.70
 -13 -15  18  215.68   28.70
 -18 -13  15  238.68   31.10
   0 -16  18   66.49   18.60
  18   0  16  100.09   19.00
  18   0  16   88.99   12.50
   0 -16  18  112.39   15.20
   2 -16  18  110.59   22.60
  18  -2  16  120.89   17.10
   2 -16  18  100.89   14.60
  18  -2  16  135.99   19.20
  18   2  16  165.08   21.80
  18   2  16  164.08   17.60
  -2 -16  18  149.49   21.90
  -2 -16  18  160.78   17.30
  18  -4  16  160.88   17.00
   4 -16  18  141.39   17.40
  18  -4  16  141.19   20.00
   4 -16  18  102.39   21.90
  -4 -16  18  140.09   17.50
 -18  -4  16  153.48   19.80
  -4 -16  18  113.39   21.50
  18   4  16  139.99   21.10
  18  -6  16   41.20   14.90
  18  -6  16   59.99   10.30
  16 -18   6   72.69    9.20
   6 -16  18   66.39   11.10
   6 -16  18   48.80   17.40
  18   6  16   43.40   17.90
  -6 -16  18   37.40   10.30
 -18  -6  16   58.39   13.30
  -6 -16  18   51.09   18.10
  18  -8  16    9.50    8.90
   8 -16  18   20.30   16.20
   8 -16  18   30.20    9.90
  16 -18   8   19.90    8.20
  18  -8  16    7.10   13.70
  16 -18   8    2.30    3.30
  -8 -16  18   11.20   17.30
 -18  -8  16   23.30   13.80
  -8 -16  18   12.60    9.70
  18 -10  16   60.79   10.70
  10 -16  18   69.59   20.90
  18 -10  16   39.60   14.40
  10 -16  18   58.29   11.40
  16 -18  10   52.39   10.20
 -18 -10  16   58.69   17.20
 -10 -16  18   72.19   20.10
 -10 -16  18   52.29   10.60
  18 -12  16   27.00    9.50
  12 -16  18   29.30   17.30
  16 -18  12   35.50    9.80
  12 -16  18   33.60   11.00
  18 -12  16    3.50    7.50
 -16 -18  12    5.30   15.50
 -12 -16  18   21.00    9.60
 -12 -16  18   34.10   19.70
 -18 -12  16   31.60   16.60
   1 -17  18   91.59   12.20
  18  -1  17   84.49   17.80
   1 -17  18   85.69   19.50
  18  -1  17  105.89   12.80
  18   1  17   72.49   11.90
  18   1  17   89.59   18.70
  -1 -17  18   76.29   19.40
  -1 -17  18   93.69   12.60
  17 -18   3   -1.90    1.30
   3 -17  18    3.00    8.70
  18  -3  17    7.40    9.00
   3 -17  18   -6.00   14.70
  18  -3  17    4.50   15.00
  -3 -17  18    1.10    9.70
  -3 -17  18   -3.40   16.60
  18   3  17   -9.60   15.10
  18  -5  17   14.00   14.40
   5 -17  18   27.60    9.80
  18  -5  17   24.80   10.30
   5 -17  18   24.10   20.20
  -5 -17  18   20.20   17.80
  18   5  17   18.40   17.20
 -18  -5  17   41.30   11.50
  -5 -17  18   35.50   10.80
  18  -7  17    9.20    9.40
  18  -7  17   24.20   14.30
   7 -17  18    7.30   16.60
  17 -18   7   16.60    7.90
   7 -17  18   24.30    9.80
 -18  -7  17   13.20   12.90
  -7 -17  18    6.20   10.40
  -7 -17  18   13.70   17.70
   9 -17  18    4.10   16.20
  17 -18   9   12.50    8.40
   9 -17  18   20.20   10.20
  18  -9  17    7.50   14.40
  18  -9  17   15.60    9.60
  -9 -17  18    3.10   10.40
 -18  -9  17    1.50   14.70
  -9 -17  18  -18.50   18.10
  17 -18  11   -3.40    4.80
  18 -11  17   -4.50    9.50
  18 -11  17   13.20   14.10
  17 -18  11    5.30    8.70
  11 -17  18    4.00   16.70
  11 -17  18    2.40    9.90
 -17 -18  11   15.20   16.90
 -11 -17  18    5.90    9.20
 -11 -17  18    1.20   18.10
 -18 -11  17    4.80   16.30
   0 -18  18   18.70    9.90
   0 -18  18    4.00   17.10
  18   0  18   16.00   10.40
  18   0  18   16.80   15.70
  18  -2  18  245.58   25.30
  18  -2  18  208.48   31.50
   2 -18  18  222.38   25.10
  -2 -18  18  316.97   25.40
  -2 -18  18  256.67   34.80
  18   2  18  278.47   25.30
  18   2  18  299.27   33.70
  18  -4  18  216.18   30.30
  18  -4  18  247.48   23.80
   4 -18  18  248.28   24.00
   4 -18  18  189.08   28.70
  -4 -18  18  245.58   34.30
  -4 -18  18  280.57   24.40
  18   4  18  224.48   32.90
  18  -6  18   57.79   11.50
  18  -6  18   54.59   16.40
   6 -18  18   59.99   11.50
   6 -18  18   63.39   19.60
  -6 -18  18   38.90   19.80
 -18  -6  18   66.39   15.20
  -6 -18  18   68.69   11.60
  18   6  18   36.00   19.10
  18  -8  18   15.50   15.20
  18  -8  18    4.40    9.70
   8 -18  18   28.90   16.90
   8 -18  18    8.60   10.10
  -8 -18  18   -6.00   18.50
  -8 -18  18   11.80   10.40
 -18  -8  18    6.60   14.30
  18 -10  18   57.69   16.30
  18 -10  18   46.70   11.50
  18 -18  10   55.29   10.20
  10 -18  18   42.10   19.80
  10 -18  18   45.70   11.70
 -10 -18  18   64.39   21.30
 -10 -18  18   90.39   12.50
 -18 -10  18   77.69   18.30
 -18 -18  10   68.79   17.80
   1   0  19  172.58   24.00
  -1   0  19  184.78   16.80
  -1   0  19  171.48   23.80
   1   0  19  182.88   17.10
   3   0  19  748.53   58.29
  -3   0  19  752.92   58.09
   3   0  19  771.82   62.09
  -3   0  19  748.83   61.69
  -5   0  19   73.59    8.30
   5   0  19   60.59    9.10
   5   0  19   45.40   14.20
  -5   0  19   58.49   13.40
   7   0  19   34.10   14.10
  -7   0  19   49.40   12.70
  -7   0  19   32.40    6.30
   7   0  19   49.90    8.40
   9   0  19   36.40   15.60
  -9   0  19   43.20    6.40
  -9   0  19   36.40   12.70
   9   0  19   30.20    8.10
  11   0  19  301.87   33.20
   0 -19  11  290.37   25.80
 -11   0  19  295.67   29.90
   0 -19  11  266.87   32.10
 -11   0  19  295.07   23.50
  11   0  19  286.67   25.40
 -13   0  19  123.69   17.10
   0 -19  13  155.18   16.60
  13   0  19  112.29   19.60
   0 -19  13  107.69   20.20
  15   0  19   54.69   17.90
   0 -19  15   60.39   10.70
  15   0  19   53.79   10.70
 -15   0  19   52.99   12.70
   0 -19  15   48.30   17.20
  17   0  19  273.47   26.00
   0 -19  17  278.57   26.00
  17   0  19  249.78   33.60
   0 -19  17  262.07   35.10
   0  -1  19  172.18   16.40
   0   1  19  181.68   23.60
   0   1  19  163.18   16.40
   0  -1  19  201.88   23.70
   2  -1  19  406.46   35.60
   2  -1  19  417.26   30.10
  -2   1  19  405.46   35.00
  -2   1  19  409.46   29.70
   2   1  19  329.27   29.80
  -2  -1  19  355.36   34.90
  -2  -1  19  310.87   29.60
   2   1  19  324.97   34.90
   4  -1  19   36.10    7.20
  -4   1  19   23.20    6.10
  -4   1  19   22.00   12.30
   4  -1  19   26.80   12.90
   4   1  19   16.00   12.50
  -4  -1  19   19.50    6.10
  -4  -1  19   13.20   12.00
   4   1  19   20.80    7.00
  -6   1  19  267.37   21.70
  -6   1  19  278.47   27.80
   6  -1  19  265.27   22.60
   6  -1  19  287.07   29.60
   6   1  19  247.28   22.70
  -6  -1  19  246.68   21.70
  -6  -1  19  239.08   27.70
   6   1  19  253.77   29.20
  -8   1  19  192.58   23.80
   8  -1  19  195.28   26.20
  -8   1  19  201.38   16.80
   8  -1  19  197.68   18.50
   8   1  19  178.28   26.10
   8   1  19  191.78   18.60
  -8  -1  19  170.58   16.70
  -8  -1  19  188.38   23.90
 -10   1  19   30.50    5.90
 -10   1  19   46.70   12.50
  10  -1  19   35.80   14.20
  10  -1  19   28.50   13.70
 -10  -1  19   29.80    6.00
 -10  -1  19   20.80   12.30
  10   1  19   32.90    8.40
  10   1  19   38.30   15.00
 -12   1  19   81.09   14.60
  12  -1  19   72.69   17.30
  12  -1  19   71.29   10.60
   1 -19  12   73.79   10.90
   1 -19  12   79.99   17.70
  12   1  19   92.29   18.00
  12   1  19   85.29   11.20
  -1 -19  12   74.99   17.80
  -1 -19  12   92.69   11.20
 -12  -1  19   88.89   15.30
  14  -1  19   89.19   18.90
 -14   1  19  105.09   15.90
   1 -19  14  104.89   20.70
  14  -1  19  119.99   15.60
   1 -19  14  126.89   16.20
  -1 -19  14  130.39   16.50
  14   1  19  100.29   13.30
  14   1  19   99.29   19.70
  -1 -19  14  124.89   25.70
 -14  -1  19  117.89   16.20
  16  -1  19   66.99   18.30
  16  -1  19   73.39   11.60
   1 -19  16   47.90   18.40
   1 -19  16   77.79   11.60
  -1 -19  16   71.99   11.60
  16   1  19   54.99   18.50
 -16  -1  19   84.69   13.10
  -1 -19  16   52.79   19.00
  16   1  19   67.19   11.70
   1 -19  18   42.30   18.70
   1 -19  18   56.39   10.70
  18  -1  19   53.49   11.20
  18  -1  19   42.40   17.10
  -1 -19  18   26.70   10.90
  18   1  19   27.70   11.50
  -1 -19  18   25.60   19.10
  18   1  19   21.20   17.10
  -1   2  19  409.06   35.10
   1  -2  19  420.56   30.10
  -1   2  19  402.86   29.90
   1  -2  19  412.46   35.60
   1   2  19  335.07   35.10
  -1  -2  19  336.57   29.80
   1   2  19  326.67   29.80
  -1  -2  19  304.67   34.60
   3  -2  19  226.18   21.70
  -3   2  19  228.88   27.10
   3  -2  19  254.67   28.20
  -3   2  19  239.38   21.10
  -3  -2  19  268.77   21.20
   3   2  19  233.58   27.90
   3   2  19  263.37   21.80
  -3  -2  19  251.57   27.30
  -5   2  19   25.00   12.10
   5  -2  19   29.70    7.30
   5  -2  19   27.20   13.10
  -5   2  19   29.20    6.70
  -5  -2  19   31.90   12.40
   5   2  19   29.30    7.40
   5   2  19   27.90   11.90
  -5  -2  19   31.70    6.40
  -7   2  19  164.48   23.30
   7  -2  19  195.68   25.80
  -7   2  19  166.58   16.40
   7  -2  19  168.48   17.90
   7   2  19  217.48   26.10
  -7  -2  19  184.38   23.70
   7   2  19  215.98   18.00
  -7  -2  19  181.78   16.60
  -9   2  19   35.50    6.30
   9  -2  19   26.10    8.40
   9  -2  19   16.90   14.40
  -9   2  19   52.79   12.70
   9   2  19   46.50   14.50
  -9  -2  19   42.90    6.60
   9   2  19   32.20    8.20
  -9  -2  19   41.90   13.10
  11  -2  19  161.38   17.30
   2 -19  11  135.09   17.20
   2 -19  11  120.39   20.50
 -11   2  19  159.28   21.70
  11  -2  19  156.88   21.00
  11   2  19  156.18   21.00
 -11  -2  19  182.78   23.20
 -11  -2  19  157.78   14.40
  11   2  19  174.38   17.30
   2 -19  13  120.59   21.10
 -13   2  19  121.19   17.50
   2 -19  13  160.28   17.20
  13  -2  19  139.09   17.00
  13  -2  19  138.59   21.10
  -2 -19  13  124.19   21.50
  -2 -19  13  171.68   17.60
 -13  -2  19  159.68   18.90
  13   2  19  143.59   21.30
  13   2  19  128.89   17.40
 -15   2  19   23.10   10.10
   2 -19  15   30.50   16.90
   2 -19  15   29.70    9.30
  15  -2  19   36.30   16.00
  15  -2  19   18.00    8.80
  -2 -19  15    1.80   18.00
  15   2  19  -10.40   15.80
 -15  -2  19   -3.40   11.60
  15   2  19   12.20    9.00
  -2 -19  15   11.10    9.40
  17  -2  19   83.89   11.80
  17  -2  19   68.59   18.20
   2 -19  17   75.19   11.50
   2 -19  17   60.29   18.70
  17   2  19   67.69   19.20
  17   2  19   47.60   10.70
  -2 -19  17   33.40   19.30
  -2 -19  17   45.40   11.40
   0  -3  19  723.43   57.79
   0  -3  19  771.92   61.69
   0   3  19  752.12   61.49
   0   3  19  755.62   57.79
   2  -3  19  261.37   28.40
  -2   3  19  245.88   28.20
   2  -3  19  237.78   22.40
  -2   3  19  265.67   22.10
  -2  -3  19  283.87   28.30
   2   3  19  257.67   22.50
  -2  -3  19  267.67   22.00
   2   3  19  262.57   28.80
   4  -3  19  106.99   13.30
  -4   3  19  108.09   15.70
   4  -3  19  113.89   17.00
  -4   3  19  115.59   12.10
  -4  -3  19  107.99   16.20
  -4  -3  19   99.59   12.10
   4   3  19   88.89   16.40
   4   3  19   98.49   12.90
  -6   3  19  386.66   33.80
  -6   3  19  393.96   28.30
   6  -3  19  355.36   29.20
   6  -3  19  372.86   35.20
   6   3  19  313.07   29.00
   6   3  19  325.37   35.40
  -6  -3  19  326.07   33.80
  -6  -3  19  327.87   28.20
  -8   3  19  443.66   39.20
   8  -3  19  500.35   41.30
  -8   3  19  484.65   34.40
   8  -3  19  486.25   35.70
   8   3  19  387.46   35.40
  -8  -3  19  407.76   39.80
   8   3  19  373.76   41.10
  -8  -3  19  401.06   34.50
   3 -19  10  170.88   21.60
  10  -3  19  172.58   21.60
 -10   3  19  178.48   23.10
   3 -19  10  181.88   17.70
  10  -3  19  161.38   17.60
 -10  -3  19  166.38   23.70
  10   3  19  174.18   18.80
  10   3  19  150.98   22.50
 -10  -3  19  151.28   15.30
  12  -3  19  103.39   12.90
   3 -19  12  111.49   15.70
   3 -19  12  105.09   19.10
 -12   3  19  118.79   16.50
  12  -3  19   92.49   17.90
  -3 -19  12  103.29   19.70
 -12  -3  19  145.39   18.10
  12   3  19  142.09   17.10
  12   3  19  140.59   20.60
  -3 -19  12  141.89   16.40
 -12  -3  19  130.29   12.20
   3 -19  14  289.77   34.30
 -14   3  19  280.97   28.50
  14  -3  19  315.57   26.50
   3 -19  14  286.67   26.50
  14  -3  19  281.77   34.10
  -3 -19  14  263.17   35.10
  14   3  19  290.67   26.80
 -14  -3  19  305.87   32.40
  14   3  19  268.37   34.50
  -3 -19  14  324.67   27.00
  16  -3  19  196.18   24.20
   3 -19  16  191.68   20.50
   3 -19  16  151.68   23.90
  16  -3  19  209.68   20.20
  -3 -19  16  134.89   24.10
  16   3  19  191.38   20.40
  -3 -19  16  189.98   20.50
 -16  -3  19  193.78   24.90
  16   3  19  161.58   24.50
   3 -19  18   49.50   22.70
  18  -3  19   19.60   17.00
   3 -19  18   51.69   11.10
  18  -3  19   46.30   11.00
  -3 -19  18   20.40   10.80
  18   3  19   28.50   18.10
  -3 -19  18    3.70   18.80
   1  -4  19   30.50   12.90
  -1   4  19   44.80   12.70
  -1   4  19   35.80    7.60
   1  -4  19   30.60    7.10
   1   4  19   11.40    7.40
  -1  -4  19   13.00   11.90
  -1  -4  19   14.50    6.10
   1   4  19   18.90   13.00
   3  -4  19  101.39   16.40
  -3   4  19  117.09   12.50
   3  -4  19  115.19   13.10
  -3   4  19  115.79   16.20
  -3  -4  19   94.59   12.30
  -3  -4  19  105.89   16.80
   3   4  19   96.89   13.00
   3   4  19  102.69   16.70
  19  -5   4  365.56   28.40
   5  -4  19  402.36   35.70
  -5   4  19  396.16   34.50
   5  -4  19  369.76   29.80
  -5   4  19  389.26   29.10
   5   4  19  336.67   29.80
  -5  -4  19  315.97   29.00
   5   4  19  352.36   35.60
  -5  -4  19  333.47   34.60
  19  -7   4  527.55   39.20
   7  -4  19  483.05   45.70
  -7   4  19  491.85   39.50
  -7   4  19  514.35   44.40
   7  -4  19  497.65   40.40
   7   4  19  505.45   45.90
  -7  -4  19  513.35   44.60
  -7  -4  19  506.25   39.70
   7   4  19  509.35   40.50
  -9   4  19  318.17   31.90
   9  -4  19  322.67   27.60
   9  -4  19  321.57   34.10
   4 -19   9  297.07   32.30
   4 -19   9  290.57   27.30
  -9  -4  19  345.27   32.70
   9   4  19  337.37   35.20
  -9  -4  19  342.17   26.30
   4 -19  11  113.29   14.70
 -11   4  19   99.99   15.20
  11  -4  19   95.79   18.00
  11  -4  19   89.89   11.80
   4 -19  11  102.79   17.90
 -11  -4  19  112.99   17.00
  11   4  19   92.29   18.80
 -11  -4  19   97.99   11.50
  11   4  19   86.79   11.90
   4 -19  13   41.90    9.60
  13  -4  19   50.09   16.80
   4 -19  13   56.39   16.00
 -13   4  19   46.70   12.40
  13  -4  19   49.90   10.10
  13   4  19   27.10   16.00
  -4 -19  13   39.70    9.80
 -13  -4  19   62.59    9.90
 -13  -4  19   60.19   14.80
  -4 -19  13   43.60   15.70
  13   4  19   45.80    9.80
  15  -4  19    9.00   16.30
  15  -4  19    3.00    9.10
   4 -19  15   24.50    9.70
   4 -19  15   -0.90   15.60
  15   4  19   13.00   10.30
  15   4  19   20.30   16.90
  -4 -19  15   14.00    9.80
  -4 -19  15   27.40   17.90
 -15  -4  19   12.00   13.30
  17  -4  19   15.70   10.30
  17  -4  19   28.40   16.20
   4 -19  17   17.20    9.70
   4 -19  17   10.40   17.00
  -4 -19  17   23.50   18.50
  17   4  19   38.10   18.30
 -17  -4  19   21.40   12.30
  -4 -19  17   16.60   10.50
   0   5  19   77.49   15.10
   0  -5  19   60.49   13.60
   0   5  19   61.79    8.80
   0  -5  19   61.79    8.60
   2  -5  19   25.20    7.10
   2  -5  19   18.80   13.10
  -2   5  19   35.10    7.00
  -2   5  19   34.40   13.40
  -2  -5  19   27.50    7.10
   2   5  19   32.30   13.20
  -2  -5  19   46.90   14.20
   2   5  19   28.10    7.60
   4  -5  19  411.66   30.20
   4  -5  19  375.66   36.10
  19  -4   5  376.46   29.20
  -4   5  19  379.86   35.70
  -4   5  19  403.16   29.80
  -4  -5  19  362.66   35.50
  -4  -5  19  332.07   29.70
   4   5  19  297.57   36.10
   4   5  19  339.07   30.40
  19  -6   5  314.47   23.30
   6  -5  19  336.47   24.80
  -6   5  19  319.27   23.60
  -6   5  19  326.37   30.30
   6  -5  19  348.37   31.60
 -19  -6   5  225.28   25.00
  -6  -5  19  232.68   23.70
   6   5  19  202.28   31.30
  -6  -5  19  230.08   30.00
  19  -8   5  593.14   44.90
   5 -19   8  609.34   46.00
   8  -5  19  606.94   46.10
   8  -5  19  639.14   51.29
  -8   5  19  628.94   49.70
  -8  -5  19  540.75   45.20
  -8  -5  19  567.44   50.19
   8   5  19  525.85   51.09
   8   5  19  532.45   46.20
  10  -5  19  544.25   48.80
   5 -19  10  501.65   47.90
  10  -5  19  535.35   43.50
   5 -19  10  511.15   43.50
 -10   5  19  525.65   46.60
  10   5  19  537.55   49.40
 -10  -5  19  583.44   42.60
  10   5  19  566.44   43.70
 -10  -5  19  574.14   47.70
   5 -19  12   26.70    8.80
  12  -5  19   32.80   15.90
  12  -5  19   37.30    9.10
   5 -19  12   23.70   14.60
 -12   5  19   22.20   11.90
 -12  -5  19   24.00   14.20
 -12  -5  19   30.40    6.60
  12   5  19   36.60   10.00
  12   5  19   36.80   17.00
   5 -19  14   13.60   15.50
   5 -19  14   36.90    9.80
 -14   5  19   33.70   10.60
  14  -5  19   30.40    9.40
  14  -5  19   16.70   15.90
 -14  -5  19   15.80   14.20
  14   5  19    9.20   17.00
  -5 -19  14    6.60   16.30
  14   5  19   24.60   10.00
  -5 -19  14   15.10    9.90
   5 -19  16   -9.50   15.70
  16  -5  19   11.60    9.60
  16  -5  19    8.00   16.20
   5 -19  16   19.60    9.70
 -16  -5  19   15.80   14.00
  -5 -19  16   21.30   18.00
  16   5  19    7.00   17.60
  -5 -19  16    4.80    9.70
  18  -5  19    5.40   10.10
  18  -5  19    7.20   15.90
   5 -19  18    8.40   15.90
   5 -19  18   -3.40    9.90
  -5 -19  18    8.80   18.70
  18   5  19    3.80   18.30
  -5 -19  18   -3.40   10.80
   1  -6  19  271.07   22.90
  -1   6  19  267.67   29.60
  -1   6  19  276.07   22.80
   1  -6  19  275.27   30.10
   1   6  19  224.38   30.10
   1   6  19  235.98   22.90
  -1  -6  19  264.17   22.90
  -1  -6  19  358.46   36.60
   3  -6  19  415.96   29.40
  -3   6  19  390.46   35.10
   3  -6  19  361.86   35.60
  -3   6  19  402.16   29.00
  19  -3   6  378.46   28.50
  -3  -6  19  309.87   29.00
  -3  -6  19  314.17   34.90
   3   6  19  289.27   29.30
   3   6  19  304.97   35.30
   5  -6  19  338.97   31.70
   5  -6  19  326.37   24.30
  19  -5   6  322.37   23.10
  -5   6  19  312.67   30.20
  -5  -6  19  237.78   23.50
   5   6  19  190.88   31.10
  -5  -6  19  224.48   30.00
   5   6  19  243.68   24.30
   7  -6  19  100.49   13.70
   7  -6  19   97.99   17.60
  -7   6  19  107.69   16.20
  19  -7   6  107.99   11.50
   6 -19   7  107.49   13.60
 -19  -7   6  100.99   12.80
   7   6  19   64.79   17.20
  -7  -6  19   96.99   16.60
  -7  -6  19   92.69   12.30
   7   6  19  104.89   14.00
   9  -6  19  323.47   28.80
  -9   6  19  342.27   33.20
   6 -19   9  323.57   28.70
   6 -19   9  301.37   33.60
   9  -6  19  349.27   35.20
  19  -9   6  314.37   27.20
   9   6  19  352.16   28.90
  -9  -6  19  372.56   27.80
  -9  -6  19  366.56   34.60
   9   6  19  335.07   36.40
   6 -19  11  383.66   39.30
   6 -19  11  406.26   34.40
  19 -11   6  468.35   33.00
  11  -6  19  401.46   34.60
 -11   6  19  383.26   37.80
  11  -6  19  383.56   40.80
 -11  -6  19  436.56   40.00
  11   6  19  424.96   34.90
  11   6  19  412.86   41.60
 -11  -6  19  420.96   33.40
  13  -6  19  225.18   30.70
   6 -19  13  220.98   29.90
   6 -19  13  213.08   23.00
  13  -6  19  225.68   23.10
 -13   6  19  213.58   25.30
 -13  -6  19  275.07   29.60
  -6 -19  13  234.28   32.20
  -6 -19  13  285.47   23.90
  13   6  19  260.07   32.40
 -13  -6  19  258.57   20.90
  15  -6  19   62.19   17.80
   6 -19  15   61.39   18.30
   6 -19  15   74.19   11.70
  15  -6  19   79.99   12.20
  15   6  19   94.79   21.30
  -6 -19  15  104.19   12.80
 -15  -6  19  106.79   18.10
  -6 -19  15   63.59   19.40
  17  -6  19   93.89   13.40
  17  -6  19   95.69   19.50
   6 -19  17   95.99   22.60
   6 -19  17   82.49   13.20
  -6 -19  17  135.09   17.40
  17   6  19  101.69   21.30
 -17  -6  19  140.39   18.70
  -6 -19  17  106.39   22.10
   0  -7  19   23.60    7.10
   0   7  19   28.30    8.00
   0   7  19   29.00   13.50
   0  -7  19   17.60   13.90
  -2   7  19  200.58   25.30
   2  -7  19  150.58   17.90
  19  -2   7  177.18   17.00
   2  -7  19  158.28   21.20
   2   7  19  213.28   17.90
  -2  -7  19  206.18   25.80
   2   7  19  188.58   22.20
  -2  -7  19  190.78   17.60
  19  -4   7  519.15   39.80
   4  -7  19  632.84   49.90
  -4   7  19  495.15   45.00
   4  -7  19  506.85   40.40
  -4  -7  19  507.35   45.40
  -4  -7  19  503.85   40.00
   4   7  19  451.45   40.40
   4   7  19  504.35   46.00
  19  -6   7  115.29   12.00
  -6   7  19   98.39   16.90
   6  -7  19  106.19   18.00
   7 -19   6  100.39   13.40
   6  -7  19   86.69   11.40
 -19  -6   7   99.59   11.90
   6   7  19   71.79   17.20
  -6  -7  19  103.89   12.50
   6   7  19  106.59   14.20
  -6  -7  19   89.89   16.70
   7 -19   8   98.59   14.60
   8  -7  19  104.49   18.50
  -8   7  19  120.39   16.90
   7 -19   8   92.09   16.70
   8  -7  19  117.39   14.80
  19  -8   7   97.59   12.50
   8   7  19  109.79   20.10
  -8  -7  19  117.29   17.90
  -8  -7  19  134.19   13.30
 -19  -8   7  132.29   17.40
   8   7  19  125.59   15.40
 -10   7  19  342.57   33.30
   7 -19  10  326.07   28.80
  19 -10   7  310.97   27.50
   7 -19  10  313.17   34.10
  10  -7  19  333.37   29.20
  10  -7  19  312.37   35.60
 -10  -7  19  405.96   35.10
  10   7  19  389.26   37.60
 -10  -7  19  357.86   27.90
   7 -19  12   75.29   17.10
  12  -7  19   83.09   17.90
   7 -19  12   78.49   11.50
 -12   7  19   88.69   14.50
  12  -7  19   94.79   11.80
  19 -12   7   80.79   11.20
  12   7  19   83.69   20.20
 -12  -7  19   86.79    9.90
 -12  -7  19   72.49   17.30
   7 -19  14   13.30   15.80
 -14   7  19   12.80   11.10
  14  -7  19    2.20    8.90
  14  -7  19   15.10   15.50
   7 -19  14    4.90    9.30
 -14  -7  19    3.00    6.10
  -7 -19  14   -1.40    9.70
 -14  -7  19   14.10   15.10
  -7 -19  14    2.20   16.90
  14   7  19    9.90   17.80
  16  -7  19   16.10    9.90
   7 -19  16   20.20   16.90
   7 -19  16   15.40    9.30
  16  -7  19   23.50   16.10
  -7 -19  16   20.20   10.70
  16   7  19   16.90   18.20
 -16  -7  19   14.90   15.80
  -7 -19  16   11.60   19.10
  18  -7  19   38.30   10.60
  18  -7  19   34.90   16.40
   7 -19  18   36.30   11.10
   7 -19  18   39.90   21.30
 -18  -7  19   44.40   15.10
  18   7  19   39.70   19.60
  -7 -19  18   46.00   11.90
  -7 -19  18   50.09   20.50
   1  -8  19  192.98   26.20
  19  -1   8  194.48   17.50
  -1   8  19  205.28   26.00
   1  -8  19  207.28   18.00
   1   8  19  165.08   22.10
  -1  -8  19  144.39   21.10
  -1  -8  19  176.78   17.80
  19  -3   8  491.95   35.90
   3  -8  19  476.95   36.40
  -3   8  19  502.95   41.80
   3  -8  19  459.45   42.50
   3   8  19  381.56   41.90
  -3  -8  19  399.56   35.90
  -3  -8  19  420.96   41.90
  -5   8  19  609.64   50.19
   5  -8  19  584.24   50.99
  19  -5   8  617.04   45.40
   5  -8  19  593.74   46.00
   8 -19   5  603.94   45.80
   5   8  19  515.55   51.09
  -5  -8  19  545.05   45.50
  -5  -8  19  548.85   50.79
   8 -19   7  107.39   14.60
  -7   8  19  130.29   17.90
  19  -7   8   99.99   13.00
   7  -8  19  104.09   14.60
   8 -19   7  108.99   16.80
   7  -8  19  102.39   18.20
 -19  -7   8  123.29   16.40
  -7  -8  19  139.59   18.90
  -7  -8  19  108.89   13.30
   7   8  19  102.69   18.30
   8 -19   9  334.17   29.50
   8 -19   9  342.17   34.60
   9  -8  19  352.86   29.80
  -9   8  19  380.46   34.50
   9  -8  19  364.76   36.90
  19  -9   8  356.96   28.60
  -9  -8  19  351.06   28.90
  -9  -8  19  353.46   36.70
   9   8  19  310.37   37.50
 -19  -9   8  350.46   32.50
 -11   8  19  470.45   42.20
  19 -11   8  474.65   38.10
   8 -19  11  479.55   44.20
   8 -19  11  516.45   39.30
  11  -8  19  481.65   39.40
  11  -8  19  470.35   45.00
 -19 -11   8  495.25   42.50
  11   8  19  410.96   46.40
 -11  -8  19  501.65   38.40
 -11  -8  19  463.05   44.70
   8 -19  13  241.28   31.00
  19 -13   8  232.18   21.60
  13  -8  19  242.48   31.40
 -13   8  19  218.98   25.80
   8 -19  13  262.37   23.60
  13  -8  19  249.97   23.70
  -8 -19  13  251.87   33.40
 -13  -8  19  259.57   30.70
  13   8  19  194.08   28.50
  -8 -19  13  284.37   24.60
 -13  -8  19  260.97   21.80
  15  -8  19   57.39   17.30
  15  -8  19   54.59   10.90
   8 -19  15   51.29   19.10
   8 -19  15   60.89   11.60
  -8 -19  15   40.20   18.60
 -15  -8  19   58.89   17.60
  15   8  19   67.19   20.00
  -8 -19  15   73.49   11.90
   8 -19  17   46.90   19.90
  17  -8  19   64.09   17.70
  17  -8  19   45.20   11.40
   8 -19  17   48.40   11.60
 -17  -8  19   60.59   17.60
  -8 -19  17   88.59   12.30
  -8 -19  17   60.69   20.60
  17   8  19   83.69   21.50
   0  -9  19   27.90   14.60
   0  -9  19   34.10    7.70
   0   9  19   30.50   15.50
   2  -9  19   24.20   14.70
  -2   9  19   37.90   14.30
  19  -2   9   55.69    9.10
  19  -2   9   37.10    8.20
   2  -9  19   40.30    8.10
  -2  -9  19   44.90    8.10
   2   9  19   46.30   15.40
  -2  -9  19   34.80   13.90
   9 -19   4  302.57   27.30
   4  -9  19  327.27   34.80
  -4   9  19  347.77   34.10
  19  -4   9  331.87   27.00
   4  -9  19  318.87   27.60
  -4  -9  19  334.37   27.20
   4   9  19  305.37   34.70
  -4  -9  19  331.67   34.20
   6  -9  19  327.37   28.60
   9 -19   6  334.07   28.40
  -6   9  19  347.17   34.40
   9 -19   6  284.67   32.40
   6  -9  19  278.97   35.30
  19  -6   9  326.87   27.80
  -6  -9  19  341.57   35.10
   6   9  19  372.26   36.30
 -19  -6   9  344.67   29.00
  -6  -9  19  379.86   28.10
   8  -9  19  343.57   29.70
  19  -8   9  342.47   28.70
   9 -19   8  355.56   34.00
   8  -9  19  362.36   36.80
  -8   9  19  359.46   35.00
   9 -19   8  352.56   29.40
 -19  -8   9  326.07   31.70
  -8  -9  19  338.47   36.30
   8   9  19  326.17   37.50
  -8  -9  19  371.86   29.00
   9 -19  10  332.87   32.40
  10  -9  19  303.87   26.80
   9 -19  10  301.97   26.50
  19 -10   9  306.37   25.40
 -10   9  19  303.27   31.00
  10  -9  19  299.37   34.00
 -10  -9  19  294.27   34.90
 -19 -10   9  294.27   30.40
  10   9  19  265.07   35.60
 -10  -9  19  289.37   25.60
  12  -9  19    7.90    8.90
   9 -19  12   27.70   15.20
  12  -9  19   25.60   17.00
  19 -12   9   20.10    7.10
 -12   9  19   29.60   12.20
   9 -19  12   19.50    9.30
  12   9  19   18.70   17.70
 -12  -9  19   34.80   15.90
 -19 -12   9   19.70   13.50
 -12  -9  19   17.00    7.50
  19 -14   9   21.30    7.50
   9 -19  14   23.10   10.00
  14  -9  19   16.10    9.50
   9 -19  14   10.90   15.70
  14  -9  19   14.70   16.00
 -19 -14   9    2.60   15.30
  -9 -19  14   10.60    9.70
 -14  -9  19   -1.40    6.90
  -9 -19  14   16.00   19.50
  14   9  19   -7.10   17.10
 -14  -9  19   18.30   16.00
   9 -19  16   11.50    9.90
  16  -9  19   20.50   15.80
   9 -19  16   17.00   17.80
  16  -9  19    3.20    9.80
  -9 -19  16  -11.90   17.10
 -16  -9  19   12.80   16.30
  16   9  19   -8.70   19.90
 -19 -16   9   10.50   14.30
  -9 -19  16   -4.10   10.00
  -9 -19  18   25.40   20.20
 -19 -18   9   37.10   16.80
  10 -19   1   24.20    7.40
   1 -10  19   35.20    8.30
  19  -1  10   28.10    9.90
  19  -1  10   31.60    8.00
  -1  10  19   29.00   15.50
   1 -10  19   28.60   16.10
   1  10  19   53.59   15.60
  -1 -10  19   26.60   12.80
  -1 -10  19   31.10    7.40
  19   1  10   27.00   11.30
  10 -19   3  179.48   17.30
   3 -10  19  183.28   17.60
  19  -3  10  182.68   17.40
  -3  10  19  176.58   21.60
   3 -10  19  150.68   20.70
  -3 -10  19  157.98   17.20
  -3 -10  19  174.68   22.80
   3  10  19  146.29   22.10
  10 -19   5  514.95   45.60
   5 -10  19  508.35   48.70
  -5  10  19  548.55   47.80
  10 -19   5  490.45   42.30
  19  -5  10  534.05   42.20
   5 -10  19  517.95   42.60
   5  10  19  528.45   49.00
  -5 -10  19  573.84   48.60
  -5 -10  19  587.94   42.40
  19  -7  10  319.27   28.60
   7 -10  19  363.06   36.50
  -7  10  19  324.17   35.10
  10 -19   7  306.67   33.20
   7 -10  19  339.37   29.50
  10 -19   7  330.37   29.10
  -7 -10  19  356.36   28.80
 -19  -7  10  380.16   30.80
  -7 -10  19  403.76   36.90
   7  10  19  367.76   38.10
  10 -19   9  304.47   26.40
  19  -9  10  312.47   25.60
  -9  10  19  304.57   31.20
   9 -10  19  323.17   34.40
   9 -10  19  331.27   26.70
  10 -19   9  322.17   31.70
 -19  -9  10  286.97   29.50
   9  10  19  274.97   35.20
  -9 -10  19  256.17   25.50
  -9 -10  19  275.07   33.90
  19 -11  10  181.18   17.10
  10 -19  11  184.58   26.00
  11 -10  19  180.88   18.90
  11 -10  19  161.68   23.10
  10 -19  11  190.98   18.70
 -11 -10  19  144.39   23.00
 -19 -11  10  147.49   20.40
  11  10  19  122.09   22.40
 -11 -10  19  164.78   17.20
  13 -10  19   62.69   18.60
  19 -13  10   65.89    9.80
  10 -19  13   60.89   10.90
  10 -19  13   72.09   17.60
  13 -10  19   84.39   11.60
 -13 -10  19   75.59   18.60
 -13 -10  19   75.29   10.00
 -10 -19  13   68.49   20.00
  13  10  19   46.40   20.40
 -19 -13  10   70.29   17.00
  10 -19  15   22.60   17.20
  19 -15  10   21.70    8.30
  10 -19  15   20.70   10.00
  15 -10  19   29.70   10.00
  15 -10  19   26.40   16.60
 -15 -10  19    7.20    7.20
 -10 -19  15   18.40   18.00
 -10 -19  15    6.40   10.30
 -19 -15  10   15.30   15.30
 -15 -10  19   20.90   17.10
  17 -10  19   11.00   10.20
  17 -10  19   12.50   16.10
  19 -17  10   16.70    8.60
  10 -19  17   16.30   10.70
  10 -19  17    6.90   18.20
 -17 -10  19   -7.40   16.50
 -19 -17  10   25.90   16.60
 -10 -19  17   17.90   10.70
 -10 -19  17   19.00   19.10
  19   0  11  321.07   26.20
  11 -19   0  310.57   25.50
   0  11  19  301.17   34.30
   0 -11  19  291.27   33.70
   0 -11  19  302.67   26.20
  19   0  11  276.57   29.00
   2 -11  19  144.99   17.00
  19  -2  11  157.58   16.70
  19  -2  11  150.68   19.90
   2 -11  19  151.28   22.30
  11 -19   2  153.58   16.40
  -2  11  19  161.88   22.00
  -2 -11  19  162.08   16.90
   2  11  19  155.68   21.80
  -2 -11  19  166.78   21.60
  19   2  11  182.48   22.60
  19  -4  11   98.19   11.20
  -4  11  19   95.39   17.70
   4 -11  19   79.19   18.90
  11 -19   4  105.09   15.20
   4 -11  19   89.39   11.80
  11 -19   4   98.49   13.30
  -4 -11  19  103.99   17.80
  -4 -11  19   97.69   13.80
   4  11  19   98.69   18.60
   6 -11  19  458.95   35.00
  11 -19   6  392.76   37.80
   6 -11  19  390.66   41.50
  19  -6  11  371.56   33.70
  11 -19   6  421.86   34.10
  -6  11  19  421.36   40.00
  -6 -11  19  436.86   34.10
  -6 -11  19  424.76   41.50
 -19  -6  11  429.56   35.20
   6  11  19  391.36   41.90
   8 -11  19  476.15   45.50
   8 -11  19  512.55   39.30
  -8  11  19  494.95   43.80
  11 -19   8  466.45   42.80
  11 -19   8  502.95   38.90
  19  -8  11  478.95   38.50
  -8 -11  19  473.25   46.00
 -19  -8  11  467.75   41.00
  -8 -11  19  481.65   38.70
   8  11  19  398.36   46.00
  10 -11  19  151.58   23.10
  10 -11  19  154.88   18.40
  11 -19  10  171.38   18.20
  19 -10  11  189.38   17.10
  11 -19  10  189.68   21.80
 -10 -11  19  140.99   22.20
 -19 -10  11  160.28   17.00
 -10 -11  19  159.28   17.20
 -19 -10  11  168.38   20.00
  10  11  19   97.19   22.80
  11 -19  12   57.49   10.70
  12 -11  19   60.29   10.90
  11 -19  12   83.89   17.70
  19 -12  11   74.39   10.00
  12 -11  19   67.19   18.20
 -11 -19  12   61.89   19.00
 -12 -11  19   73.49   18.80
 -19 -12  11   71.79   16.60
  12  11  19   37.20   20.10
 -12 -11  19   71.69    9.90
 -19 -12  11   71.99    9.30
  11 -19  14   71.29   18.70
  11 -19  14   94.29   12.50
  19 -14  11   90.59   10.70
  14 -11  19   82.89   18.70
  14 -11  19   82.79   12.00
 -19 -14  11   62.49   10.20
 -14 -11  19   60.39   19.30
 -14 -11  19   65.49   10.20
 -19 -14  11   79.49   18.60
 -11 -19  14   71.19   12.40
 -11 -19  14   41.00   18.20
  19 -16  11   21.90    8.60
  11 -19  16   11.20   10.20
  11 -19  16   14.70   16.90
  16 -11  19    9.20   15.90
  16 -11  19   21.50   10.20
 -11 -19  16   16.90   19.90
 -16 -11  19    6.50   17.20
 -19 -16  11   17.70   16.50
 -11 -19  16    9.60   10.10
  19  -1  12   73.29   14.00
  -1  12  19   68.99   18.00
  19  -1  12   67.69   10.50
   1 -12  19   68.99   16.10
  12 -19   1   73.79   12.80
   1 -12  19   66.49   10.20
  12 -19   1   87.19    9.70
  -1 -12  19   96.89   20.00
   1  12  19   79.89   17.20
  12 -19  -1   86.59   11.30
  19   1  12   84.49   14.60
  -1 -12  19  104.39   13.40
  19  -3  12  119.49   15.30
   3 -12  19  132.59   22.10
  -3  12  19  130.69   20.50
  12 -19   3  103.89   14.30
  12 -19   3  130.19   16.30
  19  -3  12  120.09   16.20
   3 -12  19  114.69   15.60
  -3 -12  19  134.79   15.50
  19   3  12  152.28   18.70
  -3 -12  19  124.59   19.00
   3  12  19  135.19   21.80
   5 -12  19   36.30    9.70
  12 -19   5   36.00   12.10
   5 -12  19   22.40   14.60
  12 -19   5   24.20    8.10
  19  -5  12   40.60    9.10
  -5  12  19   44.20   15.50
  19  -5  12   63.19   10.10
  -5 -12  19   22.00    8.30
   5  12  19   21.60   15.80
  -5 -12  19   35.80   17.10
  -7  12  19   84.79   18.60
   7 -12  19   74.69   11.20
  12 -19   7   60.99   14.50
  12 -19   7   69.19   10.20
   7 -12  19   91.99   20.40
  19  -7  12   71.29   10.20
  -7 -12  19   72.79   11.00
 -19  -7  12   84.09   12.80
   7  12  19   69.99   20.10
  -7 -12  19   85.49   19.70
  19  -9  12   15.90    8.10
  12 -19   9   27.20   13.00
   9 -12  19    4.20   14.80
   9 -12  19   29.40    9.60
  12 -19   9   22.90    8.50
 -19  -9  12   24.70   12.20
   9  12  19   13.90   16.40
  -9 -12  19   14.40   16.80
  -9 -12  19   22.80    8.60
  12 -19  11   69.39   16.80
  11 -12  19   78.49   12.00
  19 -11  12   75.49   10.30
  11 -12  19   84.79   19.20
  12 -19  11   66.29   11.00
 -19 -11  12   59.69   16.10
 -11 -12  19   65.19   10.30
 -11 -12  19   84.39   20.20
 -19 -11  12   76.39    9.80
  11  12  19   48.10   21.10
  13 -12  19   67.09   18.50
  12 -19  13   69.99   17.60
  19 -13  12   72.19   10.60
  13 -12  19   78.09   12.40
  12 -19  13   71.89   11.70
 -19 -13  12   82.09   10.20
 -13 -12  19   76.69   10.50
 -13 -12  19   74.49   19.60
 -12 -19  13   78.19   20.20
 -12 -19  13   92.49   13.30
 -19 -13  12   82.79   17.80
  15 -12  19    0.30   16.10
  12 -19  15   -0.80    9.70
  19 -15  12    1.20    8.30
  12 -19  15   -6.00   15.90
  15 -12  19    0.70    9.30
 -15 -12  19   -5.80    7.70
 -12 -19  15    1.10   16.20
 -12 -19  15    3.60   10.30
 -19 -15  12   -2.30    7.80
 -19 -15  12   25.20   16.60
 -15 -12  19  -12.80   17.20
  19   0  13  123.19   16.00
   0 -13  19  101.29   19.50
   0 -13  19  128.19   15.90
  13 -19   0  133.29   13.60
   0  13  19  155.48   23.00
  19   0  13  128.19   18.20
  19  -2  13  155.68   21.60
  13 -19   2  132.59   14.80
  -2  13  19  133.79   20.50
   2 -13  19  104.49   20.40
  19  -2  13  131.39   16.50
   2 -13  19  149.69   16.40
  -2 -13  19  147.59   16.60
  -2 -13  19  131.19   19.80
   2  13  19  139.09   21.80
  19   2  13  154.88   19.80
  13 -19   4   46.80    8.70
  -4  13  19   45.70   16.80
  19  -4  13   47.50    9.80
  19  -4  13   57.29   13.00
   4 -13  19   80.09   17.90
   4 -13  19   46.00   10.00
   4  13  19   63.79   17.10
  -4 -13  19   72.29   10.00
  -4 -13  19   55.89   15.60
  13 -19   6  239.88   21.60
  13 -19   6  217.88   25.60
  19  -6  13  247.18   21.80
   6 -13  19  171.58   26.30
   6 -13  19  242.98   22.40
  -6 -13  19  272.97   32.60
   6  13  19  177.48   26.70
  -6 -13  19  265.47   22.00
 -19  -6  13  229.28   23.30
   8 -13  19  290.57   24.80
   8 -13  19  230.78   33.50
  13 -19   8  250.97   23.80
  19  -8  13  256.47   23.50
  13 -19   8  239.88   28.30
  -8 -13  19  267.37   34.40
  -8 -13  19  281.47   23.80
   8  13  19  253.87   35.50
 -19  -8  13  241.88   27.50
  19 -10  13   66.79   10.50
  10 -13  19   78.19   19.80
  13 -19  10   75.09   11.30
  13 -19  10   62.09   16.20
  10 -13  19   72.09   11.50
 -19 -10  13   91.49   16.30
 -10 -13  19   71.29   19.70
 -10 -13  19   78.49   11.60
  13 -19  12   72.59   17.20
  13 -19  12   72.59   11.80
  19 -12  13   84.29   11.10
  12 -13  19   66.29   19.00
  12 -13  19   76.39   12.70
 -19 -12  13   71.29   10.00
 -12 -13  19   86.99   11.80
 -12 -13  19   84.69   21.10
 -13 -19  12   84.89   19.60
 -19 -12  13   80.19   17.50
  14 -13  19   28.20   11.00
  14 -13  19   32.50   17.70
  13 -19  14   23.20   10.70
  19 -14  13   26.10    9.10
  13 -19  14   32.90   16.40
 -13 -19  14   17.00   10.10
 -19 -14  13   28.60   16.30
 -13 -19  14   43.30   20.70
 -14 -13  19   32.90    9.20
 -14 -13  19   23.20   19.00
 -19 -14  13   29.90    8.20
  -1  14  19  140.19   24.00
  14 -19   1  146.59   13.10
   1 -14  19   93.79   20.50
   1 -14  19  136.49   16.10
  19  -1  14   96.79   17.40
  19  -1  14  124.89   16.10
  19   1  14  110.79   16.00
  19   1  14  113.59   18.60
  -1 -14  19   94.39   20.70
   1  14  19  116.29   22.60
  -1 -14  19  116.39   15.90
  14 -19   3  292.57   25.30
   3 -14  19  318.27   26.50
   3 -14  19  286.87   35.20
  19  -3  14  297.67   26.50
  19  -3  14  289.07   30.80
  -3 -14  19  300.57   26.50
  19   3  14  312.87   32.90
   3  14  19  300.37   37.20
  -3 -14  19  258.57   35.60
  14 -19   5   32.40    8.10
  19  -5  14   35.70   12.70
   5 -14  19   32.20    9.40
   5 -14  19   36.10   18.80
  19  -5  14   33.20    9.70
   5  14  19    4.00   19.00
  -5 -14  19   43.30   10.00
  -5 -14  19    5.70   16.40
  19  -7  14    7.60    8.10
  14 -19   7    4.80    8.00
   7 -14  19   -1.40   15.40
  14 -19   7   -5.60    3.40
   7 -14  19    6.70    9.00
  -7 -14  19   10.70   16.40
 -19  -7  14    0.70   10.70
  -7 -14  19    2.00    8.40
   9 -14  19   22.30   10.20
   9 -14  19   18.60   17.70
  14 -19   9   22.10    9.00
  14 -19   9   40.60   12.60
  19  -9  14   23.90    8.80
  -9 -14  19    4.80   17.60
  -9 -14  19    3.50    9.10
 -19  -9  14    3.00   12.80
  14 -19  11   79.29   16.90
  14 -19  11  113.29   12.40
  11 -14  19   89.99   12.70
  19 -11  14   93.49   11.90
  11 -14  19   61.69   19.90
 -11 -14  19   78.69   12.20
 -19 -11  14   75.29   17.40
 -11 -14  19   85.69   20.90
  13 -14  19   27.80   10.90
  14 -19  13   18.10   15.60
  19 -13  14   28.80    9.50
  14 -19  13   33.70   10.50
  13 -14  19   34.30   17.90
 -19 -13  14   33.40   12.90
 -13 -14  19   19.80   18.60
 -14 -19  13   27.80   20.00
 -14 -19  13   32.60   11.00
 -13 -14  19   28.30    9.10
 -19 -13  14   28.70   16.90
  19   0  15   58.79    9.70
   0 -15  19   42.30   10.10
  19   0  15   76.79   16.20
   0 -15  19   44.30   18.10
   2 -15  19   14.60    8.90
   2 -15  19   31.20   16.40
  19  -2  15   21.90    9.00
  19  -2  15   28.30   13.70
  19   2  15   16.70   14.10
  -2 -15  19    2.00    8.60
  -2 -15  19    0.40   18.50
   4 -15  19    7.10    8.60
  19  -4  15   13.80    8.60
  19  -4  15   -3.00   12.40
  15 -19   4   14.40    7.00
   4 -15  19    7.20   15.20
  -4 -15  19   19.60   16.70
  19   4  15   11.90   15.60
  -4 -15  19   10.80    9.30
  19  -6  15   75.59   11.10
  15 -19   6   71.59   10.40
   6 -15  19   74.59   17.30
   6 -15  19   85.09   12.10
  19  -6  15   76.29   14.90
  -6 -15  19   82.79   11.50
  -6 -15  19   58.59   19.10
   8 -15  19   72.49   11.60
  15 -19   8   72.99   10.30
   8 -15  19   61.69   17.60
  19  -8  15   72.49   10.70
  -8 -15  19   50.99   10.50
 -19  -8  15   59.29   14.60
  -8 -15  19   42.90   18.60
  10 -15  19   20.60   10.70
  15 -19  10   37.10    9.40
  19 -10  15   21.60    9.40
  10 -15  19   40.60   17.70
 -10 -15  19   11.10    9.10
 -19 -10  15   30.90   14.90
 -10 -15  19   17.60   18.30
  19 -12  15    5.20    9.20
  12 -15  19  -11.90   16.90
  15 -19  12    3.40    9.30
  12 -15  19   -1.20   10.00
  15 -19  12    0.20    9.40
 -15 -19  12    3.00   19.40
 -12 -15  19    1.50   19.40
 -19 -12  15   -5.00   15.30
 -12 -15  19    2.20    8.50
  19  -1  16   88.69   12.00
   1 -16  19   53.19   19.90
   1 -16  19   71.49   11.50
  19  -1  16   96.69   17.30
  -1 -16  19   44.00   20.60
  19   1  16   77.89   17.50
  19   1  16   61.59   11.70
  -1 -16  19   69.59   10.90
  19  -3  16  206.98   26.70
   3 -16  19  138.29   23.60
   3 -16  19  205.18   20.80
  19  -3  16  221.48   20.50
  -3 -16  19  154.88   24.70
  19   3  16  180.78   23.60
  -3 -16  19  204.08   20.50
  19  -5  16    8.60    9.40
   5 -16  19   12.40   20.10
  19  -5  16   16.50   14.10
   5 -16  19    8.20    9.20
  -5 -16  19    5.90    9.60
  19   5  16    6.50   16.70
  -5 -16  19    8.60   17.80
   7 -16  19   15.10    9.80
  19  -7  16    9.60   13.00
  16 -19   7   15.60    7.80
  16 -19   7    7.30    4.80
   7 -16  19   20.80   16.60
  19  -7  16   10.50    9.30
 -19  -7  16   26.20   12.10
  -7 -16  19   25.10    9.80
  -7 -16  19   21.70   17.80
   9 -16  19   12.60   20.50
  19  -9  16   11.10    9.40
   9 -16  19   19.20   10.40
  16 -19   9   23.80    8.90
  -9 -16  19   -0.30   17.80
 -19  -9  16   16.80   13.80
  -9 -16  19    7.40    9.00
  16 -19  11   25.70    9.80
  19 -11  16    3.80    3.70
  11 -16  19   13.50   10.00
  11 -16  19   16.90   18.20
  19 -11  16   17.00    9.50
 -19 -11  16   20.50   15.90
 -11 -16  19   -0.90    9.10
 -11 -16  19    4.30   18.20
 -16 -19  11    2.30   15.80
   0 -17  19  240.28   35.80
  19   0  17  278.17   25.30
  19   0  17  283.87   32.00
   0 -17  19  253.77   25.30
  19  -2  17   91.99   18.20
   2 -17  19   85.69   22.10
  19  -2  17   88.39   11.90
   2 -17  19   86.69   11.90
  -2 -17  19   53.89   19.10
  -2 -17  19   47.80   11.60
  19   2  17   34.70   17.40
  19  -4  17   10.50    9.50
  19  -4  17   11.70   14.00
   4 -17  19   22.50   10.50
   4 -17  19   10.30   20.70
  19   4  17   35.80   17.20
  -4 -17  19   18.70    9.60
  -4 -17  19   25.20   18.00
   6 -17  19  102.89   23.40
  19  -6  17  110.99   17.60
   6 -17  19   90.59   13.40
  19  -6  17   91.79   12.80
  -6 -17  19  122.29   22.50
  -6 -17  19  128.49   16.90
   8 -17  19   42.00   11.50
  17 -19   8   50.19    9.80
  19  -8  17   69.89   15.80
   8 -17  19   61.89   21.00
  19  -8  17   52.09   10.90
 -19  -8  17   83.89   15.50
  -8 -17  19   97.79   12.60
  -8 -17  19   63.79   20.60
  10 -17  19   22.90   20.20
  19 -10  17    2.70    9.60
  10 -17  19   10.20   10.30
  17 -19  10   16.50    9.20
 -10 -17  19    7.80   19.20
 -19 -10  17   10.50   15.00
 -10 -17  19   30.40   10.90
   1 -18  19   43.30   10.90
   1 -18  19   49.40   20.10
  19  -1  18   47.30   11.10
  19  -1  18   43.60   16.90
  -1 -18  19   32.30   10.50
  -1 -18  19   20.60   18.00
  19   1  18   35.40   10.50
  19   1  18   24.60   16.80
  19  -3  18   48.80   11.00
  19  -3  18   30.70   16.50
   3 -18  19   55.89   10.90
   3 -18  19   38.00   17.80
  -3 -18  19   13.70   18.10
  19   3  18   19.00   17.00
  -3 -18  19   23.80   10.90
   5 -18  19    9.60   20.90
   5 -18  19    4.70    9.90
  19  -5  18    7.70    9.90
  19  -5  18    5.50   15.10
  -5 -18  19   12.20   18.90
  -5 -18  19   17.90   10.70
  19   5  18   16.40   18.00
   7 -18  19   33.30   11.00
   7 -18  19   27.90   18.30
  19  -7  18   41.90   10.70
  19  -7  18   39.40   15.70
  -7 -18  19   46.30   10.80
  -7 -18  19   16.20   19.70
  -9 -18  19   43.60   20.50
   0 -19  19  467.55   37.40
   0 -19  19  377.16   45.40
  19   0  19  451.05   37.50
  19   0  19  420.46   43.60
  19  -2  19   89.29   13.20
  19  -2  19  104.09   19.90
   2 -19  19   88.09   13.10
   2 -19  19   80.89   22.20
  -2 -19  19   85.59   12.90
  -2 -19  19   65.99   21.60
  19   2  19   83.79   19.90
  19  -4  19   42.10   11.20
  19  -4  19   29.60   16.50
   4 -19  19   36.10   10.80
   4 -19  19   25.80   17.30
  -4 -19  19   11.60   10.40
  -4 -19  19   13.40   19.90
  19   4  19   32.80   18.60
  19  -6  19   77.39   18.50
  19  -6  19   89.69   12.70
   6 -19  19   77.19   13.50
   6 -19  19   60.09   20.00
  -6 -19  19  100.09   23.20
  -6 -19  19  103.89   13.90
  19   6  19  119.09   21.80
   0   0  20  238.68   20.80
   0   0  20  230.38   27.90
   2   0  20   39.90   18.00
  -2   0  20   26.10    6.80
  -2   0  20   26.90   13.60
   2   0  20   39.90    8.00
   4   0  20   32.80   13.60
  -4   0  20   34.60   12.60
   4   0  20   24.10    7.30
  -4   0  20   29.50    6.60
   6   0  20   -2.30   13.70
  -6   0  20    4.80   11.70
   6   0  20    6.60    7.30
  -6   0  20    1.50    5.90
  -8   0  20   92.69   15.60
   8   0  20   81.29   17.20
  -8   0  20   83.89   11.10
   8   0  20   88.69   10.80
 -10   0  20  145.59   18.60
  10   0  20  107.49   19.70
 -10   0  20  135.09   13.10
  10   0  20  129.59   15.80
  12   0  20   11.00    9.10
  12   0  20   -0.30   15.90
   0 -20  12   12.10    8.80
 -12   0  20    3.00   12.00
   0 -20  12   -1.50   16.00
  14   0  20    3.30   16.00
  14   0  20    6.50    8.90
   0 -20  14  -11.80   16.90
 -14   0  20   -2.20   11.50
   0 -20  14    3.60    9.10
  16   0  20    7.50   10.00
   0 -20  16  -11.90   17.10
   0 -20  16   -2.40    9.60
 -16   0  20   15.10   11.10
  16   0  20    8.50   16.70
  18   0  20  -10.10   10.60
  18   0  20   -1.90   17.80
   0 -20  18   -7.10   10.00
   0 -20  18   10.90   18.50
  -1   1  20  492.45   45.60
  -1   1  20  489.85   40.70
   1  -1  20  494.25   45.70
   1  -1  20  511.75   40.80
  -1  -1  20  521.05   45.30
   1   1  20  536.15   40.80
   1   1  20  492.15   45.60
  -1  -1  20  564.94   40.80
  -3   1  20   13.80   12.80
  -3   1  20   16.10    6.20
   3  -1  20   12.20   13.50
   3  -1  20    9.20    6.80
   3   1  20    4.10   13.50
  -3  -1  20    6.50    6.00
  -3  -1  20   10.80   12.40
   3   1  20    0.00    6.70
   5  -1  20  245.68   29.20
   5  -1  20  230.88   21.50
  -5   1  20  244.08   27.60
  -5   1  20  254.37   20.80
  -5  -1  20  237.28   27.60
   5   1  20  232.58   21.60
   5   1  20  269.57   29.10
  -5  -1  20  229.08   20.60
  -7   1  20   59.19   14.40
  -7   1  20   49.60    7.60
   7  -1  20   51.69    8.90
   7  -1  20   52.79   15.70
   7   1  20   65.79    9.50
  -7  -1  20   48.00   13.90
  -7  -1  20   59.69    7.80
   7   1  20   50.89   16.40
  -9   1  20  353.66   34.10
   9  -1  20  337.17   29.80
   9  -1  20  347.17   36.50
  -9   1  20  345.57   28.20
  -9  -1  20  368.56   28.30
   9   1  20  322.17   36.90
  -9  -1  20  370.26   34.70
   9   1  20  352.26   29.70
   1 -20  11   77.99   11.30
  11  -1  20   81.59   11.30
 -11   1  20  106.79   15.50
   1 -20  11   73.19   17.10
  11  -1  20   87.59   18.00
  11   1  20   73.69   18.10
 -11  -1  20   84.39   15.90
 -11  -1  20   96.29   10.50
  11   1  20   79.89   11.40
  13  -1  20  117.29   16.00
   1 -20  13   93.79   19.20
   1 -20  13  112.79   13.50
  13  -1  20   92.59   19.40
 -13   1  20  122.49   16.70
 -13  -1  20  116.79   17.90
  13   1  20  117.49   16.30
  -1 -20  13   95.69   19.70
  13   1  20  102.69   19.60
  -1 -20  13  125.19   16.50
   1 -20  15  254.47   24.30
 -15   1  20  222.18   26.20
  15  -1  20  210.28   28.20
  15  -1  20  260.47   24.30
   1 -20  15  228.08   33.30
  15   1  20  259.17   33.40
  15   1  20  258.67   24.50
  -1 -20  15  284.17   24.60
 -15  -1  20  240.68   27.80
   1 -20  17   53.59   19.60
  17  -1  20   63.39   18.70
   1 -20  17   72.39   11.80
  17  -1  20   54.79   12.00
  -1 -20  17   67.29   11.90
  17   1  20   57.69   12.20
  17   1  20   43.00   18.70
  -1 -20  17   61.29   20.20
   1 -20  19   10.70   10.40
  19  -1  20    5.20   17.20
  19  -1  20   26.80   11.20
   1 -20  19    5.10   17.60
  -1 -20  19    0.00   18.60
  19   1  20   45.20   18.50
  19   1  20   13.50   11.20
  -1 -20  19   32.10   11.20
   0   2  20   25.70    7.00
   0  -2  20   26.70    7.00
   0  -2  20   17.00   13.10
   0   2  20   26.20   13.20
   2  -2  20  228.88   22.00
  -2   2  20  253.67   28.40
   2  -2  20  272.77   29.00
  -2   2  20  252.57   21.60
  -2  -2  20  251.87   28.50
   2   2  20  255.67   21.90
  -2  -2  20  248.88   21.70
   2   2  20  251.97   28.90
  -4   2  20  145.89   15.70
   4  -2  20  163.78   21.00
  -4   2  20  156.48   20.00
   4  -2  20  151.38   16.70
   4   2  20  163.68   16.50
   4   2  20  155.48   19.90
  -4  -2  20  180.68   15.80
  -4  -2  20  194.38   23.80
   6  -2  20   13.90   14.40
  -6   2  20   23.10    6.50
  -6   2  20   20.20   12.40
   6  -2  20   26.50    7.60
  -6  -2  20   20.80    6.30
   6   2  20   19.90    8.20
  -6  -2  20   23.80   13.50
   6   2  20   18.90   14.40
   8  -2  20   64.19   16.50
  -8   2  20   58.29    7.90
  -8   2  20   68.59   14.30
   8  -2  20   58.39    9.40
  -8  -2  20   64.79   14.80
   8   2  20   68.89   17.70
   8   2  20   50.89    8.70
  -8  -2  20   63.79    8.10
 -10   2  20  242.98   21.10
 -10   2  20  264.37   28.40
   2 -20  10  257.57   23.50
  10  -2  20  240.78   31.30
  10  -2  20  263.27   23.60
 -10  -2  20  268.47   21.50
  10   2  20  242.78   23.50
 -10  -2  20  258.57   29.30
  10   2  20  261.97   32.20
   2 -20  12  117.49   19.30
  12  -2  20  143.99   16.00
 -12   2  20  129.59   17.40
   2 -20  12  114.69   15.80
  12  -2  20  105.59   19.80
  12   2  20   83.89   19.50
  12   2  20   97.99   13.10
  -2 -20  12   70.39   18.30
 -12  -2  20  106.79   17.50
  -2 -20  12  107.29   13.20
   2 -20  14    0.80   16.10
  14  -2  20   -2.10   16.00
   2 -20  14    1.70    8.90
 -14   2  20  -18.00   10.50
  14  -2  20   -2.50    9.00
  -2 -20  14    1.30    9.60
  14   2  20   11.20    9.70
  -2 -20  14   15.80   17.50
  14   2  20   19.20   17.20
 -14  -2  20    5.10   13.30
   2 -20  16   51.79   11.40
   2 -20  16   41.70   18.30
  16  -2  20   48.80   11.80
  16  -2  20   54.69   18.00
 -16  -2  20   72.49   14.20
  16   2  20   70.29   19.20
  -2 -20  16   63.89   19.50
  16   2  20   81.99   12.60
  -2 -20  16   65.89   11.50
   2 -20  18  162.08   20.80
  18  -2  20  151.88   23.70
  18  -2  20  162.18   20.90
   2 -20  18  123.09   24.40
  -2 -20  18  141.09   25.60
  18   2  20  177.68   24.90
  18   2  20  190.48   21.10
  -2 -20  18  205.88   20.80
   1  -3  20   15.10    6.90
  -1   3  20    4.80   12.80
   1  -3  20   15.30   13.00
  -1   3  20   13.80    6.50
   1   3  20   -8.80   12.50
  -1  -3  20   10.80   12.80
  -1  -3  20    2.80    6.50
   1   3  20   10.60    7.10
   3  -3  20  228.48   20.00
  -3   3  20  273.77   27.30
   3  -3  20  297.07   28.20
  -3  -3  20  188.68   23.30
  -3  -3  20  206.38   19.40
   3   3  20  179.98   27.20
   3   3  20  194.48   19.70
  -5   3  20  421.86   37.00
  -5   3  20  401.36   31.50
   5  -3  20  408.36   32.20
   5   3  20  404.06   40.30
  -5  -3  20  378.66   31.50
  -5  -3  20  349.47   37.20
   5   3  20  380.96   32.00
  -7   3  20   54.69   13.90
   7  -3  20   27.50    9.00
   7  -3  20   32.70   15.30
  -7   3  20   35.50    7.30
   7   3  20   30.00   14.90
  -7  -3  20   67.99   14.80
  -7  -3  20   59.49    7.70
   7   3  20   54.59    9.10
   3 -20   9  330.37   30.60
   9  -3  20  353.16   37.30
  -9   3  20  371.86   35.40
   9  -3  20  378.66   30.60
  -9   3  20  341.77   28.90
   9   3  20  381.96   30.80
   9   3  20  356.76   38.10
  -9  -3  20  372.76   35.90
  -9  -3  20  374.56   29.20
  11  -3  20  286.87   35.20
 -11   3  20  336.37   32.50
   3 -20  11  342.37   35.10
  11  -3  20  311.87   28.10
   3 -20  11  308.07   28.10
 -11  -3  20  337.67   26.20
  11   3  20  325.67   28.40
 -11  -3  20  324.67   33.60
  11   3  20  306.97   36.20
 -13   3  20   20.50   12.00
  13  -3  20   13.30   16.90
   3 -20  13   18.70   14.60
   3 -20  13   14.70    9.00
  13  -3  20   23.30    9.10
 -13  -3  20   16.30   13.60
  -3 -20  13   22.20    9.50
  13   3  20   13.50   16.90
  13   3  20   21.30    9.20
  -3 -20  13   22.00   17.00
  15  -3  20   -9.90    8.80
 -15   3  20    6.90    9.90
  15  -3  20   -1.90   15.70
   3 -20  15    2.70   16.20
   3 -20  15    5.90    9.80
 -15  -3  20   -6.50   12.90
  15   3  20    3.70    9.60
  15   3  20    6.90   16.90
  -3 -20  15    8.80    9.80
  -3 -20  15   -6.80   17.00
   3 -20  17   20.40   18.10
  17  -3  20   20.50   10.20
  17  -3  20   15.60   17.20
   3 -20  17   12.30   10.10
  -3 -20  17   28.30   18.80
  -3 -20  17   17.30   10.70
  17   3  20   22.50   18.20
 -17  -3  20   17.40   14.90
   0  -4  20   32.50    7.70
   0  -4  20   36.80   12.90
   0   4  20   21.10    7.00
   0   4  20   29.10   14.10
   2  -4  20  147.59   16.30
   2  -4  20  132.29   20.40
  -2   4  20  155.28   16.10
  -2   4  20  150.98   20.10
   2   4  20  172.78   16.60
  -2  -4  20  171.28   24.10
   2   4  20  163.08   21.40
  -2  -4  20  181.38   16.00
   4  -4  20    4.70    7.10
  -4   4  20   13.30   12.80
  -4   4  20   11.30    6.60
   4  -4  20    7.60   13.70
   4   4  20   15.60   15.70
   4   4  20   20.90    7.50
  -4  -4  20   19.20   13.30
  -4  -4  20   16.40    6.70
  -6   4  20  168.08   20.10
   6  -4  20  173.18   21.40
   6  -4  20  177.18   16.80
  -6   4  20  154.58   15.20
  -6  -4  20  138.79   15.40
  -6  -4  20  175.58   24.10
   6   4  20  133.09   16.80
   6   4  20  135.69   20.90
  -8   4  20  129.39   17.60
   8  -4  20  109.39   19.20
   8  -4  20  121.99   15.00
  -8  -4  20   93.19   17.60
   8   4  20   90.89   17.80
  -8  -4  20  127.39   13.00
   8   4  20  109.99   15.40
 -10   4  20  125.39   17.60
  10  -4  20  137.19   16.10
   4 -20  10  143.49   16.20
   4 -20  10  103.29   18.40
  10  -4  20  126.19   20.40
  10   4  20  109.49   20.20
 -10  -4  20  143.99   19.50
 -10  -4  20  120.69   13.60
  10   4  20  126.59   16.40
   4 -20  12  134.29   20.90
  12  -4  20  109.49   20.10
   4 -20  12  162.38   17.50
  12  -4  20  173.58   17.50
 -12   4  20  157.18   19.00
 -12  -4  20  148.29   14.30
 -12  -4  20  134.09   20.30
  -4 -20  12  146.39   23.80
  12   4  20  137.49   17.90
  12   4  20  112.99   21.70
 -14   4  20    8.20   10.70
   4 -20  14    4.70    9.30
  14  -4  20    4.00    9.20
  14  -4  20   11.80   15.80
   4 -20  14    5.70   15.90
  -4 -20  14    6.90    9.50
  -4 -20  14    2.20   17.40
  14   4  20   17.30   10.20
  14   4  20   -3.20   17.50
 -14  -4  20   16.70   14.50
  16  -4  20   20.70    9.40
   4 -20  16   -5.60   16.70
   4 -20  16    6.30    9.70
  16  -4  20   12.80   16.90
  -4 -20  16    6.70   17.90
  -4 -20  16    8.70    9.80
 -16  -4  20   24.10   14.20
  16   4  20    7.20   17.80
   4 -20  18   37.50   19.40
  18  -4  20   30.30   17.80
   4 -20  18   47.40   11.70
  18  -4  20   58.29   12.30
  18   4  20   35.00   19.40
  -4 -20  18   35.50   20.80
  -4 -20  18   69.99   12.10
  -1   5  20  252.67   21.60
  -1   5  20  244.58   28.90
   1  -5  20  224.08   29.10
   1  -5  20  215.18   21.60
  -1  -5  20  267.57   28.80
  -1  -5  20  234.98   21.30
   1   5  20  260.07   21.90
   1   5  20  246.88   29.40
  -3   5  20  425.86   31.40
   3  -5  20  416.36   38.30
   3  -5  20  393.96   31.70
  -3   5  20  399.66   37.40
  -3  -5  20  361.06   31.30
  -3  -5  20  386.76   37.60
   3   5  20  386.96   38.30
   3   5  20  343.97   31.80
   5  -5  20  618.84   52.79
  -5   5  20  652.13   47.00
   5  -5  20  669.03   47.60
  -5   5  20  638.04   51.99
  -5  -5  20  567.14   51.79
   5   5  20  558.64   47.60
   5   5  20  519.15   52.69
  -5  -5  20  567.54   47.00
   7  -5  20  294.37   31.40
  -7   5  20  287.07   29.10
   7  -5  20  318.67   23.30
   7   5  20  231.88   23.40
  -7  -5  20  248.68   21.90
 -20  -7   5  240.28   23.80
   7   5  20  179.58   26.60
  -7  -5  20  226.88   29.50
  -9   5  20  334.07   31.40
   5 -20   9  351.46   26.20
   9  -5  20  329.67   26.20
   9  -5  20  311.57   34.00
   5 -20   9  344.47   32.20
  -9  -5  20  256.07   24.70
   9   5  20  239.18   26.20
  -9  -5  20  255.27   32.30
   9   5  20  240.48   34.30
  11  -5  20  295.17   34.70
   5 -20  11  280.47   33.40
   5 -20  11  326.37   27.30
  11  -5  20  315.67   27.30
 -11   5  20  314.17   31.60
 -11  -5  20  298.87   25.50
  11   5  20  326.07   36.60
  11   5  20  293.37   27.30
 -11  -5  20  313.17   33.60
 -13   5  20  129.89   18.00
   5 -20  13  119.09   20.80
  13  -5  20  143.59   17.50
   5 -20  13  139.59   17.50
  13  -5  20  135.29   22.30
  13   5  20  161.08   18.10
 -13  -5  20  154.28   20.90
  -5 -20  13  142.19   24.60
  -5 -20  13  152.58   18.20
  13   5  20  125.59   23.20
 -13  -5  20  136.89   14.00
   5 -20  15   92.99   20.10
  15  -5  20   99.29   13.30
   5 -20  15  124.29   16.70
  15  -5  20  113.49   20.60
  -5 -20  15  114.99   22.90
  15   5  20   70.49   21.20
 -15  -5  20  126.89   19.50
  -5 -20  15  101.19   14.00
  17  -5  20   98.99   20.40
   5 -20  17  101.69   13.90
   5 -20  17  110.79   22.20
  17  -5  20  119.59   14.30
  17   5  20   91.39   21.90
  -5 -20  17  109.29   14.50
 -17  -5  20  104.49   17.70
  -5 -20  17  110.89   22.50
   0   6  20    0.90    7.00
   0  -6  20   -1.90   11.90
   0  -6  20   -2.70    6.70
   0   6  20   -1.30   13.80
  -2   6  20   25.60   13.10
  -2   6  20   18.20    7.30
   2  -6  20   24.80   13.50
   2  -6  20   34.00    8.20
  -2  -6  20   21.10    7.30
   2   6  20   28.80   14.20
  -2  -6  20   27.10   15.30
   2   6  20   19.20    7.30
  -4   6  20  150.38   19.50
   4  -6  20  155.28   16.30
   4  -6  20  192.88   26.20
  -4  -6  20  155.28   15.60
  -4  -6  20  139.59   19.80
   4   6  20  131.99   20.20
   4   6  20  137.39   16.40
  -6   6  20 1013.50   82.19
  20  -6   6 1007.20   78.19
   6  -6  20 1013.60   78.89
   6  -6  20 1021.70   82.99
  -6  -6  20 1069.89   82.69
  -6  -6  20 1011.60   78.49
   6   6  20 1039.90   78.99
   6   6  20 1031.90   83.39
  -8   6  20  884.11   72.49
   8  -6  20  914.01   69.49
  20  -8   6  824.72   68.19
   6 -20   8  853.51   69.29
   8  -6  20  878.61   73.79
   6 -20   8  862.51   72.49
  -8  -6  20  943.81   68.79
 -20  -8   6  961.40   70.59
   8   6  20  895.51   69.39
  -8  -6  20  939.01   73.29
   6 -20  10  178.68   22.80
 -10   6  20  207.48   24.30
  10  -6  20  155.68   22.80
  10  -6  20  186.68   18.90
   6 -20  10  164.08   18.50
  10   6  20  135.19   23.80
  10   6  20  162.18   18.80
 -10  -6  20  164.48   16.70
 -10  -6  20  195.48   22.40
 -12   6  20   33.40   12.90
   6 -20  12   25.80   15.50
  12  -6  20   24.20   16.50
  12  -6  20   39.30    9.50
   6 -20  12   39.00    9.80
 -12  -6  20   36.50    7.40
 -12  -6  20   50.49   16.80
  12   6  20   20.20   17.60
   6 -20  14    5.80   15.50
  20 -14   6    3.60    1.60
   6 -20  14    9.00    9.50
  14  -6  20    5.30    9.10
 -14   6  20   10.40    9.90
  14  -6  20    2.80   15.70
  -6 -20  14    0.50    9.90
 -14  -6  20   -2.60   15.80
  14   6  20   10.10   18.00
  -6 -20  14    4.90   19.30
  16  -6  20  -12.10   16.50
   6 -20  16    2.90    9.80
   6 -20  16    6.20   16.50
  20 -16   6    6.50    3.00
  16  -6  20    0.60    9.80
  -6 -20  16    6.70   10.50
  -6 -20  16   -9.90   18.70
  16   6  20    4.00   18.30
 -16  -6  20   14.90   15.10
  18  -6  20    7.20   16.40
  18  -6  20    5.50   10.00
   6 -20  18   -0.20   10.30
   6 -20  18   10.00   18.50
  -6 -20  18    5.00   11.00
  18   6  20   -7.00   19.00
  -6 -20  18    4.20   19.30
   1  -7  20   58.89    9.30
  -1   7  20   56.19   15.60
   1  -7  20   64.49   17.20
   1   7  20   56.69   15.90
  -1  -7  20   62.29   17.30
   1   7  20   69.29    9.70
  -1  -7  20   55.39    9.00
  -3   7  20   25.70   14.50
   3  -7  20   37.70    8.70
   3  -7  20   41.80   15.90
  -3  -7  20   48.60   16.00
   3   7  20   58.29    9.30
   3   7  20   50.89   16.10
  -3  -7  20   51.19    8.20
   5  -7  20  306.87   32.60
  20  -5   7  306.17   23.40
  -5   7  20  320.07   31.30
   5  -7  20  314.57   24.60
   5   7  20  236.58   24.50
  -5  -7  20  230.58   23.80
  -5  -7  20  250.87   31.80
  20  -7   7  510.05   36.10
   7 -20   7  539.55   37.30
  -7   7  20  487.25   42.10
   7  -7  20  508.35   37.20
   7 -20   7  475.15   41.30
   7  -7  20  514.05   44.00
  -7  -7  20  405.56   36.40
   7   7  20  376.56   43.90
   7   7  20  376.66   37.20
 -20  -7   7  395.36   37.40
  -7  -7  20  399.66   42.90
  20  -9   7  483.85   34.20
  -9   7  20  432.06   40.20
   9  -7  20  452.25   35.70
   9  -7  20  419.76   42.40
   7 -20   9  440.06   40.80
   7 -20   9  463.35   35.60
 -20  -9   7  399.56   37.30
  -9  -7  20  407.86   41.30
  -9  -7  20  400.06   34.60
   9   7  20  325.47   42.60
  11  -7  20   68.89   17.70
   7 -20  11   61.49   10.40
  11  -7  20   70.99   10.00
   7 -20  11   53.19   16.10
 -11   7  20   67.09   14.40
  11   7  20   28.80   18.70
 -11  -7  20   72.39    9.00
 -11  -7  20   53.59   17.80
 -20 -11   7   60.49   14.10
 -13   7  20   -3.50   10.50
   7 -20  13    9.90    9.10
  13  -7  20    7.00    9.00
  20 -13   7   -0.90    1.40
  13  -7  20   12.10   16.40
   7 -20  13  -10.00   14.90
 -13  -7  20   -3.40    6.50
  -7 -20  13   12.90   17.80
  13   7  20   -6.00   17.70
 -13  -7  20   -1.20   15.30
  -7 -20  13    1.40   10.00
   7 -20  15   34.60   10.70
  15  -7  20   26.60   10.40
   7 -20  15    1.90   16.70
  15  -7  20   13.60   16.50
  15   7  20   20.10   18.70
  -7 -20  15   21.00   10.80
  -7 -20  15    6.60   17.80
 -15  -7  20   25.60   16.40
   7 -20  17   45.20   21.50
  17  -7  20   39.10   17.50
  17  -7  20   31.80   10.70
   7 -20  17   20.70   10.50
  17   7  20   13.10   20.30
  -7 -20  17   22.70   11.60
 -17  -7  20    9.50   15.20
  -7 -20  17    7.60   19.70
   0   8  20   78.09   17.50
   0  -8  20   98.49   13.00
   0  -8  20   85.29   17.50
   2  -8  20   58.59   16.30
  -2   8  20   46.20   15.50
   2  -8  20   67.69    9.90
   2   8  20   50.69   16.50
  -2  -8  20   68.19    9.70
  -2  -8  20   67.09   17.40
   4  -8  20  149.49   28.00
  20  -4   8  117.09   13.70
   8 -20   4  108.29   14.70
   4  -8  20  119.49   15.20
  -4   8  20  147.89   19.90
  -4  -8  20  108.99   18.30
   4   8  20  116.69   21.00
  -4  -8  20  122.49   14.30
   8 -20   6  909.01   71.49
  -6   8  20  986.00   75.59
  20  -6   8  936.01   70.99
   8 -20   6  859.01   74.19
   6  -8  20  914.21   71.59
   6  -8  20  904.81   76.29
   6   8  20  886.91   76.59
  -6  -8  20  946.21   71.29
  -6  -8  20  989.60   76.09
  20  -8   8  887.11   68.69
   8 -20   8  874.21   72.79
   8  -8  20  869.41   69.49
   8 -20   8  860.11   69.29
   8  -8  20  869.01   74.09
  -8   8  20  967.90   73.19
   8   8  20  834.82   74.79
 -20  -8   8  969.40   70.59
  -8  -8  20  897.21   73.79
  -8  -8  20  911.01   68.99
  10  -8  20  140.49   21.40
  10  -8  20  142.89   17.60
   8 -20  10  131.99   20.70
   8 -20  10  152.98   17.00
  20 -10   8  146.79   14.80
 -10   8  20  171.18   20.30
 -20 -10   8  151.38   18.20
 -10  -8  20  144.29   21.50
  10   8  20   94.49   21.40
 -10  -8  20  132.79   15.50
   8 -20  12   37.80    9.80
   8 -20  12   19.90   15.40
  12  -8  20   34.80    9.80
  12  -8  20   48.80   17.60
 -12   8  20   44.50   12.80
 -20 -12   8   37.60   14.30
 -12  -8  20   36.40    8.00
  12   8  20   27.50   18.90
 -12  -8  20   33.20   17.10
  14  -8  20   11.10   16.30
   8 -20  14   19.50    9.30
  14  -8  20   18.80    9.80
   8 -20  14   29.70   16.20
 -20 -14   8   16.30   14.50
  -8 -20  14    9.30   10.90
  -8 -20  14   13.20   19.40
 -14  -8  20   13.90    7.20
  14   8  20   20.40   18.70
 -14  -8  20   28.90   16.90
   8 -20  16    2.50   10.30
  20 -16   8    3.50    1.50
  16  -8  20    0.10    9.90
  16  -8  20  -10.40   15.80
   8 -20  16   -0.10   18.00
  16   8  20   -2.20   19.80
  -8 -20  16   15.90   20.00
 -16  -8  20   11.10   16.60
  -8 -20  16    3.10   10.70
   1  -9  20  345.07   36.90
   1  -9  20  346.77   29.50
  -1   9  20  357.26   36.80
  -1  -9  20  344.87   36.80
   1   9  20  378.46   37.30
  -1  -9  20  347.87   29.40
  20  -3   9  363.96   30.50
   3  -9  20  371.26   38.50
  -3   9  20  399.86   38.00
   9 -20   3  359.36   30.80
   3  -9  20  351.06   31.10
   3   9  20  406.36   39.00
  -3  -9  20  383.16   30.80
   9 -20   5  346.47   27.50
   5  -9  20  337.77   27.80
   5  -9  20  358.66   35.60
  20  -5   9  356.16   27.00
  -5   9  20  335.57   34.60
   9 -20   5  317.97   31.80
  -5  -9  20  260.07   34.80
  -5  -9  20  269.47   27.10
   5   9  20  259.87   35.60
  -7   9  20  453.15   40.00
  20  -7   9  426.46   33.70
   9 -20   7  406.06   38.90
   7  -9  20  408.56   41.90
   9 -20   7  454.55   34.50
   7  -9  20  456.25   34.60
 -20  -7   9  372.16   34.80
  -7  -9  20  418.96   41.30
  -7  -9  20  405.26   34.00
   7   9  20  317.67   41.40
   9 -20   9  512.05   49.20
   9  -9  20  562.54   45.30
   9 -20   9  550.14   45.00
  -9   9  20  519.35   49.30
  20  -9   9  529.25   44.20
   9  -9  20  533.55   50.99
 -20  -9   9  609.74   47.20
  -9  -9  20  606.64   51.19
  -9  -9  20  645.64   44.70
   9   9  20  519.15   51.99
   9 -20  11  305.57   33.60
 -11   9  20  305.07   31.90
  20 -11   9  307.97   26.00
   9 -20  11  276.97   27.40
  11  -9  20  332.47   28.10
  11  -9  20  274.87   35.30
  11   9  20  311.77   37.70
 -11  -9  20  306.77   35.80
 -20 -11   9  337.57   31.40
 -11  -9  20  318.97   26.50
  13  -9  20   86.79   19.60
  13  -9  20   77.29   11.70
   9 -20  13   96.59   12.10
   9 -20  13   89.69   18.10
  -9 -20  13   51.19   18.50
 -13  -9  20   71.59   19.50
 -20 -13   9   91.99   17.60
  -9 -20  13   84.99   13.10
  13   9  20   78.49   21.10
 -13  -9  20   85.79   10.60
   9 -20  15    5.60    9.80
  15  -9  20   21.70   16.90
  15  -9  20   19.50   10.10
   9 -20  15   16.60   18.60
  20 -15   9   -1.20    1.60
  -9 -20  15   16.80   10.80
 -20 -15   9    3.90   15.20
  -9 -20  15    5.10   19.40
 -15  -9  20    3.00   17.20
  15   9  20    5.40   20.60
   0  10  20  149.88   22.80
   0 -10  20  122.29   21.70
   0 -10  20  145.89   16.10
   2 -10  20  256.37   32.80
  10 -20   2  269.37   23.70
  20  -2  10  261.87   23.70
  -2  10  20  251.37   32.00
   2 -10  20  272.87   24.30
   2  10  20  273.07   32.80
  -2 -10  20  282.07   24.00
  -2 -10  20  270.17   32.60
  -4  10  20  131.89   21.00
   4 -10  20  104.39   18.80
  10 -20   4  110.59   17.70
   4 -10  20  146.89   16.30
  10 -20   4  132.89   15.90
  20  -4  10  144.39   15.30
  -4 -10  20  145.29   15.70
   4  10  20  136.79   22.00
  -4 -10  20  115.59   19.20
  -6  10  20  177.18   22.50
  10 -20   6  181.18   23.90
   6 -10  20  141.39   22.50
   6 -10  20  175.38   18.60
  20  -6  10  184.38   17.40
  10 -20   6  185.28   18.10
  -6 -10  20  187.98   24.90
  -6 -10  20  163.78   17.80
   6  10  20  139.89   23.40
  -8  10  20  148.59   19.90
  10 -20   8  167.18   20.30
   8 -10  20  126.69   21.30
  10 -20   8  167.88   17.00
  20  -8  10  137.59   15.50
  -8 -10  20  149.19   16.00
   8  10  20   96.19   22.30
 -20  -8  10  125.89   18.40
  -8 -10  20  115.19   20.00
  20 -10  10   60.79    8.80
  10 -20  10   68.49   16.20
 -10  10  20   51.69   15.60
  10 -10  20   36.70   17.80
  10 -10  20   64.99   11.10
  10 -20  10   61.49   10.20
  10  10  20   34.90   19.60
 -10 -10  20   43.90    9.30
 -20 -10  10   49.00   13.30
 -10 -10  20   41.50   17.90
  10 -20  12  103.49   18.60
  12 -10  20  105.99   13.00
  10 -20  12  100.29   12.50
  20 -12  10   95.79   13.40
  12 -10  20   90.09   20.00
 -20 -12  10   91.39   12.50
  12  10  20   61.39   21.20
 -12 -10  20   84.29   11.20
 -12 -10  20   92.69   20.10
 -20 -12  10   89.69   17.40
 -10 -20  12   55.99   19.60
  20 -14  10   48.60    8.70
  10 -20  14   55.99   18.00
  10 -20  14   59.19   11.40
  14 -10  20   39.10   17.70
  14 -10  20   34.70   11.00
  14  10  20   16.00   20.90
 -10 -20  14   21.60   19.50
 -14 -10  20   26.20   17.90
 -20 -14  10   31.00   16.50
 -10 -20  14   41.90   11.70
 -14 -10  20   32.80    8.60
  16 -10  20   13.00   10.90
  10 -20  16    2.50   18.40
  10 -20  16   21.30   10.80
  16 -10  20   35.70   17.20
 -10 -20  16   40.10   12.00
 -20 -16  10   33.80   16.40
 -10 -20  16   23.50   21.00
 -16 -10  20   31.40   17.90
   1 -11  20   91.39   21.00
   1 -11  20   72.09   11.40
  20  -1  11   98.49   11.60
  11 -20   1   84.49   10.50
  -1  11  20   92.79   19.00
  20  -1  11  108.69   14.70
  11 -20  -1  101.19   12.60
  -1 -11  20   81.49   18.60
  -1 -11  20   85.09   11.60
   1  11  20   91.89   19.10
  11 -20   3  306.97   27.20
  11 -20   3  311.37   31.10
   3 -11  20  283.97   35.60
   3 -11  20  316.27   27.70
  -3  11  20  325.77   35.90
  20  -3  11  319.97   27.30
  -3 -11  20  374.96   36.10
  -3 -11  20  325.97   27.40
   3  11  20  312.67   37.10
  -5  11  20  296.37   34.70
   5 -11  20  317.17   27.30
  20  -5  11  325.57   26.50
  11 -20   5  308.47   31.10
  11 -20   5  304.27   26.50
  -5 -11  20  299.87   26.50
  -5 -11  20  280.37   35.40
   5  11  20  287.87   36.40
  11 -20   7   72.59   15.70
  20  -7  11   81.69   10.30
  -7  11  20   59.49   16.40
   7 -11  20   57.49   10.70
   7 -11  20   64.49   18.40
  11 -20   7   70.59   10.50
  -7 -11  20   68.99   19.30
   7  11  20   35.40   17.20
  -7 -11  20   50.29    9.40
  -9  11  20  358.36   34.50
   9 -11  20  308.27   36.10
  11 -20   9  298.27   32.90
  11 -20   9  304.87   27.40
   9 -11  20  345.97   28.00
  20  -9  11  290.97   26.70
 -20  -9  11  297.27   30.10
  -9 -11  20  303.87   26.90
   9  11  20  288.17   37.50
  -9 -11  20  329.77   37.00
  11 -11  20  299.47   35.90
  11 -11  20  301.97   27.50
  11 -20  11  308.67   33.10
  20 -11  11  304.57   25.90
  11 -20  11  316.47   27.10
 -11 -11  20  271.47   26.20
 -11 -11  20  275.57   36.40
 -20 -11  11  308.07   31.80
  13 -11  20   48.00   19.30
  11 -20  13   47.70   11.30
  13 -11  20   48.00   11.20
  11 -20  13   62.29   17.80
  20 -13  11   39.20    9.00
 -13 -11  20   45.50   19.50
 -13 -11  20   54.69    9.60
 -11 -20  13   46.90   21.00
 -20 -13  11   54.09    8.70
  13  11  20   44.20   22.40
 -11 -20  13   53.59   12.10
 -20 -13  11   50.99   16.20
  20 -15  11    1.10    8.00
  15 -11  20   14.70   10.10
  15 -11  20  -16.20   16.70
  11 -20  15   -3.90   10.00
  11 -20  15    9.60   17.40
 -11 -20  15    6.80   18.40
 -20 -15  11    3.50    7.90
 -11 -20  15   -0.20   10.50
 -20 -15  11   -4.30   15.20
 -15 -11  20   -6.40    7.50
 -15 -11  20   -1.60   17.80
  20   0  12   30.30   11.70
   0  12  20    7.60   15.90
  12 -20   0    9.00    6.90
   0 -12  20    5.30   15.70
   0 -12  20   12.10    8.50
  12 -20   2  114.09   14.10
   2 -12  20   82.19   17.50
  12 -20   2  130.79   16.10
  20  -2  12  122.19   15.30
   2 -12  20  119.39   15.70
  -2  12  20  150.08   21.50
  12 -20  -2  117.89   13.40
   2  12  20   90.59   20.00
  -2 -12  20  109.89   15.40
  -2 -12  20  136.89   22.10
   4 -12  20  176.68   18.10
   4 -12  20  120.99   22.40
  12 -20   4  156.88   18.90
  -4  12  20  181.88   22.60
  12 -20   4  168.78   17.10
  20  -4  12  167.78   17.50
  -4 -12  20  123.79   23.00
  -4 -12  20  160.38   17.60
   4  12  20  124.89   22.20
  12 -20   6   37.60    8.80
   6 -12  20   36.60    9.60
   6 -12  20   22.80   19.60
  20  -6  12   27.90    8.40
  -6  12  20   43.90   17.00
  12 -20   6   38.40   13.40
   6  12  20   30.20   17.50
  -6 -12  20   28.00    8.60
  -6 -12  20   12.00   15.10
  12 -20   8   38.70   14.20
  20  -8  12   32.20    8.80
   8 -12  20   31.80   17.90
   8 -12  20   42.30    9.90
  12 -20   8   29.50    9.30
 -20  -8  12   36.10   10.90
   8  12  20   24.80   17.50
  -8 -12  20   41.20   18.90
  -8 -12  20   24.30    8.80
  12 -20  10  122.99   15.60
  10 -12  20  105.19   13.30
  10 -12  20  123.09   21.20
  20 -10  12  112.89   14.00
  12 -20  10  117.19   17.90
  10  12  20   48.10   20.30
 -10 -12  20   74.09   11.30
 -10 -12  20   77.09   19.60
 -20 -10  12   66.69   15.80
  12 -12  20   52.29   11.00
  12 -12  20   48.30   18.70
  12 -20  12   58.59   16.70
  20 -12  12   61.39    9.50
  12 -20  12   54.99   10.70
 -12 -12  20   33.30   19.40
 -20 -12  12   40.20   15.90
 -12 -20  12   25.20   19.20
 -12 -12  20   41.90    9.60
  12 -20  14   52.69   17.70
  14 -12  20   58.59   11.80
  12 -20  14   47.90   10.90
  14 -12  20   62.69   19.20
  20 -14  12   61.19    9.70
 -12 -20  14   29.20   11.50
 -14 -12  20   63.69   19.50
 -20 -14  12   25.90   16.40
 -14 -12  20   35.60    9.70
 -20 -14  12   31.20    8.40
 -12 -20  14   27.70   19.30
  20  -1  13   94.99   16.00
  13 -20   1  105.79   13.30
  20  -1  13  124.79   15.40
  -1  13  20  108.19   20.10
   1 -13  20   90.69   19.90
   1 -13  20  110.09   15.20
  20   1  13  110.59   17.30
   1  13  20  120.19   20.50
  -1 -13  20  108.99   22.60
  -1 -13  20  114.29   13.20
  13 -20  -1   98.49   11.20
  20  -3  13   19.10    8.50
   3 -13  20   16.10    8.90
  13 -20   3   22.90    7.90
  -3  13  20    7.10   15.80
   3 -13  20   12.80   14.10
  -3 -13  20   14.50   16.50
   3  13  20    9.10   17.90
  -3 -13  20   14.60    8.20
   5 -13  20  165.38   17.90
   5 -13  20  124.49   22.70
  13 -20   5  186.68   19.80
  20  -5  13  142.29   16.80
  13 -20   5  149.09   16.40
  -5  13  20  146.49   22.10
  -5 -13  20  132.49   17.20
  -5 -13  20  116.29   21.00
   5  13  20  142.09   24.40
   7 -13  20    3.00   19.10
  20  -7  13    0.80    2.80
  13 -20   7   -2.50   11.60
   7 -13  20  -10.40    9.20
  20  -7  13    0.10    7.80
  13 -20   7   -8.20    8.20
  -7 -13  20    8.60    8.60
   7  13  20   16.30   16.70
  -7 -13  20   -0.80   17.90
   9 -13  20   95.19   20.60
   9 -13  20  104.39   12.90
  20  -9  13   91.99   11.10
  13 -20   9   90.89   16.60
  13 -20   9   97.69   11.90
   9  13  20   45.40   20.40
  -9 -13  20   52.79   21.40
 -20  -9  13   76.19   14.50
  -9 -13  20   73.49   11.60
  11 -13  20   35.10   10.70
  11 -13  20   52.39   18.80
  13 -20  11   57.99   10.60
  13 -20  11   44.40   15.10
  20 -11  13   48.70    9.50
 -11 -13  20   52.59    9.80
 -20 -11  13   42.00   15.00
 -11 -13  20   38.00   19.60
  13 -20  13   12.90   10.00
  20 -13  13   11.20    8.70
  13 -13  20   17.70   10.80
  13 -13  20    8.90   18.00
  13 -20  13   10.10   15.30
 -20 -13  13   44.10   16.00
 -13 -13  20   10.70   17.90
 -13 -20  13   13.80   17.10
 -13 -20  13    2.70   10.30
 -13 -13  20   19.40    9.00
   0 -14  20   19.30   15.30
  20   0  14  -11.80   11.80
  20   0  14    7.40    9.00
   0  14  20   -5.60   18.40
  14 -20   0    0.90    1.40
   0 -14  20  -13.30    7.90
  14 -20   0    0.20    3.40
  14 -20   2   -1.10    3.10
  20  -2  14   -0.10   11.70
   2 -14  20    5.40    8.70
  14 -20   2   -2.20    6.60
  20  -2  14   10.50    9.20
   2 -14  20    7.40   16.10
  -2 -14  20    3.60    8.50
   2  14  20   -2.40   16.70
  20   2  14   13.50   14.00
  -2 -14  20   14.20   17.80
  14 -20  -2    2.40    1.40
   4 -14  20   -1.80    8.90
  14 -20   4   14.80    7.80
   4 -14  20   19.20   19.90
  20  -4  14    5.30    8.80
  20  -4  14   -0.10    4.00
  14 -20   4    2.10    2.90
  -4 -14  20    4.00   20.00
   4  14  20    7.10   18.80
  -4 -14  20    5.00    8.50
   6 -14  20    0.50   18.00
  20  -6  14    1.30    8.80
  14 -20   6    0.30    8.00
   6 -14  20   -9.60    9.10
  14 -20   6    0.60    2.90
  20  -6  14    1.50    2.80
  -6 -14  20    3.10    8.50
  -6 -14  20  -10.30   18.00
   8 -14  20   20.10   10.10
   8 -14  20    9.70   16.40
  20  -8  14   15.80    9.20
  14 -20   8    6.10    8.80
  20  -8  14    8.20    3.60
  -8 -14  20   11.20    9.40
  -8 -14  20   17.70   16.50
  10 -14  20   25.70   19.70
  14 -20  10   86.59   14.60
  10 -14  20   49.50   11.00
  14 -20  10   70.49   10.70
  20 -10  14   46.10   10.10
 -20 -10  14   22.50   13.80
 -10 -14  20   11.10   20.60
 -10 -14  20   24.70    9.30
  14 -20  12   63.99   16.40
  12 -14  20   56.79   19.40
  14 -20  12   57.99   11.00
  20 -12  14   43.10   10.20
  12 -14  20   47.80   11.30
 -12 -14  20   43.80   19.60
 -14 -20  12   23.00   18.30
 -12 -14  20   28.70    9.60
 -20 -12  14   44.60   15.90
  20  -1  15  241.28   28.50
   1 -15  20  187.18   27.30
   1 -15  20  259.87   23.00
  20  -1  15  264.77   23.10
  20   1  15  237.28   28.80
  -1 -15  20  167.18   26.00
  -1 -15  20  248.08   23.00
   3 -15  20    6.60   20.30
  20  -3  15    4.90   12.30
  20  -3  15   -4.00    9.00
   3 -15  20    0.60    9.40
  20   3  15    6.30   14.80
  -3 -15  20  -13.70    8.90
  -3 -15  20   20.40   20.20
  15 -20   5  126.99   14.60
   5 -15  20   98.09   22.80
   5 -15  20  101.39   13.80
  20  -5  15  153.88   16.20
  -5 -15  20   88.79   13.40
  -5 -15  20  113.99   23.50
  20  -7  15   25.60    9.80
  15 -20   7   22.50    8.90
  15 -20   7   -4.60    3.30
   7 -15  20    0.30   16.20
  20  -7  15   -3.00    2.70
   7 -15  20   23.40    9.90
  -7 -15  20    4.20   16.50
  -7 -15  20   23.20    9.50
   9 -15  20   13.40   10.50
   9 -15  20   15.80   18.00
  15 -20   9    9.00    8.90
  20  -9  15   14.20    9.10
  20  -9  15    2.80    3.60
  15 -20   9   -0.20    3.30
  -9 -15  20   11.10    8.90
  -9 -15  20   -4.80   18.00
  15 -20  11   -9.60    3.60
  20 -11  15   19.00    5.50
  20 -11  15   -0.80    8.80
  11 -15  20    9.30   10.60
  11 -15  20   -2.70   18.10
  15 -20  11    5.60    9.60
 -11 -15  20    0.80   19.10
 -20 -11  15    0.60   14.00
 -11 -15  20    7.00    8.80
 -15 -20  11   -8.50   15.70
   0 -16  20   10.60    9.30
   0 -16  20    0.60   15.30
  20   0  16   22.50    9.90
  20   0  16   16.70   14.60
   2 -16  20   42.90   10.90
  20  -2  16   57.29   15.80
  20  -2  16   54.49   11.60
   2 -16  20   33.10   18.80
  20   2  16   76.09   17.20
  -2 -16  20   59.49   10.80
  -2 -16  20   76.39   21.60
   4 -16  20   10.70   10.00
   4 -16  20   22.30   21.80
  20  -4  16   10.00    9.50
  -4 -16  20   26.10    9.20
  -4 -16  20   15.80   22.20
   6 -16  20   12.60   18.50
   6 -16  20    6.90   10.00
  20  -6  16   -6.00    3.10
  20  -6  16   -6.30    9.50
  16 -20   6    4.20    7.90
  -6 -16  20    2.10   20.30
  -6 -16  20    3.10    8.80
  20  -8  16   13.70    9.40
   8 -16  20   10.80   10.20
  16 -20   8    3.00    8.40
   8 -16  20    4.60   16.00
  -8 -16  20   16.90   17.90
  -8 -16  20    8.40    9.00
  10 -16  20   14.70   10.30
  20 -10  16   28.80    9.90
  16 -20  10   19.80    9.50
  10 -16  20    7.60   17.70
  16 -20  10    1.30    4.20
 -10 -16  20   36.40   10.00
 -10 -16  20   21.80   20.40
  20  -1  17   73.89   11.80
  20  -1  17   62.59   17.40
   1 -17  20   65.99   21.60
   1 -17  20   72.69   12.00
  20   1  17   41.70   16.70
  -1 -17  20   59.89   11.70
  -1 -17  20   68.89   24.80
   3 -17  20    6.50   16.50
  20  -3  17   17.70   15.00
   3 -17  20   11.00    9.90
  20  -3  17   17.00   10.00
  -3 -17  20   31.90   19.50
  20   3  17   22.20   16.60
  -3 -17  20   18.80   10.20
   5 -17  20   95.09   13.60
  20  -5  17  131.69   16.90
   5 -17  20   91.29   20.20
  -5 -17  20  100.09   13.30
  -5 -17  20   79.59   21.30
   7 -17  20   48.20   11.00
   7 -17  20   28.50   20.40
  20  -7  17   44.00   10.80
  -7 -17  20   17.30   23.10
  -7 -17  20   23.30   11.00
  20   0  18    1.00   10.10
   0 -18  20   13.60   18.40
   0 -18  20    0.00    9.70
  20   0  18   -5.10   15.50
  20  -2  18  163.78   23.50
   2 -18  20  117.29   24.70
  20  -2  18  170.38   20.60
   2 -18  20  178.38   20.80
  -2 -18  20  184.18   29.50
  -2 -18  20  212.18   21.10
  20   2  18  190.28   24.10
   4 -18  20   59.89   24.60
  20  -4  18   49.70   16.80
   4 -18  20   46.50   11.80
  20  -4  18   56.79   11.60
  20   4  18   58.69   19.00
  -4 -18  20   63.99   11.00
  -4 -18  20   68.49   24.70
  20  -6  18   -9.10    9.90
   6 -18  20   -1.60   10.30
  18 -20   6    1.50    1.50
   6 -18  20   -0.80   19.10
  -6 -18  20   -4.90    9.60
  -6 -18  20    6.10   20.30
  20  -1  19   19.80   10.20
   1 -19  20    7.20   21.60
  20  -1  19   28.70   16.00
   1 -19  20   12.40   10.80
  -1 -19  20    2.10   17.80
  20   1  19   14.80   16.50
  -1 -19  20    7.30   10.40
   1   0  21  123.59   18.90
   1   0  21   98.19   13.50
  -1   0  21  127.09   18.80
  -1   0  21  112.79   13.50
   3   0  21  236.08   30.40
   3   0  21  258.87   23.00
  -3   0  21  284.07   29.90
  -3   0  21  256.87   22.30
   5   0  21   30.00   15.50
  -5   0  21   50.49   14.40
   5   0  21   38.10    8.40
  -5   0  21   35.50    7.40
  -7   0  21  418.76   32.90
  -7   0  21  405.26   38.80
   7   0  21  387.16   40.50
   7   0  21  415.36   34.00
   9   0  21   61.19   18.60
   9   0  21   80.79   10.70
  -9   0  21   91.19   16.30
  -9   0  21   77.89   11.10
 -11   0  21   99.79   17.00
   0 -21  11  109.79   21.10
   0 -21  11  123.99   16.30
  11   0  21   95.49   20.20
  11   0  21  110.29   15.50
 -13   0  21   77.19   16.30
   0 -21  13   82.99   11.70
  13   0  21   42.40   17.40
   0 -21  13   64.79   19.20
  13   0  21   79.19   12.50
   0 -21  15   45.30   18.80
 -15   0  21   66.99   14.70
  15   0  21   61.29   19.80
   0 -21  15   51.59   11.40
  15   0  21   65.89   12.00
  17   0  21  101.99   22.10
   0 -21  17  138.79   18.90
   0 -21  17  102.29   23.30
  17   0  21  134.69   18.60
   0  -1  21  111.59   13.70
   0   1  21  108.49   13.60
   0  -1  21  109.09   17.40
   0   1  21  119.69   18.00
   2  -1  21   56.49    8.40
  -2   1  21   63.19    8.30
  -2   1  21   50.59   14.70
   2  -1  21   65.19   16.20
  -2  -1  21   47.50   14.40
   2   1  21   30.60   15.00
   2   1  21   40.80    8.30
  -2  -1  21   35.00    7.90
   4  -1  21   45.70    8.90
  -4   1  21   47.60    7.80
   4  -1  21   48.30   15.90
  -4   1  21   49.99   14.60
   4   1  21   47.90    8.60
  -4  -1  21   55.09    8.10
   4   1  21   43.30   15.20
  -4  -1  21   37.20   14.80
   6  -1  21   15.90   14.10
   6  -1  21    4.30    7.90
  -6   1  21   -0.30   13.10
  -6   1  21    5.30    6.50
   6   1  21    5.90    7.40
   6   1  21   -9.50   12.70
  -6  -1  21    7.50   13.30
  -6  -1  21    6.60    6.20
   8  -1  21   31.50    8.80
  -8   1  21   31.00    6.90
  -8   1  21   30.50   13.70
   8  -1  21   21.10   16.00
  -8  -1  21   34.50   14.30
   8   1  21   19.60   15.90
  -8  -1  21   27.10    6.90
   8   1  21   26.50    8.70
   1 -21  10    4.90    8.90
 -10   1  21    0.00    5.40
  10  -1  21    7.50    8.80
 -10   1  21    1.50   12.70
  10  -1  21    1.90   15.70
  10   1  21   -6.30   16.50
 -10  -1  21    0.60   13.30
  10   1  21   -9.30    7.80
 -10  -1  21    1.40    6.00
 -12   1  21   24.50   13.80
   1 -21  12   18.60   15.90
  12  -1  21   24.70    9.30
  12  -1  21   22.90   18.10
   1 -21  12   29.20    9.70
  12   1  21   34.40    9.90
  -1 -21  12   30.20    9.80
  12   1  21   25.00   18.70
  -1 -21  12   20.80   15.90
 -12  -1  21   27.10   14.20
 -14   1  21   74.79   15.60
   1 -21  14   60.49   19.60
  14  -1  21   43.90   17.80
   1 -21  14   59.19   11.80
  14  -1  21   82.99   12.50
  -1 -21  14   61.79   12.00
 -14  -1  21   66.39   15.40
  14   1  21   81.99   12.30
  -1 -21  14   40.90   18.80
  14   1  21   72.49   20.20
   1 -21  16   47.50   11.50
  16  -1  21   33.70   19.00
  16  -1  21   34.30   11.20
   1 -21  16   33.70   18.90
  16   1  21   21.90   18.60
  -1 -21  16   31.60   11.10
 -16  -1  21   59.39   14.10
  -1 -21  16   37.10   19.70
  16   1  21   38.70   11.90
   1 -21  18   50.79   20.50
  -1 -21  18   38.40   20.50
  -1   2  21   30.30   13.00
  -1   2  21   48.50    7.70
   1  -2  21   41.70   14.20
   1  -2  21   55.99    8.30
  -1  -2  21   35.20   14.60
   1   2  21   36.70    8.40
   1   2  21   42.90   15.30
  -1  -2  21   39.30    7.90
  -3   2  21   73.39    9.20
   3  -2  21   58.19   16.60
   3  -2  21   74.29    9.90
  -3   2  21   51.79   15.80
  -3  -2  21   89.19   11.60
   3   2  21   78.39   10.30
   3   2  21   83.69   17.30
  -3  -2  21   68.69   16.00
  -5   2  21  137.59   18.80
   5  -2  21  149.39   16.20
  -5   2  21  171.68   14.80
   5  -2  21  136.49   20.30
  -5  -2  21  137.09   19.40
   5   2  21  135.59   16.10
  -5  -2  21  119.59   14.90
   5   2  21  158.48   24.20
   7  -2  21  601.54   53.59
  -7   2  21  617.24   51.89
  -7   2  21  631.04   47.20
   7  -2  21  612.84   48.00
   7   2  21  595.94   54.09
  -7  -2  21  587.54   47.10
  -7  -2  21  586.54   52.19
   7   2  21  600.34   47.90
  -9   2  21  190.48   23.30
   9  -2  21  191.38   24.90
   9  -2  21  204.38   20.40
  -9   2  21  206.58   17.80
   9   2  21  217.28   20.30
   9   2  21  171.98   24.30
  -9  -2  21  194.48   18.00
  -9  -2  21  198.38   26.70
 -11   2  21   24.30   14.50
  11  -2  21   24.10    9.70
   2 -21  11   37.50    9.80
   2 -21  11   21.50   15.60
  11  -2  21   41.90   18.00
  11   2  21   19.40   18.90
 -11  -2  21   47.10    7.20
 -11  -2  21   72.59   15.40
  11   2  21   42.90   10.00
 -13   2  21   82.59   15.70
   2 -21  13   68.69   11.60
   2 -21  13   62.69   18.90
  13  -2  21   71.99   20.40
  13  -2  21   55.39   10.50
  13   2  21   62.89   19.60
  -2 -21  13   84.49   12.30
  13   2  21   86.49   11.90
 -13  -2  21   80.09   16.90
  -2 -21  13   38.00   17.80
  15  -2  21    8.10   18.10
   2 -21  15   -5.60   17.40
 -15   2  21   14.30   11.80
  15  -2  21   -5.10    9.80
   2 -21  15   12.50   10.00
  -2 -21  15    9.10   10.40
 -15  -2  21    7.90   13.20
  -2 -21  15    6.60   18.20
  15   2  21    2.90   19.10
  15   2  21    5.40   11.00
  17  -2  21    9.80   10.80
   2 -21  17    3.70   10.40
  17  -2  21    9.60   18.10
   2 -21  17   24.40   18.70
  17   2  21   12.10   10.30
  17   2  21    0.10   17.80
  -2 -21  17    9.60   19.30
  -2 -21  17   15.90   11.50
   0  -3  21  265.27   22.50
   0  -3  21  238.38   29.90
   0   3  21  265.77   30.10
   0   3  21  243.38   22.20
  -2   3  21   79.39    9.40
   2  -3  21   56.99   16.40
  -2   3  21   53.39   15.80
   2  -3  21   65.89   10.00
   2   3  21   96.99   12.20
  -2  -3  21   64.99   15.80
  -2  -3  21   92.79   12.10
   2   3  21   68.49   17.00
   4  -3  21   50.19   15.60
  -4   3  21   44.40   14.10
  -4   3  21   33.20    7.60
   4  -3  21   41.50    8.60
  -4  -3  21   35.60    7.60
   4   3  21   35.10    8.40
  -4  -3  21   31.50   14.20
   4   3  21   32.50   16.60
  -6   3  21    3.00    6.30
   6  -3  21   10.20    8.10
   6  -3  21   13.40   15.30
  -6   3  21   17.50   13.50
  -6  -3  21    8.70    6.60
   6   3  21    3.70    8.10
  -6  -3  21    2.40   13.10
   6   3  21   13.80   16.70
  -8   3  21  111.59   18.20
  -8   3  21  105.89   12.20
   8  -3  21  100.19   19.60
   8  -3  21  116.29   13.00
   8   3  21  103.69   12.60
  -8  -3  21   95.99   12.70
  -8  -3  21  109.19   17.80
   8   3  21  105.09   20.40
 -10   3  21   77.69   16.60
   3 -21  10   72.59   11.00
   3 -21  10   60.19   17.50
  10  -3  21   77.89   10.80
  10  -3  21   69.89   18.50
  10   3  21   59.49   17.30
 -10  -3  21   69.79    8.80
  10   3  21   51.69   10.90
 -10  -3  21   63.59   16.50
 -12   3  21   21.80   13.70
   3 -21  12   22.30   16.40
  12  -3  21   37.00    9.90
   3 -21  12   45.50   10.20
  12  -3  21   27.60   17.10
  12   3  21   44.50   19.00
  -3 -21  12   35.20   17.60
  12   3  21   39.90   10.30
  -3 -21  12   48.40   10.60
 -12  -3  21   44.90    9.00
 -12  -3  21   76.09   16.30
  14  -3  21  157.18   19.00
  14  -3  21  105.89   22.20
   3 -21  14  153.58   19.00
   3 -21  14  130.29   23.20
 -14   3  21  152.58   19.20
  14   3  21  150.78   24.90
  -3 -21  14  189.78   20.00
  -3 -21  14  133.39   24.10
 -14  -3  21  213.38   26.50
  14   3  21  155.28   18.80
   3 -21  16   95.29   12.90
   3 -21  16   77.49   20.40
  16  -3  21   85.39   13.10
  16  -3  21   66.99   19.30
  -3 -21  16   65.59   20.60
  16   3  21   57.99   12.10
  16   3  21   75.59   20.50
  -3 -21  16   79.19   13.00
 -16  -3  21   78.79   16.10
  -1   4  21   58.09   15.50
   1  -4  21   48.90    8.50
  -1   4  21   38.20    8.20
   1  -4  21   51.59   16.00
  -1  -4  21   51.49    8.40
   1   4  21   39.90    8.30
  -1  -4  21   47.20   15.00
   1   4  21   43.00   16.10
  -3   4  21   32.40    7.50
  -3   4  21   37.10   14.90
   3  -4  21   38.30    8.10
   3  -4  21   60.49   15.40
   3   4  21   22.80   15.40
   3   4  21   27.00    8.30
  -3  -4  21   29.90    8.00
  -3  -4  21   42.10   14.90
   5  -4  21  352.76   28.50
  -5   4  21  372.66   34.80
   5  -4  21  341.77   35.70
  -5   4  21  372.86   27.60
   5   4  21  296.97   28.30
   5   4  21  307.27   36.20
  -5  -4  21  297.47   34.60
  -5  -4  21  311.57   27.70
   7  -4  21  927.41   68.79
  -7   4  21  943.41   72.39
   7  -4  21  911.21   73.59
  -7   4  21  904.81   67.89
  -7  -4  21  886.91   72.69
   7   4  21  862.01   68.79
   7   4  21  766.62   73.49
  -7  -4  21  866.61   68.09
   4 -21   9  556.04   51.99
   4 -21   9  633.14   47.50
   9  -4  21  566.04   53.29
   9  -4  21  607.14   47.40
  -9   4  21  617.14   51.49
  -9  -4  21  596.64   46.40
  -9  -4  21  570.64   52.19
   9   4  21  509.75   53.59
   9   4  21  623.44   47.70
   4 -21  11   36.40   16.40
   4 -21  11   48.80    9.80
  11  -4  21   32.10   17.20
  11  -4  21   40.60   10.30
 -11   4  21   40.00   14.70
  11   4  21   27.10   18.20
 -11  -4  21   35.50   15.50
 -11  -4  21   43.00    7.40
  11   4  21   28.30   10.80
  13  -4  21   -2.60    9.20
   4 -21  13    0.90   15.90
   4 -21  13   -4.70    9.00
  13  -4  21   -8.80   16.80
 -13   4  21    2.80   12.20
 -13  -4  21    4.10   14.70
  13   4  21    5.70   18.60
  13   4  21   -8.90    9.00
  -4 -21  13    5.00   18.40
  -4 -21  13   -3.60    9.70
   4 -21  15   12.70   17.30
   4 -21  15   13.10   10.50
  15  -4  21   19.10   10.10
  15  -4  21   20.40   17.30
  -4 -21  15   12.50   10.60
  -4 -21  15  -14.10   19.90
  15   4  21    3.40   10.80
  15   4  21   11.60   18.50
 -15  -4  21    3.60   14.90
  17  -4  21   13.80   10.20
   4 -21  17   15.70   10.50
   4 -21  17    8.20   18.20
  17  -4  21   11.80   17.40
  17   4  21   16.30   19.20
  -4 -21  17    0.00   19.10
  -4 -21  17    2.30   11.00
 -17  -4  21   16.40   16.60
   0  -5  21   42.00    7.80
   0  -5  21   44.80   15.70
   0   5  21   25.00   15.20
   0   5  21   21.60    7.80
   2  -5  21  163.28   16.00
   2  -5  21  147.09   20.20
  -2   5  21  147.89   15.40
  -2   5  21  146.79   20.20
  -2  -5  21  141.69   20.50
   2   5  21  128.39   20.10
  -2  -5  21  140.69   15.50
   2   5  21  121.89   16.00
  -4   5  21  363.76   28.30
  -4   5  21  373.36   35.50
   4  -5  21  352.76   36.40
   4  -5  21  382.46   29.20
   4   5  21  308.17   36.70
   4   5  21  302.47   29.10
  -4  -5  21  339.27   35.50
  -4  -5  21  317.87   28.40
  -6   5  21   27.00   14.40
   6  -5  21   32.10   16.10
   6  -5  21   25.50    9.40
   6   5  21   59.59   17.60
  -6  -5  21   57.39    8.50
  -6  -5  21   59.99   15.90
   6   5  21   57.39    9.50
  -8   5  21  287.07   31.40
   8  -5  21  278.77   25.40
   5 -21   8  295.37   25.40
   8  -5  21  276.67   33.80
  -8  -5  21  268.07   24.10
  -8  -5  21  303.77   32.80
   8   5  21  291.17   25.70
   8   5  21  236.98   34.30
 -21  -8   5  285.97   26.30
 -10   5  21  648.34   53.39
  10  -5  21  603.64   55.59
   5 -21  10  647.74   49.80
  10  -5  21  638.34   49.80
   5 -21  10  594.04   54.39
 -10  -5  21  619.14   48.70
  10   5  21  598.04   56.59
 -10  -5  21  685.83   55.09
  10   5  21  579.24   49.70
   5 -21  12  143.59   17.60
  12  -5  21  155.78   17.80
  12  -5  21  128.59   23.00
 -12   5  21  165.48   19.90
   5 -21  12  121.19   21.70
 -12  -5  21  136.19   14.50
  12   5  21  111.79   23.30
 -12  -5  21  153.68   21.10
  -5 -21  12   93.59   23.20
  12   5  21  128.99   18.00
 -14   5  21   13.80   11.50
  14  -5  21   21.70   10.00
  14  -5  21   25.00   17.70
   5 -21  14   31.10   10.30
   5 -21  14   32.30   17.60
  -5 -21  14   20.60   20.60
 -14  -5  21   -0.10   16.10
  14   5  21   16.90   19.00
  -5 -21  14   15.90   10.90
  16  -5  21   20.80   17.40
  16  -5  21   33.10   11.10
   5 -21  16   25.90   10.40
   5 -21  16   27.90   18.10
  -5 -21  16   25.90   20.50
 -16  -5  21   29.10   15.60
  -5 -21  16   18.30   11.30
  16   5  21   26.30   19.70
   1  -6  21    6.50    7.80
   1  -6  21   -5.10   14.50
  -1   6  21   10.90    7.30
  -1   6  21   10.00   15.30
  -1  -6  21  -11.40   14.50
  -1  -6  21    7.40    7.20
   1   6  21   -4.20   15.10
   1   6  21    4.20    7.10
   3  -6  21    0.90    8.10
  -3   6  21    1.40    7.10
  -3   6  21    4.40   13.20
   3  -6  21   -2.30   14.90
   3   6  21   14.40    8.10
  -3  -6  21   14.60    7.00
   3   6  21    2.60   14.80
  -3  -6  21   10.00   14.60
   5  -6  21   34.10    9.30
  -5   6  21   31.80   14.80
   5  -6  21   17.70   15.70
   5   6  21   46.70    8.70
   5   6  21   60.49   16.90
  -5  -6  21   50.99    8.30
  -5  -6  21   79.59   17.70
   7  -6  21  223.48   31.20
  -7   6  21  221.48   28.80
   6 -21   7  261.07   22.60
   7  -6  21  272.07   22.90
  -7  -6  21  234.78   21.30
   7   6  21  231.18   32.20
   7   6  21  214.98   22.40
  -7  -6  21  205.18   30.20
  -9   6  21  233.68   30.30
   6 -21   9  237.58   31.10
   9  -6  21  265.77   24.80
   6 -21   9  271.87   24.80
   9  -6  21  287.47   33.80
   9   6  21  245.18   34.70
   9   6  21  270.07   24.90
  -9  -6  21  272.47   23.30
  -9  -6  21  264.57   32.60
 -21  -9   6  283.37   26.30
   6 -21  11   75.49   17.20
  11  -6  21   78.09   19.60
   6 -21  11   90.99   11.70
  11  -6  21   90.09   12.10
 -11   6  21   82.19   17.10
  11   6  21   74.99   12.00
  11   6  21   62.59   20.60
 -11  -6  21   87.69   10.10
 -11  -6  21   54.29   17.90
   6 -21  13    8.00   16.10
  13  -6  21   21.10    9.80
   6 -21  13   23.70    9.80
  13  -6  21   24.90   18.00
 -13   6  21   13.60   12.40
  13   6  21    4.00   18.50
 -13  -6  21   12.90    6.40
  -6 -21  13   13.80   10.70
 -13  -6  21   31.10   16.50
  -6 -21  13   12.00   19.90
  15  -6  21   22.80   10.20
  15  -6  21   14.50   16.90
   6 -21  15   10.60    9.80
   6 -21  15   17.30   17.50
 -15  -6  21    9.00   16.60
  -6 -21  15   13.80   11.20
  -6 -21  15   20.50   21.00
  15   6  21    1.10   19.50
  -6 -21  17    5.70   19.80
   0   7  21  410.46   40.50
   0  -7  21  389.06   40.70
   0  -7  21  413.86   33.50
   2  -7  21  588.54   48.40
   2  -7  21  581.14   53.99
  -2   7  21  629.74   53.89
   2   7  21  606.94   48.50
   2   7  21  633.34   54.69
  -2  -7  21  634.64   48.20
  -2  -7  21  623.64   53.89
   4  -7  21  880.41   73.89
   4  -7  21  972.30   69.09
  -4   7  21  962.50   73.49
  -4  -7  21  864.81   73.59
   4   7  21  832.42   74.09
   4   7  21  846.42   68.99
  -4  -7  21  868.21   68.69
  -6   7  21  237.78   30.60
   6  -7  21  222.48   32.00
   7 -21   6  279.87   23.70
   6  -7  21  270.07   24.00
  21  -6   7  309.07   21.90
   6   7  21  229.68   33.20
  -6  -7  21  245.68   31.50
   6   7  21  219.88   23.80
  -6  -7  21  238.58   22.80
   7 -21   8  161.18   19.50
  -8   7  21  176.08   22.30
   7 -21   8  159.88   21.90
   8  -7  21  177.08   19.70
   8  -7  21  163.78   24.20
  -8  -7  21  213.38   18.10
  -8  -7  21  216.88   28.50
   8   7  21  179.48   25.30
  10  -7  21  777.02   72.19
   7 -21  10  825.22   70.89
  10  -7  21  837.62   67.19
 -10   7  21  897.91   70.99
   7 -21  10  851.71   66.99
 -10  -7  21  929.91   72.09
 -10  -7  21  904.91   66.39
  10   7  21  770.92   73.29
 -21 -10   7  912.41   68.89
  12  -7  21  383.16   32.10
 -12   7  21  372.96   36.20
   7 -21  12  361.26   32.00
  12  -7  21  362.86   40.20
   7 -21  12  339.47   38.50
 -21 -12   7  374.86   35.60
 -12  -7  21  383.96   30.50
  12   7  21  322.97   41.40
 -12  -7  21  386.46   39.60
  14  -7  21  126.39   17.20
  14  -7  21  114.69   20.80
   7 -21  14  102.69   13.60
   7 -21  14  107.19   20.60
  14   7  21  109.09   22.90
  -7 -21  14   81.59   22.60
  -7 -21  14  108.49   14.90
 -14  -7  21  116.39   21.60
  16  -7  21  178.18   25.90
   7 -21  16  185.68   21.40
   7 -21  16  174.38   26.10
  16  -7  21  201.18   21.60
  -7 -21  16  153.38   27.50
  16   7  21  154.98   27.00
  -7 -21  16  219.08   22.70
 -16  -7  21  198.98   25.00
  -1   8  21   30.30   16.10
   1  -8  21   23.50   17.10
   1  -8  21   40.20    8.60
  -1  -8  21   34.70    8.40
   1   8  21   11.10   15.60
  -1  -8  21    9.00   16.90
   3  -8  21   96.39   12.20
  -3   8  21  115.29   19.40
   3  -8  21  108.49   20.40
  -3  -8  21  141.29   21.60
   3   8  21   93.89   20.20
  -3  -8  21   99.69   14.20
   5  -8  21  280.77   25.60
   8 -21   5  303.97   25.50
   5  -8  21  296.17   34.00
  -5   8  21  273.97   32.90
  21  -5   8  287.47   24.30
  -5  -8  21  276.97   24.90
   5   8  21  259.77   34.60
  -5  -8  21  303.17   34.70
   7  -8  21  152.08   24.10
   7  -8  21  168.48   19.50
  21  -7   8  192.58   17.40
  -7   8  21  182.98   23.10
   8 -21   7  175.88   22.70
   8 -21   7  182.88   19.50
   7   8  21  155.68   23.40
  -7  -8  21  210.98   18.50
  -7  -8  21  207.48   24.60
  -9   8  21   47.50   15.10
   8 -21   9   49.30   15.90
   9  -8  21   35.10   17.90
   8 -21   9   65.29   10.30
   9  -8  21   60.89   10.70
   9   8  21   33.40   19.00
 -21  -9   8   48.60   11.40
  -9  -8  21   51.59    9.30
  -9  -8  21   51.99   17.90
 -11   8  21   -3.20   13.10
  11  -8  21   15.90   16.70
  11  -8  21   11.90    8.90
   8 -21  11    1.00   15.00
   8 -21  11    8.20    9.40
 -11  -8  21   10.40    7.50
 -21 -11   8    5.20   12.20
 -11  -8  21    8.50   16.50
  11   8  21   -2.10   18.20
   8 -21  13   52.99   17.30
 -13   8  21   34.40   13.00
  13  -8  21   35.70   17.90
  13  -8  21   36.70   10.30
   8 -21  13   41.70    9.90
 -13  -8  21   38.40   18.30
  -8 -21  13   26.00   19.20
  -8 -21  13   27.80   11.50
 -13  -8  21   32.70    8.10
 -21 -13   8   29.70   14.60
  13   8  21   21.90   19.50
   8 -21  15   37.20   10.70
   8 -21  15   31.80   18.20
  15  -8  21   36.20   17.80
  15  -8  21   33.10   10.90
  -8 -21  15   25.70   11.70
 -21 -15   8   26.90   15.20
  -8 -21  15   17.90   20.70
 -15  -8  21   32.80   18.30
  15   8  21   18.00   19.50
   0  -9  21   78.89   11.10
   0  -9  21  101.39   21.10
   0   9  21   78.89   18.00
   2  -9  21  166.08   23.10
   2  -9  21  227.38   20.40
  -2   9  21  225.88   26.30
  -2  -9  21  195.98   19.50
  -2  -9  21  169.08   23.30
   2   9  21  206.58   26.80
  21  -4   9  625.34   48.20
   9 -21   4  648.44   48.70
   4  -9  21  585.34   55.39
   4  -9  21  636.44   48.90
  -4   9  21  600.54   54.29
  -4  -9  21  624.54   55.09
  -4  -9  21  589.14   48.40
   4   9  21  567.04   55.29
  21  -6   9  259.57   23.20
   9 -21   6  272.87   24.30
   6  -9  21  230.98   33.60
   6  -9  21  259.27   24.30
   9 -21   6  253.57   29.70
  -6   9  21  259.67   32.00
  -6  -9  21  283.77   33.30
   6   9  21  247.78   34.40
  -6  -9  21  277.77   23.60
   8  -9  21   57.79   10.60
   9 -21   8   56.99   15.40
  21  -8   9   70.49    8.90
   8  -9  21   70.29   18.70
   9 -21   8   68.59   10.40
  -8   9  21   51.19   15.90
  -8  -9  21   44.40    9.50
  -8  -9  21   46.10   18.30
   8   9  21   45.60   19.50
 -10   9  21  464.25   41.00
  10  -9  21  448.96   43.60
   9 -21  10  413.16   41.30
   9 -21  10  467.65   35.90
  21 -10   9  417.56   33.90
  10  -9  21  452.85   36.20
 -10  -9  21  404.36   34.90
  10   9  21  337.37   44.60
 -21 -10   9  402.06   37.70
 -10  -9  21  439.46   43.60
  12  -9  21  141.39   17.90
 -12   9  21  115.49   18.00
  12  -9  21  115.29   21.80
   9 -21  12  134.59   17.10
   9 -21  12  115.39   19.90
  12   9  21   61.59   21.40
 -12  -9  21  114.29   21.80
  -9 -21  12   89.79   20.30
 -21 -12   9   96.59   17.90
 -12  -9  21  111.99   14.50
   9 -21  14   29.00   17.70
  14  -9  21   35.00   10.80
  14  -9  21   28.90   18.00
   9 -21  14   30.60   10.40
 -14  -9  21   49.60    8.50
  -9 -21  14   25.70   18.70
  -9 -21  14   37.30   11.40
 -21 -14   9   33.60   15.70
 -14  -9  21   58.59   18.90
  14   9  21   39.60   20.20
   1 -10  21    3.50    8.40
  10 -21   1   -0.50    7.60
   1 -10  21    7.50   14.60
  -1  10  21    6.30   16.20
  -1 -10  21    2.00    8.00
   1  10  21    5.60   16.10
  -1 -10  21   -9.50   14.00
   3 -10  21   62.29   17.90
   3 -10  21   53.69   10.70
  21  -3  10   66.09   10.20
  10 -21   3   75.99   10.30
  -3  10  21   99.49   18.40
  -3 -10  21   63.19   16.30
   3  10  21   56.29   18.00
  -3 -10  21   65.59    9.90
  -5  10  21  680.93   56.19
  21  -5  10  649.04   49.70
   5 -10  21  571.24   56.39
  10 -21   5  654.03   50.19
   5 -10  21  660.93   50.29
  10 -21   5  629.24   53.69
  -5 -10  21  641.04   49.99
   5  10  21  539.65   56.59
  -5 -10  21  610.74   56.49
   7 -10  21  791.22   71.89
  10 -21   7  871.41   69.69
  10 -21   7  849.41   66.19
  -7  10  21  898.11   70.99
   7 -10  21  854.11   66.39
  21  -7  10  865.21   65.69
  -7 -10  21  820.22   71.79
   7  10  21  772.82   72.49
  -7 -10  21  889.51   66.09
  -9  10  21  459.85   41.90
  21  -9  10  443.26   35.20
   9 -10  21  436.76   44.10
   9 -10  21  458.95   36.60
  10 -21   9  438.96   41.20
  10 -21   9  440.26   36.40
  -9 -10  21  430.56   35.70
  -9 -10  21  398.56   44.10
   9  10  21  347.67   45.20
  11 -10  21   14.80   17.80
  10 -21  11   11.10    9.10
  10 -21  11   15.30   15.30
  11 -10  21   24.50    9.90
 -11 -10  21   11.00   17.80
  11  10  21   -0.50   18.70
 -21 -11  10   -4.90   12.00
 -11 -10  21   12.60    8.00
  10 -21  13   25.20   10.50
  13 -10  21   19.40   11.00
  13 -10  21   21.80   18.20
  10 -21  13   26.30   16.80
  13  10  21   25.50   21.20
 -10 -21  13   29.30   11.40
 -13 -10  21   45.10   19.00
 -10 -21  13   19.90   17.10
 -21 -13  10   26.50   14.60
 -13 -10  21   28.10    8.70
 -10 -21  15   12.70   18.60
 -21 -15  10   21.80   15.50
  11 -21   0  107.29   14.40
   0 -11  21  115.69   15.30
   0  11  21  130.39   21.30
   0 -11  21   95.69   20.70
  -2  11  21   42.30   17.90
   2 -11  21   23.20   17.30
  11 -21   2   38.30   12.80
  11 -21   2   31.50    8.50
   2 -11  21   36.10    9.90
  21  -2  11   36.60    8.70
  -2 -11  21   38.50    9.40
  11 -21  -2   48.60    8.00
   2  11  21   31.60   18.90
  -2 -11  21   35.10   15.10
   4 -11  21   50.79   10.20
  -4  11  21   55.29   17.60
  11 -21   4   48.00   14.60
  21  -4  11   41.80    9.10
   4 -11  21   35.20   17.80
  11 -21   4   44.70    9.20
   4  11  21   35.60   18.90
  -4 -11  21   43.10   20.50
  -4 -11  21   38.20    9.40
  -6  11  21   92.09   18.80
  11 -21   6   95.79   11.70
  11 -21   6   80.79   16.10
   6 -11  21   91.59   12.30
  21  -6  11  102.99   14.00
   6 -11  21   68.19   20.40
   6  11  21   70.89   20.10
  -6 -11  21   88.59   11.30
  -6 -11  21   68.69   17.90
  -8  11  21   18.30   16.40
   8 -11  21    4.20    9.30
  21  -8  11   12.40    8.00
  11 -21   8   12.80    9.10
   8 -11  21   18.90   18.00
  11 -21   8   11.20   14.20
  -8 -11  21    7.30   20.00
   8  11  21  -12.70   17.20
  -8 -11  21    3.20    8.10
  21 -10  11   13.60    8.30
  10 -11  21   21.70   10.30
  11 -21  10   17.90   15.10
  11 -21  10   18.10    9.90
  10 -11  21    3.00   17.40
 -10 -11  21   13.70    8.60
 -21 -10  11   10.80   13.90
 -10 -11  21   18.00   17.70
  10  11  21    9.50   18.80
  12 -11  21   18.20   10.40
  11 -21  12   15.30   15.90
  11 -21  12   15.20    9.80
  12 -11  21   18.50   18.40
  21 -12  11   23.30    8.00
 -12 -11  21   34.90   18.90
  12  11  21    2.30   20.40
 -11 -21  12   11.00   18.90
 -21 -12  11   26.30   14.10
 -12 -11  21   15.00    8.50
  11 -21  14    6.10   10.10
  11 -21  14   27.90   17.40
  14 -11  21   17.60   10.00
  14 -11  21    8.70   17.60
  21 -14  11    9.20    5.30
 -21 -14  11   30.20   15.30
 -14 -11  21   14.20   19.40
 -14 -11  21   20.80    8.60
 -11 -21  14   16.00   11.20
 -11 -21  14    8.80   21.30
   1 -12  21   31.50    9.40
   1 -12  21   16.30   15.60
  12 -21   1   31.70    7.90
  -1  12  21    8.40   16.60
  -1 -12  21   39.70    9.30
   1  12  21   30.00   18.10
  -1 -12  21   29.00   17.50
  12 -21  -1   36.80    7.90
  12 -21   3   39.80   12.80
   3 -12  21   38.10    9.50
  12 -21   3   31.10    8.50
   3 -12  21   46.60   15.50
  -3  12  21   41.80   16.90
  21  -3  12   32.10    8.70
  -3 -12  21   57.19   19.80
   3  12  21   35.20   18.60
  -3 -12  21   33.00    9.30
   5 -12  21  128.09   17.70
  12 -21   5  149.19   18.40
   5 -12  21  103.19   20.50
  -5  12  21  143.69   22.00
  21  -5  12  148.49   16.50
  12 -21   5  148.59   16.50
  -5 -12  21  126.99   16.60
   5  12  21   98.19   22.90
  -5 -12  21  134.99   24.70
   7 -12  21  366.56   32.20
  -7  12  21  411.46   39.30
   7 -12  21  334.77   40.10
  21  -7  12  372.56   31.20
  12 -21   7  379.76   31.60
  12 -21   7  371.86   36.30
  -7 -12  21  381.96   31.60
  -7 -12  21  361.46   42.20
   7  12  21  326.07   41.90
   9 -12  21  121.29   22.60
   9 -12  21  145.49   17.60
  12 -21   9  113.89   19.10
  21  -9  12  122.29   15.60
  12 -21   9  116.09   13.90
  -9 -12  21  149.19   25.20
  -9 -12  21  116.69   13.90
   9  12  21   68.39   21.20
  21 -11  12   22.10    8.50
  11 -12  21   18.50   10.50
  11 -12  21    9.40   18.10
  12 -21  11   44.10   16.00
  12 -21  11   16.00   10.30
 -11 -12  21   28.60    9.30
 -21 -11  12   24.60   13.70
 -11 -12  21   10.80   17.80
  11  12  21   10.10   20.40
  21 -13  12   55.79   10.10
  12 -21  13   56.69   17.90
  12 -21  13   71.89   12.10
  13 -12  21   66.09   12.00
  13 -12  21   63.39   20.30
 -12 -21  13   18.80   17.90
 -13 -12  21   56.89   10.30
 -21 -13  12   68.99   16.60
 -12 -21  13   41.80   12.10
 -13 -12  21   85.79   21.70
   0 -13  21   73.59   11.00
   0  13  21   64.29   20.60
   0 -13  21   50.29   16.40
  21  -2  13   68.69   10.70
   2 -13  21   39.60   20.50
  13 -21   2   81.29   10.10
   2 -13  21   60.69   11.40
  -2  13  21   61.69   18.60
  -2 -13  21   81.49   11.60
   2  13  21   76.89   20.70
  -2 -13  21   77.19   22.40
   4 -13  21   11.80    9.10
  13 -21   4   -3.80    2.80
  -4  13  21   18.20   16.60
  21  -4  13   -2.40    3.00
  21  -4  13   -9.70    8.10
  13 -21   4   -2.20    7.90
   4 -13  21   -8.40   16.80
   4  13  21   16.20   17.80
  13 -21  -4   -3.50    1.40
  -4 -13  21   13.20    8.50
  -4 -13  21   -4.00   17.30
  13 -21   6   57.09   11.80
   6 -13  21   10.20   18.30
   6 -13  21   15.10    9.90
  21  -6  13   14.30    9.00
  13 -21   6   22.80    8.80
  -6 -13  21   15.10   17.20
   6  13  21   13.80   18.60
  -6 -13  21   24.90    9.80
  21  -8  13   31.90    9.10
   8 -13  21   35.60   19.10
  13 -21   8   29.50   14.00
  13 -21   8   43.70    9.90
   8 -13  21   39.20   10.60
  -8 -13  21   36.10   21.30
  -8 -13  21   27.70    9.10
   8  13  21   32.80   22.10
  13 -21  10   16.70    9.60
  21 -10  13   21.80    8.70
  10 -13  21   25.90   10.80
  13 -21  10   34.00   15.30
  10 -13  21   38.30   19.20
 -10 -13  21   20.60    9.10
 -10 -13  21   31.90   18.60
  12 -13  21   54.89   20.10
  12 -13  21   51.39   12.00
  13 -21  12   56.89   17.40
  13 -21  12   71.39   12.10
  21 -12  13   65.19   10.20
 -21 -12  13   67.49   16.80
 -12 -13  21   64.29   11.00
 -13 -21  12   77.79   21.70
 -12 -13  21   40.60   19.80
   1 -14  21   39.50   18.50
  -1  14  21   75.69   21.20
   1 -14  21   57.89   10.90
  21  -1  14   70.89   11.30
  -1 -14  21   60.99   20.70
  -1 -14  21   56.59   10.60
   1  14  21   59.69   20.70
  14 -21   3  164.08   16.80
  21  -3  14  154.98   18.20
   3 -14  21  147.79   18.80
   3 -14  21   98.49   21.50
  -3 -14  21  151.68   26.50
   3  14  21  145.39   26.00
  -3 -14  21  189.78   18.60
  21  -5  14   20.90    9.60
   5 -14  21    3.40   10.10
  14 -21   5   -5.00    3.00
   5 -14  21    1.00   15.30
  21  -5  14    2.90    3.40
  14 -21   5   17.80    8.40
  -5 -14  21   15.50    9.80
   5  14  21   -6.10   20.70
  -5 -14  21    6.20   20.50
   7 -14  21  111.69   14.40
  14 -21   7  125.59   15.80
  21  -7  14  114.59   15.60
   7 -14  21   82.09   19.10
  -7 -14  21   88.39   22.40
  -7 -14  21  107.79   13.60
  14 -21   9   43.40   10.20
   9 -14  21   35.30   19.80
   9 -14  21   37.40   11.40
  21  -9  14   37.50    9.90
  -9 -14  21   42.90   10.80
  -9 -14  21   40.90   19.70
  11 -14  21   23.90   10.70
  11 -14  21    8.90   18.20
  21 -11  14   19.10    8.90
  14 -21  11   19.70    9.90
 -11 -14  21   13.60   19.60
 -11 -14  21   10.10    9.10
  21   0  15   67.49   15.50
   0 -15  21   58.79   11.70
   0 -15  21   38.10   22.80
   2 -15  21    5.90    9.50
  21  -2  15    9.20    9.20
   2 -15  21   22.10   16.80
  -2 -15  21    7.80    9.00
  -2 -15  21   -6.40   16.10
  21  -4  15   19.90    9.40
   4 -15  21   25.30   10.30
   4 -15  21   -1.40   19.40
  -4 -15  21    7.70    9.30
  -4 -15  21   -0.30   18.60
   6 -15  21   21.20   10.30
  21  -6  15   44.30    9.60
  15 -21   6   22.70    8.20
  15 -21   6    5.40    4.50
   6 -15  21   28.60   19.20
  -6 -15  21   21.00   22.80
  -6 -15  21   17.50   10.20
  21  -8  15   10.70    6.70
   8 -15  21   37.20   10.70
   8 -15  21   33.70   19.00
  21  -8  15   31.10   10.00
  15 -21   8   28.30    9.60
  -8 -15  21   14.40   18.50
  -8 -15  21   30.90    9.90
   1 -16  21   36.60   10.70
   1 -16  21   38.60   18.90
  21  -1  16   54.99   11.40
  21  -1  16   67.79   14.90
  21   1  16   51.69   16.80
  -1 -16  21   48.30   11.20
  -1 -16  21   29.80   20.10
   3 -16  21   70.29   18.70
  21  -3  16   77.79   12.30
   3 -16  21   77.99   12.80
  -3 -16  21   66.49   25.00
  -3 -16  21  115.99   13.80
   5 -16  21   20.90   16.60
   5 -16  21   23.00   10.90
  21  -5  16   33.20   10.20
  -5 -16  21   35.40   10.30
  -5 -16  21   17.60   22.90
   7 -16  21  168.88   21.60
   7 -16  21  172.08   24.70
  21  -7  16  187.58   20.10
  16 -21   7  177.98   19.10
  -7 -16  21  163.18   26.60
  -7 -16  21  179.98   20.30
   0 -17  21  108.99   21.60
   0 -17  21  150.08   18.60
  21   0  17  122.39   20.20
   2 -17  21   12.60   21.70
   2 -17  21   29.30   11.20
  21  -2  17   25.60   10.10
  -2 -17  21   10.00   23.80
  21   2  17    7.90   15.80
  -2 -17  21    8.10   10.70
  21  -4  17   -9.10    3.30
  17 -21   4   -0.50    1.60
  21  -4  17   20.00   10.20
   4 -17  21   -4.40   18.70
   4 -17  21   12.00   10.40
  -4 -17  21  -11.30   19.40
  -4 -17  21   21.70   11.20
   0   0  22   -0.70    7.20
   0   0  22  -18.10   14.40
   2   0  22   43.70   15.60
   2   0  22   38.70    8.30
  -2   0  22   32.60    8.00
  -2   0  22   34.40   14.80
  -4   0  22    9.50   14.00
   4   0  22    9.20   14.80
   4   0  22    2.50    7.60
  -4   0  22    4.60    7.00
  -6   0  22   -0.80    6.90
   6   0  22   -0.90    7.90
   6   0  22  -22.90   16.20
  -6   0  22   -1.50   13.50
  -8   0  22   19.50    6.90
   8   0  22   17.00   16.90
   8   0  22   13.40    8.60
  -8   0  22   11.70   13.90
 -10   0  22   81.09   11.10
 -10   0  22   76.59   16.50
  10   0  22   75.29   19.50
  10   0  22   80.59   12.00
  12   0  22    7.00    9.80
  12   0  22   -0.20   17.70
   0 -22  12   26.30   18.60
   0 -22  12   13.70   10.20
 -12   0  22    9.50   14.00
  14   0  22    1.20   18.10
   0 -22  14    0.70   10.10
  14   0  22   -2.20    9.80
   0 -22  14  -16.90   16.20
 -14   0  22   10.20   14.10
   0 -22  16    5.30   10.90
   0 -22  16    7.00   18.30
  16   0  22    2.90   10.30
  16   0  22  -14.40   18.30
   1  -1  22   75.29   10.50
  -1   1  22   78.99   17.10
  -1   1  22   81.09   10.50
   1  -1  22   75.19   18.10
   1   1  22   99.59   17.40
  -1  -1  22  100.79   12.80
   1   1  22   81.29   10.50
  -1  -1  22   81.79   17.70
  -3   1  22   30.70   15.10
   3  -1  22   34.10   16.40
  -3   1  22   19.30    7.10
   3  -1  22   18.80    8.10
   3   1  22   32.80   24.10
  -3  -1  22   18.70    7.10
   3   1  22   20.00    8.00
  -3  -1  22   24.10   15.30
   5  -1  22  100.39   20.60
  -5   1  22  120.99   14.50
   5  -1  22  134.59   15.90
  -5   1  22  139.89   19.90
   5   1  22  130.29   15.90
   5   1  22  123.49   20.40
  -5  -1  22  147.29   14.70
  -5  -1  22  142.39   20.40
  -7   1  22   29.10    7.40
   7  -1  22   25.20    8.70
  -7   1  22   14.00   13.90
   7  -1  22    8.70   16.80
   7   1  22   14.70    8.90
  -7  -1  22   12.80    6.90
   7   1  22   17.70   16.70
  -7  -1  22   13.30   14.40
   9  -1  22  489.85   38.80
  -9   1  22  455.95   37.30
   9  -1  22  412.26   45.90
  -9   1  22  473.85   43.60
   9   1  22  487.25   38.60
   9   1  22  440.06   46.60
  -9  -1  22  486.45   37.40
  -9  -1  22  478.65   43.90
  11  -1  22   58.69   11.10
 -11   1  22   63.79   16.10
   1 -22  11   48.50   18.80
   1 -22  11   65.19   11.00
  11  -1  22   60.59   18.80
 -11  -1  22   51.09   15.90
  -1 -22  11   73.59   20.90
  -1 -22  11   56.49   11.60
  11   1  22   52.99   11.10
  11   1  22   61.99   20.90
  13  -1  22   58.49   21.40
  13  -1  22   73.09   12.20
   1 -22  13   47.50   18.60
   1 -22  13   73.89   11.80
 -13   1  22   90.19   17.00
  -1 -22  13   69.79   12.20
  13   1  22   64.79   12.00
  -1 -22  13   43.70   19.60
 -13  -1  22   56.39   16.20
  13   1  22   51.29   19.60
   1 -22  15   98.29   22.50
 -15   1  22  132.89   17.90
  15  -1  22  104.99   22.40
  15  -1  22  112.49   14.80
   1 -22  15  115.29   14.90
  15   1  22  125.09   23.90
 -15  -1  22  147.89   19.30
  -1 -22  15  140.89   18.30
  -1 -22  15   95.19   23.40
  15   1  22  109.69   14.90
   0   2  22   41.40    8.70
   0   2  22   41.40   15.60
   0  -2  22   32.00   15.30
   0  -2  22   22.70    7.80
   2  -2  22  128.59   13.90
  -2   2  22  116.79   13.30
   2  -2  22  119.79   18.50
  -2   2  22  118.39   18.40
  -2  -2  22   81.69   11.00
   2   2  22   70.39   18.30
   2   2  22   81.59   11.50
  -2  -2  22   93.29   18.30
   4  -2  22   40.00   17.00
  -4   2  22   56.39   16.40
  -4   2  22   54.59    8.40
   4  -2  22   49.40    9.50
   4   2  22   53.79   17.20
   4   2  22   54.29    9.10
  -4  -2  22   31.60   14.90
  -4  -2  22   48.60    8.60
   6  -2  22   -0.80    8.00
   6  -2  22  -13.30   15.70
  -6   2  22    3.10    6.40
  -6   2  22    1.10   13.50
  -6  -2  22   -0.10   14.80
   6   2  22   -1.40    7.50
  -6  -2  22   -1.60    6.70
   6   2  22    6.00   16.60
  -8   2  22   24.20   14.40
   8  -2  22   16.00    8.90
  -8   2  22   27.80    6.90
   8  -2  22    6.90   16.10
  -8  -2  22   13.30   15.30
   8   2  22    8.00    8.70
  -8  -2  22   13.60    6.90
   8   2  22   16.70   16.50
  10  -2  22  124.19   16.10
   2 -22  10  102.09   20.40
  10  -2  22   70.59   19.70
   2 -22  10  101.49   12.90
 -10   2  22  102.49   18.10
 -10  -2  22  107.09   12.70
  10   2  22   90.69   19.70
 -10  -2  22  100.29   18.40
  10   2  22  116.89   16.10
  12  -2  22   62.99   20.80
   2 -22  12   67.79   11.30
  12  -2  22   52.59   11.10
 -12   2  22   71.39   16.40
   2 -22  12   35.00   18.00
 -12  -2  22   63.79   16.50
  -2 -22  12   41.30   19.50
  12   2  22   45.90   11.40
  -2 -22  12   67.89   11.60
  12   2  22   62.49   20.50
  14  -2  22   17.60   11.00
 -14   2  22   -6.20   12.30
   2 -22  14    2.90   10.00
   2 -22  14   -4.10   17.90
  14  -2  22   -1.70   17.60
 -14  -2  22    3.90   14.20
  14   2  22    2.20   18.90
  -2 -22  14    1.20   17.90
  -2 -22  14    3.60   10.30
  14   2  22    1.80    9.80
   2 -22  16   32.60   11.20
  16  -2  22   36.00   19.00
   2 -22  16   30.30   19.40
  16  -2  22   40.00   11.40
  -2 -22  16   23.90   11.40
  16   2  22   18.30   19.70
 -16  -2  22    9.60   13.40
  16   2  22   15.20   10.70
  -2 -22  16   17.80   20.10
   1  -3  22   32.00    8.10
  -1   3  22   19.50    8.00
  -1   3  22   16.40   15.20
   1  -3  22   25.30   15.20
   1   3  22   13.80   15.10
  -1  -3  22   22.40    7.60
   1   3  22   22.20    8.10
  -1  -3  22   20.80   15.40
   3  -3  22  125.99   14.20
   3  -3  22  118.59   18.50
  -3   3  22  100.99   13.10
  -3   3  22  106.99   17.70
  -3  -3  22   92.69   18.00
   3   3  22   67.09   10.70
  -3  -3  22   81.79   10.50
   3   3  22   83.49   18.10
  -5   3  22  154.38   19.80
   5  -3  22  130.79   16.00
  -5   3  22  129.79   14.60
   5  -3  22   97.79   20.60
   5   3  22  136.79   16.10
  -5  -3  22  124.49   19.70
   5   3  22   96.19   20.80
  -5  -3  22  130.19   14.60
   7  -3  22   21.80   17.30
  -7   3  22   18.00    6.90
   7  -3  22   18.80    8.70
  -7   3  22    9.90   14.60
   7   3  22   15.20    9.00
   7   3  22    7.90   17.20
  -7  -3  22    7.70    7.30
  -7  -3  22   19.90   14.50
  -9   3  22  406.16   41.40
   9  -3  22  437.16   36.20
   3 -22   9  451.55   36.50
   9  -3  22  387.36   43.30
   9   3  22  413.76   44.60
   9   3  22  450.55   36.60
  -9  -3  22  442.86   34.90
  -9  -3  22  456.05   42.40
   3 -22  11  165.18   25.30
  11  -3  22  169.88   20.50
 -11   3  22  202.18   24.10
  11  -3  22  157.08   25.10
   3 -22  11  203.78   20.80
  11   3  22  192.58   26.40
 -11  -3  22  238.68   28.90
  11   3  22  180.38   20.80
 -11  -3  22  190.88   17.60
   3 -22  13    3.80   16.30
   3 -22  13    9.70    9.50
  13  -3  22   -8.70   18.10
 -13   3  22    2.70   13.30
  13  -3  22   12.70   10.30
  13   3  22   14.30    9.70
 -13  -3  22    1.50   15.00
  13   3  22   -3.20   18.80
  -3 -22  13   -1.80   19.10
  -3 -22  13    0.00   10.40
  15  -3  22    5.00   18.40
   3 -22  15    5.40   10.50
  15  -3  22   -4.60    9.60
   3 -22  15    6.80   17.60
 -15  -3  22   -2.30   14.20
  15   3  22    0.10   18.90
  -3 -22  15    6.40   11.00
  15   3  22   -2.10   11.10
  -3 -22  15   11.90   16.80
   0   4  22  -10.90   14.90
   0  -4  22   -2.20    7.50
   0   4  22   18.90    8.00
   0  -4  22    7.50   14.10
  -2   4  22   56.29   16.20
   2  -4  22   47.10   16.00
   2  -4  22   57.29    9.30
  -2   4  22   47.50    8.70
   2   4  22   46.70    9.20
  -2  -4  22   34.90    8.60
   2   4  22   45.60   17.00
  -2  -4  22   64.69   16.50
   4  -4  22  141.39   23.20
  -4   4  22  174.38   23.10
  -4   4  22  171.38   18.20
   4  -4  22  184.98   19.10
   4   4  22  215.58   19.60
   4   4  22  223.28   29.90
  -4  -4  22  193.78   18.30
  -4  -4  22  215.48   28.10
  -6   4  22  271.87   31.10
   6  -4  22  283.27   23.90
  -6   4  22  254.37   22.40
   6  -4  22  251.47   33.00
  -6  -4  22  254.07   22.60
   6   4  22  257.77   24.00
   6   4  22  225.28   30.10
  -6  -4  22  229.18   31.10
   8  -4  22  230.48   21.50
  -8   4  22  226.88   28.60
   4 -22   8  234.88   21.70
   8  -4  22  194.88   26.70
   8   4  22  215.98   31.10
   8   4  22  215.58   21.80
  -8  -4  22  216.28   29.50
  -8  -4  22  190.68   19.60
 -10   4  22   36.30   14.90
   4 -22  10   11.00   16.90
  10  -4  22    9.70   17.10
   4 -22  10   22.50    9.40
  10  -4  22   28.50   10.00
 -10  -4  22   30.90   16.30
 -10  -4  22   33.90    7.50
  10   4  22   40.70    9.50
  10   4  22   27.50   19.20
 -12   4  22   69.89   16.90
  12  -4  22   61.29   11.70
   4 -22  12   65.59   11.80
   4 -22  12   48.10   19.00
  12  -4  22   63.49   19.50
  -4 -22  12   72.49   18.60
  -4 -22  12   94.09   12.90
 -12  -4  22  122.59   18.80
  12   4  22   65.39   11.80
  12   4  22   42.80   19.40
 -12  -4  22   86.59    9.80
  14  -4  22    0.40    9.10
  14  -4  22   -6.70   18.70
 -14   4  22    3.20   12.30
   4 -22  14    1.30   17.00
   4 -22  14    4.30   10.10
  14   4  22   26.30   19.20
  -4 -22  14    0.30   19.00
 -14  -4  22   10.50   15.40
  -4 -22  14   10.50   10.80
  14   4  22   11.30   10.00
   4 -22  16    6.10   10.80
  16  -4  22    0.40   17.00
  16  -4  22    6.40   10.60
   4 -22  16    7.70   18.20
 -16  -4  22    0.60   14.20
  -4 -22  16   -3.30   20.90
  16   4  22    6.20   19.40
  -4 -22  16   -5.40   10.40
  -1   5  22  117.09   15.00
   1  -5  22  131.39   20.80
  -1   5  22  125.89   20.20
   1  -5  22  138.09   15.60
   1   5  22  103.09   15.40
  -1  -5  22  132.99   15.30
  -1  -5  22  150.28   20.60
   1   5  22  116.89   19.90
   3  -5  22  139.79   21.20
  -3   5  22  148.49   20.80
  -3   5  22  137.49   15.20
   3  -5  22  145.09   16.30
  -3  -5  22  117.69   20.10
   3   5  22  129.09   16.00
  -3  -5  22  132.09   15.50
   3   5  22  109.19   19.80
  -5   5  22  237.78   21.30
  -5   5  22  276.97   30.30
   5  -5  22  210.78   27.60
   5  -5  22  262.77   22.70
  -5  -5  22  225.78   21.60
   5   5  22  193.78   26.30
  -5  -5  22  249.68   30.90
   5   5  22  244.18   22.50
   5 -22   7  132.89   18.50
   7  -5  22  149.88   18.40
  -7   5  22  152.38   21.70
   7  -5  22  146.99   23.60
  -7  -5  22  181.68   17.00
  -7  -5  22  190.08   23.00
   7   5  22  171.78   18.50
   7   5  22  167.88   23.60
  -9   5  22  163.68   22.20
   5 -22   9  139.89   22.80
   5 -22   9  172.88   19.40
   9  -5  22  172.88   19.40
   9  -5  22  163.88   24.00
  -9  -5  22  190.88   23.60
  -9  -5  22  192.28   17.40
   9   5  22  149.29   24.80
   9   5  22  171.18   19.50
   5 -22  11  115.79   20.90
  11  -5  22  136.59   18.50
 -11   5  22  153.58   21.20
  11  -5  22  116.29   22.50
   5 -22  11  160.88   18.20
  11   5  22  134.49   25.10
 -11  -5  22  143.29   15.50
  11   5  22  155.98   18.40
 -11  -5  22  171.08   22.20
  13  -5  22   43.10   11.10
   5 -22  13   50.89   11.00
  13  -5  22   34.80   19.70
 -13   5  22   44.30   14.90
   5 -22  13   38.20   18.00
  -5 -22  13   81.79   12.60
 -13  -5  22   61.59   17.60
  13   5  22   53.49   20.10
  -5 -22  13   59.19   21.50
  15  -5  22   38.40   19.40
  15  -5  22   34.10   10.80
   5 -22  15   43.20   11.00
   5 -22  15   46.60   18.90
 -15  -5  22   37.60   17.50
  -5 -22  15   46.60   12.30
  -5 -22  15   30.90   22.20
  15   5  22   11.10   19.90
   0   6  22   -5.40    7.30
   0  -6  22    6.50   15.70
   0   6  22   17.10   16.90
   0  -6  22    1.20    7.30
   2  -6  22   -1.20    8.10
   2  -6  22   -5.40   14.90
  -2   6  22   28.30   16.20
  -2   6  22    4.30    7.30
   2   6  22    9.00    8.40
  -2  -6  22   -0.40   15.40
   2   6  22   -4.50   15.80
  -2  -6  22    1.60    8.10
  -4   6  22  264.87   31.50
   4  -6  22  250.67   32.80
   4  -6  22  271.07   23.80
   4   6  22  230.78   33.20
  -4  -6  22  255.17   22.90
   4   6  22  248.58   23.70
  -4  -6  22  250.17   31.70
   6  -6  22  985.30   74.19
   6  -6  22  950.70   79.29
  -6   6  22  969.10   78.09
   6 -22   6 1049.99   74.29
   6   6  22  912.61   74.19
   6   6  22  876.31   79.49
  -6  -6  22  918.61   78.49
  -6  -6  22  954.60   73.69
   6 -22   8 1016.30   84.49
   6 -22   8 1140.09   80.79
  -8   6  22 1070.49   84.49
   8  -6  22  994.70   85.79
   8  -6  22 1098.59   80.79
  -8  -6  22 1051.49   80.19
   8   6  22  892.91   86.09
   8   6  22  993.70   80.79
  -8  -6  22 1087.89   85.39
  10  -6  22  102.99   13.30
   6 -22  10  123.49   21.20
  10  -6  22   87.79   21.10
   6 -22  10  138.89   16.80
 -10   6  22  113.49   18.70
 -22 -10   6  100.29   22.80
 -10  -6  22  130.59   20.60
  10   6  22  102.09   23.50
  10   6  22   97.69   13.80
 -10  -6  22  101.79   14.10
  12  -6  22   -3.80   17.50
  12  -6  22   -0.30    9.80
 -12   6  22    2.10   13.50
   6 -22  12    0.70    9.50
   6 -22  12    1.30   16.70
  -6 -22  12   -0.60   18.10
  12   6  22   -3.30   19.20
 -12  -6  22   13.70    7.10
 -12  -6  22    5.80   16.60
 -22 -12   6   20.70   12.30
  14  -6  22    8.80   10.30
   6 -22  14    5.00    9.90
  14  -6  22    9.70   18.50
   6 -22  14   14.60   17.20
 -14  -6  22   14.80   17.10
  -6 -22  14  -15.00   20.30
  -6 -22  14    7.80   11.10
  14   6  22   -3.40   19.60
   1  -7  22   13.80    8.00
   1  -7  22   17.20   16.30
  -1   7  22   20.90   16.20
  -1  -7  22   -4.90   15.30
  -1  -7  22   13.80    7.80
   1   7  22   40.80   16.90
  -3   7  22   17.40   15.90
   3  -7  22   14.40   16.10
   3  -7  22   21.30    7.90
   3   7  22    5.80   16.60
   3   7  22   10.40    8.60
  -3  -7  22   23.40   15.00
  -3  -7  22   14.60    7.90
   7 -22   5  135.69   18.20
  -5   7  22  163.88   23.00
   5  -7  22  161.48   18.50
   5  -7  22   99.19   22.10
  -5  -7  22  180.38   17.50
  -5  -7  22  207.08   23.90
   5   7  22  200.38   18.70
   5   7  22  163.98   24.10
   7 -22   7  299.07   29.20
   7  -7  22  295.57   29.50
   7 -22   7  296.37   34.60
   7  -7  22  294.47   37.30
  -7   7  22  336.27   35.80
  -7  -7  22  393.36   38.20
   7   7  22  373.56   39.30
  -7  -7  22  389.96   28.40
  -9   7  22  115.79   19.20
   9  -7  22  115.29   21.60
   7 -22   9  111.19   14.10
   9  -7  22   97.89   13.80
   7 -22   9  105.89   19.60
  -9  -7  22  147.89   21.60
  -9  -7  22  145.89   15.10
   9   7  22  110.49   20.60
  11  -7  22    5.50    9.90
 -11   7  22   15.10   14.10
   7 -22  11   16.10    9.60
   7 -22  11   22.70   16.80
  11  -7  22   33.00   18.80
 -11  -7  22   40.80   18.60
  11   7  22   21.50   18.70
 -22 -11   7   40.90   12.30
 -11  -7  22   27.70    8.20
  13  -7  22   13.80   17.50
   7 -22  13   10.90   16.70
   7 -22  13    2.10    9.80
 -13   7  22    7.00   12.10
  13  -7  22   22.40   10.80
  -7 -22  13   14.20   17.30
 -22 -13   7   19.50   13.30
  13   7  22   23.80   19.90
 -13  -7  22   13.20    7.00
  -7 -22  13   12.80   10.90
 -13  -7  22   26.40   17.50
  15  -7  22    5.70   10.50
   7 -22  15    5.00   17.00
   7 -22  15   17.30   10.60
  15  -7  22   14.50   18.30
 -22 -15   7   -4.50   13.90
  -7 -22  15    8.20   11.80
  15   7  22  -16.60   19.00
  -7 -22  15   15.20   20.30
 -15  -7  22    5.60   17.30
   0   8  22   12.30   16.60
   0  -8  22    9.20    8.30
   0  -8  22   40.60   18.70
  -2   8  22   16.40   16.20
   2  -8  22   14.50   16.70
   2  -8  22   12.30    8.70
  -2  -8  22   17.90    8.40
  -2  -8  22   24.80   15.40
   2   8  22   20.20   16.90
  -4   8  22  227.88   30.30
   4  -8  22  177.88   25.90
   8 -22   4  234.68   21.30
   4  -8  22  230.48   21.20
   4   8  22  195.28   28.00
  -4  -8  22  176.18   25.30
  -4  -8  22  215.18   20.50
  -6   8  22 1067.19   84.89
   6  -8  22 1076.09   80.59
   8 -22   6 1104.39   80.49
   8 -22   6 1025.00   83.79
   6  -8  22  976.10   85.49
  -6  -8  22 1058.49   80.09
  -6  -8  22 1015.00   85.59
   6   8  22  958.60   85.99
  -8   8  22 1311.67  102.39
   8 -22   8 1335.17   98.59
   8  -8  22 1352.86   98.79
   8 -22   8 1291.97  101.99
   8  -8  22 1200.68  103.19
  -8  -8  22 1345.97   98.19
  -8  -8  22 1277.77  103.29
   8   8  22 1085.29  103.39
   8 -22  10  219.08   30.70
  10  -8  22  255.47   23.90
   8 -22  10  257.87   23.60
  10  -8  22  238.18   33.80
 -10   8  22  236.68   30.40
 -10  -8  22  249.28   33.80
  10   8  22  182.08   29.60
 -10  -8  22  235.48   22.10
   8 -22  12   17.40    9.80
  12  -8  22   12.60   10.40
  12  -8  22   15.70   19.00
 -12   8  22   24.40   13.90
   8 -22  12    4.60   16.10
 -12  -8  22   19.60   18.20
  -8 -22  12   16.90   21.30
  12   8  22    1.00   19.80
 -22 -12   8   20.70   13.00
 -12  -8  22   30.40    8.30
  14  -8  22   15.10   18.70
  14  -8  22   14.90   10.60
   8 -22  14   22.70   10.90
   8 -22  14    5.30   16.40
  -8 -22  14   18.60   11.40
 -14  -8  22   26.60   19.00
  14   8  22   20.50   19.90
  -8 -22  14   22.00   22.00
 -22 -14   8   29.50   14.70
   1  -9  22  479.35   38.30
   1  -9  22  415.36   45.50
  -1   9  22  475.05   45.80
   1   9  22  495.75   46.20
  -1  -9  22  415.26   45.50
  -1  -9  22  491.85   38.30
  -3   9  22  445.86   43.80
   9 -22   3  468.35   36.50
   3  -9  22  451.05   36.50
   3  -9  22  385.46   43.70
   3   9  22  429.16   44.70
  -3  -9  22  393.26   43.90
  -3  -9  22  456.85   36.30
  22  -5   9  179.48   17.40
   9 -22   5  176.48   25.40
   5  -9  22  148.79   24.60
   9 -22   5  167.48   19.20
  -5   9  22  178.98   23.50
   5  -9  22  168.18   19.20
  -5  -9  22  199.48   25.00
  -5  -9  22  204.98   18.80
   5   9  22  149.39   25.50
   7  -9  22  122.79   22.20
   9 -22   7  111.29   13.90
   9 -22   7  102.19   18.90
   7  -9  22  126.89   17.20
  -7   9  22  133.99   20.80
  -7  -9  22  166.28   23.80
  -7  -9  22  143.39   15.90
   7   9  22  100.89   22.60
  -9   9  22  267.27   32.20
   9  -9  22  251.17   25.20
   9 -22   9  205.08   31.20
   9  -9  22  242.88   34.20
   9 -22   9  275.77   24.90
  -9  -9  22  277.27   23.80
  -9  -9  22  268.67   34.80
   9   9  22  254.87   36.80
 -11   9  22  251.37   31.00
  11  -9  22  282.57   26.20
   9 -22  11  262.87   32.80
   9 -22  11  291.07   25.60
  11  -9  22  241.48   35.70
  11   9  22  201.58   31.30
 -11  -9  22  285.77   24.30
 -11  -9  22  252.67   36.00
  13  -9  22  116.79   22.60
   9 -22  13  142.39   18.40
  13  -9  22  135.89   18.10
   9 -22  13  137.59   21.00
 -13  -9  22  127.89   22.90
  -9 -22  13   88.39   23.60
  -9 -22  13   93.59   15.00
 -22 -13   9   98.79   17.60
 -13  -9  22  105.39   14.90
  13   9  22   85.69   24.60
   0  10  22   78.09   18.30
  10 -22   0   69.49   10.40
   0 -10  22   70.39   19.90
   0 -10  22   69.99   10.90
  10 -22   2   98.79   12.30
   2 -10  22  119.59   15.70
   2 -10  22   92.09   22.10
  -2  10  22  106.39   20.50
  -2 -10  22  119.09   15.50
  -2 -10  22   87.49   20.10
   2  10  22  111.49   21.70
  10 -22   4   39.40   15.00
   4 -10  22   16.60   18.50
  -4  10  22   29.20   17.00
  10 -22   4   17.30    8.80
   4 -10  22   36.40    9.80
   4  10  22   25.90   18.60
  -4 -10  22   58.19   20.40
  -4 -10  22   41.50    8.90
  -6  10  22  127.39   22.00
  10 -22   6  120.59   18.60
  10 -22   6  122.29   16.20
  22  -6  10  124.89   14.70
   6 -10  22  121.99   14.50
   6 -10  22  112.49   22.50
  -6 -10  22  126.59   15.60
   6  10  22   65.29   21.30
  -6 -10  22  118.39   21.00
   8 -10  22  222.28   23.10
  10 -22   8  210.08   29.20
  10 -22   8  246.78   23.00
  -8  10  22  217.08   30.40
   8 -10  22  196.68   27.90
  -8 -10  22  254.77   22.10
   8  10  22  193.78   29.40
  -8 -10  22  252.57   34.20
  10 -22  10   22.80    9.80
  10 -22  10    4.80   15.80
 -10  10  22   24.20   15.20
  10 -10  22   -1.70   18.00
  10 -10  22   20.00   10.70
 -10 -10  22   19.50    8.60
  10  10  22   14.80   20.00
 -10 -10  22   30.70   19.40
  10 -22  12   22.10   17.10
  10 -22  12    9.10    9.70
  12 -10  22   15.80   18.40
  12 -10  22   12.10    9.60
  12  10  22   25.50   21.10
 -12 -10  22   12.90    8.50
 -10 -22  12   13.10   19.90
 -12 -10  22    0.70   18.30
  11 -22   1   71.99    9.90
   1 -11  22   59.69   18.90
   1 -11  22   68.79   11.10
  -1  11  22   70.79   20.20
  -1 -11  22   62.29   10.40
   1  11  22   64.29   19.50
  11 -22  -1   68.89   10.10
  -1 -11  22   43.60   18.80
  -3  11  22  181.68   25.70
  11 -22   3  169.28   25.30
  11 -22   3  195.48   20.40
   3 -11  22  197.48   21.00
  -3 -11  22  172.28   26.30
  -3 -11  22  229.88   20.90
  11 -22  -3  221.18   19.30
   3  11  22  204.68   28.30
   5 -11  22  116.39   23.30
   5 -11  22  178.58   18.40
  22  -5  11  125.09   16.20
  11 -22   5  137.29   17.10
  11 -22   5  129.39   19.20
  -5  11  22  133.89   22.10
  -5 -11  22  137.89   17.10
  -5 -11  22  167.18   24.40
   5  11  22  115.99   24.00
  11 -22   7   28.60   14.80
  22  -7  11   15.80    8.40
   7 -11  22   28.80   10.50
  -7  11  22   17.70   15.70
   7 -11  22   21.20   18.90
  11 -22   7   19.60    9.60
  -7 -11  22   13.20   20.00
   7  11  22   -3.20   18.90
  -7 -11  22   37.10    9.50
  11 -22   9  299.97   26.70
  -9  11  22  289.27   34.60
   9 -11  22  297.17   27.10
   9 -11  22  258.37   36.00
  11 -22   9  296.67   33.10
  22  -9  11  289.47   25.20
  -9 -11  22  249.18   32.50
  -9 -11  22  295.87   25.80
   9  11  22  265.97   38.70
  11 -11  22  253.57   35.80
  11 -22  11  249.97   32.40
  11 -11  22  265.47   26.60
  11 -22  11  266.27   26.00
  11  11  22  233.78   34.20
 -11 -11  22  291.77   25.20
 -11 -11  22  324.97   37.00
  12 -22   0   -1.30    2.90
  12 -22   0    5.70    7.90
   0 -12  22    5.40   17.10
   0  12  22    1.50   17.40
   0 -12  22    2.50    9.20
  -2  12  22   48.60   19.10
   2 -12  22   48.30   22.60
  12 -22   2   71.59   10.20
   2 -12  22   49.60   11.10
  -2 -12  22   87.79   11.90
   2  12  22   65.59   19.90
  -2 -12  22   55.29   20.50
  22  -4  12   73.19   11.50
  -4  12  22   78.39   19.60
   4 -12  22   76.69   12.20
   4 -12  22   59.19   17.60
  12 -22   4   56.89   15.40
  12 -22   4   84.89   11.40
  -4 -12  22   97.19   11.70
  -4 -12  22   84.29   20.40
   4  12  22   75.29   20.40
  22  -6  12    8.50    8.20
  12 -22   6   -1.30   13.20
  12 -22   6    4.50    8.80
  -6  12  22   16.70   16.20
   6 -12  22   -5.30    9.70
   6 -12  22    0.90   18.40
  12 -22  -6    2.50    1.80
  -6 -12  22   28.90    9.10
  -6 -12  22   20.80   19.40
   6  12  22    1.00   18.60
  22  -8  12   10.60    8.30
  12 -22   8    5.40    9.10
  12 -22   8    2.90   14.40
   8 -12  22   29.60   19.10
   8 -12  22   19.30    9.90
  -8 -12  22   19.20    8.90
  -8 -12  22   20.90   19.90
   8  12  22   25.00   20.70
  22 -10  12   11.10    8.20
  10 -12  22   10.20   10.80
  12 -22  10   19.50   10.40
  12 -22  10   13.20   15.00
  10 -12  22    6.90   18.70
  10  12  22   11.40   22.00
 -10 -12  22   25.00    9.60
 -10 -12  22   14.50   18.20
   1 -13  22   54.59   21.40
  13 -22   1   62.49    9.70
   1 -13  22   58.99   10.90
  -1  13  22   84.79   21.70
  -1 -13  22   73.79   11.30
   1  13  22   82.59   21.40
  -1 -13  22   43.80   21.10
  13 -22   3    3.40    8.20
   3 -13  22    9.40   21.70
  13 -22   3    0.80    3.10
  22  -3  13   -1.20    8.60
  -3  13  22    7.10   18.00
   3 -13  22    8.20    9.90
  -3 -13  22    8.20    9.50
  13 -22  -3   -1.40    1.40
   3  13  22    4.10   17.90
  -3 -13  22   -2.30   19.90
  22  -5  13   51.49   10.80
   5 -13  22   41.60   21.70
  13 -22   5   50.59   10.10
   5 -13  22   66.99   11.30
  -5  13  22   33.10   19.10
  -5 -13  22   85.19   11.80
   5  13  22   50.39   21.30
  -5 -13  22   50.99   22.40
  22  -7  13   15.60    9.20
   7 -13  22    5.40   19.10
  13 -22   7   13.60    9.30
   7 -13  22   19.00   10.50
   7  13  22   11.60   22.40
  -7 -13  22   18.60    9.50
  -7 -13  22    2.30   20.60
   9 -13  22  140.39   18.90
  13 -22   9  163.18   18.30
  22  -9  13  137.09   16.90
  13 -22   9  160.88   20.70
   9 -13  22  112.29   24.00
  -9 -13  22  118.99   24.70
   9  13  22  102.29   27.60
  -9 -13  22  124.99   17.80
   0 -14  22    8.70   10.30
   0  14  22   24.40   18.70
   0 -14  22   14.00   18.40
   2 -14  22  -12.90   20.50
   2 -14  22    2.00    9.70
  -2 -14  22    8.00   20.60
  14 -22  -2   -3.30    1.40
  -2 -14  22   -2.10    9.30
   2  14  22   10.60   21.60
   4 -14  22   -1.70   14.80
  14 -22   4    5.50    8.10
  22  -4  14   -0.20    9.80
   4 -14  22    7.00   10.10
  14 -22   4    7.50    4.00
  -4 -14  22    7.50    9.80
   4  14  22   -2.30   17.90
  -4 -14  22    6.20   17.50
  22  -6  14    6.30    9.60
   6 -14  22    1.30    9.90
   6 -14  22    0.50   20.30
  14 -22   6   -3.00    8.70
  -6 -14  22    5.70    9.60
  -6 -14  22   19.90   22.90
   8 -14  22   18.50   19.40
  14 -22   8   -0.20    4.00
   8 -14  22    7.40   10.30
  22  -8  14   25.30    9.30
  14 -22   8   11.10    9.50
  -8 -14  22   34.30    9.80
  -8 -14  22   15.90   18.10
   1 -15  22   88.59   22.40
   1 -15  22  126.19   15.20
  -1 -15  22  105.69   23.40
  -1 -15  22  140.29   18.00
  22  -3  15   -4.00    9.20
   3 -15  22   -4.70   17.00
   3 -15  22    2.40    9.90
  15 -22   3   -0.70    1.60
  -3 -15  22   -1.90   10.60
  -3 -15  22   -4.00   18.20
   5 -15  22   23.90   16.80
   5 -15  22   58.69   12.10
  22  -5  15   55.79   11.00
  15 -22   5   62.69    9.70
  -5 -15  22   32.50   12.00
  -5 -15  22   29.90   18.70
  22  -7  15   -0.60    9.60
   7 -15  22    6.70   18.10
  15 -22   7    5.10    9.20
   7 -15  22   13.30   10.60
  15 -22   7    2.30    6.40
  -7 -15  22    7.60   10.50
  -7 -15  22   -1.20   16.90
   0 -16  22    4.10   20.20
   0 -16  22   -0.60   10.40
   2 -16  22   46.00   11.40
   2 -16  22   43.80   21.80
  -2 -16  22    5.10   20.90
  -2 -16  22   19.00   10.10
  22  -4  16    3.40    3.90
  22  -4  16    7.60    9.60
  16 -22   4   -1.10    1.60
   4 -16  22    3.50   16.90
   4 -16  22   -3.50   10.20
  -4 -16  22    4.40   10.70
  -4 -16  22   13.40   19.80
  -1   0  23   33.20    8.20
  -1   0  23   24.90   15.90
   1   0  23   44.80    8.70
   1   0  23   38.30   16.70
  -3   0  23   80.99   18.00
   3   0  23   91.19   11.40
   3   0  23   95.79   19.70
  -3   0  23   87.39   10.60
  -5   0  23    4.10    7.20
  -5   0  23    5.20   15.20
   5   0  23    3.80    8.30
   5   0  23   14.50   14.60
  -7   0  23  150.98   16.00
   7   0  23  164.88   17.70
   7   0  23  116.99   23.20
  -7   0  23  152.58   21.30
   9   0  23   14.90   17.20
  -9   0  23   -5.00   14.50
   9   0  23   10.10    8.80
  -9   0  23    9.80    6.90
   0 -23  11  169.98   26.00
 -11   0  23  203.88   27.70
  11   0  23  171.68   20.80
  11   0  23  146.59   25.40
   0 -23  11  199.98   21.00
  13   0  23   94.19   13.80
 -13   0  23   80.09   18.60
   0 -23  13   87.09   21.90
  13   0  23  112.39   23.90
   0 -23  13  109.39   14.30
   0 -23  15   11.70   10.80
  15   0  23    4.80   19.90
   0 -23  15    5.50   19.10
 -15   0  23   -7.70   12.60
  15   0  23    5.70   10.90
   0   1  23   34.30    8.80
   0   1  23   24.70   16.20
   0  -1  23   47.20    8.40
   0  -1  23   37.90   17.10
  -2   1  23    8.90   15.50
  -2   1  23   14.90    8.00
   2  -1  23   10.50    7.70
   2  -1  23    3.70   15.00
   2   1  23    5.50   15.40
  -2  -1  23   10.80    7.60
  -2  -1  23   -3.40   15.00
   2   1  23    7.80    7.70
   4  -1  23    4.60    8.40
   4  -1  23    8.90   16.50
  -4   1  23    0.00   14.70
  -4   1  23    7.20    7.40
  -4  -1  23   19.80    7.30
   4   1  23    7.60   15.30
   4   1  23    5.20    8.00
  -4  -1  23    6.90   14.20
   6  -1  23  157.48   18.10
   6  -1  23  139.09   23.90
  -6   1  23  146.59   21.40
  -6   1  23  156.98   16.50
  -6  -1  23  161.88   22.00
   6   1  23  175.28   18.40
  -6  -1  23  169.18   16.50
   6   1  23  139.79   22.80
   8  -1  23  184.88   28.80
  -8   1  23  256.97   22.50
   8  -1  23  252.17   24.40
  -8   1  23  210.28   31.00
   8   1  23  250.37   35.50
  -8  -1  23  291.17   31.70
  -8  -1  23  278.37   22.60
   8   1  23  275.77   24.30
 -10   1  23  -14.10   14.10
   1 -23  10    7.30   17.40
  10  -1  23    3.90   18.20
  10  -1  23    1.90    9.30
   1 -23  10   -5.10    9.50
 -10  -1  23   10.30   15.00
 -10  -1  23   -2.40    6.60
  10   1  23  -15.90   18.10
  10   1  23   -8.00    9.50
  12  -1  23   18.30   19.60
   1 -23  12   -1.50   10.40
 -12   1  23   22.30   15.70
   1 -23  12   15.00   18.80
  12  -1  23   23.70    9.90
 -12  -1  23   15.50   15.70
  -1 -23  12   13.50   10.60
  12   1  23   11.40   10.30
  12   1  23    2.20   17.90
  -1 -23  12   10.20   18.20
  14  -1  23   27.00   20.50
   1 -23  14   18.00   18.40
   1 -23  14   16.80   10.80
  14  -1  23   16.80   10.80
 -14   1  23   24.00   14.20
  14   1  23   34.50   11.40
  -1 -23  14   27.40   19.20
 -14  -1  23   27.80   16.00
  -1 -23  14   20.60   11.60
  14   1  23   20.20   20.30
  -1   2  23   15.70   16.40
   1  -2  23   18.10   15.10
   1  -2  23   13.70    7.70
  -1   2  23    6.60    7.40
  -1  -2  23   18.00   14.80
   1   2  23   15.30    8.20
   1   2  23   -2.10   15.00
  -1  -2  23    8.20    7.90
   3  -2  23    9.60    8.20
  -3   2  23   12.40   14.60
   3  -2  23   11.30   15.10
  -3   2  23   21.00    8.10
  -3  -2  23   13.90    7.40
   3   2  23   21.10    7.90
   3   2  23   24.40   16.20
  -3  -2  23   26.10   14.90
  -5   2  23   50.59   15.90
  -5   2  23   39.40    8.40
   5  -2  23   42.90    9.60
   5  -2  23   37.60   16.50
  -5  -2  23   21.70    8.00
   5   2  23   21.70    9.70
   5   2  23   33.30   19.40
  -5  -2  23   20.60   14.80
   7  -2  23  159.18   24.30
  -7   2  23  181.68   17.70
   7  -2  23  191.58   19.80
  -7   2  23  197.58   23.10
  -7  -2  23  191.08   24.40
  -7  -2  23  183.68   18.00
   7   2  23  182.98   19.70
   7   2  23  153.18   25.10
  -9   2  23   30.30    7.00
   2 -23   9   16.80    9.40
   9  -2  23   46.30   19.90
  -9   2  23   29.10   16.40
   9  -2  23   13.10    9.30
  -9  -2  23    0.50    7.00
   9   2  23   -5.20   16.90
   9   2  23    7.10    9.60
  -9  -2  23    3.20   15.00
 -11   2  23  158.58   21.90
  11  -2  23  148.09   18.00
  11  -2  23  104.29   22.80
   2 -23  11  141.79   18.80
   2 -23  11  113.49   21.70
  11   2  23  136.49   23.40
  11   2  23  150.28   19.00
  -2 -23  11   83.99   21.20
 -11  -2  23  140.09   21.10
 -11  -2  23  137.39   18.20
  -2 -23  11  155.88   19.50
  13  -2  23  121.59   23.60
   2 -23  13  102.29   14.50
 -13   2  23  131.59   19.10
   2 -23  13   80.49   19.60
  13  -2  23  112.69   14.60
  13   2  23  109.79   14.80
 -13  -2  23  149.19   20.60
  13   2  23   95.29   23.40
  -2 -23  13  115.89   24.80
  -2 -23  13  110.09   14.90
   2 -23  15   15.20   19.00
  15  -2  23   -3.80   18.90
  15  -2  23   -1.40   10.90
   2 -23  15   -4.30   10.40
  15   2  23    2.00   10.40
  -2 -23  15   13.80   11.50
 -15  -2  23   -0.40   13.60
  15   2  23   20.50   20.00
  -2 -23  15  -16.20   17.90
   0   3  23  107.39   19.70
   0  -3  23   86.69   11.10
   0  -3  23   74.99   18.80
   0   3  23   88.19   11.00
   2  -3  23   11.10    8.20
   2  -3  23   19.40   15.60
  -2   3  23   30.10   16.30
  -2   3  23   14.10    8.00
  -2  -3  23   17.10    7.90
   2   3  23   14.20   16.10
  -2  -3  23    9.90   15.90
   2   3  23   23.80    8.40
  -4   3  23   34.60   16.30
   4  -3  23   35.20    9.10
   4  -3  23   43.10   19.40
  -4   3  23   42.90    8.70
   4   3  23   40.10   17.30
  -4  -3  23   28.20   15.70
  -4  -3  23   34.30    8.10
   4   3  23   17.40    9.10
   6  -3  23  214.18   22.60
   6  -3  23  176.18   26.40
  -6   3  23  219.28   30.60
  -6   3  23  226.48   21.10
  -6  -3  23  270.97   31.30
   6   3  23  240.38   33.80
  -6  -3  23  246.28   21.30
   6   3  23  264.77   22.80
   8  -3  23  372.16   33.30
   8  -3  23  338.57   41.70
  -8   3  23  316.67   39.00
   8   3  23  378.86   42.60
  -8  -3  23  412.66   32.10
   8   3  23  423.06   33.70
  -8  -3  23  455.05   40.70
 -10   3  23   17.80   14.70
  10  -3  23   23.40   10.40
   3 -23  10   27.70   10.50
  10  -3  23   16.20   18.30
   3 -23  10   22.10   18.50
  10   3  23   34.20   10.40
 -10  -3  23   50.99    8.00
 -10  -3  23   33.90   16.90
  10   3  23   57.09   19.90
   3 -23  12   14.70   18.80
 -12   3  23   32.90   15.40
   3 -23  12   17.80   10.20
  12  -3  23   20.50   18.80
  12  -3  23   29.90   10.10
 -12  -3  23   19.10   16.60
  -3 -23  12   34.40   18.70
  12   3  23   39.90   20.90
  12   3  23   23.10   11.10
  -3 -23  12   38.10   11.60
   3 -23  14   62.19   20.60
   3 -23  14   76.09   12.70
 -14   3  23   78.19   16.20
  14  -3  23   53.09   20.50
  14  -3  23   68.79   11.90
  -3 -23  14   81.99   24.10
  14   3  23   77.59   22.30
  -3 -23  14   87.29   13.70
  14   3  23   61.49   12.70
 -14  -3  23   83.19   18.50
   1  -4  23    4.30    7.80
   1  -4  23   14.60   16.20
  -1   4  23    9.70    7.80
  -1   4  23   14.80   16.50
   1   4  23   12.30   17.00
  -1  -4  23   10.30    8.20
   1   4  23    7.00    8.10
  -1  -4  23    4.50   15.20
   3  -4  23   49.10    9.20
  -3   4  23   43.60    8.60
  -3   4  23   46.10   16.90
   3  -4  23   30.10   18.30
  -3  -4  23   46.70   17.10
   3   4  23   31.90    9.50
  -3  -4  23   31.50    8.70
   3   4  23   26.70   18.10
  -5   4  23  110.59   11.10
   5  -4  23  103.29   11.80
  -5   4  23   74.99   18.40
   5  -4  23   71.09   20.50
   5   4  23   78.49   11.80
  -5  -4  23   63.59   10.60
  -5  -4  23   90.69   19.20
   5   4  23   61.69   20.70
   7  -4  23  267.87   36.00
   7  -4  23  311.67   26.10
  -7   4  23  308.37   33.30
  -7  -4  23  280.67   24.60
   7   4  23  264.67   26.30
  -7  -4  23  268.47   34.30
   7   4  23  262.57   36.50
  -9   4  23  206.48   27.30
   9  -4  23  213.48   19.60
   9  -4  23  153.38   24.70
   4 -23   9  224.88   29.10
  -9  -4  23  154.98   23.00
   9   4  23  129.49   24.70
  -9  -4  23  151.48   17.10
   9   4  23  149.19   19.50
  11  -4  23   33.20   20.40
   4 -23  11   47.20   11.00
 -11   4  23   48.10   16.50
   4 -23  11   29.10   18.60
  11  -4  23   41.00   10.60
  11   4  23    8.20   19.60
  11   4  23   15.70    9.70
 -11  -4  23   31.90    7.70
 -11  -4  23   28.50   17.10
  13  -4  23   32.30   10.70
 -13   4  23   20.70   14.70
   4 -23  13   15.10   10.70
   4 -23  13   32.70   18.90
  13  -4  23   24.50   20.20
  13   4  23   12.00   10.80
  -4 -23  13   25.60   11.60
  13   4  23   29.80   20.60
  -4 -23  13   24.90   21.00
 -13  -4  23   27.00   16.80
   0   5  23   27.20   17.80
   0   5  23   17.00    8.50
   0  -5  23   13.20    8.50
   0  -5  23   17.60   16.10
   2  -5  23   44.70    9.20
  -2   5  23   41.80    8.70
  -2   5  23   35.20   17.00
   2  -5  23   20.90   16.70
  -2  -5  23   21.60   16.30
   2   5  23   15.20   15.30
   2   5  23   21.20    9.50
  -2  -5  23   23.80    8.70
   4  -5  23   82.09   18.80
  -4   5  23   97.19   10.50
  -4   5  23   82.09   18.10
   4  -5  23   86.19   11.10
  -4  -5  23   73.79   18.40
   4   5  23   46.50   19.20
  -4  -5  23   72.29   10.80
   4   5  23   77.79   11.90
  -6   5  23  102.69   20.00
   6  -5  23   82.29   21.20
   6  -5  23   96.79   13.30
   6   5  23  109.99   22.40
  -6  -5  23  137.79   15.10
   6   5  23  137.59   16.50
  -6  -5  23  153.98   21.40
   8  -5  23  284.57   38.00
   5 -23   8  276.17   35.00
   5 -23   8  323.57   28.70
   8  -5  23  291.97   28.50
  -8   5  23  270.57   34.80
  -8  -5  23  356.86   27.20
   8   5  23  325.27   28.30
  -8  -5  23  370.16   36.80
   8   5  23  319.27   39.00
  10  -5  23  187.08   21.40
 -10   5  23  203.38   29.10
   5 -23  10  195.78   21.60
  10  -5  23  163.88   26.80
   5 -23  10  141.59   24.60
 -10  -5  23  226.68   19.20
 -10  -5  23  243.68   26.80
  10   5  23  218.28   21.50
  10   5  23  174.08   26.50
   5 -23  12   19.80   10.30
   5 -23  12    9.80   17.50
 -12   5  23   25.30   15.30
  12  -5  23   14.10   10.30
  12  -5  23    4.20   17.70
 -12  -5  23   13.40   16.70
  -5 -23  12   21.30   11.40
  12   5  23   17.50   10.80
  -5 -23  12   27.40   20.60
  12   5  23   15.60   19.40
 -12  -5  23   16.70    7.60
  14  -5  23    3.20   20.00
   5 -23  14    7.60   10.50
   5 -23  14    2.40   18.50
  14  -5  23    0.90   10.30
  -5 -23  14   -6.10   19.30
  -5 -23  14   -4.80   11.60
  14   5  23   -4.90   19.80
 -14  -5  23   -8.30   16.50
   1  -6  23  183.28   18.30
  -1   6  23  148.09   22.70
  -1   6  23  153.58   17.60
   1  -6  23  131.09   23.20
   1   6  23  152.68   23.20
  -1  -6  23  167.58   23.50
  -1  -6  23  176.18   17.90
   1   6  23  163.78   17.90
   3  -6  23  179.18   27.20
   3  -6  23  236.68   22.90
  -3   6  23  246.28   31.40
   3   6  23  247.88   33.50
  -3  -6  23  256.07   22.30
  -3  -6  23  216.18   32.10
   3   6  23  250.97   22.70
   5  -6  23   91.29   12.60
  -5   6  23   96.39   19.70
   5  -6  23   75.99   20.60
  -5  -6  23  136.19   15.20
  -5  -6  23  123.99   20.80
   5   6  23  130.39   16.00
   5   6  23  115.19   21.60
   7  -6  23  108.29   13.10
   6 -23   7  113.69   13.10
  -7   6  23   89.49   19.20
   7  -6  23  100.99   21.70
   6 -23   7   87.89   19.20
   7   6  23   89.99   12.60
  -7  -6  23   93.29   20.50
   7   6  23   96.89   22.60
  -7  -6  23  104.49   12.00
  -9   6  23  263.37   31.80
   6 -23   9  240.98   32.70
   6 -23   9  266.37   25.20
   9  -6  23  265.97   35.90
   9  -6  23  267.07   25.10
   9   6  23  239.38   25.20
   9   6  23  215.78   31.10
  -9  -6  23  273.47   23.40
  -9  -6  23  289.77   34.50
  11  -6  23  132.29   18.50
  11  -6  23  137.39   24.10
   6 -23  11  117.69   22.20
 -11   6  23  134.79   20.70
   6 -23  11  113.69   15.10
 -11  -6  23  147.69   22.80
 -11  -6  23  146.59   15.70
  11   6  23  170.68   27.00
  13  -6  23   41.70   20.10
   6 -23  13   38.90   18.40
  13  -6  23   59.39   11.80
   6 -23  13   51.19   11.80
 -13   6  23   54.69   15.30
  -6 -23  13   68.79   12.90
  13   6  23   56.19   22.80
 -13  -6  23   91.59   19.60
  -6 -23  13   48.10   20.80
   0  -7  23  143.49   17.40
   0   7  23  166.48   24.10
   0  -7  23  135.19   23.00
   2  -7  23  220.48   30.80
   2  -7  23  210.08   19.90
  -2   7  23  191.68   25.20
  -2  -7  23  188.28   19.50
  -2  -7  23  165.38   25.00
   2   7  23  159.88   25.30
  -4   7  23  322.67   35.10
   4  -7  23  305.47   35.90
   4  -7  23  314.47   27.00
   4   7  23  262.07   37.10
  -4  -7  23  291.67   26.20
  -4  -7  23  256.57   35.70
   7 -23   6  115.89   13.20
  -6   7  23  103.39   19.30
   6  -7  23   80.49   21.20
   6  -7  23  114.09   13.30
  -6  -7  23   91.19   11.70
  -6  -7  23   87.89   20.40
   6   7  23   50.89   21.10
   8  -7  23   94.19   12.50
   8  -7  23   68.59   20.00
  -8   7  23  111.89   20.60
   7 -23   8   80.89   18.60
   7 -23   8   98.59   13.20
  -8  -7  23  103.19   20.80
   8   7  23   66.49   21.60
  -8  -7  23   90.79   11.30
   7 -23  10  235.48   22.30
  10  -7  23  173.08   27.40
   7 -23  10  176.68   26.40
  10  -7  23  197.78   22.20
 -10   7  23  213.68   29.50
 -10  -7  23  227.38   20.50
 -10  -7  23  224.88   27.30
  10   7  23  191.98   29.60
  12  -7  23   40.70   20.90
  12  -7  23   46.30   11.40
 -12   7  23   33.00   15.40
   7 -23  12   40.90   11.40
   7 -23  12   34.20   17.90
 -12  -7  23   52.89    8.90
  12   7  23   45.60   21.50
  -7 -23  12   44.20   22.40
 -12  -7  23   72.69   19.70
  -1   8  23  267.87   34.40
   1  -8  23  244.18   24.20
   1  -8  23  234.28   34.30
  -1  -8  23  258.57   34.20
   1   8  23  261.17   34.80
  -1  -8  23  290.27   24.20
  -3   8  23  348.07   40.40
   3  -8  23  360.76   32.40
   3  -8  23  359.66   41.30
   8 -23   3  384.16   32.60
  -3  -8  23  413.66   32.20
   3   8  23  370.86   41.40
  -3  -8  23  404.76   41.50
   5  -8  23  291.07   38.10
   8 -23   5  302.27   29.50
   5  -8  23  319.17   29.60
  -5   8  23  316.67   37.30
  -5  -8  23  336.27   39.70
  -5  -8  23  395.96   29.00
   5   8  23  334.27   39.20
  -7   8  23   89.89   19.80
   8 -23   7   80.49   18.60
   8 -23   7   95.99   12.40
   7  -8  23  106.79   13.40
   7  -8  23   71.69   21.00
  -7  -8  23   91.39   11.70
   7   8  23   63.69   20.70
  -7  -8  23   85.69   21.20
  -9   8  23  181.08   23.90
   9  -8  23  153.98   19.50
   9  -8  23  158.08   25.00
   8 -23   9  161.18   19.10
   8 -23   9  143.79   22.10
  -9  -8  23  162.48   24.60
  -9  -8  23  172.78   17.80
   9   8  23  109.29   24.40
  11  -8  23   49.70   21.60
 -11   8  23   22.40   15.50
  11  -8  23   34.10   11.30
   8 -23  11   50.19   17.50
   8 -23  11   46.20   11.10
 -11  -8  23   47.00    9.20
  11   8  23   23.90   21.30
 -11  -8  23   51.09   20.30
   8 -23  13   22.60   17.80
  13  -8  23   18.00   11.10
   8 -23  13   16.80   10.30
  13  -8  23   28.60   18.50
  13   8  23   18.50   21.40
  -8 -23  13   24.80   18.40
 -13  -8  23   13.80   18.20
  -8 -23  13   26.70   12.30
   0  -9  23    8.70   17.50
   0   9  23    1.80   17.40
   0  -9  23    8.50    9.10
  -2   9  23   21.60   17.40
   2  -9  23    8.70   18.10
   9 -23   2   11.40    9.00
   2  -9  23   24.80    8.90
  -2  -9  23   10.50    8.80
   2   9  23   17.10   18.70
  -2  -9  23   26.10   19.40
   4  -9  23  218.58   20.20
   9 -23   4  203.88   20.10
  -4   9  23  189.78   25.20
   9 -23   4  203.58   26.40
   4  -9  23  187.08   26.50
   4   9  23  115.19   25.00
  -4  -9  23  146.19   26.30
  -4  -9  23  153.78   19.20
   9 -23   6  276.17   25.80
  -6   9  23  292.67   34.60
   6  -9  23  262.27   36.10
   9 -23   6  275.87   31.80
   6  -9  23  270.27   26.00
  -6  -9  23  281.37   25.00
  -6  -9  23  245.08   35.80
   6   9  23  247.48   36.50
   9 -23   8  159.48   22.50
   9 -23   8  168.98   19.40
   8  -9  23  146.79   25.40
  -8   9  23  162.58   23.10
   8  -9  23  177.58   20.00
  -8  -9  23  162.08   18.40
   8   9  23  126.59   25.30
  -8  -9  23  165.98   24.60
  10  -9  23   94.29   22.40
   9 -23  10  104.29   20.50
  10  -9  23   88.49   14.40
   9 -23  10  119.59   14.90
 -10   9  23  127.39   20.20
 -10  -9  23  158.68   16.20
 -10  -9  23  173.38   24.70
  10   9  23  113.19   25.00
   9 -23  12   12.20    9.90
  12  -9  23    8.90   10.30
  12  -9  23   -7.00   18.70
   9 -23  12   -2.00   16.90
 -12  -9  23   27.30   19.70
  12   9  23   27.00   21.10
 -12  -9  23   41.70    9.30
  -9 -23  12   26.90   19.10
   1 -10  23    2.30    9.30
  -1  10  23    4.90   17.90
  10 -23   1   -8.50    8.60
   1 -10  23   20.20   20.70
   1  10  23    5.10   17.70
  -1 -10  23   10.90   18.80
  -1 -10  23   10.90    9.00
   3 -10  23   33.30   10.30
   3 -10  23   28.20   19.70
  10 -23   3   35.00    9.60
  -3  10  23   42.60   18.40
  10 -23   3   19.90   14.40
   3  10  23   45.20   19.20
  -3 -10  23   25.50   16.50
  -3 -10  23   48.70    9.60
   5 -10  23  215.48   21.80
  -5  10  23  198.28   26.90
  10 -23   5  177.68   21.20
  10 -23   5  190.28   27.70
   5 -10  23  132.59   26.00
   5  10  23  183.58   28.00
  -5 -10  23  260.17   20.90
  -5 -10  23  218.28   27.70
   7 -10  23  225.88   22.80
  -7  10  23  200.98   26.40
  10 -23   7  208.38   29.20
   7 -10  23  172.48   27.90
  10 -23   7  218.98   22.40
   7  10  23  217.38   30.80
  -7 -10  23  233.78   29.70
  -7 -10  23  228.08   21.50
   9 -10  23   91.59   22.60
   9 -10  23  105.39   14.50
  10 -23   9  142.09   17.80
  -9  10  23  111.09   20.70
  10 -23   9   99.59   19.90
  -9 -10  23  143.49   16.70
  -9 -10  23  156.98   23.40
   9  10  23  113.09   23.20
  10 -23  11   -3.10    9.50
  11 -10  23    3.60   10.30
  11 -10  23    7.20   19.10
  23 -11  10    1.40    1.60
  10 -23  11    9.30   16.40
 -11 -10  23    4.30   19.90
 -11 -10  23    4.00    9.00
  11  10  23   18.40   21.70
   0 -11  23  208.78   21.20
  11 -23   0  195.28   20.30
   0 -11  23  195.28   28.70
   0  11  23  176.28   26.30
  11 -23   2  131.79   19.00
   2 -11  23  140.29   18.00
  -2  11  23  147.99   23.40
  11 -23   2  137.79   17.70
   2 -11  23  109.49   25.10
  11 -23  -2  142.79   16.80
  -2 -11  23  158.58   18.00
  -2 -11  23  113.89   22.20
   2  11  23  132.39   23.60
  -4  11  23   40.60   18.90
  11 -23   4   59.89   15.30
  11 -23   4   45.70   10.20
   4 -11  23   43.70   20.10
   4 -11  23   43.20   10.50
  -4 -11  23   18.70   19.70
  -4 -11  23   38.50   10.50
   4  11  23   28.10   20.00
   6 -11  23  138.99   24.90
  -6  11  23  150.88   22.90
  23  -6  11  178.08   16.50
  11 -23   6  129.49   18.20
   6 -11  23  142.09   19.00
  11 -23   6  118.69   20.30
  -6 -11  23  158.58   18.00
   6  11  23  122.59   24.90
  -6 -11  23  156.38   27.20
   8 -11  23   47.10   11.90
  -8  11  23   53.49   18.00
   8 -11  23   45.50   20.70
  11 -23   8   40.90   16.90
  11 -23   8   45.00   10.60
   8  11  23   20.60   20.70
  -8 -11  23   54.69   11.10
  -8 -11  23   65.49   21.60
  10 -11  23    0.70   10.70
  11 -23  10   -4.80   10.50
  10 -11  23   -3.60   19.30
  23 -10  11    3.40    1.80
  11 -23  10    5.80   15.30
 -10 -11  23    4.10    9.30
  10  11  23   -3.20   19.30
 -10 -11  23    3.30   19.00
  12 -23   1    4.80    3.60
   1 -12  23    5.90   22.10
   1 -12  23   25.20   10.10
  12 -23   1   19.40    8.50
  -1  12  23    1.20   18.30
  -1 -12  23   18.30   19.80
   1  12  23   17.30   19.20
  -1 -12  23   15.70    9.70
  -3  12  23   28.40   18.60
   3 -12  23   26.80   19.80
  12 -23   3   27.70    9.40
   3 -12  23   44.20   10.50
   3  12  23   32.80   19.60
  -3 -12  23   11.40   17.30
  -3 -12  23   25.30   10.00
  12 -23   5   26.40   13.60
   5 -12  23    9.40   10.50
   5 -12  23    7.50   19.90
  23  -5  12   13.90    8.40
  12 -23   5   12.80    9.30
  -5  12  23   23.10   19.20
   5  12  23   16.00   20.40
  -5 -12  23   29.60   18.10
  -5 -12  23   21.00    9.40
  23  -7  12   35.20    9.40
   7 -12  23   33.90   20.20
   7 -12  23   38.00   11.80
  -7  12  23   30.30   19.20
  12 -23   7   34.00   10.40
  12 -23   7   40.40   15.90
   7  12  23   34.30   21.20
  -7 -12  23   78.59   21.50
  -7 -12  23   64.29   11.80
  12 -23   9   15.50   10.00
   9 -12  23   21.50   19.60
  12 -23   9   12.60   15.50
   9 -12  23   -0.80   10.50
   9  12  23   19.70   19.80
  -9 -12  23   33.10   10.10
  -9 -12  23   24.40   22.50
   0 -13  23  110.69   13.60
   0  13  23   79.79   22.70
   0 -13  23   75.29   18.80
   2 -13  23  144.99   18.40
  13 -23   2  111.19   15.90
  -2  13  23  115.29   23.10
   2 -13  23  103.69   23.70
  -2 -13  23  129.19   17.80
  -2 -13  23  120.69   25.70
   2  13  23  150.68   26.30
  13 -23   4   38.50    9.50
   4 -13  23   11.30   22.50
  -4  13  23   16.60   18.50
   4 -13  23   33.80   10.70
   4  13  23   22.10   19.80
  -4 -13  23   24.50   11.10
  -4 -13  23   30.80   20.50
   6 -13  23   52.99   11.70
   6 -13  23   44.00   20.80
  23  -6  13   67.39   10.80
  13 -23   6   53.89   10.90
   6  13  23   60.69   22.40
  -6 -13  23   76.59   12.40
  -6 -13  23   73.19   21.40
   8 -13  23   17.80   10.60
  13 -23   8  -12.20    8.90
  13 -23   8   29.90    9.90
  23  -8  13   16.10    8.80
   8 -13  23   22.90   20.50
  -8 -13  23   56.59   23.50
  -8 -13  23   25.10   10.20
   8  13  23   24.50   23.60
   1 -14  23   23.10   22.50
   1 -14  23   34.80   10.70
   1  14  23   31.80   20.40
  -1 -14  23   32.00   11.60
  -1 -14  23   34.10   19.30
   3 -14  23   82.89   25.70
   3 -14  23   86.19   13.70
  -3 -14  23   57.89   18.70
   3  14  23   92.49   23.80
  -3 -14  23   99.59   12.70
  14 -23   5   -5.00    4.50
  14 -23   5    4.50    8.90
  23  -5  14   -4.80    9.10
   5 -14  23   -2.70   10.30
   5 -14  23    3.90   17.50
   5  14  23   -7.20   21.00
  -5 -14  23   -8.40   16.60
  -5 -14  23   -5.80    9.50
   0 -15  23   -3.30   23.00
  15 -23   0    8.80    3.00
   0 -15  23    2.80    9.70
   2 -15  23   13.70   17.60
   2 -15  23    0.50   10.10
  -2 -15  23   10.00   10.10
  -2 -15  23    8.60   19.90
   0   0  24   13.40    8.10
   0   0  24    9.20   15.60
   2   0  24    1.00   15.20
  -2   0  24   -5.40   15.80
   2   0  24    3.00    8.20
  -2   0  24   -3.90    7.60
   4   0  24   51.79    9.90
  -4   0  24   71.29   10.10
  -4   0  24   57.19   17.50
   4   0  24   35.10   16.90
   6   0  24    6.00    9.60
   6   0  24   -2.00   17.30
  -6   0  24    2.60   15.00
  -6   0  24    9.40    7.40
  -8   0  24  150.38   22.70
   8   0  24  172.18   19.10
   8   0  24  153.98   26.10
  -8   0  24  164.08   16.80
 -10   0  24  116.09   19.90
  10   0  24  138.39   17.80
  10   0  24  111.39   23.70
 -10   0  24  112.09   16.40
   0 -24  10   98.69   14.50
   0 -24  12   -6.30   18.50
 -12   0  24   -5.40   16.30
  12   0  24    1.70   10.30
   0 -24  12    8.00   11.00
  12   0  24   14.50   18.90
  -1   1  24   49.80    9.70
   1  -1  24   44.70   17.10
   1  -1  24   42.60    9.30
  -1   1  24   18.70   16.20
   1   1  24   46.80    9.30
  -1  -1  24   65.89    9.40
   1   1  24   36.90   18.60
  -1  -1  24   46.10   17.80
   3  -1  24    1.50    8.30
  -3   1  24    5.50    8.10
  -3   1  24  -11.20   15.40
   3  -1  24    5.90   17.30
   3   1  24    2.00   15.30
  -3  -1  24    0.60    7.60
   3   1  24   -1.80    9.00
  -3  -1  24  -12.50   16.30
  -5   1  24   21.10    8.00
  -5   1  24    9.80   16.80
   5  -1  24   37.00   18.90
   5  -1  24   17.90    9.00
   5   1  24    8.30    8.60
  -5  -1  24   15.10    7.70
   5   1  24    7.40   18.70
  -5  -1  24   22.00   15.90
   7  -1  24   52.79   10.90
  -7   1  24   48.60   17.80
   7  -1  24   45.40   18.90
  -7   1  24   63.49    9.40
   7   1  24   54.29   21.20
  -7  -1  24   56.99   17.90
   7   1  24   51.99   10.80
  -7  -1  24   49.20    9.00
  -9   1  24   71.79   18.40
   9  -1  24   55.79   11.80
   9  -1  24   60.99   21.30
  -9   1  24   65.79    9.30
   9   1  24   75.59   22.40
   9   1  24   69.49   11.90
  -9  -1  24   60.89   17.70
  -9  -1  24   82.09    9.90
   1 -24  11   10.10   10.50
  11  -1  24   -1.50   21.00
  11  -1  24    8.00   10.00
 -11   1  24   -0.60   15.90
   1 -24  11    9.90   18.30
  11   1  24   11.30   10.90
  -1 -24  11   14.00   10.80
  11   1  24   33.10   22.10
 -11  -1  24   15.30   15.60
  -1 -24  11    1.20   17.30
  13  -1  24   19.40   20.80
 -13   1  24   20.10   15.70
   1 -24  13   36.80   19.50
   1 -24  13   29.40   11.30
  13  -1  24   18.90   11.40
  -1 -24  13   34.50   20.40
  -1 -24  13   20.60   11.30
 -13  -1  24   26.80   16.10
  13   1  24   15.20   11.40
  13   1  24   21.10   21.40
   0  -2  24    8.00   17.70
   0   2  24    7.60    8.20
   0  -2  24    8.80    8.10
   0   2  24    6.10   16.10
  -2   2  24   61.39    9.80
   2  -2  24   62.39   10.00
   2  -2  24   56.99   17.80
  -2   2  24   46.60   16.70
  -2  -2  24   18.00   16.10
   2   2  24   10.90   18.40
   2   2  24   52.39   10.50
  -2  -2  24   42.20    8.90
   4  -2  24   76.79   12.00
  -4   2  24   87.39   19.20
   4  -2  24   72.29   19.80
  -4   2  24   88.69   11.00
  -4  -2  24   91.49   11.50
   4   2  24   94.79   12.60
   4   2  24   93.19   21.80
  -4  -2  24  106.59   19.60
  -6   2  24   13.50    7.80
   6  -2  24   14.60   18.30
  -6   2  24    6.80   16.10
   6  -2  24   12.90    9.20
  -6  -2  24   14.20    7.90
   6   2  24   13.30   17.00
  -6  -2  24   17.00   17.30
   6   2  24   16.80    9.30
  -8   2  24  194.88   17.50
   8  -2  24  152.58   26.30
   8  -2  24  207.08   20.20
  -8   2  24  206.48   24.80
   8   2  24  165.48   20.20
   8   2  24  151.68   26.40
  -8  -2  24  152.08   18.00
  -8  -2  24  167.28   23.80
 -10   2  24  168.68   23.20
  10  -2  24  184.48   20.30
  10  -2  24  167.18   26.30
   2 -24  10  173.68   20.60
   2 -24  10  113.69   23.10
 -10  -2  24  172.48   16.80
  10   2  24  121.39   25.40
  10   2  24  196.68   20.50
 -10  -2  24  151.98   22.90
  12  -2  24    0.80   19.30
 -12   2  24   41.50   16.90
  12  -2  24   26.70   11.90
   2 -24  12   19.40   11.00
   2 -24  12   27.40   18.40
  12   2  24   42.70   20.70
  -2 -24  12   45.70   22.60
 -12  -2  24   62.19   18.20
  -2 -24  12   64.99   12.60
  12   2  24   42.00   11.00
   1  -3  24   -9.70   16.60
   1  -3  24    4.30    8.10
  -1   3  24   -9.80   16.90
  -1   3  24    5.80    8.30
  -1  -3  24    4.90    8.20
   1   3  24    3.50    8.40
   1   3  24   -2.50   17.20
  -1  -3  24   -4.40   16.10
  -3   3  24    7.80    8.30
   3  -3  24   -0.20    8.40
   3  -3  24    0.20   16.30
  -3   3  24    8.00   16.90
  -3  -3  24    5.60    7.70
   3   3  24   -9.90   16.80
   3   3  24    0.00    8.50
  -3  -3  24  -12.20   15.70
  -5   3  24   39.50   17.30
   5  -3  24   38.40   18.20
   5  -3  24   55.39   10.80
  -5   3  24   63.29    9.50
   5   3  24   36.20   18.60
  -5  -3  24   29.70    8.70
   5   3  24   42.40   10.20
  -5  -3  24   35.80   17.70
   7  -3  24  138.39   17.00
  -7   3  24  121.89   20.20
   7  -3  24  114.99   22.40
  -7   3  24  118.19   14.10
  -7  -3  24  114.39   14.70
   7   3  24   79.19   23.00
   7   3  24   96.79   13.80
  -7  -3  24  105.69   21.50
   9  -3  24   63.69   22.40
   9  -3  24   78.59   12.20
   3 -24   9   52.89   19.10
   3 -24   9   86.49   12.70
  -9   3  24   74.29   18.40
   9   3  24   81.69   13.20
  -9  -3  24   96.89   19.50
  -9  -3  24   84.39   10.50
   9   3  24   63.59   22.80
   3 -24  11   40.10   19.30
  11  -3  24   22.00    9.70
  11  -3  24   24.90   19.40
   3 -24  11   23.40   11.60
 -11   3  24   36.20   16.70
 -11  -3  24   55.89   17.80
  11   3  24   26.30   20.70
 -11  -3  24   41.70   11.00
  -3 -24  11   33.40   11.90
  -3 -24  11   33.70   19.30
  11   3  24   28.20   10.90
  13  -3  24   14.10   11.40
 -13   3  24   24.00   15.20
   3 -24  13   -4.50   18.50
   3 -24  13   14.00   11.10
  13  -3  24    7.50   20.80
  13   3  24   11.90   20.40
 -13  -3  24   27.70   16.80
  13   3  24   20.90   11.40
  -3 -24  13   14.80   22.30
  -3 -24  13    0.90   11.40
   0   4  24   60.49   10.10
   0  -4  24   60.89   18.30
   0   4  24   61.99   19.20
   0  -4  24   58.29   10.20
  -2   4  24  104.49   11.80
   2  -4  24   84.69   11.70
   2  -4  24   70.99   21.20
  -2   4  24   96.59   19.60
  -2  -4  24   91.69   11.50
   2   4  24   76.29   20.00
  -2  -4  24   79.79   19.50
   2   4  24   83.19   11.60
  -4   4  24  158.08   23.50
   4  -4  24  134.69   23.30
   4  -4  24  169.58   19.10
  -4   4  24  170.38   17.80
   4   4  24  187.78   19.40
   4   4  24  161.38   24.20
  -4  -4  24  179.98   24.20
  -4  -4  24  187.68   18.30
   6  -4  24   44.10   20.70
  -6   4  24   36.70   17.00
   6  -4  24   33.30    9.60
  -6  -4  24   38.80   17.40
  -6  -4  24   45.70    8.40
   6   4  24   25.40   10.30
   6   4  24   41.10   21.80
   4 -24   8   65.99   12.20
  -8   4  24   87.89   18.50
   8  -4  24   60.99   11.50
   8  -4  24   71.49   21.30
   8   4  24   74.99   22.50
   8   4  24   79.49   11.80
  -8  -4  24   95.09   11.00
  -8  -4  24   84.69   19.10
   4 -24  10  115.29   15.60
  10  -4  24  105.89   22.10
  10  -4  24  144.39   18.50
 -10   4  24  155.88   23.00
   4 -24  10  106.99   22.30
 -10  -4  24  180.98   23.10
  10   4  24  135.99   25.10
  12  -4  24   65.89   12.90
   4 -24  12   72.29   22.10
  12  -4  24   71.89   21.50
 -12   4  24   74.29   18.70
   4 -24  12   71.19   13.10
  -4 -24  12  126.89   24.60
 -12  -4  24  150.98   21.10
  12   4  24  107.79   13.30
  12   4  24  110.89   23.40
   1  -5  24   30.80   17.80
  -1   5  24   16.00    8.80
  -1   5  24   37.00   18.70
   1  -5  24   19.30    8.90
  -1  -5  24   17.30    9.00
   1   5  24   15.00    9.00
   1   5  24   20.10   18.30
  -1  -5  24   10.00   16.70
   3  -5  24   32.40   19.60
  -3   5  24   56.69   17.40
   3  -5  24   59.29   10.00
  -3   5  24   61.89    9.30
   3   5  24   24.30    9.60
   3   5  24   27.80   17.30
  -3  -5  24   29.50    9.20
  -3  -5  24   12.70   17.70
  -5   5  24  286.67   34.10
   5  -5  24  277.37   36.40
   5  -5  24  279.27   25.70
   5   5  24  261.97   25.50
  -5  -5  24  278.67   24.60
   5   5  24  245.98   36.60
  -5  -5  24  308.47   35.30
   7  -5  24  416.96   34.80
   7  -5  24  365.16   43.90
  -7   5  24  386.96   41.20
   5 -24   7  421.86   35.10
   7   5  24  416.96   34.70
  -7  -5  24  397.46   42.60
   7   5  24  396.86   44.60
  -7  -5  24  414.46   33.80
   9  -5  24   81.99   22.10
   5 -24   9   99.89   13.90
   5 -24   9   78.39   19.60
  -9   5  24  104.59   19.20
   9  -5  24  132.19   17.20
  -9  -5  24  103.39   21.20
  -9  -5  24  124.09   14.50
   9   5  24   90.89   14.00
   9   5  24   85.89   23.90
  11  -5  24   43.10   11.20
   5 -24  11   40.80   10.90
   5 -24  11   29.20   17.30
  11  -5  24   28.10   18.40
 -11   5  24   46.80   17.00
  11   5  24   26.40   21.60
  11   5  24   44.80   11.90
 -11  -5  24   44.20   19.10
 -11  -5  24   49.30    8.80
   0   6  24   13.90    9.30
   0  -6  24    8.00    8.80
   0   6  24   15.70   17.70
   0  -6  24   -1.30   17.00
   2  -6  24    1.40   17.20
   2  -6  24   11.10    9.40
  -2   6  24   10.00   17.20
   2   6  24   19.80   18.60
   2   6  24   21.80    8.90
  -2  -6  24    9.90   17.50
  -2  -6  24   17.60    8.70
   4  -6  24   34.60   10.20
  -4   6  24   34.80   17.30
   4  -6  24   30.60   19.60
   4   6  24   17.00   19.50
  -4  -6  24   35.90   18.50
   4   6  24   35.80   10.40
  -4  -6  24   39.00    9.20
   6  -6  24   42.50   20.50
  -6   6  24   86.09   19.40
   6  -6  24   76.49   10.80
   6   6  24   45.80   20.70
  -6  -6  24   37.30   18.90
  -6  -6  24   46.30   10.20
   6   6  24   46.70   11.10
   6 -24   8    9.00   10.70
   6 -24   8    7.80   15.30
   8  -6  24    5.00    9.90
   8  -6  24   11.20   19.10
  -8   6  24   10.90   15.60
  -8  -6  24   10.10   17.30
   8   6  24    6.20   20.40
   8   6  24    8.70    9.50
  -8  -6  24   16.60    7.70
  10  -6  24   11.90   10.30
   6 -24  10   15.90   10.60
  10  -6  24   16.20   19.50
   6 -24  10    8.30   17.40
 -10   6  24    2.80   15.70
 -10  -6  24   28.60    8.30
 -10  -6  24   34.30   18.70
  10   6  24   -0.10   20.40
   6 -24  12   19.40   18.30
  12  -6  24   19.40   11.30
   6 -24  12   25.30   11.00
 -12   6  24   47.30   16.20
  12  -6  24   20.60   21.60
  -6 -24  12   72.29   13.20
 -12  -6  24   51.49   19.00
  -6 -24  12   65.59   21.10
  12   6  24   55.09   22.30
  -1   7  24   70.59   19.60
   1  -7  24   48.50   10.50
   1  -7  24   44.40   19.30
  -1  -7  24   55.89   19.60
  -1  -7  24   59.59   10.50
   1   7  24   50.09   19.70
   3  -7  24   98.49   21.70
   3  -7  24  114.69   13.00
  -3   7  24   92.59   20.40
   3   7  24   72.09   21.70
  -3  -7  24   85.09   21.10
  -3  -7  24   98.59   12.40
  -5   7  24  456.05   42.90
   7 -24   5  419.56   35.80
   5  -7  24  427.36   35.80
   5  -7  24  347.67   43.50
  -5  -7  24  392.56   44.00
   5   7  24  384.06   45.40
  -5  -7  24  451.75   35.00
   7 -24   7  671.13   54.09
  -7   7  24  695.93   59.89
   7 -24   7  625.74   58.99
   7  -7  24  635.54   61.49
   7  -7  24  671.53   54.09
   7   7  24  591.14   62.29
  -7  -7  24  755.52   61.09
  -7  -7  24  724.23   53.49
   7 -24   9  174.48   20.50
  -9   7  24  179.28   25.10
   9  -7  24  166.18   20.30
   9  -7  24  160.68   26.10
   7 -24   9  110.19   22.20
  -9  -7  24  171.98   25.70
  -9  -7  24  195.68   18.50
   9   7  24  168.68   28.70
   7 -24  11   20.70   11.00
 -11   7  24   22.00   16.60
  11  -7  24   23.80   20.20
  11  -7  24   13.80   11.20
   7 -24  11   19.20   17.80
 -11  -7  24   25.00   18.60
  11   7  24  -16.90   20.80
 -11  -7  24   21.60    8.40
   0   8  24  124.39   23.30
   0  -8  24  171.08   24.90
   0  -8  24  165.58   18.50
   2  -8  24  180.88   26.20
   2  -8  24  192.58   20.20
  -2   8  24  218.58   27.50
   2   8  24  155.98   26.30
  -2  -8  24  142.79   25.40
  -2  -8  24  183.28   19.60
  -4   8  24   81.19   19.60
   4  -8  24   71.99   21.20
   4  -8  24   83.59   12.50
   8 -24   4   86.69   12.70
  -4  -8  24   91.89   12.20
   4   8  24   90.99   22.20
  -4  -8  24   78.49   21.40
   8 -24   6   15.30    9.70
   6  -8  24   -2.40   19.10
   6  -8  24    3.00    9.80
   8 -24   6    2.60   16.50
  -6   8  24  -10.10   16.50
   6   8  24   14.90   19.20
  -6  -8  24   13.60   19.60
  -6  -8  24   17.20    9.60
   8 -24   8   22.00   10.20
   8 -24   8   30.70   16.10
   8  -8  24   17.00   10.00
  -8   8  24   28.60   16.70
   8  -8  24   30.70   20.90
   8   8  24   13.90   20.60
  -8  -8  24   -6.50    8.80
  -8  -8  24    9.30   19.40
   8 -24  10   79.29   19.40
 -10   8  24   97.69   19.30
  10  -8  24   89.79   13.10
  10  -8  24   84.99   22.30
   8 -24  10   83.89   12.80
 -10  -8  24   70.49   11.40
  10   8  24   75.19   23.70
 -10  -8  24   97.09   21.80
   1  -9  24   96.59   12.70
  -1   9  24   61.39   19.80
   1  -9  24   65.09   21.10
   9 -24   1   72.39   11.60
   1   9  24   85.19   21.30
  -1  -9  24   84.59   12.50
  -1  -9  24   60.59   21.30
   3  -9  24   68.69   21.60
   3  -9  24   74.79   12.10
  -3   9  24   79.39   20.20
   9 -24   3   89.09   12.20
   3   9  24   74.69   21.60
  -3  -9  24   82.09   12.00
  -3  -9  24   78.69   21.30
   5  -9  24   90.49   13.40
   9 -24   5  117.89   13.90
  -5   9  24   92.79   20.70
   5  -9  24   78.69   21.70
   9 -24   5   84.99   18.50
  -5  -9  24  121.89   16.20
   5   9  24  110.79   24.00
  -5  -9  24  120.79   23.10
   9 -24   7  153.88   20.00
   7  -9  24  149.29   26.10
   7  -9  24  163.08   20.50
   9 -24   7  144.89   22.90
  -7   9  24  190.08   24.50
  -7  -9  24  193.68   19.30
  -7  -9  24  174.48   25.90
   7   9  24  157.58   27.50
   9  -9  24    8.60   19.20
   9 -24   9   11.50   16.80
   9  -9  24    8.50   11.00
  -9   9  24   -5.60   16.20
   9 -24   9    8.70   10.30
   9   9  24   26.80   21.60
  -9  -9  24   30.80   20.20
  -9  -9  24   32.00    9.30
  10 -24   0  125.29   17.60
   0 -10  24  137.19   17.50
   0  10  24  130.89   24.00
   0 -10  24  106.89   23.00
  -2  10  24  159.48   25.30
   2 -10  24  100.69   24.40
   2 -10  24  178.68   19.40
  10 -24   2  166.18   19.40
  -2 -10  24  184.98   19.20
  -2 -10  24  145.99   25.00
   2  10  24  164.78   26.00
  -4  10  24  172.78   25.90
   4 -10  24  156.48   19.80
   4 -10  24  146.69   25.50
  10 -24   4  156.28   22.20
  10 -24   4  147.49   19.50
  -4 -10  24  194.58   28.40
  -4 -10  24  184.18   19.20
   4  10  24  154.18   26.50
  10 -24   6    9.00   15.60
   6 -10  24   14.60   19.00
   6 -10  24    5.00   10.80
  10 -24   6   22.90   10.30
  -6  10  24   25.00   18.00
  -6 -10  24   36.00   20.90
  -6 -10  24   23.40    9.50
   6  10  24   22.40   20.60
   8 -10  24   74.09   22.20
  -8  10  24   80.59   20.40
  10 -24   8   89.99   12.40
   8 -10  24   71.59   12.80
  10 -24   8   78.89   19.20
  -8 -10  24   65.19   11.60
  -8 -10  24   61.49   22.00
   8  10  24   55.39   23.00
  -1  11  24   12.40   19.50
   1 -11  24    9.70   18.80
   1 -11  24   11.50   10.10
  11 -24   1    8.90    9.20
   1  11  24    6.90   18.90
  -1 -11  24   -0.40   15.50
  -1 -11  24   11.00    9.80
  11 -24  -1   11.80    8.70
  -3  11  24   26.80   19.20
  11 -24   3   33.90    9.90
   3 -11  24   40.80   21.90
   3 -11  24   33.90   11.10
  11 -24   3   25.90   15.60
   3  11  24   42.90   21.70
  -3 -11  24   29.50   20.80
  -3 -11  24   66.89   11.20
   5 -11  24   28.70   20.60
  -5  11  24   26.30   18.50
  11 -24   5   53.19   10.40
   5 -11  24   29.70   11.40
  11 -24   5   45.70   16.00
  -5 -11  24   47.70   10.80
   5  11  24   29.70   20.80
  -5 -11  24   37.40   23.10
   7 -11  24   29.00   20.50
  11 -24   7   21.70   16.00
  -7  11  24   13.60   17.10
   7 -11  24   13.70   10.70
  11 -24   7   29.70   10.60
   7  11  24   -6.20   20.80
  -7 -11  24   20.40   10.10
  -7 -11  24    9.40   17.20
   0 -12  24    0.20   10.00
  12 -24   0   -1.00    8.20
   0  12  24   13.40   19.00
   0 -12  24   16.20   17.70
  12 -24   0   -0.90    3.60
  -2  12  24   32.30   19.40
   2 -12  24   32.70   21.60
   2 -12  24   41.90   11.20
  12 -24   2   26.70    9.90
   2  12  24   39.30   20.80
  -2 -12  24   37.30   21.50
  -2 -12  24   59.49   11.10
   4 -12  24   77.99   13.10
  12 -24   4   80.99   12.60
  -4  12  24   81.49   21.40
   4 -12  24   66.29   23.50
  -4 -12  24  153.38   26.90
   4  12  24  110.99   24.50
  -4 -12  24  136.69   16.60
   6 -12  24   21.90   20.90
  -6  12  24   33.60   18.50
   6 -12  24   22.80   11.40
  12 -24   6   33.40   10.50
   6  12  24   68.99   24.30
  -6 -12  24   59.49   10.60
  -6 -12  24   57.59   22.20
  -1  13  24   13.40   20.00
   1 -13  24   27.40   21.60
  13 -24   1    9.20    5.70
  13 -24   1   -0.20    5.10
   1 -13  24   32.00   10.40
  -1 -13  24   18.70   10.20
  -1 -13  24   19.10   22.90
   1  13  24   44.20   22.20
  13 -24   3   12.60    9.10
  -3  13  24   37.40   21.10
   3 -13  24   13.30   21.20
   3 -13  24   15.00   10.80
  -3 -13  24    1.90   18.70
  -3 -13  24   28.70   11.40
   3  13  24   18.80   22.50
   1   0  25   34.70   16.60
  -1   0  25   15.60    9.10
  -1   0  25   26.60   19.20
   1   0  25   17.00    8.70
   3   0  25   51.59   20.70
  -3   0  25   66.79   10.30
  -3   0  25   59.89   17.80
   3   0  25   69.59   11.10
   5   0  25   27.70   10.20
  -5   0  25   10.10    8.10
  -5   0  25   29.90   17.20
   5   0  25   18.80   19.80
  -7   0  25   24.70    8.40
   7   0  25   20.20    9.20
   7   0  25   22.30   19.40
  -7   0  25   32.30   17.40
  -9   0  25    5.30   16.90
  -9   0  25   17.20    7.80
   9   0  25   19.70   18.90
   9   0  25   24.80   11.20
  11   0  25   27.60   11.40
   0 -25  11   11.00   19.50
  11   0  25    3.30   19.70
   0 -25  11   27.20   11.60
 -11   0  25   35.80   17.60
   0   1  25   20.00    9.40
   0  -1  25   12.70    8.50
   0   1  25   28.70   17.70
   0  -1  25   24.80   18.50
   2  -1  25   -5.90   18.70
   2  -1  25   12.00    8.90
  -2   1  25   13.90   16.20
  -2   1  25   12.40    8.30
  -2  -1  25   13.20    8.80
   2   1  25   17.70    9.10
  -2  -1  25   13.00   18.10
   2   1  25   12.90   18.40
   4  -1  25    2.20    9.00
  -4   1  25   -0.60    7.70
  -4   1  25   15.20   17.00
   4  -1  25  -10.20   19.10
  -4  -1  25  -12.80   17.00
   4   1  25    2.10    9.30
   4   1  25   -6.70   19.50
  -4  -1  25   -4.60    8.00
  -6   1  25  175.08   17.70
  -6   1  25  165.48   23.40
   6  -1  25  148.39   26.40
   6  -1  25  167.08   19.10
   6   1  25  126.19   23.90
   6   1  25  149.19   19.30
  -6  -1  25  177.28   24.00
  -6  -1  25  166.58   17.70
  -8   1  25   18.90   17.50
   8  -1  25   16.90   20.40
  -8   1  25   21.30    8.20
   8  -1  25   28.90   10.90
  -8  -1  25   34.50    8.70
   8   1  25   41.90   11.00
  -8  -1  25   30.30   17.40
   8   1  25   26.90   22.20
 -10   1  25    4.90   16.40
   1 -25  10    8.00   19.20
  10  -1  25   -2.40   19.40
   1 -25  10   14.00   10.90
  10  -1  25    3.00   10.60
  -1 -25  10    8.20   11.10
  10   1  25    0.90   10.40
  10   1  25   -4.70   19.40
 -10  -1  25   -0.40   16.50
   1  -2  25   12.40   17.40
  -1   2  25    9.30   18.10
   1  -2  25   14.80    9.00
  -1   2  25   11.30    8.50
   1   2  25   16.90    8.80
   1   2  25    5.20   18.90
  -1  -2  25    4.40    8.40
  -1  -2  25   31.70   18.90
  -3   2  25   28.00    9.50
   3  -2  25   21.70   18.90
   3  -2  25   32.20    9.60
  -3   2  25   24.10   17.80
  -3  -2  25   25.10    8.60
   3   2  25   10.40   20.00
   3   2  25   55.09   10.00
  -3  -2  25    3.60   18.10
   5  -2  25   17.40    9.40
  -5   2  25   23.30   17.60
   5  -2  25   14.10   19.30
  -5   2  25   10.80    8.00
   5   2  25   30.30   21.00
   5   2  25   25.30    9.80
  -5  -2  25   18.70   16.70
  -5  -2  25   18.50    8.60
   7  -2  25   34.80   10.40
  -7   2  25   27.20   17.50
  -7   2  25   21.50    8.30
   7  -2  25   17.30   19.70
   7   2  25   22.40   21.80
  -7  -2  25   31.90    8.80
  -7  -2  25   32.10   18.60
   7   2  25   29.20   10.50
   2 -25   9    7.30   18.00
   9  -2  25   27.30   10.30
   9  -2  25   23.40   19.80
  -9   2  25   29.20   17.40
   2 -25   9   10.30   10.90
   9   2  25   21.40   10.70
   9   2  25   26.80   20.70
  -9  -2  25   33.40   18.20
  -9  -2  25   18.60    8.10
  11  -2  25   32.70   11.20
   2 -25  11   14.90   20.20
   2 -25  11   29.30   11.00
 -11   2  25   45.70   16.90
  11  -2  25   21.00   21.20
  11   2  25   20.30   21.00
  11   2  25   13.30   10.70
 -11  -2  25   36.80   18.00
  -2 -25  11   23.10   18.40
  -2 -25  11   26.30   12.10
   0   3  25   51.49   10.20
   0   3  25   51.99   19.40
   0  -3  25   62.69   10.00
   0  -3  25   31.20   18.00
  -2   3  25   26.40    8.70
   2  -3  25   24.20   18.60
  -2   3  25   20.50   18.00
   2  -3  25   17.80    9.10
  -2  -3  25   19.70    8.70
   2   3  25   33.80   19.20
  -2  -3  25   45.40   20.20
   2   3  25   30.20    9.60
   4  -3  25   26.30    9.50
  -4   3  25   30.10    8.50
   4  -3  25   19.00   20.40
  -4   3  25   23.70   17.50
   4   3  25   16.20   20.00
   4   3  25   12.70    9.70
  -4  -3  25   15.20    8.90
  -4  -3  25   26.50   17.70
   6  -3  25  218.28   22.40
  -6   3  25  206.08   20.60
  -6   3  25  207.98   26.80
   6  -3  25  179.08   29.30
  -6  -3  25  260.37   33.30
   6   3  25  236.68   22.60
   6   3  25  179.78   26.50
  -6  -3  25  228.38   21.00
   3 -25   8   56.59   11.70
   8  -3  25   53.09   22.50
   8  -3  25   44.40   11.30
  -8   3  25   30.70   17.60
  -8  -3  25   62.19    9.60
   8   3  25   58.59   12.10
   8   3  25   58.39   20.90
  -8  -3  25   61.59   18.70
   3 -25  10   11.70   11.20
  10  -3  25   13.40   10.90
  10  -3  25  -10.40   20.80
   3 -25  10   -4.80   18.30
 -10   3  25   25.60   16.40
  10   3  25   -0.80   20.70
 -10  -3  25    5.00   17.50
 -10  -3  25    2.70    7.60
  10   3  25    9.20   11.10
   1  -4  25    6.70    8.80
  -1   4  25   -2.60   18.10
   1  -4  25    8.90   16.70
  -1   4  25   -1.50    8.10
   1   4  25   -1.50    8.70
  -1  -4  25   -7.90   15.70
  -1  -4  25    5.10    8.50
   1   4  25    1.60   19.20
   3  -4  25    8.60   17.90
   3  -4  25   37.40   10.30
  -3   4  25   17.70   17.50
  -3   4  25   32.00    9.20
   3   4  25    0.20   18.00
   3   4  25   32.30    9.80
  -3  -4  25   22.40    9.10
  -3  -4  25    5.70   16.20
   5  -4  25    0.50   19.50
  -5   4  25   14.50   17.40
   5  -4  25   24.50    9.70
  -5  -4  25   35.50   17.40
   5   4  25   17.30   18.20
   5   4  25   21.20   10.50
  -5  -4  25   23.00    9.20
  -7   4  25   18.10   17.20
   7  -4  25   23.50   20.40
   7  -4  25   28.10   10.60
   4 -25   7   25.10   11.00
   7   4  25   24.10   10.10
  -7  -4  25   34.50    9.00
   7   4  25   25.30   21.80
  -7  -4  25   15.10   18.50
  -9   4  25   43.50   17.50
   4 -25   9   38.40   11.60
   9  -4  25   45.40   20.00
   4 -25   9   28.50   19.70
   9  -4  25   38.70   10.80
  -9  -4  25   22.40   18.10
   9   4  25   30.90   20.80
   9   4  25   34.00   11.40
  -9  -4  25   26.30    8.90
   4 -25  11    2.70   16.90
   4 -25  11    5.70   10.30
 -11   4  25   21.90   15.90
  11  -4  25    2.90   10.80
  11  -4  25    9.30   21.00
  -4 -25  11    0.60   12.00
 -11  -4  25    1.80   17.40
  11   4  25    2.40   21.20
  -4 -25  11   -9.20   19.60
  11   4  25   -0.40    9.90
   0  -5  25   24.70   17.30
   0  -5  25   21.20    9.70
   0   5  25   16.10   18.10
   0   5  25   25.60    8.80
  -2   5  25   22.80    8.50
  -2   5  25   27.90   17.50
   2  -5  25   19.30    9.30
   2  -5  25    7.30   19.90
   2   5  25   18.20   10.00
  -2  -5  25   19.70    9.00
   2   5  25   17.30   19.10
  -2  -5  25   17.40   18.80
   4  -5  25   12.70   17.60
  -4   5  25   23.10   17.50
   4  -5  25   15.10    9.70
   4   5  25   26.10   20.40
  -4  -5  25   29.10   18.30
   4   5  25   32.20   10.30
  -4  -5  25   29.70    9.50
   6  -5  25  140.99   18.60
  -6   5  25  129.39   22.40
   6  -5  25   99.59   24.70
   5 -25   6  137.59   19.40
   6   5  25  142.09   18.40
  -6  -5  25  166.98   17.10
  -6  -5  25  161.18   24.00
   6   5  25  129.89   25.60
   8  -5  25   43.30   11.00
   5 -25   8   41.20   11.20
   5 -25   8   37.50   17.20
  -8   5  25   40.30   17.20
   8  -5  25   25.60   21.80
   8   5  25   38.80   11.00
  -8  -5  25   51.49    9.70
  -8  -5  25   40.30   18.30
   8   5  25   32.20   21.80
  10  -5  25  -15.80   20.60
 -10   5  25   11.30   16.20
   5 -25  10    3.90   19.60
  10  -5  25   -5.30   10.50
   5 -25  10   -5.90   10.70
  10   5  25    0.30   10.30
  10   5  25   16.60   21.70
 -10  -5  25   17.50    8.20
 -10  -5  25    5.30   17.70
   1  -6  25  134.59   24.60
   1  -6  25  185.98   19.00
  -1   6  25  141.69   24.40
   1   6  25  169.68   25.60
  -1  -6  25  146.99   24.90
  -1  -6  25  168.48   18.90
   3  -6  25  235.38   23.20
  -3   6  25  239.78   34.00
   3  -6  25  198.38   29.30
   3   6  25  239.08   22.90
  -3  -6  25  207.68   28.80
   3   6  25  209.88   29.50
  -3  -6  25  244.88   22.50
   6 -25   5  117.09   15.60
   5  -6  25  113.69   15.00
  -5   6  25  118.29   23.20
   5  -6  25   98.29   24.50
  -5  -6  25  179.88   16.90
   5   6  25  144.09   17.90
  -5  -6  25  135.19   23.50
   5   6  25  137.89   24.80
   7  -6  25   30.60   22.10
   7  -6  25   24.80   10.70
   6 -25   7   36.30   17.00
   6 -25   7   19.70   10.40
  -7   6  25   21.90   16.90
  -7  -6  25    5.60   17.70
   7   6  25    0.20   21.00
  -7  -6  25   17.00    9.00
   9  -6  25  103.49   24.20
   6 -25   9  106.89   22.60
   9  -6  25   96.99   14.10
  -9   6  25  111.49   21.20
   6 -25   9   96.29   13.60
  -9  -6  25  108.49   22.10
   9   6  25  117.89   27.00
  -9  -6  25  120.39   15.60
   0  -7  25   11.70   19.20
   0  -7  25   29.50   10.00
   0   7  25    9.70   19.10
   2  -7  25   38.20   10.40
   2  -7  25    2.60   18.90
  -2   7  25    4.40   18.50
  -2  -7  25   42.00    9.90
   2   7  25   35.40   19.80
  -2  -7  25   32.70   19.50
   4  -7  25   18.00   20.50
   7 -25   4   45.40   11.20
   4  -7  25   18.70    9.70
  -4   7  25   46.20   18.70
   4   7  25   16.30   20.10
  -4  -7  25   34.00    9.70
  -4  -7  25   18.30   19.60
   7 -25   6   30.50   17.30
   6  -7  25   19.70   19.80
   6  -7  25   17.60   11.20
  -6   7  25   25.10   18.00
   7 -25   6   23.00   10.60
   6   7  25   27.60   21.60
  -6  -7  25   10.20   18.80
  -6  -7  25   15.40    9.40
   7 -25   8   22.80   17.40
   7 -25   8   37.10   11.20
   8  -7  25    9.70   20.30
   8  -7  25   24.70   10.90
  -8   7  25   20.70   18.40
   8   7  25   38.40   21.10
  -8  -7  25   45.20   19.80
  -8  -7  25   46.50    9.70
   1  -8  25   -3.30   19.30
   1  -8  25   29.90   10.10
  -1   8  25    6.80   19.00
   1   8  25   28.50   18.80
  -1  -8  25   32.40   10.10
  -1  -8  25   27.60   19.60
   3  -8  25   66.79   21.50
   3  -8  25   64.59   11.40
  -3   8  25   49.70   19.60
   8 -25   3   47.00   11.20
  -3  -8  25   57.69   11.00
  -3  -8  25   54.29   21.00
   3   8  25   48.00   20.80
   5  -8  25   36.10   20.10
   8 -25   5   47.60   10.80
  -5   8  25   34.10   20.40
   5  -8  25   53.89   12.10
   8 -25   5   36.90   16.90
   5   8  25   14.30   20.40
  -5  -8  25   31.20   20.20
  -5  -8  25   52.99   10.70
   7  -8  25   29.30   11.60
   8 -25   7   34.70   17.10
   8 -25   7   25.20   10.30
  -7   8  25   17.70   17.80
   7  -8  25   25.70   22.10
   7   8  25   30.60   20.40
  -7  -8  25   44.80   10.30
  -7  -8  25   39.40   20.30
   0  -9  25   20.90   19.80
   9 -25   0   17.70    9.80
   0   9  25   26.30   20.80
   0  -9  25   19.80   10.20
   2  -9  25   24.80   10.10
   9 -25   2   15.50   10.30
  -2   9  25   17.30   18.50
   2  -9  25   20.60   20.30
   2   9  25   18.50   20.00
  -2  -9  25   15.30   20.00
  -2  -9  25   20.60    9.90
  -4   9  25   46.20   19.70
   9 -25   4   45.90   16.80
   9 -25   4   40.70   10.80
   4  -9  25   40.20   20.70
   4  -9  25   43.20   11.10
  -4  -9  25   34.40   10.40
   4   9  25   40.70   21.20
  -4  -9  25   50.59   21.20
  -6   9  25  114.59   22.70
   9 -25   6  108.39   21.20
   9 -25   6  133.79   18.30
   6  -9  25  109.79   15.40
   6  -9  25  106.39   24.50
  -6  -9  25  125.59   17.00
  -6  -9  25  103.59   24.00
   6   9  25  111.69   25.20
   1 -10  25   19.50   10.40
   1 -10  25   10.80   20.70
  10 -25   1   -1.40    9.40
  -1  10  25   24.60   19.80
  -1 -10  25    1.00   20.20
  -1 -10  25   12.90   10.40
   1  10  25   12.70   20.40
  10 -25  -1   10.50    9.00
   3 -10  25   -0.70   10.10
  -3  10  25    6.60   19.20
  10 -25   3   11.60   10.20
   3 -10  25   26.00   20.40
  10 -25   3   27.20   16.70
   3  10  25    7.80   20.70
  -3 -10  25    9.70    9.70
  -3 -10  25   -8.40   19.90
  10 -25   5    1.30    9.90
   5 -10  25    6.90   10.40
  10 -25   5   -1.80   14.90
   5 -10  25    2.70   20.60
  -5  10  25    9.10   18.40
   5  10  25   -4.40   21.70
  -5 -10  25    0.10    9.60
  -5 -10  25  -11.40   20.00
   0  11  25   12.30   20.10
   0 -11  25   11.20   21.00
  11 -25   0   21.20    9.40
   0 -11  25   19.00   10.60
  11 -25   2   41.90    9.80
   2 -11  25   34.90   21.50
   2 -11  25   33.20   10.60
  -2  11  25   29.80   20.20
  -2 -11  25   30.70   10.70
   2  11  25   18.10   21.30
  -2 -11  25    9.80   21.10
  11 -25   4   19.90   15.50
  -4  11  25   14.00   18.70
   4 -11  25   -3.70   10.40
   4 -11  25  -11.30   19.80
  11 -25   4   -0.40    9.70
   4  11  25   33.50   22.00
  -4 -11  25    5.80    9.80
  -4 -11  25   23.00   21.20
   0   0  26   19.60    8.90
   0   0  26   11.40   20.10
   2   0  26   -1.00    8.90
   2   0  26    4.60   18.90
  -2   0  26    9.50   18.90
  -2   0  26    2.60    8.70
   4   0  26   27.90    9.60
   4   0  26   19.60   18.70
  -4   0  26   24.60    8.80
  -4   0  26   14.50   17.50
  -6   0  26    5.40   17.60
  -6   0  26    8.80    8.20
   6   0  26   -0.20    9.60
   6   0  26    3.30   22.00
   8   0  26   22.60   18.90
   8   0  26   26.40   11.10
  -8   0  26   17.70    8.50
  -8   0  26   29.60   18.60
  -1   1  26   60.39   10.20
   1  -1  26   22.60   18.10
   1  -1  26   56.29   10.30
  -1   1  26   48.00   20.40
   1   1  26   43.40   10.30
  -1  -1  26   41.80   20.60
   1   1  26   32.30   20.10
  -1  -1  26   53.99   10.00
   3  -1  26   33.70   10.70
  -3   1  26   17.30   18.90
  -3   1  26   31.10    9.40
   3  -1  26   36.70   20.50
  -3  -1  26   18.30   17.00
   3   1  26   19.10    9.50
   3   1  26   25.30   19.20
  -3  -1  26   32.20    9.20
  -5   1  26   15.10    9.10
   5  -1  26   19.00   21.10
  -5   1  26   13.00   18.10
   5  -1  26   14.70   10.10
   5   1  26   18.40   19.00
  -5  -1  26    7.10    8.60
   5   1  26    5.60    9.80
  -5  -1  26    8.70   18.40
  -7   1  26   58.99   20.00
   7  -1  26   62.49   11.30
  -7   1  26   79.29   10.60
   7  -1  26   38.00   22.80
   7   1  26   57.29   12.00
  -7  -1  26   62.29   20.00
  -7  -1  26   61.99   10.10
   7   1  26   40.30   21.90
   9  -1  26   50.79   23.10
   9  -1  26   60.19   12.60
   1 -26   9   55.99   22.30
   1 -26   9   65.39   13.30
  -9   1  26   80.89   19.50
  -9  -1  26   58.49   19.30
  -9  -1  26   62.49    9.80
   9   1  26   72.39   25.50
   9   1  26   58.49   12.40
   0  -2  26    2.80    8.90
   0  -2  26    7.50   18.50
   0   2  26   -7.50    8.90
   0   2  26   -7.60   18.40
  -2   2  26   19.40    9.30
  -2   2  26    3.10   18.40
   2  -2  26    3.00   17.80
   2  -2  26    0.20    9.10
   2   2  26    8.70    9.60
  -2  -2  26   31.40    9.60
  -2  -2  26   16.30   19.00
   2   2  26   12.40   19.50
   4  -2  26   27.00   10.40
   4  -2  26   18.00   19.10
  -4   2  26   25.30   18.90
  -4   2  26   41.90    9.80
  -4  -2  26   53.59   19.90
  -4  -2  26   50.59    9.90
   4   2  26   49.60   11.00
   4   2  26   42.80   21.50
  -6   2  26   18.80    8.80
   6  -2  26    5.90    9.90
   6  -2  26    4.40   21.10
  -6   2  26    4.20   17.80
   6   2  26   12.40   10.50
  -6  -2  26    4.40    9.10
  -6  -2  26    1.40   17.80
   6   2  26  -17.80   17.40
  -8   2  26   31.00   18.10
   2 -26   8   45.90   11.40
   8  -2  26   51.79   12.20
   8  -2  26   55.69   23.10
   8   2  26   31.00   11.50
  -8  -2  26   25.00   18.30
  -8  -2  26   28.20    9.40
   8   2  26   42.00   21.80
  -1   3  26   35.90    9.60
  -1   3  26   25.20   19.50
   1  -3  26   53.49   10.30
   1  -3  26   34.20   20.20
   1   3  26   15.40   18.90
   1   3  26   22.10    9.90
  -1  -3  26   28.80    9.60
  -1  -3  26   12.90   17.30
  -3   3  26   73.89   20.90
   3  -3  26   57.69   11.30
   3  -3  26   35.30   21.30
  -3   3  26   58.59   11.20
   3   3  26   60.09   19.70
  -3  -3  26   66.49   20.60
   3   3  26   83.59   11.90
  -3  -3  26   70.79   10.90
   5  -3  26    3.00   18.80
  -5   3  26   13.90    8.60
   5  -3  26   20.80   10.00
  -5   3  26   12.00   17.60
   5   3  26   19.70   10.10
   5   3  26   27.10   20.60
  -5  -3  26   31.90    8.80
  -5  -3  26   30.10   20.10
   7  -3  26    4.70   20.20
   7  -3  26   18.70   10.50
  -7   3  26    5.90   17.90
   3 -26   7   20.00   10.60
   7   3  26   18.30   21.80
   7   3  26   29.50   10.30
  -7  -3  26   22.30    9.50
  -7  -3  26   24.00   18.30
   3 -26   9   28.80   20.40
   0  -4  26   20.90    9.40
   0   4  26   13.10   20.30
   0   4  26   18.80    9.10
   0  -4  26   18.80   18.90
   2  -4  26   32.40   10.20
  -2   4  26   26.60    9.50
   2  -4  26   23.40   19.40
  -2   4  26   35.20   19.90
   2   4  26   43.50   20.30
   2   4  26   45.20   10.20
  -2  -4  26   51.69    9.80
  -2  -4  26   26.60   21.40
   4  -4  26  102.39   13.40
  -4   4  26   75.29   21.40
   4  -4  26   68.39   22.80
   4   4  26   74.19   21.90
   4   4  26  105.09   13.20
  -4  -4  26  105.99   12.70
  -4  -4  26   87.99   21.50
  -6   4  26   83.49   20.30
   4 -26   6   76.39   13.10
   6  -4  26   63.99   11.80
   6  -4  26   65.69   22.80
  -6  -4  26   43.40   18.80
   6   4  26   45.00   11.10
   6   4  26   35.50   20.60
  -6  -4  26   53.49   10.60
   4 -26   8   51.09   12.60
  -8   4  26   50.09   18.10
   8  -4  26   38.20   21.80
   4 -26   8   58.59   20.00
   8  -4  26   48.50   11.60
  -8  -4  26   26.80   18.60
   8   4  26   19.90   21.60
   8   4  26   38.00   11.30
  -8  -4  26   42.90   10.00
  -1   5  26   28.10   19.90
   1  -5  26   17.50    9.50
   1  -5  26    8.70   19.70
  -1  -5  26   15.50   20.00
   1   5  26   14.80   18.40
   1   5  26   13.20    9.20
  -1  -5  26    6.90    9.30
   3  -5  26    9.50   18.10
  -3   5  26   19.70   18.20
   3  -5  26   33.20   10.50
  -3  -5  26   28.80   20.60
  -3  -5  26   33.90    9.50
   3   5  26    9.60   20.80
   3   5  26   23.20    9.80
   5  -5  26   38.00   10.70
   5 -26   5   32.80   11.90
  -5   5  26   46.20   19.60
   5  -5  26   40.10   21.60
  -5  -5  26   22.20    9.30
   5   5  26   27.00   10.80
  -5  -5  26    7.70   20.70
   5   5  26   22.10   20.60
  -7   5  26   33.10   19.40
   7  -5  26   32.00   21.90
   7  -5  26   10.90   10.80
   5 -26   7   23.00   11.00
   5 -26   7   -0.40   18.00
  -7  -5  26   56.99   10.60
   7   5  26   41.80   22.60
   7   5  26   53.39   11.70
  -7  -5  26   35.10   20.50
   0  -6  26   -5.20   19.80
   0   6  26   28.50   19.50
   0  -6  26   -2.70    9.20
  -2   6  26   19.20   19.10
   2  -6  26   17.20   19.20
   2  -6  26   18.30    9.90
   2   6  26    0.70   19.90
  -2  -6  26   18.20   19.10
  -2  -6  26   -2.80    9.20
   4  -6  26   63.49   23.70
  -4   6  26   90.79   20.10
   4  -6  26   64.19   11.60
   6 -26   4   70.19   11.90
  -4  -6  26   47.40   10.60
   4   6  26   37.60   21.90
  -4  -6  26   30.70   21.50
   6 -26   6  142.19   23.90
   6  -6  26  138.89   26.00
   6 -26   6  180.48   20.80
   6  -6  26  158.18   19.60
  -6   6  26  165.78   26.00
   6   6  26  117.69   26.90
  -6  -6  26  115.09   23.60
  -6  -6  26  135.59   17.80
   1  -7  26   78.89   11.90
   1  -7  26   62.29   23.00
  -1   7  26   66.79   22.20
  -1  -7  26   53.09   21.60
   1   7  26   46.30   21.90
  -1  -7  26   68.99   11.60
  -3   7  26   34.10   20.30
   3  -7  26   36.60   10.30
   3  -7  26   39.70   22.40
   7 -26   3   31.50   10.90
  -3  -7  26   47.50   21.40
  -3  -7  26   26.50   10.00
   3   7  26   13.90   20.30
   5  -7  26   26.80   10.70
   7 -26   5    1.00   17.10
   7 -26   5   28.70   10.70
   5  -7  26   36.80   23.20
  -5   7  26   25.70   18.80
  -5  -7  26   27.60    9.60
  -5  -7  26   24.30   20.30
   5   7  26   53.09   20.90
   0   8  26   29.30   20.00
   0  -8  26   16.20   20.90
   0  -8  26   25.00   10.00
   2  -8  26   38.30   21.30
   2  -8  26   49.20   11.40
  -2   8  26   24.50   21.30
   8 -26   2   61.79   11.40
  -2  -8  26   24.90   10.30
  -2  -8  26   18.90   21.10
   2   8  26   18.80   21.70
   8 -26   4   43.30   17.80
   4  -8  26   40.10   11.20
   4  -8  26   27.60   23.50
  -4   8  26   45.00   19.80
   8 -26   4   44.00   11.90
  -4  -8  26   43.50   20.80
  -4  -8  26   59.69   11.00
   4   8  26   36.50   21.40
   1  -9  26   73.39   22.50
   9 -26   1   75.39   12.30
  -1   9  26   86.09   22.00
   1  -9  26   67.19   12.50
  -1  -9  26   41.40   22.00
   9 -26  -1   52.99   11.40
   1   9  26   28.80   21.20
  -1  -9  26   70.79   11.90
   9 -26   3   51.19   17.30
   1   0  27   -3.10   10.20
   1   0  27   -2.20   20.40
  -1   0  27   -5.10   19.70
  -1   0  27   12.30    9.90
   3   0  27   22.40   10.10
  -3   0  27   24.90    9.70
  -3   0  27   39.20   19.30
   3   0  27   39.10   22.00
  -5   0  27   83.39   21.10
  -5   0  27  111.09   13.20
   5   0  27   88.99   24.60
   5   0  27  100.69   13.70
   0   1  27  -16.00   19.70
   0  -1  27   -8.30   20.40
   0  -1  27   -4.00    9.10
   0   1  27   -3.00    9.30
  -2   1  27   70.59   11.40
   2  -1  27   34.60   23.00
   2  -1  27   60.09   11.60
  -2   1  27   63.09   21.70
  -2  -1  27   66.49   21.00
   2   1  27   51.59   21.40
  -2  -1  27   84.69   11.40
   2   1  27   94.79   12.40
  -4   1  27   47.70   10.90
  -4   1  27   41.60   20.30
   4  -1  27   30.70   20.60
   4  -1  27   51.39   10.80
  -4  -1  27   70.59   10.70
  -4  -1  27   58.89   19.70
   4   1  27   39.10   22.60
   4   1  27   71.09   11.80
   1  -2  27   66.59   11.30
  -1   2  27   37.20   22.30
  -1   2  27   53.69   11.30
   1  -2  27   73.59   22.50
   1   2  27   88.69   12.00
  -1  -2  27   62.19   20.00
   1   2  27   85.19   23.60
  -1  -2  27   87.19   12.10
   3  -2  27   14.10   20.90
   3  -2  27   26.50   10.10
  -3   2  27   42.00   10.10
  -3   2  27   36.00   20.70
   3   2  27   43.30   11.20
   3   2  27   35.60   22.00
  -3  -2  27   52.09   10.10
  -3  -2  27   35.50   21.40
  -5   2  27  113.29   22.70
   5  -2  27   90.09   22.40
  -5   2  27  127.89   16.40
   5  -2  27  115.59   14.60
  -5  -2  27  115.49   16.20
  -5  -2  27  122.59   22.50
   5   2  27   97.49   14.40
   5   2  27  108.89   22.70
   0   3  27   25.60   10.00
   0  -3  27   10.70   20.80
   0  -3  27   26.10   10.00
   0   3  27   21.90   21.90
  -2   3  27   37.10   10.20
   2  -3  27   29.90   22.00
   2  -3  27   38.30   10.70
  -2   3  27   19.40   20.00
  -2  -3  27   45.30   10.40
  -2  -3  27   39.80   21.70
   2   3  27   37.90   20.50
   2   3  27   41.80   11.00
  -4   3  27   -5.20    9.30
   4  -3  27   21.30   10.20
  -4   3  27  -12.10   17.40
   4  -3  27    3.10   22.20
   4   3  27    6.30   10.10
  -4  -3  27    5.20   19.70
   4   3  27    7.90   18.40
  -4  -3  27    7.00    9.20
   1  -4  27   27.70   11.10
  -1   4  27   35.90   20.40
  -1   4  27   39.40   11.00
   1  -4  27   31.00   20.90
  -1  -4  27   58.29   20.60
  -1  -4  27   70.59   11.10
   1   4  27   71.89   11.80
   1   4  27   42.30   21.10
  -3   4  27   -1.80   18.60
   3  -4  27   11.40   10.00
   3  -4  27   -8.50   21.00
  -3  -4  27    1.90   21.00
  -3  -4  27    2.60    9.50
   3   4  27   14.80   10.10
   3   4  27    6.90   21.50
   0  -5  27  129.59   17.10
   0  -5  27   87.39   24.30
   0   5  27   99.19   24.00
   2  -5  27  140.49   17.50
   2  -5  27   97.29   25.80
  -2   5  27  104.29   23.30
   2   5  27  110.49   25.10
  -2  -5  27  119.79   14.20
  -2  -5  27   86.69   21.80
   0   0   0    0.00    0.00

_computing_structure_solution     'SHELXT 2014/5 (Sheldrick, 2014)'
;
_shelx_hkl_checksum              69718
_shelx_fab_file
;
-15 -16 -15 51.8812 -30.5466
-14 -18 -14 -0.6476 68.4326
-14 -17 -15 -15.1563 -0.0089
-14 -16 -16 24.6767 9.3420
-14 -16 -14 100.8536 137.1889
-14 -15 -15 -6.0846 21.9528
-14 -14 -14 37.1842 72.4444
-13 -20 -13 -14.5589 -0.0597
-13 -19 -14 10.4945 -0.4366
-13 -18 -15 36.1777 -15.4607
-13 -18 -13 -88.4309 -64.1426
-13 -17 -16 30.6751 -12.5330
-13 -17 -14 11.6433 29.2262
-13 -16 -15 76.6335 6.6935
-13 -16 -13 -20.1363 -58.3753
-13 -15 -14 -14.9896 47.3848
-13 -14 -13 58.0459 149.1973
-12 -21 -13 -14.0263 57.1224
-12 -20 -14 -23.0318 15.0395
-12 -20 -12 19.8182 -0.8020
-12 -19 -15 5.4659 -0.2027
-12 -19 -13 -20.5127 12.9968
-12 -18 -16 -2.3044 38.6907
-12 -18 -14 -14.5799 16.4162
-12 -18 -12 -17.5561 -112.2764
-12 -17 -17 15.4127 3.5958
-12 -17 -15 24.8248 20.5037
-12 -17 -13 -1.5320 50.2518
-12 -16 -16 -42.8824 3.4094
-12 -16 -14 22.0445 -34.4778
-12 -16 -12 -27.4172 101.1167
-12 -15 -15 -39.0880 17.6956
-12 -15 -13 -74.1080 10.1472
-12 -14 -14 71.7917 -149.3173
-12 -14 -12 -154.9384 -39.8639
-12 -13 -13 27.6250 17.5467
-12 -12 -12 -95.5306 -42.3139
-11 -22 -11 -43.2610 -8.6317
-11 -21 -14 -38.5590 -14.4590
-11 -21 -12 -0.7768 -29.9835
-11 -20 -15 -16.1769 -3.9201
-11 -20 -13 -11.2634 -16.0286
-11 -20 -11 41.4495 13.8811
-11 -19 -16 -7.9875 -5.4251
-11 -19 -14 -28.0561 17.4048
-11 -19 -12 -0.9457 35.8448
-11 -18 -17 -11.3734 7.7441
-11 -18 -15 8.5600 12.9734
-11 -18 -13 11.6509 43.9414
-11 -18 -11 41.3085 43.2527
-11 -17 -16 9.9239 8.2000
-11 -17 -14 41.8053 2.6850
-11 -17 -12 -47.5875 41.1975
-11 -16 -15 15.6575 1.3980
-11 -16 -13 -26.1188 25.4676
-11 -16 -11 8.9710 99.3967
-11 -15 -14 8.2358 -83.1927
-11 -15 -12 -99.8812 30.1797
-11 -14 -13 -17.1071 9.2279
-11 -14 -11 -56.8916 175.5072
-11 -13 -12 49.0089 -19.1385
-11 -12 -11 -71.5587 -13.7367
-10 -23 -11 13.1130 5.0665
-10 -22 -12 -4.7483 14.5443
-10 -22 -10 15.4134 40.7822
-10 -21 -13 59.8728 7.0747
-10 -21 -11 61.7800 23.4366
-10 -20 -16 -8.5458 9.9382
-10 -20 -14 -1.4121 -47.1771
-10 -20 -12 -32.3004 -5.7594
-10 -20 -10 -119.4107 -29.8220
-10 -19 -17 2.2389 4.1375
-10 -19 -15 -9.3595 10.8176
-10 -19 -13 19.4824 69.2120
-10 -19 -11 -81.4153 -21.1480
-10 -18 -18 22.0233 -20.5807
-10 -18 -16 17.0022 -17.0235
-10 -18 -14 14.6488 -60.9024
-10 -18 -12 -56.9573 -94.4908
-10 -18 -10 -56.5117 0.0035
-10 -17 -17 29.5187 -22.4469
-10 -17 -15 -6.4907 -22.3321
-10 -17 -13 56.0380 38.3893
-10 -17 -11 -93.5201 -28.4231
-10 -16 -16 -53.1306 -1.8229
-10 -16 -14 9.6092 42.4845
-10 -16 -12 16.4378 46.7901
-10 -16 -10 -14.2055 -50.2295
-10 -15 -15 -32.6580 -17.6674
-10 -15 -13 60.7284 21.7062
-10 -15 -11 3.8701 -16.4090
-10 -14 -14 -74.3718 -96.6475
-10 -14 -12 -78.7564 65.8522
-10 -14 -10 42.6885 -80.9610
-10 -13 -13 -61.9151 -82.3015
-10 -13 -11 -67.2954 -63.4830
-10 -12 -12 11.4577 -24.5513
-10 -12 -10 85.5464 -95.3161
-10 -11 -11 -0.9489 -3.0255
-10 -10 -10 -41.2853 57.4440
-9 -24 -9 9.8269 -48.3617
-9 -23 -12 23.0603 8.7994
-9 -23 -10 64.7968 38.2050
-9 -22 -13 -36.5654 -11.0329
-9 -22 -11 27.4066 15.7479
-9 -22 -9 -28.9650 -37.0338
-9 -21 -14 -10.6786 -26.9296
-9 -21 -12 1.7388 -42.1283
-9 -21 -10 -5.3060 125.6324
-9 -20 -15 1.3190 16.4019
-9 -20 -13 33.6592 25.9081
-9 -20 -11 -52.7048 22.2453
-9 -20 -9 -2.9190 70.5463
-9 -19 -16 12.6099 39.4936
-9 -19 -14 -41.4545 -1.2862
-9 -19 -12 -32.7723 17.4202
-9 -19 -10 -53.0575 -40.5007
-9 -18 -17 -24.0417 -17.1751
-9 -18 -15 7.4126 17.4326
-9 -18 -13 -22.7455 -18.2962
-9 -18 -11 36.3565 -57.0226
-9 -18 -9 -48.3781 34.6142
-9 -17 -16 11.9250 -8.5281
-9 -17 -14 -12.3508 -44.2270
-9 -17 -12 -38.1272 -76.3954
-9 -17 -10 -70.4249 1.1466
-9 -16 -15 -9.8297 2.5158
-9 -16 -13 -29.8797 9.4930
-9 -16 -11 -92.7190 -0.2043
-9 -16 -9 6.0034 -14.7952
-9 -15 -14 25.8114 -13.5324
-9 -15 -12 -3.0939 -13.7678
-9 -15 -10 -24.4988 13.2412
-9 -14 -13 30.6744 -10.0902
-9 -14 -11 -28.7979 12.2259
-9 -14 -9 -83.0805 51.4809
-9 -13 -12 13.7911 43.3095
-9 -13 -10 -118.7710 68.2217
-9 -12 -11 -21.3570 -143.5613
-9 -12 -9 -99.7924 -57.3628
-9 -11 -10 -35.7162 17.2732
-9 -10 -9 118.4682 1.7648
-8 -24 -10 -42.1916 52.3329
-8 -24 -8 -15.1925 20.6351
-8 -23 -13 -30.4795 21.0511
-8 -23 -11 -36.0105 -46.2707
-8 -23 -9 -38.0965 -21.2476
-8 -22 -14 -15.0219 -3.9270
-8 -22 -12 -36.5260 24.5591
-8 -22 -10 -25.0349 24.8873
-8 -22 -8 -103.8507 -52.7646
-8 -21 -15 -24.2031 3.7008
-8 -21 -13 39.3657 39.6974
-8 -21 -11 1.9201 12.6971
-8 -21 -9 69.6140 -65.9661
-8 -20 -16 -20.9935 23.1034
-8 -20 -14 10.9057 -41.1686
-8 -20 -12 -2.8111 -17.2491
-8 -20 -10 65.3011 -13.7561
-8 -20 -8 203.8519 -149.5104
-8 -19 -17 0.9223 -1.7855
-8 -19 -15 38.9521 -11.1072
-8 -19 -13 37.4460 22.6449
-8 -19 -11 68.8751 -63.1364
-8 -19 -9 -9.2127 44.6462
-8 -18 -18 -33.5807 -31.2704
-8 -18 -16 8.4498 -7.7425
-8 -18 -14 5.3402 -0.7476
-8 -18 -12 -31.9239 21.4938
-8 -18 -10 16.4021 115.5958
-8 -18 -8 -12.6684 70.2834
-8 -17 -17 55.9750 -2.6577
-8 -17 -15 -16.3646 -29.0306
-8 -17 -13 -16.6856 -12.5977
-8 -17 -11 -82.0545 -1.1196
-8 -17 -9 -94.7329 23.3735
-8 -16 -16 33.6340 -4.6090
-8 -16 -14 33.4774 1.4027
-8 -16 -12 -41.6860 -25.9308
-8 -16 -10 -82.7676 -70.0650
-8 -16 -8 74.1966 99.7267
-8 -15 -15 -41.8673 21.6423
-8 -15 -13 73.3262 3.2553
-8 -15 -11 32.0928 -11.2297
-8 -15 -9 1.8243 15.7938
-8 -14 -14 -13.9857 -54.1675
-8 -14 -12 -7.5655 18.7758
-8 -14 -10 -1.0553 3.9390
-8 -14 -8 -72.8199 -49.0258
-8 -13 -13 5.0453 -1.3744
-8 -13 -11 63.8955 -46.9952
-8 -13 -9 -59.7479 -54.7637
-8 -12 -12 62.2931 -15.7495
-8 -12 -10 -39.1109 -26.9959
-8 -12 -8 -100.9869 125.1864
-8 -11 -11 163.9087 -5.3859
-8 -11 -9 -77.7183 -23.2032
-8 -10 -10 -27.2509 43.8851
-8 -10 -8 25.5069 -3.9209
-8 -9 -9 -76.7786 144.4655
-8 -8 -8 -66.0069 53.8100
-7 -25 -8 21.0022 22.3659
-7 -24 -11 6.1320 -34.8528
-7 -24 -9 -49.8653 -38.7250
-7 -24 -7 -8.8678 19.5461
-7 -23 -12 0.0217 -62.8380
-7 -23 -10 11.3499 29.9779
-7 -23 -8 5.1337 24.3349
-7 -22 -15 7.6737 -20.6942
-7 -22 -13 2.7331 -31.0029
-7 -22 -11 -9.6866 -16.1252
-7 -22 -9 -12.9931 32.7884
-7 -22 -7 68.9261 108.2730
-7 -21 -16 7.6802 -30.3097
-7 -21 -14 45.6551 -83.5574
-7 -21 -12 -0.2201 -83.9202
-7 -21 -10 -38.4750 -26.2091
-7 -21 -8 -2.4053 -25.6056
-7 -20 -17 19.7294 -13.7017
-7 -20 -15 -17.9527 25.3296
-7 -20 -13 -12.3216 -26.8423
-7 -20 -11 4.4961 37.8720
-7 -20 -9 48.2519 164.0312
-7 -20 -7 -81.7508 144.5800
-7 -19 -18 -10.6288 -1.8128
-7 -19 -16 3.9275 1.9725
-7 -19 -14 -34.6731 -21.2208
-7 -19 -12 -17.3771 30.7322
-7 -19 -10 -29.3514 -58.8868
-7 -19 -8 67.4857 -114.6690
-7 -18 -17 2.5519 13.6854
-7 -18 -15 -17.0799 14.3107
-7 -18 -13 -1.8497 4.5440
-7 -18 -11 5.0615 -54.7141
-7 -18 -9 74.7880 -52.8946
-7 -18 -7 -75.3576 84.4194
-7 -17 -16 31.6121 -8.1334
-7 -17 -14 30.8173 -3.5072
-7 -17 -12 59.8378 41.3330
-7 -17 -10 -11.9370 -27.6328
-7 -17 -8 -22.1600 0.9171
-7 -16 -15 10.8648 15.6542
-7 -16 -13 -26.9092 70.3697
-7 -16 -11 -23.4359 -3.0035
-7 -16 -9 41.0031 39.8500
-7 -16 -7 10.0727 -13.7405
-7 -15 -14 71.0210 17.7450
-7 -15 -12 6.4053 -17.7393
-7 -15 -10 11.9084 49.8978
-7 -15 -8 13.2029 -31.9476
-7 -14 -13 -9.5674 48.7210
-7 -14 -11 -20.6032 3.0603
-7 -14 -9 -73.5720 65.6283
-7 -14 -7 132.8437 -128.6907
-7 -13 -12 14.1810 8.0352
-7 -13 -10 44.7704 59.5474
-7 -13 -8 -42.9226 -1.1698
-7 -12 -11 -36.0832 32.9266
-7 -12 -9 -56.8356 -56.1547
-7 -12 -7 94.3424 12.8817
-7 -11 -10 76.3883 43.0664
-7 -11 -8 -132.6529 40.7644
-7 -10 -9 25.6209 -16.2976
-7 -10 -7 -79.4063 -115.7543
-7 -9 -8 9.6729 -39.4781
-7 -8 -7 21.7185 27.6724
-6 -26 -6 10.9469 39.7205
-6 -25 -9 -38.0107 17.6249
-6 -25 -7 31.5599 11.5138
-6 -24 -12 -35.7953 9.9860
-6 -24 -10 -0.9974 17.4173
-6 -24 -8 14.1196 18.4890
-6 -24 -6 63.4237 -79.5611
-6 -23 -13 -0.5155 21.8804
-6 -23 -11 63.1454 -19.0469
-6 -23 -9 42.0609 0.4903
-6 -23 -7 -3.2525 47.1489
-6 -22 -14 10.1325 -1.9500
-6 -22 -12 2.1360 21.5767
-6 -22 -10 -61.5201 53.8438
-6 -22 -8 -73.6026 65.8768
-6 -22 -6 23.6996 -58.1056
-6 -21 -15 -24.7917 15.2234
-6 -21 -13 -12.9130 2.7955
-6 -21 -11 -25.7050 -68.6502
-6 -21 -9 8.8259 -110.3310
-6 -21 -7 -13.5014 107.7871
-6 -20 -18 12.1598 6.6854
-6 -20 -16 -2.3918 -2.0045
-6 -20 -14 28.8839 -9.5587
-6 -20 -12 -39.3304 37.1535
-6 -20 -10 -30.4339 28.2869
-6 -20 -8 93.2200 -45.2354
-6 -20 -6 117.4831 -13.4771
-6 -19 -19 -53.5967 42.2623
-6 -19 -17 -17.0660 10.3125
-6 -19 -15 32.6379 -21.2743
-6 -19 -13 71.9343 -19.7613
-6 -19 -11 -25.5460 47.4050
-6 -19 -9 -1.5412 -8.7989
-6 -19 -7 1.6393 18.4717
-6 -18 -18 12.9886 -6.6267
-6 -18 -16 41.6339 6.3294
-6 -18 -14 -12.4120 -8.0352
-6 -18 -12 -43.9375 61.8974
-6 -18 -10 24.6076 0.9210
-6 -18 -8 -71.4095 -80.8725
-6 -18 -6 11.7192 -48.9509
-6 -17 -17 -7.0654 11.0069
-6 -17 -15 40.9443 9.6242
-6 -17 -13 -90.4006 26.5491
-6 -17 -11 102.8201 -23.8395
-6 -17 -9 78.1046 1.5177
-6 -17 -7 -5.1421 -24.7136
-6 -16 -16 -34.9630 3.7462
-6 -16 -14 -4.3297 -1.4398
-6 -16 -12 40.1207 -159.7846
-6 -16 -10 -95.4426 33.0760
-6 -16 -8 -29.9166 44.0648
-6 -16 -6 5.7018 -17.2624
-6 -15 -15 -64.7119 5.8393
-6 -15 -13 38.2090 -98.8505
-6 -15 -11 -18.1873 14.4678
-6 -15 -9 21.5677 4.9694
-6 -15 -7 -1.4307 -69.9350
-6 -14 -14 -68.8295 59.0239
-6 -14 -12 22.4879 102.2108
-6 -14 -10 -153.8332 -43.2238
-6 -14 -8 47.2357 -31.0641
-6 -14 -6 -61.1245 -77.3945
-6 -13 -13 0.9302 -42.5196
-6 -13 -11 37.9930 89.9532
-6 -13 -9 61.2470 43.9873
-6 -13 -7 -5.8428 102.7544
-6 -12 -12 39.7282 6.3198
-6 -12 -10 -131.1188 -112.8832
-6 -12 -8 -77.7811 77.8779
-6 -12 -6 7.9927 130.0872
-6 -11 -11 -119.0282 15.0973
-6 -11 -9 -45.5473 51.9835
-6 -11 -7 7.9228 28.9797
-6 -10 -10 68.5660 97.8201
-6 -10 -8 -59.2722 -11.9332
-6 -10 -6 119.4065 -6.7833
-6 -9 -9 12.2237 -24.7768
-6 -9 -7 33.2029 -156.8392
-6 -8 -8 66.9899 23.9880
-6 -8 -6 -79.2056 7.2570
-6 -7 -7 66.0890 109.0038
-6 -6 -6 75.4916 3.1312
-5 -26 -7 16.3651 3.1654
-5 -26 -5 -4.0604 12.7265
-5 -25 -10 8.2096 3.0511
-5 -25 -8 -5.0689 31.4895
-5 -25 -6 -55.2143 20.7331
-5 -24 -11 -59.7786 -56.5795
-5 -24 -9 -5.2853 1.7483
-5 -24 -7 33.9164 77.7431
-5 -24 -5 -51.8885 7.2705
-5 -23 -14 -19.4955 16.8729
-5 -23 -12 -47.1233 33.3999
-5 -23 -10 5.2931 -63.0569
-5 -23 -8 -20.0939 30.5764
-5 -23 -6 -6.7227 11.3367
-5 -22 -15 26.8889 -10.0169
-5 -22 -13 1.8794 2.8807
-5 -22 -11 -23.1494 -24.5446
-5 -22 -9 53.1322 -38.8583
-5 -22 -7 156.1192 11.6974
-5 -22 -5 95.1642 84.8196
-5 -21 -16 -9.1952 -14.7208
-5 -21 -14 -37.5044 -26.6701
-5 -21 -12 4.2000 59.3374
-5 -21 -10 -8.1491 -108.9849
-5 -21 -8 51.5910 -140.5122
-5 -21 -6 24.5176 2.1151
-5 -20 -17 24.7324 -4.1590
-5 -20 -15 12.5193 -3.4268
-5 -20 -13 28.3107 9.6671
-5 -20 -11 -127.9399 -32.9909
-5 -20 -9 -33.0070 -34.4009
-5 -20 -7 -45.6065 71.5426
-5 -20 -5 20.7638 27.3405
-5 -19 -18 -0.4888 3.9187
-5 -19 -16 -14.0014 6.6701
-5 -19 -14 -5.6137 41.8311
-5 -19 -12 -19.8878 -9.7554
-5 -19 -10 -59.5127 6.1770
-5 -19 -8 118.8662 25.6715
-5 -19 -6 86.5946 -50.3918
-5 -18 -17 -3.1556 -4.1833
-5 -18 -15 9.5279 19.3932
-5 -18 -13 -23.6215 -27.6349
-5 -18 -11 51.7268 -7.3309
-5 -18 -9 43.0492 89.2372
-5 -18 -7 4.9684 129.5493
-5 -18 -5 -13.7428 107.7740
-5 -17 -16 30.9151 52.0160
-5 -17 -14 -19.0990 25.8535
-5 -17 -12 -7.3733 80.1838
-5 -17 -10 78.1170 19.8654
-5 -17 -8 58.4448 46.2046
-5 -17 -6 108.9777 83.1129
-5 -16 -15 -19.1477 -10.0490
-5 -16 -13 2.7138 20.9343
-5 -16 -11 -12.8272 94.3581
-5 -16 -9 -12.0029 -8.5783
-5 -16 -7 17.4277 3.2560
-5 -16 -5 -79.7643 -75.4560
-5 -15 -14 48.9092 64.6964
-5 -15 -12 -75.6946 -100.0700
-5 -15 -10 -33.1536 -22.2710
-5 -15 -8 2.7042 -35.7092
-5 -15 -6 -18.1064 30.7475
-5 -14 -13 15.6803 17.8493
-5 -14 -11 -63.0174 52.3153
-5 -14 -9 -19.7709 83.5747
-5 -14 -7 51.7716 -161.4647
-5 -14 -5 -103.2966 -52.0632
-5 -13 -12 -27.2299 -0.4937
-5 -13 -10 47.8086 38.7394
-5 -13 -8 28.2608 87.3672
-5 -13 -6 -2.3281 -50.4939
-5 -12 -11 143.9503 29.3963
-5 -12 -9 3.6913 102.4644
-5 -12 -7 -0.6447 -35.9422
-5 -12 -5 67.0460 -27.9965
-5 -11 -10 129.5019 19.9868
-5 -11 -8 -168.6955 13.0651
-5 -11 -6 41.3771 45.3634
-5 -10 -9 49.1778 -8.2150
-5 -10 -7 1.3900 54.6833
-5 -10 -5 -54.4082 -39.4357
-5 -9 -8 4.6597 -41.1006
-5 -9 -6 -209.6069 -97.6634
-5 -8 -7 -31.3214 -203.6056
-5 -8 -5 14.3555 -116.0854
-5 -7 -6 26.3927 77.6615
-5 -6 -5 -67.8229 -15.9394
-4 -26 -8 0.1316 -8.4448
-4 -26 -6 -43.5968 20.8138
-4 -26 -4 2.6267 -17.8870
-4 -25 -11 -22.4971 3.5379
-4 -25 -9 41.9671 -11.1407
-4 -25 -7 -30.9975 -33.6986
-4 -25 -5 7.7087 3.2359
-4 -24 -12 4.8969 -17.3593
-4 -24 -10 95.1611 33.1878
-4 -24 -8 -2.7480 32.0744
-4 -24 -6 -1.0111 -13.9447
-4 -24 -4 -38.7145 20.1769
-4 -23 -13 -28.9741 -13.7255
-4 -23 -11 8.2658 5.8769
-4 -23 -9 -57.8681 25.7732
-4 -23 -7 6.4375 -72.1355
-4 -23 -5 15.7008 26.8468
-4 -22 -16 10.5569 5.3164
-4 -22 -14 -3.0751 -1.8076
-4 -22 -12 -22.4296 1.2129
-4 -22 -10 -71.8871 67.8175
-4 -22 -8 -77.2002 116.2337
-4 -22 -6 -27.1710 20.4047
-4 -22 -4 24.2391 34.3361
-4 -21 -17 13.4100 0.9459
-4 -21 -15 3.6349 21.7581
-4 -21 -13 4.1812 -17.1525
-4 -21 -11 -8.0396 -3.8857
-4 -21 -9 -30.1261 -152.2198
-4 -21 -7 -27.4058 55.4222
-4 -21 -5 -0.7526 -72.8718
-4 -20 -18 -2.5747 -21.8597
-4 -20 -16 39.4721 -14.6627
-4 -20 -14 -32.5445 -3.5131
-4 -20 -12 -24.6509 67.1768
-4 -20 -10 11.7439 48.2466
-4 -20 -8 -24.4771 38.3237
-4 -20 -6 -41.2845 133.1074
-4 -20 -4 -20.9642 21.0552
-4 -19 -19 -11.5226 23.8647
-4 -19 -17 5.6366 12.4122
-4 -19 -15 18.6926 -3.4553
-4 -19 -13 34.0640 -40.3475
-4 -19 -11 85.5499 70.2426
-4 -19 -9 22.3003 48.3166
-4 -19 -7 30.2896 16.9279
-4 -19 -5 -66.1987 25.0297
-4 -18 -18 -21.2733 12.9148
-4 -18 -16 -70.6443 -29.3570
-4 -18 -14 -3.1813 -4.6427
-4 -18 -12 -1.9894 -129.4212
-4 -18 -10 71.7560 -81.1574
-4 -18 -8 -10.2504 -24.3279
-4 -18 -6 30.0410 -9.0462
-4 -18 -4 2.8802 77.8826
-4 -17 -17 -5.3696 7.0837
-4 -17 -15 42.5388 41.5566
-4 -17 -13 -36.8080 -49.3537
-4 -17 -11 -33.1138 -75.1468
-4 -17 -9 -28.3005 77.5172
-4 -17 -7 63.9532 -13.2599
-4 -17 -5 58.6584 -35.4673
-4 -16 -16 -79.0556 -48.6392
-4 -16 -14 -6.7755 -14.7878
-4 -16 -12 -27.1536 46.4281
-4 -16 -10 -27.9981 74.6567
-4 -16 -8 -45.5073 51.8926
-4 -16 -6 42.4188 -0.7572
-4 -16 -4 -52.3275 80.4041
-4 -15 -15 101.1793 -20.1955
-4 -15 -13 -68.3468 -21.3461
-4 -15 -11 62.7426 37.2698
-4 -15 -9 7.6521 10.7537
-4 -15 -7 -127.8783 -77.8570
-4 -15 -5 -67.6329 -118.9071
-4 -14 -14 -10.2362 -7.0068
-4 -14 -12 -30.3801 23.4710
-4 -14 -10 -45.1725 -25.2935
-4 -14 -8 7.8771 -84.0022
-4 -14 -6 -20.9347 -52.8682
-4 -14 -4 87.1217 35.2371
-4 -13 -13 132.2935 -73.0167
-4 -13 -11 -37.4980 154.4175
-4 -13 -9 126.8672 63.7239
-4 -13 -7 -15.2408 -67.2336
-4 -13 -5 -18.7027 -143.3141
-4 -12 -12 54.1704 -193.1730
-4 -12 -10 -59.7791 -163.3847
-4 -12 -8 61.8324 34.6438
-4 -12 -6 -90.1444 10.0543
-4 -12 -4 125.9413 -19.0261
-4 -11 -11 -159.0047 -40.6319
-4 -11 -9 43.4112 42.1547
-4 -11 -7 33.6005 -133.3535
-4 -11 -5 -127.7934 80.4358
-4 -10 -10 -38.0463 129.0491
-4 -10 -8 18.0454 39.6614
-4 -10 -6 46.7494 -24.2141
-4 -10 -4 227.1797 -61.8341
-4 -9 -9 -95.2390 20.4897
-4 -9 -7 -168.4598 -61.6058
-4 -9 -5 48.2792 56.4533
-4 -8 -8 119.7417 -26.2469
-4 -8 -6 -19.0943 -136.0611
-4 -8 -4 -72.3941 84.2631
-4 -7 -7 -117.5885 128.0908
-4 -7 -5 105.4129 52.8900
-4 -6 -6 -265.4206 153.7432
-4 -6 -4 -60.7667 -91.5249
-4 -5 -5 37.7392 -176.0272
-4 -4 -4 -82.4274 -243.3021
-3 -27 -4 -2.6857 6.9009
-3 -26 -9 -16.4813 40.1494
-3 -26 -7 48.3086 20.9910
-3 -26 -5 18.4098 -0.6924
-3 -26 -3 -20.5734 -13.6811
-3 -25 -10 0.5824 -26.2317
-3 -25 -8 -39.6366 -3.3329
-3 -25 -6 -51.1286 5.7767
-3 -25 -4 26.5345 -50.0649
-3 -24 -13 -36.0055 12.5750
-3 -24 -11 -25.6450 -8.0381
-3 -24 -9 11.6918 -4.3097
-3 -24 -7 12.5282 -55.3832
-3 -24 -5 35.8583 51.8282
-3 -24 -3 -11.4856 26.0085
-3 -23 -14 -23.4450 -31.3098
-3 -23 -12 -13.2295 35.9004
-3 -23 -10 -6.2906 -20.9827
-3 -23 -8 -0.1060 -45.7864
-3 -23 -6 -0.2515 10.6452
-3 -23 -4 39.5355 28.0633
-3 -22 -15 -5.4345 9.9518
-3 -22 -13 -0.5910 24.9702
-3 -22 -11 1.7242 14.6029
-3 -22 -9 49.5210 -34.3395
-3 -22 -7 21.8098 6.1124
-3 -22 -5 -90.3650 -6.5357
-3 -22 -3 79.6118 -34.0539
-3 -21 -16 -15.6185 -13.3264
-3 -21 -14 -23.7362 -46.4812
-3 -21 -12 67.5914 20.7579
-3 -21 -10 63.0510 28.7691
-3 -21 -8 31.8036 41.6768
-3 -21 -6 -1.6964 50.8519
-3 -21 -4 47.3020 16.4103
-3 -20 -17 -32.3971 17.4191
-3 -20 -15 0.5208 -3.9241
-3 -20 -13 20.3853 -23.2543
-3 -20 -11 -14.4043 -62.2363
-3 -20 -9 -23.4229 25.4580
-3 -20 -7 -7.9069 -45.4161
-3 -20 -5 37.6115 -13.4726
-3 -20 -3 -15.0256 4.5539
-3 -19 -18 -30.7269 -19.0618
-3 -19 -16 21.0504 37.3413
-3 -19 -14 -22.2448 34.7030
-3 -19 -12 0.3919 -43.0518
-3 -19 -10 92.3901 60.4961
-3 -19 -8 -31.3415 44.7454
-3 -19 -6 94.4086 -0.7559
-3 -19 -4 -40.7993 54.9449
-3 -18 -17 -10.2668 11.0437
-3 -18 -15 23.2706 -15.6082
-3 -18 -13 -42.7515 -2.3303
-3 -18 -11 11.8327 -39.3687
-3 -18 -9 96.4296 28.3218
-3 -18 -7 15.7848 -3.2717
-3 -18 -5 51.9595 -67.9495
-3 -18 -3 54.4656 98.3984
-3 -17 -16 -6.1243 -11.9452
-3 -17 -14 -4.3661 128.7734
-3 -17 -12 -31.2222 -1.9168
-3 -17 -10 -40.0424 -0.8389
-3 -17 -8 -47.2251 -29.3645
-3 -17 -6 -3.0826 -18.4913
-3 -17 -4 12.2795 -25.2339
-3 -16 -15 -49.8735 58.5950
-3 -16 -13 2.7988 11.5303
-3 -16 -11 -35.3044 2.1354
-3 -16 -9 -48.0604 73.5796
-3 -16 -7 131.9690 -77.9210
-3 -16 -5 3.1306 -103.0336
-3 -16 -3 35.0842 -186.1951
-3 -15 -14 -13.8472 -107.1560
-3 -15 -12 48.6514 -47.2782
-3 -15 -10 -63.2108 -21.8099
-3 -15 -8 -0.3000 50.1230
-3 -15 -6 -22.9209 2.3698
-3 -15 -4 136.2448 -44.6002
-3 -14 -13 -14.3386 -39.0644
-3 -14 -11 -107.4045 147.4405
-3 -14 -9 -17.9637 -24.3530
-3 -14 -7 77.7784 100.1663
-3 -14 -5 -49.8419 -39.2478
-3 -14 -3 -48.2901 295.1408
-3 -13 -12 -58.8887 56.0805
-3 -13 -10 103.2082 -16.1988
-3 -13 -8 -118.5739 134.0186
-3 -13 -6 105.1080 -24.0967
-3 -13 -4 66.1525 3.6852
-3 -12 -11 -11.1420 -137.5582
-3 -12 -9 -4.5005 60.6388
-3 -12 -7 101.8163 43.8643
-3 -12 -5 -29.7280 -87.0247
-3 -12 -3 -85.7947 -190.4001
-3 -11 -10 -12.1011 7.8314
-3 -11 -8 -94.5589 119.0501
-3 -11 -6 97.4032 7.6946
-3 -11 -4 -52.3458 -27.8729
-3 -10 -9 21.4317 -33.5061
-3 -10 -7 -41.6065 -26.9399
-3 -10 -5 -127.7842 63.7162
-3 -10 -3 66.7447 52.3732
-3 -9 -8 130.0444 -109.3446
-3 -9 -6 -122.4327 -34.1667
-3 -9 -4 -9.9888 120.2396
-3 -8 -7 81.9975 -149.1114
-3 -8 -5 -210.1536 67.7581
-3 -8 -3 -47.7548 458.8018
-3 -7 -6 -75.4732 8.5609
-3 -7 -4 128.2210 -105.5379
-3 -6 -5 -37.4822 -172.6508
-3 -6 -3 -282.4335 -190.3262
-3 -5 -4 168.4690 255.0621
-3 -4 -3 -70.9333 133.3469
-2 -27 -5 -19.6814 -68.9266
-2 -27 -3 -18.4090 -14.9057
-2 -26 -8 3.6278 -0.6189
-2 -26 -6 15.4982 -29.4873
-2 -26 -4 -2.2261 -7.3591
-2 -26 -2 -13.4851 -10.5905
-2 -25 -11 -8.7101 -16.0589
-2 -25 -9 13.5063 33.3202
-2 -25 -7 -15.0859 -34.1855
-2 -25 -5 -28.8373 35.6448
-2 -25 -3 -14.7723 -4.9248
-2 -24 -12 35.5180 -26.1694
-2 -24 -10 43.6346 55.8868
-2 -24 -8 -10.1903 -80.2737
-2 -24 -6 1.5136 -2.9803
-2 -24 -4 19.4803 -20.6077
-2 -24 -2 24.3627 -39.3688
-2 -23 -15 -25.3645 -15.8985
-2 -23 -13 -6.2130 -41.9905
-2 -23 -11 27.9365 1.3911
-2 -23 -9 -4.0175 15.6040
-2 -23 -7 -10.4739 0.0849
-2 -23 -5 4.2286 -25.1774
-2 -23 -3 -11.3229 58.6068
-2 -22 -16 37.0902 -4.0756
-2 -22 -14 -8.2573 0.6092
-2 -22 -12 -31.0400 -6.1832
-2 -22 -10 -41.2907 6.0393
-2 -22 -8 -38.6159 -64.7976
-2 -22 -6 -20.7070 38.4583
-2 -22 -4 2.0285 -23.6800
-2 -22 -2 28.0988 -92.7665
-2 -21 -17 42.7738 4.2795
-2 -21 -15 -17.8105 6.4195
-2 -21 -13 -0.0148 24.3763
-2 -21 -11 63.0572 53.4769
-2 -21 -9 -10.9790 44.9849
-2 -21 -7 32.5601 110.1265
-2 -21 -5 -7.4613 -42.8304
-2 -21 -3 -8.2449 -72.8102
-2 -20 -18 49.0505 -6.1939
-2 -20 -16 -4.5865 -4.8885
-2 -20 -14 -9.4958 -8.3303
-2 -20 -12 -11.3485 -3.3339
-2 -20 -10 -6.4184 -30.4444
-2 -20 -8 3.1643 24.4723
-2 -20 -6 -29.8281 10.6147
-2 -20 -4 -22.0731 -0.2230
-2 -20 -2 -94.1184 137.1169
-2 -19 -19 38.8140 -60.2618
-2 -19 -17 11.9124 -49.9360
-2 -19 -15 -39.6739 -2.0704
-2 -19 -13 -13.8675 38.9075
-2 -19 -11 -32.4379 90.0467
-2 -19 -9 25.1485 1.0181
-2 -19 -7 -6.5215 32.3582
-2 -19 -5 27.7124 -33.8922
-2 -19 -3 3.9680 -3.8705
-2 -18 -18 -67.4048 21.4120
-2 -18 -16 7.1809 -0.9736
-2 -18 -14 -8.0949 -23.4116
-2 -18 -12 -21.1916 42.5177
-2 -18 -10 9.3569 28.0489
-2 -18 -8 -22.6933 -1.1840
-2 -18 -6 -67.2937 -87.6121
-2 -18 -4 -92.3902 -113.0381
-2 -18 -2 156.3298 40.4043
-2 -17 -17 -18.9809 -17.7340
-2 -17 -15 62.2003 -7.4381
-2 -17 -13 9.1257 -12.3196
-2 -17 -11 -31.0658 -39.1658
-2 -17 -9 -80.7321 78.3149
-2 -17 -7 37.2533 -74.9866
-2 -17 -5 8.6116 -65.3813
-2 -17 -3 -38.8221 -14.6526
-2 -16 -16 -57.8066 58.8499
-2 -16 -14 12.5502 95.4885
-2 -16 -12 26.1686 12.8410
-2 -16 -10 -4.2387 -34.6678
-2 -16 -8 48.5276 -67.2770
-2 -16 -6 -48.8057 183.2871
-2 -16 -4 44.8834 -27.5211
-2 -16 -2 2.8592 -99.9382
-2 -15 -15 -63.1266 -30.4922
-2 -15 -13 163.9394 -12.4130
-2 -15 -11 11.0610 -10.4813
-2 -15 -9 103.4622 27.7961
-2 -15 -7 28.9762 30.3529
-2 -15 -5 -86.4459 12.1332
-2 -15 -3 -59.3519 136.0802
-2 -14 -14 -49.8686 -50.7901
-2 -14 -12 9.9676 2.7113
-2 -14 -10 -4.2909 2.3814
-2 -14 -8 -3.2049 -70.5193
-2 -14 -6 -35.8987 -16.2523
-2 -14 -4 95.8611 54.4732
-2 -14 -2 -19.2743 -37.1249
-2 -13 -13 -34.7838 -27.1131
-2 -13 -11 65.9104 -51.9537
-2 -13 -9 -70.7822 -127.3292
-2 -13 -7 15.4674 50.3226
-2 -13 -5 -56.2908 -76.7577
-2 -13 -3 -78.0978 38.8391
-2 -12 -12 33.5491 31.3264
-2 -12 -10 127.6181 148.7437
-2 -12 -8 -21.2262 112.8480
-2 -12 -6 44.3573 -26.5704
-2 -12 -4 25.1483 -115.3526
-2 -12 -2 218.2690 -216.6388
-2 -11 -11 -71.7635 72.2064
-2 -11 -9 -104.0614 -46.0473
-2 -11 -7 82.1641 -76.1751
-2 -11 -5 24.6053 108.4402
-2 -11 -3 -68.9512 -51.9116
-2 -10 -10 -106.4030 -112.9822
-2 -10 -8 67.4074 -178.3549
-2 -10 -6 -58.3213 11.4653
-2 -10 -4 -42.9554 106.6833
-2 -10 -2 -227.3335 292.6999
-2 -9 -9 -63.9034 187.0175
-2 -9 -7 -121.3028 -53.0006
-2 -9 -5 88.1081 225.3712
-2 -9 -3 5.5266 134.9659
-2 -8 -8 2.7391 44.0081
-2 -8 -6 -109.3510 35.7523
-2 -8 -4 -98.3859 88.9302
-2 -8 -2 169.5138 157.7955
-2 -7 -7 70.6455 39.6817
-2 -7 -5 14.5237 123.9607
-2 -7 -3 -66.4075 -24.1678
-2 -6 -6 329.2915 -127.3187
-2 -6 -4 35.6253 -291.8778
-2 -6 -2 79.2892 312.0773
-2 -5 -5 53.1444 -147.8055
-2 -5 -3 -147.9767 -81.5043
-2 -4 -2 -7.0506 -39.8679
-2 -3 -3 -59.8574 -303.9335
-2 -2 -2 -245.1613 -101.4514
-1 -27 -4 -31.0715 30.2061
-1 -27 -2 -3.1678 12.0857
-1 -26 -9 -29.1930 -4.8952
-1 -26 -7 44.0200 -43.5845
-1 -26 -5 -7.7100 -33.9859
-1 -26 -3 -38.0609 -3.8690
-1 -26 -1 12.2188 -8.0911
-1 -25 -10 3.9576 0.3281
-1 -25 -8 58.3137 17.9073
-1 -25 -6 60.5748 21.4427
-1 -25 -4 -6.6053 -7.4360
-1 -25 -2 -14.4964 11.4896
-1 -24 -13 -23.5294 -15.2826
-1 -24 -11 1.9504 -12.3909
-1 -24 -9 -54.5288 -2.1460
-1 -24 -7 -49.0015 -61.7933
-1 -24 -5 9.5408 -10.7941
-1 -24 -3 6.2653 -6.2757
-1 -24 -1 11.4552 -10.1591
-1 -23 -14 11.5622 -13.5026
-1 -23 -12 9.3411 23.9288
-1 -23 -10 9.2393 5.6239
-1 -23 -8 93.7530 -18.6932
-1 -23 -6 -105.2721 58.0617
-1 -23 -4 10.7823 -21.4107
-1 -23 -2 15.1186 -9.0325
-1 -22 -15 2.4162 4.0189
-1 -22 -13 -37.5061 24.3291
-1 -22 -11 -57.2886 14.8221
-1 -22 -9 63.7433 21.7489
-1 -22 -7 -31.4976 78.6905
-1 -22 -5 -47.0799 43.8895
-1 -22 -3 19.6996 2.3085
-1 -22 -1 -16.9592 -19.4394
-1 -21 -18 35.6576 1.4391
-1 -21 -16 4.7827 32.6788
-1 -21 -14 -9.0813 -53.0377
-1 -21 -12 4.9077 32.5795
-1 -21 -10 -5.0031 13.8368
-1 -21 -8 -2.8565 21.7860
-1 -21 -6 13.3109 21.1426
-1 -21 -4 -3.1615 25.7953
-1 -21 -2 -66.7398 -30.3626
-1 -20 -19 -24.7256 -8.3545
-1 -20 -17 -17.5322 6.2387
-1 -20 -15 50.3558 -13.0290
-1 -20 -13 64.2105 -25.3276
-1 -20 -11 -69.2454 -49.4786
-1 -20 -9 -141.9726 26.3339
-1 -20 -7 -14.7747 -23.3305
-1 -20 -5 65.1178 -52.2937
-1 -20 -3 -18.7538 28.8768
-1 -20 -1 -108.1757 76.4219
-1 -19 -18 16.1186 -14.9551
-1 -19 -16 2.4424 -7.5250
-1 -19 -14 8.1770 52.2641
-1 -19 -12 -27.2320 -38.9895
-1 -19 -10 18.3715 -28.7299
-1 -19 -8 -16.5571 -26.1538
-1 -19 -6 115.1434 -104.9437
-1 -19 -4 -24.1744 -35.3902
-1 -19 -2 -27.6903 -33.4041
-1 -18 -17 63.2261 -26.1791
-1 -18 -15 141.6230 -41.6877
-1 -18 -13 -139.0476 41.1146
-1 -18 -11 11.6798 8.0414
-1 -18 -9 45.9713 -22.2705
-1 -18 -7 4.2251 -5.8789
-1 -18 -5 -35.8463 3.9604
-1 -18 -3 -47.3947 28.7525
-1 -18 -1 79.0639 -141.2609
-1 -17 -16 -11.6655 -0.7664
-1 -17 -14 -0.8428 -26.1354
-1 -17 -12 86.3070 22.7658
-1 -17 -10 50.5903 24.7650
-1 -17 -8 -59.1338 -31.9992
-1 -17 -6 14.6008 37.7321
-1 -17 -4 -106.1707 103.9163
-1 -17 -2 44.4906 105.0139
-1 -16 -15 -71.0166 4.9859
-1 -16 -13 -129.4213 -18.4328
-1 -16 -11 -108.9039 29.7022
-1 -16 -9 155.9222 1.6857
-1 -16 -7 39.9514 112.4038
-1 -16 -5 60.3085 21.1729
-1 -16 -3 149.6051 21.6247
-1 -16 -1 -110.3030 -48.7643
-1 -15 -14 18.1417 -18.1495
-1 -15 -12 150.9400 -36.6808
-1 -15 -10 -117.7710 56.1638
-1 -15 -8 115.5994 -74.4138
-1 -15 -6 132.1004 9.2479
-1 -15 -4 151.9555 -39.7398
-1 -15 -2 -212.5746 137.7266
-1 -14 -13 -2.9877 40.7835
-1 -14 -11 1.0170 14.3408
-1 -14 -9 28.2467 73.7165
-1 -14 -7 -206.6515 -131.5703
-1 -14 -5 106.7124 93.9643
-1 -14 -3 42.0434 -53.5131
-1 -14 -1 -79.6900 -113.3744
-1 -13 -12 -60.8744 87.1426
-1 -13 -10 126.1822 -117.2985
-1 -13 -8 91.8772 -130.3415
-1 -13 -6 24.5911 -66.9108
-1 -13 -4 -189.5266 63.7485
-1 -13 -2 54.0267 -34.2546
-1 -12 -11 124.4192 -158.3596
-1 -12 -9 -75.5896 -133.3286
-1 -12 -7 103.0559 48.7634
-1 -12 -5 86.7947 -86.1970
-1 -12 -3 -227.8286 -44.6908
-1 -12 -1 -113.1909 -129.6699
-1 -11 -10 76.3999 -3.2047
-1 -11 -8 -195.9623 185.7666
-1 -11 -6 -50.5643 41.1388
-1 -11 -4 -53.7270 61.0319
-1 -11 -2 201.1614 -20.9122
-1 -10 -9 92.1319 33.2546
-1 -10 -7 12.8936 22.1959
-1 -10 -5 129.9930 -36.2235
-1 -10 -3 216.5563 -28.6457
-1 -10 -1 234.0670 110.0367
-1 -9 -8 118.8447 -15.6269
-1 -9 -6 -37.7777 78.3064
-1 -9 -4 63.3366 22.5915
-1 -9 -2 49.9159 -134.4048
-1 -8 -7 -37.4525 -151.2403
-1 -8 -5 -413.3757 63.6712
-1 -8 -3 29.6012 231.8376
-1 -8 -1 263.4101 135.1144
-1 -7 -6 -67.7552 26.7839
-1 -7 -4 -111.5656 137.2057
-1 -7 -2 -180.5562 -31.6921
-1 -6 -5 4.4724 -238.7485
-1 -6 -3 -59.6493 -112.2059
-1 -6 -1 -278.6880 272.3049
-1 -5 -4 -51.6435 37.9450
-1 -5 -2 -442.3257 200.5413
-1 -4 -3 84.4704 5.4853
-1 -4 -1 375.6263 -199.0754
-1 -3 -2 401.1490 -22.8721
-1 -2 -1 604.6421 512.8198
0 1 1 -143.3175 -0.4673
0 2 2 258.2245 -10.3281
0 3 1 -135.1460 10.8126
0 3 3 130.0287 -24.6157
0 4 0 -562.3141 -4.6096
0 4 2 -187.4891 -8.9718
0 4 4 -233.9600 16.6349
0 5 1 17.2076 -8.6465
0 5 3 -73.9082 10.8996
0 5 5 322.0001 -7.2109
0 6 0 -210.2150 -7.1624
0 6 2 131.8123 6.5951
0 6 4 -43.1322 -5.5219
0 6 6 -119.6863 2.2027
0 7 1 -172.5104 5.9631
0 7 3 262.4622 -8.9413
0 7 5 -26.7875 -4.0302
0 7 7 -16.7588 13.5246
0 8 0 -7.6456 -4.4034
0 8 2 238.8207 2.7185
0 8 4 -84.2027 -3.8718
0 8 6 -74.0680 0.1016
0 8 8 69.9077 1.8970
0 9 1 158.0608 -4.9687
0 9 3 -55.7741 13.5771
0 9 5 -18.4634 -0.4653
0 9 7 15.1738 -5.5315
0 9 9 86.1434 -5.4244
0 10 0 -27.0374 0.2273
0 10 2 -26.9439 -0.9490
0 10 4 -94.0414 7.9403
0 10 6 55.0473 -4.4621
0 10 8 15.1497 -5.5095
0 10 10 -85.1570 14.0237
0 11 1 -31.6000 6.3067
0 11 3 73.6843 -16.0761
0 11 5 -68.6956 10.9110
0 11 7 -42.2000 -8.1060
0 11 9 -142.4232 12.0704
0 11 11 177.0732 -22.1764
0 12 0 -192.3127 24.5520
0 12 2 127.4850 -10.3409
0 12 4 89.8075 -3.2461
0 12 6 -86.9042 5.5074
0 12 8 30.6907 1.6495
0 12 10 75.2804 -1.8274
0 12 12 91.5402 -13.7275
0 13 1 -57.8022 -1.6678
0 13 3 3.8173 6.4553
0 13 5 79.5272 -5.8412
0 13 7 -58.2283 5.4548
0 13 9 122.2781 -6.8177
0 13 11 -0.7719 8.0606
0 13 13 -7.8749 -1.5127
0 14 0 57.3335 -41.3611
0 14 2 -80.8729 18.4592
0 14 4 56.0057 0.5512
0 14 6 36.6734 -5.8863
0 14 8 45.4357 0.4064
0 14 10 9.0948 -2.1934
0 14 12 -61.9099 20.0880
0 14 14 98.0547 -41.9752
0 15 1 18.7159 -2.6503
0 15 3 -80.4041 8.4632
0 15 5 48.4383 -6.7473
0 15 7 8.9240 5.5269
0 15 9 3.6815 -4.8981
0 15 11 -17.1814 5.7258
0 15 13 -3.1104 1.6278
0 15 15 17.2179 -3.4982
0 16 0 -140.3898 27.9313
0 16 2 133.2006 -11.9748
0 16 4 -23.2708 -2.4634
0 16 6 17.6350 4.8056
0 16 8 -28.9302 1.1175
0 16 10 53.6006 -1.8868
0 16 12 81.6897 -8.6172
0 16 14 -80.4956 22.2468
0 16 16 73.4753 -19.1198
0 17 1 28.6984 5.1693
0 17 3 61.3349 -17.4310
0 17 5 -41.5930 12.7325
0 17 7 24.3702 -10.2727
0 17 9 23.2630 10.6862
0 17 11 42.8568 -13.3911
0 17 13 -22.7462 4.9874
0 17 15 -12.3381 10.4688
0 17 17 22.5854 -23.3597
0 18 0 -58.4005 -0.5718
0 18 2 41.4746 -1.4765
0 18 4 -82.6752 6.3594
0 18 6 -73.6472 -3.6010
0 18 8 -0.8851 -3.8709
0 18 10 -19.2731 8.5269
0 18 12 20.0789 -5.1639
0 18 14 14.4249 -0.6121
0 18 16 -12.7262 2.3280
0 18 18 -10.1230 7.0477
0 19 1 58.8015 -3.6329
0 19 3 -58.5432 15.5942
0 19 5 -4.1831 -6.0603
0 19 7 23.6268 0.7192
0 19 9 -15.1155 -3.4504
0 19 11 -31.5432 10.5281
0 19 13 20.6518 -6.8711
0 19 15 28.4582 -4.8566
0 19 17 -28.2095 13.8169
0 19 19 42.8296 -11.2643
0 20 0 106.2691 -8.8160
0 20 2 13.4169 4.8262
0 20 4 39.3157 -3.1352
0 20 6 -28.5628 0.1189
0 20 8 -7.8401 2.4599
0 20 10 32.0366 -5.3289
0 20 12 18.3782 6.6029
0 20 14 6.7051 -5.8378
0 20 16 9.9201 4.2345
0 20 18 22.3356 -1.9538
0 21 1 -49.0836 1.8611
0 21 3 31.6757 -9.3445
0 21 5 26.8721 -2.3070
0 21 7 -46.9790 8.0013
0 21 9 44.5971 -3.7960
0 21 11 8.2986 -6.2436
0 21 13 5.9300 6.5853
0 21 15 -31.4875 1.6885
0 21 17 35.6869 -6.1638
0 22 0 -44.5151 1.8073
0 22 2 24.4357 -0.7948
0 22 4 6.8104 -4.5122
0 22 6 25.1290 3.0094
0 22 8 -0.5372 2.1361
0 22 10 -4.4540 -5.0243
0 22 12 9.7810 0.9385
0 22 14 24.3380 2.5411
0 22 16 3.3488 0.7268
0 23 1 22.1083 -2.2675
0 23 3 -36.6590 6.8467
0 23 5 -18.3337 -0.5900
0 23 7 14.1072 -3.2563
0 23 9 10.8270 -0.5447
0 23 11 -28.4934 6.9567
0 23 13 21.7364 -4.9997
0 23 15 7.3177 -4.2247
0 24 0 0.2501 -2.8466
0 24 2 -16.8319 0.5333
0 24 4 -43.9429 8.2395
0 24 6 -15.9381 -5.4942
0 24 8 40.2945 -4.6526
0 24 10 -9.9772 9.0473
0 24 12 13.1976 -1.1748
0 25 1 -5.5836 3.8227
0 25 3 25.4493 -7.3752
0 25 5 -20.3160 7.1399
0 25 7 20.0973 -7.6442
0 25 9 15.9312 8.9912
0 25 11 1.8867 -9.4524
0 26 0 -8.1479 20.7394
0 26 2 -19.6201 -8.8428
0 26 4 9.9890 -4.9200
0 26 6 -1.8559 5.8060
0 26 8 -8.7943 2.6716
0 27 1 -28.8037 0.0533
0 27 3 -5.6383 4.9791
0 27 5 29.5718 -7.7801
1 2 1 604.6421 -512.8198
1 3 2 401.1490 22.8721
1 4 1 375.6263 199.0754
1 4 3 84.4704 -5.4853
1 5 4 -51.6435 -37.9450
1 6 1 -278.6880 -272.3049
1 6 3 -59.6493 112.2059
1 6 5 4.4724 238.7485
1 7 2 -180.5562 31.6921
1 7 4 -111.5656 -137.2057
1 7 6 -67.7552 -26.7839
1 8 1 263.4101 -135.1144
1 8 3 29.6012 -231.8376
1 8 5 -413.3757 -63.6712
1 8 7 -37.4525 151.2403
1 9 2 49.9159 134.4048
1 9 4 63.3366 -22.5915
1 9 6 -37.7777 -78.3064
1 9 8 118.8447 15.6269
1 10 1 234.0670 -110.0367
1 10 3 216.5563 28.6457
1 10 5 129.9930 36.2235
1 10 7 12.8936 -22.1959
1 10 9 92.1319 -33.2546
1 11 2 201.1614 20.9122
1 11 4 -53.7270 -61.0319
1 11 6 -50.5643 -41.1388
1 11 8 -195.9623 -185.7666
1 11 10 76.3999 3.2047
1 12 1 -113.1909 129.6699
1 12 5 86.7947 86.1970
1 12 7 103.0559 -48.7634
1 12 9 -75.5896 133.3286
1 12 11 124.4192 158.3596
1 13 2 54.0267 34.2546
1 13 4 -189.5266 -63.7485
1 13 6 24.5911 66.9108
1 13 8 91.8772 130.3415
1 13 10 126.1822 117.2985
1 13 12 -60.8744 -87.1426
1 14 1 -79.6900 113.3744
1 14 3 42.0434 53.5131
1 14 5 106.7124 -93.9643
1 14 7 -206.6515 131.5703
1 14 9 28.2467 -73.7165
1 14 11 1.0170 -14.3408
1 14 13 -2.9877 -40.7835
1 15 2 -212.5746 -137.7266
1 15 4 151.9555 39.7398
1 15 6 132.1004 -9.2479
1 15 8 115.5994 74.4138
1 15 10 -117.7710 -56.1638
1 15 12 150.9400 36.6808
1 15 14 18.1417 18.1495
1 16 1 -110.3030 48.7643
1 16 3 149.6051 -21.6247
1 16 5 60.3085 -21.1729
1 16 7 39.9514 -112.4038
1 16 9 155.9222 -1.6857
1 16 11 -108.9039 -29.7022
1 16 13 -129.4213 18.4328
1 16 15 -71.0166 -4.9859
1 17 2 44.4906 -105.0139
1 17 4 -106.1707 -103.9163
1 17 6 14.6008 -37.7321
1 17 8 -59.1338 31.9992
1 17 10 50.5903 -24.7650
1 17 12 86.3070 -22.7658
1 17 14 -0.8428 26.1354
1 17 16 -11.6655 0.7664
1 18 1 79.0639 141.2609
1 18 3 -47.3947 -28.7525
1 18 5 -35.8463 -3.9604
1 18 7 4.2251 5.8789
1 18 9 45.9713 22.2705
1 18 11 11.6798 -8.0414
1 18 13 -139.0476 -41.1146
1 18 15 141.6230 41.6877
1 18 17 63.2261 26.1791
1 19 2 -27.6903 33.4041
1 19 4 -24.1744 35.3902
1 19 6 115.1434 104.9437
1 19 8 -16.5571 26.1538
1 19 10 18.3715 28.7299
1 19 12 -27.2320 38.9895
1 19 14 8.1770 -52.2641
1 19 16 2.4424 7.5250
1 19 18 16.1186 14.9551
1 20 1 -108.1757 -76.4219
1 20 3 -18.7538 -28.8768
1 20 5 65.1178 52.2937
1 20 7 -14.7747 23.3305
1 20 9 -141.9726 -26.3339
1 20 11 -69.2454 49.4786
1 20 13 64.2105 25.3276
1 20 15 50.3558 13.0290
1 20 17 -17.5322 -6.2387
1 20 19 -24.7256 8.3545
1 21 2 -66.7398 30.3626
1 21 4 -3.1615 -25.7953
1 21 6 13.3109 -21.1426
1 21 8 -2.8565 -21.7860
1 21 10 -5.0031 -13.8368
1 21 12 4.9077 -32.5795
1 21 14 -9.0813 53.0377
1 21 16 4.7827 -32.6788
1 21 18 35.6576 -1.4391
1 22 1 -16.9592 19.4394
1 22 3 19.6996 -2.3085
1 22 5 -47.0799 -43.8895
1 22 7 -31.4976 -78.6905
1 22 9 63.7433 -21.7489
1 22 11 -57.2886 -14.8221
1 22 13 -37.5061 -24.3291
1 22 15 2.4162 -4.0189
1 23 2 15.1186 9.0325
1 23 4 10.7823 21.4107
1 23 6 -105.2721 -58.0617
1 23 8 93.7530 18.6932
1 23 10 9.2393 -5.6239
1 23 12 9.3411 -23.9288
1 23 14 11.5622 13.5026
1 24 1 11.4552 10.1591
1 24 3 6.2653 6.2757
1 24 5 9.5408 10.7941
1 24 7 -49.0015 61.7933
1 24 9 -54.5288 2.1460
1 24 11 1.9504 12.3909
1 24 13 -23.5294 15.2826
1 25 2 -14.4964 -11.4896
1 25 4 -6.6053 7.4360
1 25 6 60.5748 -21.4427
1 25 8 58.3137 -17.9073
1 25 10 3.9576 -0.3281
1 26 1 12.2188 8.0911
1 26 3 -38.0609 3.8690
1 26 5 -7.7100 33.9859
1 26 7 44.0200 43.5845
1 26 9 -29.1930 4.8952
1 27 2 -3.1678 -12.0857
1 27 4 -31.0715 -30.2061
2 2 2 -245.1613 101.4514
2 3 3 -59.8574 303.9335
2 4 2 -7.0506 39.8679
2 5 5 53.1444 147.8055
2 6 2 79.2892 -312.0773
2 6 4 35.6253 291.8778
2 6 6 329.2915 127.3187
2 7 3 -66.4075 24.1678
2 7 5 14.5237 -123.9607
2 7 7 70.6455 -39.6817
2 8 2 169.5138 -157.7955
2 8 4 -98.3859 -88.9302
2 8 6 -109.3510 -35.7523
2 8 8 2.7391 -44.0081
2 9 3 5.5266 -134.9659
2 9 5 88.1081 -225.3712
2 9 7 -121.3028 53.0006
2 9 9 -63.9034 -187.0175
2 10 2 -227.3335 -292.6999
2 10 6 -58.3213 -11.4653
2 10 10 -106.4030 112.9822
2 11 3 -68.9512 51.9116
2 11 5 24.6053 -108.4402
2 11 7 82.1641 76.1751
2 11 9 -104.0614 46.0473
2 11 11 -71.7635 -72.2064
2 12 2 218.2690 216.6388
2 12 4 25.1483 115.3526
2 12 6 44.3573 26.5704
2 12 8 -21.2262 -112.8480
2 12 10 127.6181 -148.7437
2 12 12 33.5491 -31.3264
2 13 3 -78.0978 -38.8391
2 13 5 -56.2908 76.7577
2 13 7 15.4674 -50.3226
2 13 9 -70.7822 127.3292
2 13 11 65.9104 51.9537
2 13 13 -34.7838 27.1131
2 14 2 -19.2743 37.1249
2 14 4 95.8611 -54.4732
2 14 6 -35.8987 16.2523
2 14 8 -3.2049 70.5193
2 14 10 -4.2909 -2.3814
2 14 12 9.9676 -2.7113
2 14 14 -49.8686 50.7901
2 15 3 -59.3519 -136.0802
2 15 5 -86.4459 -12.1332
2 15 7 28.9762 -30.3529
2 15 9 103.4622 -27.7961
2 15 11 11.0610 10.4813
2 15 13 163.9394 12.4130
2 15 15 -63.1266 30.4922
2 16 2 2.8592 99.9382
2 16 4 44.8834 27.5211
2 16 6 -48.8057 -183.2871
2 16 8 48.5276 67.2770
2 16 10 -4.2387 34.6678
2 16 12 26.1686 -12.8410
2 16 14 12.5502 -95.4885
2 16 16 -57.8066 -58.8499
2 17 3 -38.8221 14.6526
2 17 5 8.6116 65.3813
2 17 7 37.2533 74.9866
2 17 9 -80.7321 -78.3149
2 17 11 -31.0658 39.1658
2 17 13 9.1257 12.3196
2 17 15 62.2003 7.4381
2 17 17 -18.9809 17.7340
2 18 2 156.3298 -40.4043
2 18 4 -92.3902 113.0381
2 18 6 -67.2937 87.6121
2 18 8 -22.6933 1.1840
2 18 10 9.3569 -28.0489
2 18 12 -21.1916 -42.5177
2 18 14 -8.0949 23.4116
2 18 16 7.1809 0.9736
2 18 18 -67.4048 -21.4120
2 19 3 3.9680 3.8705
2 19 5 27.7124 33.8922
2 19 7 -6.5215 -32.3582
2 19 9 25.1485 -1.0181
2 19 11 -32.4379 -90.0467
2 19 13 -13.8675 -38.9075
2 19 15 -39.6739 2.0704
2 19 17 11.9124 49.9360
2 19 19 38.8140 60.2618
2 20 2 -94.1184 -137.1169
2 20 4 -22.0731 0.2230
2 20 6 -29.8281 -10.6147
2 20 8 3.1643 -24.4723
2 20 10 -6.4184 30.4444
2 20 12 -11.3485 3.3339
2 20 14 -9.4958 8.3303
2 20 16 -4.5865 4.8885
2 20 18 49.0505 6.1939
2 21 3 -8.2449 72.8102
2 21 5 -7.4613 42.8304
2 21 7 32.5601 -110.1265
2 21 9 -10.9790 -44.9849
2 21 11 63.0572 -53.4769
2 21 13 -0.0148 -24.3763
2 21 15 -17.8105 -6.4195
2 21 17 42.7738 -4.2795
2 22 2 28.0988 92.7665
2 22 4 2.0285 23.6800
2 22 6 -20.7070 -38.4583
2 22 8 -38.6159 64.7976
2 22 10 -41.2907 -6.0393
2 22 12 -31.0400 6.1832
2 22 14 -8.2573 -0.6092
2 22 16 37.0902 4.0756
2 23 3 -11.3229 -58.6068
2 23 5 4.2286 25.1774
2 23 7 -10.4739 -0.0849
2 23 9 -4.0175 -15.6040
2 23 11 27.9365 -1.3911
2 23 13 -6.2130 41.9905
2 23 15 -25.3645 15.8985
2 24 2 24.3627 39.3688
2 24 4 19.4803 20.6077
2 24 6 1.5136 2.9803
2 24 8 -10.1903 80.2737
2 24 10 43.6346 -55.8868
2 24 12 35.5180 26.1694
2 25 3 -14.7723 4.9248
2 25 5 -28.8373 -35.6448
2 25 7 -15.0859 34.1855
2 25 9 13.5063 -33.3202
2 25 11 -8.7101 16.0589
2 26 2 -13.4851 10.5905
2 26 4 -2.2261 7.3591
2 26 6 15.4982 29.4873
2 26 8 3.6278 0.6189
2 27 3 -18.4090 14.9057
2 27 5 -19.6814 68.9266
3 4 3 -70.9333 -133.3469
3 5 4 168.4690 -255.0621
3 6 3 -282.4335 190.3262
3 6 5 -37.4822 172.6508
3 7 4 128.2210 105.5379
3 7 6 -75.4732 -8.5609
3 8 3 -47.7548 -458.8018
3 8 5 -210.1536 -67.7581
3 8 7 81.9975 149.1114
3 9 4 -9.9888 -120.2396
3 9 6 -122.4327 34.1667
3 9 8 130.0444 109.3446
3 10 5 -127.7842 -63.7162
3 10 7 -41.6065 26.9399
3 10 9 21.4317 33.5061
3 11 4 -52.3458 27.8729
3 11 6 97.4032 -7.6946
3 11 8 -94.5589 -119.0501
3 11 10 -12.1011 -7.8314
3 12 3 -85.7947 190.4001
3 12 5 -29.7280 87.0247
3 12 7 101.8163 -43.8643
3 12 9 -4.5005 -60.6388
3 12 11 -11.1420 137.5582
3 13 4 66.1525 -3.6852
3 13 6 105.1080 24.0967
3 13 8 -118.5739 -134.0186
3 13 10 103.2082 16.1988
3 13 12 -58.8887 -56.0805
3 14 3 -48.2901 -295.1408
3 14 5 -49.8419 39.2478
3 14 7 77.7784 -100.1663
3 14 9 -17.9637 24.3530
3 14 11 -107.4045 -147.4405
3 14 13 -14.3386 39.0644
3 15 4 136.2448 44.6002
3 15 6 -22.9209 -2.3698
3 15 8 -0.3000 -50.1230
3 15 10 -63.2108 21.8099
3 15 12 48.6514 47.2782
3 15 14 -13.8472 107.1560
3 16 3 35.0842 186.1951
3 16 5 3.1306 103.0336
3 16 7 131.9690 77.9210
3 16 9 -48.0604 -73.5796
3 16 11 -35.3044 -2.1354
3 16 13 2.7988 -11.5303
3 16 15 -49.8735 -58.5950
3 17 4 12.2795 25.2339
3 17 6 -3.0826 18.4913
3 17 8 -47.2251 29.3645
3 17 10 -40.0424 0.8389
3 17 12 -31.2222 1.9168
3 17 14 -4.3661 -128.7734
3 17 16 -6.1243 11.9452
3 18 3 54.4656 -98.3984
3 18 5 51.9595 67.9495
3 18 7 15.7848 3.2717
3 18 9 96.4296 -28.3218
3 18 11 11.8327 39.3687
3 18 13 -42.7515 2.3303
3 18 15 23.2706 15.6082
3 18 17 -10.2668 -11.0437
3 19 4 -40.7993 -54.9449
3 19 6 94.4086 0.7559
3 19 8 -31.3415 -44.7454
3 19 10 92.3901 -60.4961
3 19 12 0.3919 43.0518
3 19 14 -22.2448 -34.7030
3 19 16 21.0504 -37.3413
3 19 18 -30.7269 19.0618
3 20 3 -15.0256 -4.5539
3 20 5 37.6115 13.4726
3 20 7 -7.9069 45.4161
3 20 9 -23.4229 -25.4580
3 20 11 -14.4043 62.2363
3 20 13 20.3853 23.2543
3 20 15 0.5208 3.9241
3 20 17 -32.3971 -17.4191
3 21 4 47.3020 -16.4103
3 21 6 -1.6964 -50.8519
3 21 8 31.8036 -41.6768
3 21 10 63.0510 -28.7691
3 21 12 67.5914 -20.7579
3 21 14 -23.7362 46.4812
3 21 16 -15.6185 13.3264
3 22 3 79.6118 34.0539
3 22 5 -90.3650 6.5357
3 22 7 21.8098 -6.1124
3 22 9 49.5210 34.3395
3 22 11 1.7242 -14.6029
3 22 13 -0.5910 -24.9702
3 22 15 -5.4345 -9.9518
3 23 4 39.5355 -28.0633
3 23 6 -0.2515 -10.6452
3 23 8 -0.1060 45.7864
3 23 10 -6.2906 20.9827
3 23 12 -13.2295 -35.9004
3 23 14 -23.4450 31.3098
3 24 3 -11.4856 -26.0085
3 24 5 35.8583 -51.8282
3 24 7 12.5282 55.3832
3 24 9 11.6918 4.3097
3 24 11 -25.6450 8.0381
3 24 13 -36.0055 -12.5750
3 25 4 26.5345 50.0649
3 25 6 -51.1286 -5.7767
3 25 8 -39.6366 3.3329
3 25 10 0.5824 26.2317
3 26 3 -20.5734 13.6811
3 26 5 18.4098 0.6924
3 26 7 48.3086 -20.9910
3 27 4 -2.6857 -6.9009
4 5 5 37.7392 176.0272
4 6 4 -60.7667 91.5249
4 6 6 -265.4206 -153.7432
4 8 4 -72.3941 -84.2631
4 8 6 -19.0943 136.0611
4 8 8 119.7417 26.2469
4 9 5 48.2792 -56.4533
4 9 7 -168.4598 61.6058
4 9 9 -95.2390 -20.4897
4 10 4 227.1797 61.8341
4 10 6 46.7494 24.2141
4 10 8 18.0454 -39.6614
4 10 10 -38.0463 -129.0491
4 11 5 -127.7934 -80.4358
4 11 7 33.6005 133.3535
4 11 9 43.4112 -42.1547
4 11 11 -159.0047 40.6319
4 12 4 125.9413 19.0261
4 12 6 -90.1444 -10.0543
4 12 8 61.8324 -34.6438
4 12 10 -59.7791 163.3847
4 12 12 54.1704 193.1730
4 13 5 -18.7027 143.3141
4 13 7 -15.2408 67.2336
4 13 9 126.8672 -63.7239
4 13 11 -37.4980 -154.4175
4 13 13 132.2935 73.0167
4 14 6 -20.9347 52.8682
4 14 8 7.8771 84.0022
4 14 10 -45.1725 25.2935
4 14 12 -30.3801 -23.4710
4 14 14 -10.2362 7.0068
4 15 5 -67.6329 118.9071
4 15 7 -127.8783 77.8570
4 15 9 7.6521 -10.7537
4 15 11 62.7426 -37.2698
4 15 13 -68.3468 21.3461
4 15 15 101.1793 20.1955
4 16 6 42.4188 0.7572
4 16 8 -45.5073 -51.8926
4 16 10 -27.9981 -74.6567
4 16 12 -27.1536 -46.4281
4 16 14 -6.7755 14.7878
4 16 16 -79.0556 48.6392
4 17 5 58.6584 35.4673
4 17 7 63.9532 13.2599
4 17 9 -28.3005 -77.5172
4 17 11 -33.1138 75.1468
4 17 13 -36.8080 49.3537
4 17 15 42.5388 -41.5566
4 17 17 -5.3696 -7.0837
4 18 6 30.0410 9.0462
4 18 8 -10.2504 24.3279
4 18 10 71.7560 81.1574
4 18 12 -1.9894 129.4212
4 18 14 -3.1813 4.6427
4 18 16 -70.6443 29.3570
4 18 18 -21.2733 -12.9148
4 19 5 -66.1987 -25.0297
4 19 7 30.2896 -16.9279
4 19 9 22.3003 -48.3166
4 19 11 85.5499 -70.2426
4 19 13 34.0640 40.3475
4 19 15 18.6926 3.4553
4 19 17 5.6366 -12.4122
4 19 19 -11.5226 -23.8647
4 20 4 -20.9642 -21.0552
4 20 6 -41.2845 -133.1074
4 20 8 -24.4771 -38.3237
4 20 10 11.7439 -48.2466
4 20 12 -24.6509 -67.1768
4 20 14 -32.5445 3.5131
4 20 16 39.4721 14.6627
4 20 18 -2.5747 21.8597
4 21 5 -0.7526 72.8718
4 21 7 -27.4058 -55.4222
4 21 9 -30.1261 152.2198
4 21 11 -8.0396 3.8857
4 21 13 4.1812 17.1525
4 21 15 3.6349 -21.7581
4 21 17 13.4100 -0.9459
4 22 4 24.2391 -34.3361
4 22 6 -27.1710 -20.4047
4 22 8 -77.2002 -116.2337
4 22 10 -71.8871 -67.8175
4 22 12 -22.4296 -1.2129
4 22 14 -3.0751 1.8076
4 22 16 10.5569 -5.3164
4 23 5 15.7008 -26.8468
4 23 7 6.4375 72.1355
4 23 9 -57.8681 -25.7732
4 23 11 8.2658 -5.8769
4 23 13 -28.9741 13.7255
4 24 4 -38.7145 -20.1769
4 24 6 -1.0111 13.9447
4 24 8 -2.7480 -32.0744
4 24 10 95.1611 -33.1878
4 24 12 4.8969 17.3593
4 25 5 7.7087 -3.2359
4 25 7 -30.9975 33.6986
4 25 9 41.9671 11.1407
4 25 11 -22.4971 -3.5379
4 26 4 2.6267 17.8870
4 26 6 -43.5968 -20.8138
4 26 8 0.1316 8.4448
5 7 6 26.3927 -77.6615
5 8 7 -31.3214 203.6056
5 9 8 4.6597 41.1006
5 10 5 -54.4082 39.4357
5 11 6 41.3771 -45.3634
5 11 8 -168.6955 -13.0651
5 11 10 129.5019 -19.9868
5 12 5 67.0460 27.9965
5 12 7 -0.6447 35.9422
5 12 9 3.6913 -102.4644
5 12 11 143.9503 -29.3963
5 13 6 -2.3281 50.4939
5 13 8 28.2608 -87.3672
5 13 10 47.8086 -38.7394
5 13 12 -27.2299 0.4937
5 14 5 -103.2966 52.0632
5 14 7 51.7716 161.4647
5 14 9 -19.7709 -83.5747
5 14 11 -63.0174 -52.3153
5 14 13 15.6803 -17.8493
5 15 6 -18.1064 -30.7475
5 15 8 2.7042 35.7092
5 15 10 -33.1536 22.2710
5 15 12 -75.6946 100.0700
5 15 14 48.9092 -64.6964
5 16 5 -79.7643 75.4560
5 16 7 17.4277 -3.2560
5 16 9 -12.0029 8.5783
5 16 13 2.7138 -20.9343
5 16 15 -19.1477 10.0490
5 17 6 108.9777 -83.1129
5 17 8 58.4448 -46.2046
5 17 10 78.1170 -19.8654
5 17 12 -7.3733 -80.1838
5 17 14 -19.0990 -25.8535
5 17 16 30.9151 -52.0160
5 18 5 -13.7428 -107.7740
5 18 7 4.9684 -129.5493
5 18 9 43.0492 -89.2372
5 18 11 51.7268 7.3309
5 18 13 -23.6215 27.6349
5 18 15 9.5279 -19.3932
5 18 17 -3.1556 4.1833
5 19 6 86.5946 50.3918
5 19 8 118.8662 -25.6715
5 19 10 -59.5127 -6.1770
5 19 12 -19.8878 9.7554
5 19 14 -5.6137 -41.8311
5 19 16 -14.0014 -6.6701
5 19 18 -0.4888 -3.9187
5 20 5 20.7638 -27.3405
5 20 7 -45.6065 -71.5426
5 20 9 -33.0070 34.4009
5 20 11 -127.9399 32.9909
5 20 13 28.3107 -9.6671
5 20 15 12.5193 3.4268
5 20 17 24.7324 4.1590
5 21 6 24.5176 -2.1151
5 21 8 51.5910 140.5122
5 21 10 -8.1491 108.9849
5 21 12 4.2000 -59.3374
5 21 14 -37.5044 26.6701
5 21 16 -9.1952 14.7208
5 22 5 95.1642 -84.8196
5 22 7 156.1192 -11.6974
5 22 9 53.1322 38.8583
5 22 11 -23.1494 24.5446
5 22 13 1.8794 -2.8807
5 22 15 26.8889 10.0169
5 23 6 -6.7227 -11.3367
5 23 8 -20.0939 -30.5764
5 23 10 5.2931 63.0569
5 23 12 -47.1233 -33.3999
5 23 14 -19.4955 -16.8729
5 24 5 -51.8885 -7.2705
5 24 7 33.9164 -77.7431
5 24 9 -5.2853 -1.7483
5 24 11 -59.7786 56.5795
5 25 6 -55.2143 -20.7331
5 25 8 -5.0689 -31.4895
5 25 10 8.2096 -3.0511
5 26 5 -4.0604 -12.7265
5 26 7 16.3651 -3.1654
6 6 6 75.4916 -3.1312
6 7 7 66.0890 -109.0038
6 8 6 -79.2056 -7.2570
6 8 8 66.9899 -23.9880
6 9 7 33.2029 156.8392
6 9 9 12.2237 24.7768
6 10 6 119.4065 6.7833
6 10 8 -59.2722 11.9332
6 10 10 68.5660 -97.8201
6 11 7 7.9228 -28.9797
6 11 9 -45.5473 -51.9835
6 11 11 -119.0282 -15.0973
6 12 6 7.9927 -130.0872
6 12 8 -77.7811 -77.8779
6 12 10 -131.1188 112.8832
6 13 7 -5.8428 -102.7544
6 13 9 61.2470 -43.9873
6 13 11 37.9930 -89.9532
6 13 13 0.9302 42.5196
6 14 6 -61.1245 77.3945
6 14 8 47.2357 31.0641
6 14 10 -153.8332 43.2238
6 14 12 22.4879 -102.2108
6 14 14 -68.8295 -59.0239
6 15 7 -1.4307 69.9350
6 15 9 21.5677 -4.9694
6 15 11 -18.1873 -14.4678
6 15 13 38.2090 98.8505
6 15 15 -64.7119 -5.8393
6 16 6 5.7018 17.2624
6 16 8 -29.9166 -44.0648
6 16 10 -95.4426 -33.0760
6 16 12 40.1207 159.7846
6 16 14 -4.3297 1.4398
6 16 16 -34.9630 -3.7462
6 17 7 -5.1421 24.7136
6 17 9 78.1046 -1.5177
6 17 11 102.8201 23.8395
6 17 13 -90.4006 -26.5491
6 17 15 40.9443 -9.6242
6 17 17 -7.0654 -11.0069
6 18 6 11.7192 48.9509
6 18 8 -71.4095 80.8725
6 18 10 24.6076 -0.9210
6 18 12 -43.9375 -61.8974
6 18 14 -12.4120 8.0352
6 18 16 41.6339 -6.3294
6 18 18 12.9886 6.6267
6 19 7 1.6393 -18.4717
6 19 9 -1.5412 8.7989
6 19 11 -25.5460 -47.4050
6 19 13 71.9343 19.7613
6 19 15 32.6379 21.2743
6 19 17 -17.0660 -10.3125
6 19 19 -53.5967 -42.2623
6 20 6 117.4831 13.4771
6 20 8 93.2200 45.2354
6 20 10 -30.4339 -28.2869
6 20 12 -39.3304 -37.1535
6 20 14 28.8839 9.5587
6 20 16 -2.3918 2.0045
6 20 18 12.1598 -6.6854
6 21 7 -13.5014 -107.7871
6 21 9 8.8259 110.3310
6 21 11 -25.7050 68.6502
6 21 13 -12.9130 -2.7955
6 21 15 -24.7917 -15.2234
6 21 17 -17.4891 0.1740
6 22 6 23.6996 58.1056
6 22 8 -73.6026 -65.8768
6 22 10 -61.5201 -53.8438
6 22 12 2.1360 -21.5767
6 22 14 10.1325 1.9500
6 23 7 -3.2525 -47.1489
6 23 9 42.0609 -0.4903
6 23 11 63.1454 19.0469
6 23 13 -0.5155 -21.8804
6 24 6 63.4237 79.5611
6 24 8 14.1196 -18.4890
6 24 10 -0.9974 -17.4173
6 24 12 -35.7953 -9.9860
6 25 7 31.5599 -11.5138
6 25 9 -38.0107 -17.6249
6 26 6 10.9469 -39.7205
7 9 8 9.6729 39.4781
7 10 9 25.6209 16.2976
7 11 8 -132.6529 -40.7644
7 11 10 76.3883 -43.0664
7 12 9 -56.8356 56.1547
7 12 11 -36.0832 -32.9266
7 13 8 -42.9226 1.1698
7 13 10 44.7704 -59.5474
7 13 12 14.1810 -8.0352
7 14 7 132.8437 128.6907
7 14 9 -73.5720 -65.6283
7 14 11 -20.6032 -3.0603
7 14 13 -9.5674 -48.7210
7 15 8 13.2029 31.9476
7 15 10 11.9084 -49.8978
7 15 12 6.4053 17.7393
7 15 14 71.0210 -17.7450
7 16 7 10.0727 13.7405
7 16 9 41.0031 -39.8500
7 16 11 -23.4359 3.0035
7 16 13 -26.9092 -70.3697
7 16 15 10.8648 -15.6542
7 17 8 -22.1600 -0.9171
7 17 10 -11.9370 27.6328
7 17 12 59.8378 -41.3330
7 17 14 30.8173 3.5072
7 17 16 31.6121 8.1334
7 18 7 -75.3576 -84.4194
7 18 9 74.7880 52.8946
7 18 11 5.0615 54.7141
7 18 13 -1.8497 -4.5440
7 18 15 -17.0799 -14.3107
7 18 17 2.5519 -13.6854
7 19 8 67.4857 114.6690
7 19 10 -29.3514 58.8868
7 19 12 -17.3771 -30.7322
7 19 14 -34.6731 21.2208
7 19 16 3.9275 -1.9725
7 19 18 -10.6288 1.8128
7 20 7 -81.7508 -144.5800
7 20 9 48.2519 -164.0312
7 20 11 4.4961 -37.8720
7 20 13 -12.3216 26.8423
7 20 15 -17.9527 -25.3296
7 20 17 19.7294 13.7017
7 21 8 -2.4053 25.6056
7 21 10 -38.4750 26.2091
7 21 12 -0.2201 83.9202
7 21 14 45.6551 83.5574
7 21 16 7.6802 30.3097
7 22 7 68.9261 -108.2730
7 22 9 -12.9931 -32.7884
7 22 11 -9.6866 16.1252
7 22 13 2.7331 31.0029
7 22 15 7.6737 20.6942
7 23 8 5.1337 -24.3349
7 23 10 11.3499 -29.9779
7 23 12 0.0217 62.8380
7 24 7 -8.8678 -19.5461
7 24 9 -49.8653 38.7250
7 24 11 6.1320 34.8528
7 25 8 21.0022 -22.3659
8 8 8 -66.0069 -53.8100
8 10 8 25.5069 3.9209
8 10 10 -27.2509 -43.8851
8 11 9 -77.7183 23.2032
8 11 11 163.9087 5.3859
8 12 8 -100.9869 -125.1864
8 12 10 -39.1109 26.9959
8 12 12 62.2931 15.7495
8 13 9 -59.7479 54.7637
8 13 11 63.8955 46.9952
8 13 13 5.0453 1.3744
8 14 8 -72.8199 49.0258
8 14 10 -1.0553 -3.9390
8 14 12 -7.5655 -18.7758
8 14 14 -13.9857 54.1675
8 15 9 1.8243 -15.7938
8 15 11 32.0928 11.2297
8 15 13 73.3262 -3.2553
8 15 15 -41.8673 -21.6423
8 16 8 74.1966 -99.7267
8 16 10 -82.7676 70.0650
8 16 12 -41.6860 25.9308
8 16 14 33.4774 -1.4027
8 16 16 33.6340 4.6090
8 17 9 -94.7329 -23.3735
8 17 11 -82.0545 1.1196
8 17 13 -16.6856 12.5977
8 17 15 -16.3646 29.0306
8 17 17 55.9750 2.6577
8 18 8 -12.6684 -70.2834
8 18 10 16.4021 -115.5958
8 18 12 -31.9239 -21.4938
8 18 14 5.3402 0.7476
8 18 16 8.4498 7.7425
8 18 18 -33.5807 31.2704
8 19 9 -9.2127 -44.6462
8 19 11 68.8751 63.1364
8 19 13 37.4460 -22.6449
8 19 15 38.9521 11.1072
8 19 17 0.9223 1.7855
8 20 8 203.8519 149.5104
8 20 10 65.3011 13.7561
8 20 12 -2.8111 17.2491
8 20 14 10.9057 41.1686
8 20 16 -20.9935 -23.1034
8 21 9 69.6140 65.9661
8 21 11 1.9201 -12.6971
8 21 13 39.3657 -39.6974
8 21 15 -24.2031 -3.7008
8 22 8 -103.8507 52.7646
8 22 10 -25.0349 -24.8873
8 22 12 -36.5260 -24.5591
8 22 14 -15.0219 3.9270
8 23 9 -38.0965 21.2476
8 23 11 -36.0105 46.2707
8 23 13 -30.4795 -21.0511
8 24 8 -15.1925 -20.6351
8 24 10 -42.1916 -52.3329
9 10 9 118.4682 -1.7648
9 11 10 -35.7162 -17.2732
9 12 9 -99.7924 57.3628
9 12 11 -21.3570 143.5613
9 13 10 -118.7710 -68.2217
9 13 12 13.7911 -43.3095
9 14 9 -83.0805 -51.4809
9 14 11 -28.7979 -12.2259
9 14 13 30.6744 10.0902
9 15 10 -24.4988 -13.2412
9 15 12 -3.0939 13.7678
9 15 14 25.8114 13.5324
9 16 9 6.0034 14.7952
9 16 11 -92.7190 0.2043
9 16 13 -29.8797 -9.4930
9 16 15 -9.8297 -2.5158
9 17 10 -70.4249 -1.1466
9 17 12 -38.1272 76.3954
9 17 14 -12.3508 44.2270
9 17 16 11.9250 8.5281
9 18 9 -48.3781 -34.6142
9 18 11 36.3565 57.0226
9 18 13 -22.7455 18.2962
9 18 15 7.4126 -17.4326
9 18 17 -24.0417 17.1751
9 19 10 -53.0575 40.5007
9 19 12 -32.7723 -17.4202
9 19 14 -41.4545 1.2862
9 19 16 12.6099 -39.4936
9 19 18 -11.2128 -3.9896
9 20 9 -2.9190 -70.5463
9 20 11 -52.7048 -22.2453
9 20 13 33.6592 -25.9081
9 20 15 1.3190 -16.4019
9 21 10 -5.3060 -125.6324
9 21 12 1.7388 42.1283
9 21 14 -10.6786 26.9296
9 22 9 -28.9650 37.0338
9 22 11 27.4066 -15.7479
9 22 13 -36.5654 11.0329
9 23 10 64.7968 -38.2050
9 23 12 23.0603 -8.7994
9 24 9 9.8269 48.3617
10 11 11 -0.9489 3.0255
10 12 10 85.5464 95.3161
10 12 12 11.4577 24.5513
10 13 11 -67.2954 63.4830
10 13 13 -61.9151 82.3015
10 14 10 42.6885 80.9610
10 14 12 -78.7564 -65.8522
10 14 14 -74.3718 96.6475
10 15 11 3.8701 16.4090
10 15 13 60.7284 -21.7062
10 15 15 -32.6580 17.6674
10 16 10 -14.2055 50.2295
10 16 12 16.4378 -46.7901
10 16 14 9.6092 -42.4845
10 16 16 -53.1306 1.8229
10 17 11 -93.5201 28.4231
10 17 13 56.0380 -38.3893
10 17 15 -6.4907 22.3321
10 17 17 29.5187 22.4469
10 18 10 -56.5117 -0.0035
10 18 12 -56.9573 94.4908
10 18 14 14.6488 60.9024
10 18 16 17.0022 17.0235
10 18 18 22.0233 20.5807
10 19 11 -81.4153 21.1480
10 19 13 19.4824 -69.2120
10 19 15 -9.3595 -10.8176
10 19 17 2.2389 -4.1375
10 20 10 -119.4107 29.8220
10 20 12 -32.3004 5.7594
10 20 14 -1.4121 47.1771
10 20 16 -8.5458 -9.9382
10 21 11 61.7800 -23.4366
10 21 13 59.8728 -7.0747
10 21 15 18.4980 -11.2785
10 22 10 15.4134 -40.7822
10 22 12 -4.7483 -14.5443
10 23 11 13.1130 -5.0665
11 12 11 -71.5587 13.7367
11 13 12 49.0089 19.1385
11 14 11 -56.8916 -175.5072
11 14 13 -17.1071 -9.2279
11 15 12 -99.8812 -30.1797
11 15 14 8.2358 83.1927
11 16 11 8.9710 -99.3967
11 16 13 -26.1188 -25.4676
11 16 15 15.6575 -1.3980
11 17 12 -47.5875 -41.1975
11 17 14 41.8053 -2.6850
11 17 16 9.9239 -8.2000
11 18 11 41.3085 -43.2527
11 18 13 11.6509 -43.9414
11 18 15 8.5600 -12.9734
11 18 17 -11.3734 -7.7441
11 19 12 -0.9457 -35.8448
11 19 14 -28.0561 -17.4048
11 19 16 -7.9875 5.4251
11 20 11 41.4495 -13.8811
11 20 13 -11.2634 16.0286
11 20 15 -16.1769 3.9201
11 21 12 -0.7768 29.9835
11 21 14 -38.5590 14.4590
11 22 11 -43.2610 8.6317
12 12 12 -95.5306 42.3139
12 13 13 27.6250 -17.5467
12 14 12 -154.9384 39.8639
12 14 14 71.7917 149.3173
12 15 13 -74.1080 -10.1472
12 15 15 -39.0880 -17.6956
12 16 12 -27.4172 -101.1167
12 16 14 22.0445 34.4778
12 16 16 -42.8824 -3.4094
12 17 13 -1.5320 -50.2518
12 17 15 24.8248 -20.5037
12 17 17 15.4127 -3.5958
12 18 12 -17.5561 112.2764
12 18 14 -14.5799 -16.4162
12 18 16 -2.3044 -38.6907
12 19 13 -20.5127 -12.9968
12 19 15 5.4659 0.2027
12 20 12 19.8182 0.8020
12 20 14 -23.0318 -15.0395
12 21 13 -14.0263 -57.1224
13 14 13 58.0459 -149.1973
13 15 14 -14.9896 -47.3848
13 16 13 -20.1363 58.3753
13 16 15 76.6335 -6.6935
13 17 14 11.6433 -29.2262
13 17 16 30.6751 12.5330
13 18 13 -88.4309 64.1426
13 18 15 36.1777 15.4607
13 19 14 10.4945 0.4366
13 20 13 -14.5589 0.0597
14 14 14 37.1842 -72.4444
14 15 15 -6.0846 -21.9528
14 16 14 100.8536 -137.1889
14 16 16 24.6767 -9.3420
14 17 15 -15.1563 0.0089
14 18 14 -0.6476 -68.4326
15 16 15 51.8812 30.5466
0 0 0 0.0 0.0
;
_shelx_fab_checksum              97669
_olex2_submission_special_instructions 'No special instructions were received'
loop_
_space_group_symop_operation_xyz
'x, y, z'
'-x, z, -y'
'-x, -z, y'
'-z, -y, x'
'z, -y, -x'
'y, -x, -z'
'-y, x, -z'
'z, x, y'
'y, z, x'
'-y, -z, x'
'z, -x, -y'
'-y, z, -x'
'-z, -x, y'
'-z, x, -y'
'y, -z, -x'
'x, -y, -z'
'-x, y, -z'
'-x, -y, z'
'-y, -x, z'
'y, x, z'
'-z, y, -x'
'z, y, x'
'x, -z, -y'
'x, z, y'
'x+1/2, y+1/2, z+1/2'
'-x+1/2, z+1/2, -y+1/2'
'-x+1/2, -z+1/2, y+1/2'
'-z+1/2, -y+1/2, x+1/2'
'z+1/2, -y+1/2, -x+1/2'
'y+1/2, -x+1/2, -z+1/2'
'-y+1/2, x+1/2, -z+1/2'
'z+1/2, x+1/2, y+1/2'
'y+1/2, z+1/2, x+1/2'
'-y+1/2, -z+1/2, x+1/2'
'z+1/2, -x+1/2, -y+1/2'
'-y+1/2, z+1/2, -x+1/2'
'-z+1/2, -x+1/2, y+1/2'
'-z+1/2, x+1/2, -y+1/2'
'y+1/2, -z+1/2, -x+1/2'
'x+1/2, -y+1/2, -z+1/2'
'-x+1/2, y+1/2, -z+1/2'
'-x+1/2, -y+1/2, z+1/2'
'-y+1/2, -x+1/2, z+1/2'
'y+1/2, x+1/2, z+1/2'
'-z+1/2, y+1/2, -x+1/2'
'z+1/2, y+1/2, x+1/2'
'x+1/2, -z+1/2, -y+1/2'
'x+1/2, z+1/2, y+1/2'
loop_
_atom_site_label
_atom_site_type_symbol
_atom_site_fract_x
_atom_site_fract_y
_atom_site_fract_z
_atom_site_U_iso_or_equiv
_atom_site_adp_type
_atom_site_occupancy
_atom_site_site_symmetry_order
_atom_site_calc_flag
_atom_site_refinement_flags_posn
_atom_site_refinement_flags_adp
_atom_site_refinement_flags_occupancy
_atom_site_disorder_assembly
_atom_site_disorder_group
Fe00 Fe 0.64466(11) 0.28648(8) 0.71352(8) 0.0384(14) Uani 1 2 d S TU P . .
O02 O 0.6684(4) 0.2835(4) 0.7732(4) 0.071(4) Uani 1 1 d . U . . .
O03 O 0.6923(5) 0.3077(5) 0.6923(5) 0.0415(15) Uani 1 6 d S TU P . .
N3 N 0.5868(8) 0.2633(5) 0.7367(5) 0.106(6) Uani 1 2 d DS TU P . .
O05 O 0.6158(3) 0.3390(3) 0.7227(5) 0.078(4) Uani 1 1 d D U . . .
N00A N 0.4807(9) 0.2178(14) 0.7762(13) 0.106(5) Uani 0.5 1 d D U P A -1
H00A H 0.4685 0.2067 0.7562 0.127 Uiso 0.5 1 calc R U P A -1
N00F N 0.5326(9) 0.5030(9) 0.7317(12) 0.063(5) Uani 0.25 1 d D U P B -1
C00I C 0.6275(3) 0.3725(3) 0.7292(7) 0.060(2) Uani 1 2 d DS TU P . .
C15 C 0.6040(6) 0.4039(6) 0.7298(7) 0.062(4) Uani 0.25 1 d DG U P B -1
C6 C 0.6208(7) 0.4418(6) 0.7283(17) 0.063(5) Uani 0.25 1 d DG U P B -1
H6 H 0.6486 0.4448 0.7269 0.075 Uiso 0.25 1 calc R U P B -1
C9 C 0.5963(9) 0.4753(6) 0.7290(18) 0.063(4) Uani 0.25 1 d DG U P B -1
H9 H 0.6076 0.5010 0.7280 0.075 Uiso 0.25 1 calc R U P B -1
C00J C 0.5551(8) 0.4709(8) 0.7312(9) 0.063(5) Uani 0.25 1 d DG U P B -1
C13 C 0.5384(6) 0.4330(9) 0.7326(15) 0.063(4) Uani 0.25 1 d DG U P B -1
H13 H 0.5106 0.4300 0.7341 0.076 Uiso 0.25 1 calc R U P B -1
C5 C 0.5629(6) 0.3995(7) 0.7319(15) 0.063(5) Uani 0.25 1 d DG U P B -1
H5 H 0.5515 0.3739 0.7329 0.075 Uiso 0.25 1 calc R U P B -1
C009 C 0.6875(6) 0.3125(6) 0.7871(8) 0.051(6) Uani 1 2 d S TU P . .
C00B C 0.5195(10) 0.2325(7) 0.7675(7) 0.106(5) Uani 1 2 d DS TU P . .
C39 C 0.5787(7) 0.2728(7) 0.7775(4) 0.108(5) Uani 1 1 d D U . . .
H39 H 0.5976 0.2852 0.7941 0.130 Uiso 1 1 calc R U . . .
C96 C 0.5392(7) 0.2621(7) 0.7912(7) 0.106(5) Uani 1 1 d D U . . .
H96 H 0.5274 0.2735 0.8139 0.127 Uiso 1 1 calc R U . . .
O5 O 0.4758(8) 0.2468(8) 0.8380(8) 0.082(7) Uani 0.5 1 d D U P A -1
C8 C 0.4586(10) 0.2182(13) 0.8124(13) 0.107(5) Uani 0.5 1 d D U P A -1
C7 C 0.4172(7) 0.2105(7) 0.8154(9) 0.106(6) Uani 0.5 1 d DG U P A -1
C21 C 0.4008(8) 0.1793(7) 0.7936(8) 0.107(6) Uani 0.5 1 d DG U P A -1
H21 H 0.4175 0.1609 0.7807 0.128 Uiso 0.5 1 calc R U P A -1
C23 C 0.3596(9) 0.1753(9) 0.7908(9) 0.106(6) Uani 0.5 1 d G U P A -1
H23 H 0.3485 0.1542 0.7761 0.127 Uiso 0.5 1 calc R U P A -1
C00P C 0.3348(7) 0.2026(10) 0.8099(9) 0.106(6) Uani 0.5 1 d G U P A -1
C2 C 0.3512(8) 0.2338(9) 0.8317(10) 0.106(6) Uani 0.5 1 d G U P A -1
H2 H 0.3345 0.2522 0.8446 0.128 Uiso 0.5 1 calc R U P A -1
C1 C 0.3924(9) 0.2377(8) 0.8345(10) 0.107(6) Uani 0.5 1 d DG U P A -1
H1 H 0.4035 0.2588 0.8493 0.128 Uiso 0.5 1 calc R U P A -1
N1 N 0.5002(8) 0.5127(11) 0.7160(10) 0.063(5) Uani 0.25 1 d D U P B -1
C12 C 0.4668(8) 0.5431(9) 0.7184(8) 0.063(5) Uani 0.25 1 d G U P B -1
C4 C 0.4757(14) 0.5831(9) 0.7249(19) 0.063(6) Uani 0.25 1 d DG U P B -1
H4 H 0.5024 0.5912 0.7278 0.075 Uiso 0.25 1 calc R U P B -1
C3 C 0.445(2) 0.6110(12) 0.727(2) 0.063(6) Uani 0.25 1 d G U P B -1
H3 H 0.4512 0.6381 0.7315 0.075 Uiso 0.25 1 calc R U P B -1
C11 C 0.4057(17) 0.5990(19) 0.7229(12) 0.063(6) Uani 0.25 1 d DG U P B -1
C10 C 0.3968(9) 0.559(2) 0.7164(17) 0.063(6) Uani 0.25 1 d G U P B -1
H10 H 0.3701 0.5509 0.7135 0.075 Uiso 0.25 1 calc R U P B -1
C14 C 0.4274(8) 0.5311(14) 0.7141(17) 0.063(6) Uani 0.25 1 d DG U P B -1
H14 H 0.4213 0.5041 0.7097 0.075 Uiso 0.25 1 calc R U P B -1
loop_
_atom_site_aniso_label
_atom_site_aniso_U_11
_atom_site_aniso_U_22
_atom_site_aniso_U_33
_atom_site_aniso_U_23
_atom_site_aniso_U_13
_atom_site_aniso_U_12
Fe00 0.038(3) 0.0389(18) 0.0389(18) 0.002(2) -0.0068(14) 0.0068(14)
O02 0.087(10) 0.087(9) 0.040(7) 0.013(6) -0.008(7) -0.032(8)
O03 0.0415(15) 0.0415(15) 0.0415(15) 0.0001(9) -0.0001(9) 0.0001(9)
N3 0.103(9) 0.108(7) 0.108(7) 0.005(8) 0.005(6) -0.005(6)
O05 0.018(7) 0.075(7) 0.143(13) -0.021(7) 0.019(8) 0.004(6)
N00A 0.105(8) 0.109(8) 0.106(7) 0.005(7) 0.001(6) -0.001(6)
N00F 0.065(8) 0.066(8) 0.060(8) 0.000(7) 0.000(7) -0.002(7)
C00I 0.060(2) 0.060(2) 0.060(3) 0.0000(11) 0.0000(11) -0.0001(15)
C15 0.064(7) 0.064(6) 0.060(8) -0.001(6) 0.001(7) 0.000(6)
C6 0.064(7) 0.064(7) 0.060(8) -0.001(6) 0.000(7) -0.001(6)
C9 0.064(7) 0.064(7) 0.060(8) 0.000(7) 0.000(7) -0.002(6)
C00J 0.065(7) 0.065(7) 0.061(8) -0.001(7) 0.000(7) -0.002(6)
C13 0.064(7) 0.064(7) 0.061(8) 0.000(7) 0.001(7) -0.001(6)
C5 0.064(7) 0.064(7) 0.060(8) -0.001(7) 0.001(7) 0.000(6)
C009 0.056(7) 0.056(7) 0.041(9) 0.007(6) -0.007(6) -0.006(8)
C00B 0.105(8) 0.107(6) 0.107(6) 0.007(8) 0.002(5) -0.002(5)
C39 0.106(8) 0.111(8) 0.107(8) 0.004(8) 0.002(7) -0.002(7)
C96 0.103(8) 0.109(7) 0.105(7) 0.006(7) 0.004(6) -0.002(6)
O5 0.093(16) 0.072(14) 0.082(14) 0.033(11) -0.008(12) 0.018(12)
C8 0.106(8) 0.108(8) 0.106(7) 0.007(7) 0.002(6) -0.001(6)
C7 0.105(8) 0.108(8) 0.105(8) 0.007(7) 0.001(7) 0.000(6)
C21 0.107(8) 0.107(8) 0.106(8) 0.007(7) 0.001(6) 0.000(6)
C23 0.106(8) 0.107(8) 0.106(8) 0.006(7) 0.002(7) 0.000(7)
C00P 0.105(8) 0.108(8) 0.106(9) 0.006(7) 0.001(7) 0.000(7)
C2 0.106(8) 0.107(8) 0.106(8) 0.006(7) 0.001(7) 0.000(7)
C1 0.106(8) 0.108(8) 0.106(8) 0.005(7) 0.001(6) -0.001(6)
N1 0.065(8) 0.065(8) 0.059(9) -0.001(8) 0.000(8) -0.003(7)
C12 0.064(9) 0.066(9) 0.059(10) -0.001(9) -0.001(9) -0.003(8)
C4 0.065(10) 0.065(9) 0.058(10) 0.000(9) -0.001(9) -0.003(8)
C3 0.065(10) 0.066(10) 0.058(11) 0.000(10) -0.001(10) -0.003(9)
C11 0.064(10) 0.066(10) 0.057(11) 0.000(10) -0.001(10) -0.003(9)
C10 0.064(10) 0.066(10) 0.058(11) 0.000(10) -0.002(10) -0.003(9)
C14 0.064(9) 0.066(10) 0.058(10) -0.001(9) -0.002(9) -0.003(8)
loop_
_atom_type_symbol
_atom_type_description
_atom_type_scat_dispersion_real
_atom_type_scat_dispersion_imag
_atom_type_scat_source
C C 0.0181 0.0091 'International Tables Vol C Tables 4.2.6.8 and 6.1.1.4'
H H 0.0000 0.0000 'International Tables Vol C Tables 4.2.6.8 and 6.1.1.4'
Fe Fe -1.1336 3.1974 'International Tables Vol C Tables 4.2.6.8 and 6.1.1.4'
N N 0.0311 0.0180 'International Tables Vol C Tables 4.2.6.8 and 6.1.1.4'
O O 0.0492 0.0322 'International Tables Vol C Tables 4.2.6.8 and 6.1.1.4'
loop_
_geom_angle_atom_site_label_1
_geom_angle_atom_site_label_2
_geom_angle_atom_site_label_3
_geom_angle
_geom_angle_site_symmetry_1
_geom_angle_site_symmetry_3
_geom_angle_publ_flag
O02 Fe00 O02 77.1(8) . 23_566 ?
O02 Fe00 N3 89.0(7) 23_566 . ?
O02 Fe00 N3 89.0(7) . . ?
O03 Fe00 O02 93.1(7) . . ?
O03 Fe00 O02 93.1(7) . 23_566 ?
O03 Fe00 N3 177.3(11) . . ?
O03 Fe00 O05 97.7(7) . 23_566 ?
O03 Fe00 O05 97.7(7) . . ?
O05 Fe00 O02 94.3(6) 23_566 23_566 ?
O05 Fe00 O02 166.6(6) 23_566 . ?
O05 Fe00 O02 94.3(6) . . ?
O05 Fe00 O02 166.6(6) . 23_566 ?
O05 Fe00 N3 80.5(6) 23_566 . ?
O05 Fe00 N3 80.5(6) . . ?
O05 Fe00 O05 92.1(8) . 23_566 ?
C009 O02 Fe00 119.8(15) . . ?
Fe00 O03 Fe00 119.72(15) 11_566 10_665 ?
Fe00 O03 Fe00 119.72(15) . 11_566 ?
Fe00 O03 Fe00 119.72(15) . 10_665 ?
C39 N3 Fe00 114.9(14) . . ?
C39 N3 Fe00 114.9(14) 23_566 . ?
C39 N3 C39 113(3) 23_566 . ?
C00I O05 Fe00 132.6(11) 19_665 . ?
C00I O05 Fe00 132.6(11) . . ?
C00I O05 C00I 0(2) 19_665 . ?
C00B N00A H00A 114.8 . . ?
C8 N00A H00A 114.8 . . ?
C8 N00A C00B 130(4) . . ?
N1 N00F C00J 135(3) . . ?
O05 C00I O05 124.9(19) 19_665 . ?
O05 C00I C15 107.3(14) 19_665 . ?
O05 C00I C15 123.5(13) . . ?
C00I C00I O05 0(10) 19_665 19_665 ?
C00I C00I O05 0(10) 19_665 . ?
C00I C00I C15 0(10) 19_665 . ?
C00I C15 C6 119.4(12) . . ?
C00I C15 C5 120.6(12) . . ?
C6 C15 C5 120.0 . . ?
C15 C6 H6 120.0 . . ?
C15 C6 C9 120.0 . . ?
C9 C6 H6 120.0 . . ?
C6 C9 H9 120.0 . . ?
C00J C9 C6 120.0 . . ?
C00J C9 H9 120.0 . . ?
N00F C00J C9 119.0(12) . . ?
N00F C00J C13 121.0(12) . . ?
C13 C00J C9 120.0 . . ?
C00J C13 H13 120.0 . . ?
C00J C13 C5 120.0 . . ?
C5 C13 H13 120.0 . . ?
C15 C5 H5 120.0 . . ?
C13 C5 C15 120.0 . . ?
C13 C5 H5 120.0 . . ?
O02 C009 O02 131(3) 19_665 . ?
C96 C00B N00A 112(3) 23_566 . ?
C96 C00B N00A 123(3) . . ?
C96 C00B C96 124(3) 23_566 . ?
N3 C39 H39 122.5 . . ?
N3 C39 C96 115(2) . . ?
C96 C39 H39 122.5 . . ?
C00B C96 C39 115(2) . . ?
C00B C96 H96 122.7 . . ?
C39 C96 H96 122.7 . . ?
N00A C8 O5 108(3) . . ?
N00A C8 C7 125(3) . . ?
O5 C8 C7 119(2) . . ?
C21 C7 C8 119.2(12) . . ?
C21 C7 C1 120.0 . . ?
C1 C7 C8 119.9(12) . . ?
C7 C21 H21 120.0 . . ?
C7 C21 C23 120.0 . . ?
C23 C21 H21 120.0 . . ?
C21 C23 H23 120.0 . . ?
C00P C23 C21 120.0 . . ?
C00P C23 H23 120.0 . . ?
C23 C00P C2 120.0 . . ?
C00P C2 H2 120.0 . . ?
C1 C2 C00P 120.0 . . ?
C1 C2 H2 120.0 . . ?
C7 C1 H1 120.0 . . ?
C2 C1 C7 120.0 . . ?
C2 C1 H1 120.0 . . ?
N00F N1 C12 143(3) . . ?
C4 C12 N1 119.9(12) . . ?
C4 C12 C14 120.0 . . ?
C14 C12 N1 120.1(12) . . ?
C12 C4 H4 120.0 . . ?
C12 C4 C3 120.0 . . ?
C3 C4 H4 120.0 . . ?
C4 C3 H3 120.0 . . ?
C11 C3 C4 120.0 . . ?
C11 C3 H3 120.0 . . ?
C3 C11 C10 120.0 . . ?
C11 C10 H10 120.0 . . ?
C11 C10 C14 120.0 . . ?
C14 C10 H10 120.0 . . ?
C12 C14 H14 120.0 . . ?
C10 C14 C12 120.0 . . ?
C10 C14 H14 120.0 . . ?
loop_
_geom_bond_atom_site_label_1
_geom_bond_atom_site_label_2
_geom_bond_distance
_geom_bond_site_symmetry_2
_geom_bond_publ_flag
Fe00 O02 2.156(12) 23_566 ?
Fe00 O02 2.156(12) . ?
Fe00 O03 1.888(4) . ?
Fe00 N3 2.23(3) . ?
Fe00 O05 2.034(12) . ?
Fe00 O05 2.034(12) 23_566 ?
O02 C009 1.254(15) . ?
O03 Fe00 1.888(4) 10_665 ?
O03 Fe00 1.888(4) 11_566 ?
N3 C39 1.4298(15) 23_566 ?
N3 C39 1.4300(15) . ?
O05 C00I 1.208(11) . ?
O05 C00I 1.208(11) 19_665 ?
N00A H00A 0.8700 . ?
N00A C00B 1.42(2) . ?
N00A C8 1.42(3) . ?
N00F C00J 1.314(18) . ?
N00F N1 1.2500(15) . ?
C00I O05 1.208(11) 19_665 ?
C00I C00I 0.00(6) 19_665 ?
C00I C15 1.32(2) . ?
C15 C6 1.3900 . ?
C15 C5 1.3900 . ?
C6 H6 0.9400 . ?
C6 C9 1.3900 . ?
C9 H9 0.9400 . ?
C9 C00J 1.3900 . ?
C00J C13 1.3900 . ?
C13 H13 0.9400 . ?
C13 C5 1.3900 . ?
C5 H5 0.9400 . ?
C009 O02 1.253(15) 19_665 ?
C00B C96 1.43(2) . ?
C00B C96 1.43(2) 23_566 ?
C39 H39 0.9400 . ?
C39 C96 1.449(18) . ?
C96 H96 0.9400 . ?
O5 C8 1.41(3) . ?
C8 C7 1.42(3) . ?
C7 C21 1.3900 . ?
C7 C1 1.3900 . ?
C21 H21 0.9400 . ?
C21 C23 1.3900 . ?
C23 H23 0.9400 . ?
C23 C00P 1.3900 . ?
C00P C2 1.3900 . ?
C2 H2 0.9400 . ?
C2 C1 1.3900 . ?
C1 H1 0.9400 . ?
N1 C12 1.52(3) . ?
C12 C4 1.3900 . ?
C12 C14 1.3900 . ?
C4 H4 0.9400 . ?
C4 C3 1.3900 . ?
C3 H3 0.9400 . ?
C3 C11 1.3900 . ?
C11 C10 1.3900 . ?
C10 H10 0.9400 . ?
C10 C14 1.3900 . ?
C14 H14 0.9400 . ?
loop_
_geom_torsion_atom_site_label_1
_geom_torsion_atom_site_label_2
_geom_torsion_atom_site_label_3
_geom_torsion_atom_site_label_4
_geom_torsion
_geom_torsion_site_symmetry_1
_geom_torsion_site_symmetry_2
_geom_torsion_site_symmetry_3
_geom_torsion_site_symmetry_4
_geom_torsion_publ_flag
Fe00 O02 C009 O02 -52(4) . . . 19_665 ?
Fe00 N3 C39 C96 172.9(17) . . . . ?
Fe00 O05 C00I O05 18(4) . . . 19_665 ?
Fe00 O05 C00I C00I 0.0(15) . . . 19_665 ?
Fe00 O05 C00I C15 171.7(13) . . . . ?
O02 Fe00 O03 Fe00 133.9(14) . . . 10_665 ?
O02 Fe00 O03 Fe00 -56.7(15) . . . 11_566 ?
O02 Fe00 O03 Fe00 -133.9(14) 23_566 . . 11_566 ?
O02 Fe00 O03 Fe00 56.7(15) 23_566 . . 10_665 ?
N3 C39 C96 C00B 20(4) . . . . ?
O05 Fe00 O03 Fe00 131.3(14) 23_566 . . 11_566 ?
O05 Fe00 O03 Fe00 -38.1(16) 23_566 . . 10_665 ?
O05 Fe00 O03 Fe00 -131.3(14) . . . 10_665 ?
O05 Fe00 O03 Fe00 38.1(16) . . . 11_566 ?
O05 C00I C15 C6 -8(3) 19_665 . . . ?
O05 C00I C15 C6 -165(3) . . . . ?
O05 C00I C15 C5 172(3) 19_665 . . . ?
O05 C00I C15 C5 15(3) . . . . ?
N00A C00B C96 C39 180(3) . . . . ?
N00A C8 C7 C21 42(6) . . . . ?
N00A C8 C7 C1 -127(3) . . . . ?
N00F C00J C13 C5 179.9(11) . . . . ?
N00F N1 C12 C4 41(7) . . . . ?
N00F N1 C12 C14 -139(7) . . . . ?
C00I O05 C00I O05 0(100) 19_665 . . 19_665 ?
C00I O05 C00I C15 0(59) 19_665 . . . ?
C00I C00I C15 C6 0.0(13) 19_665 . . . ?
C00I C00I C15 C5 0.00(7) 19_665 . . . ?
C00I C15 C6 C9 -179.9(10) . . . . ?
C00I C15 C5 C13 179.9(11) . . . . ?
C15 C6 C9 C00J 0.0 . . . . ?
C6 C15 C5 C13 0.0 . . . . ?
C6 C9 C00J N00F -179.9(11) . . . . ?
C6 C9 C00J C13 0.0 . . . . ?
C9 C00J C13 C5 0.0 . . . . ?
C00J N00F N1 C12 164(3) . . . . ?
C00J C13 C5 C15 0.0 . . . . ?
C5 C15 C6 C9 0.0 . . . . ?
C00B N00A C8 O5 18(6) . . . . ?
C00B N00A C8 C7 166(3) . . . . ?
C39 N3 C39 C96 -53(4) 23_566 . . . ?
C96 C00B C96 C39 13(5) 23_566 . . . ?
O5 C8 C7 C21 -173(3) . . . . ?
O5 C8 C7 C1 18(5) . . . . ?
C8 N00A C00B C96 148(4) . . . 23_566 ?
C8 N00A C00B C96 -20(7) . . . . ?
C8 C7 C21 C23 -169(3) . . . . ?
C8 C7 C1 C2 169(3) . . . . ?
C7 C21 C23 C00P 0.0 . . . . ?
C21 C7 C1 C2 0.0 . . . . ?
C21 C23 C00P C2 0.0 . . . . ?
C23 C00P C2 C1 0.0 . . . . ?
C00P C2 C1 C7 0.0 . . . . ?
C1 C7 C21 C23 0.0 . . . . ?
N1 N00F C00J C9 139(5) . . . . ?
N1 N00F C00J C13 -40(5) . . . . ?
N1 C12 C4 C3 -179.9(12) . . . . ?
N1 C12 C14 C10 179.9(12) . . . . ?
C12 C4 C3 C11 0.0 . . . . ?
C4 C12 C14 C10 0.0 . . . . ?
C4 C3 C11 C10 0.0 . . . . ?
C3 C11 C10 C14 0.0 . . . . ?
C11 C10 C14 C12 0.0 . . . . ?
C14 C12 C4 C3 0.0 . . . . ?
loop_
_smtbx_masks_void_nr
_smtbx_masks_void_average_x
_smtbx_masks_void_average_y
_smtbx_masks_void_average_z
_smtbx_masks_void_volume
_smtbx_masks_void_count_electrons
_smtbx_masks_void_content
1 -0.634 -0.862 -0.006 27693.1 6240.9 ?
