#------------------------------------------------------------------------------
#$Date: 2021-11-03 22:04:12 +0200 (Wed, 03 Nov 2021) $
#$Revision: 270229 $
#$URL: file:///home/coder/svn-repositories/cod/cif/4/51/90/4519090.cif $
#------------------------------------------------------------------------------
#
# This file is available in the Crystallography Open Database (COD),
# http://www.crystallography.net/
#
# All data on this site have been placed in the public domain by the
# contributors.
#
data_4519090
loop_
_publ_author_name
'Jiang, Xue'
'Wu, Ben'
'Bai, Peng'
'Lyu, Jiafei'
'Guo, Xianghai'
_publ_section_title
;
 Novel Fluorine-Pillared Metal-Organic Framework for Highly Effective
 Lithium Enrichment from Brine.
;
_journal_issue                   40
_journal_name_full               'ACS applied materials &amp; interfaces'
_journal_page_first              47793
_journal_page_last               47799
_journal_paper_doi               10.1021/acsami.1c17080
_journal_volume                  13
_journal_year                    2021
_chemical_formula_moiety         '0.25(C36 H12 F12 Fe12 O36), 0.5(H4 O2)'
_chemical_formula_sum            'C9 H5 F3 Fe3 O10'
_chemical_formula_weight         497.68
_space_group_crystal_system      orthorhombic
_space_group_IT_number           57
_space_group_name_Hall           '-P 2c 2b'
_space_group_name_H-M_alt        'P b c m'
_atom_sites_solution_hydrogens   mixed
_atom_sites_solution_primary     dual
_audit_creation_date             2021-04-07
_audit_creation_method
;
Olex2 1.2
(compiled 2018.05.29 svn.r3508 for OlexSys, GUI svn.r5506)
;
_cell_angle_alpha                90
_cell_angle_beta                 90
_cell_angle_gamma                90
_cell_formula_units_Z            4
_cell_length_a                   3.8110(5)
_cell_length_b                   25.004(5)
_cell_length_c                   14.5850(13)
_cell_measurement_reflns_used    665
_cell_measurement_temperature    100.00(10)
_cell_measurement_theta_max      71.5980
_cell_measurement_theta_min      4.5820
_cell_volume                     1389.8(4)
_computing_cell_refinement       'CrysAlisPro 1.171.40.84a (Rigaku OD, 2020)'
_computing_data_collection       'CrysAlisPro 1.171.40.84a (Rigaku OD, 2020)'
_computing_data_reduction        'CrysAlisPro 1.171.40.84a (Rigaku OD, 2020)'
_computing_molecular_graphics    'Olex2 (Dolomanov et al., 2009)'
_computing_publication_material  'Olex2 (Dolomanov et al., 2009)'
_computing_structure_refinement  'ShelXL (Sheldrick, 2015)'
_computing_structure_solution    'ShelXT (Sheldrick, 2015)'
_diffrn_ambient_environment      N~2~
_diffrn_ambient_temperature      100.00(10)
_diffrn_detector                 'Hybrid Pixel Array Detector'
_diffrn_detector_area_resol_mean 10.0000
_diffrn_measured_fraction_theta_full 0.994
_diffrn_measured_fraction_theta_max 0.994
_diffrn_measurement_details
;
List of Runs (angles in degrees, time in seconds):

  # Type    Start    End  Width  t~exp~   \w     \q     \k     \f   Frames
--------------------------------------------------------------------------
  1  \w    -23.00  38.00   1.00   14.00    --    0.00  82.00 -60.00   61
  2  \w     32.00 126.00   1.00   14.00    --  101.30 -82.00 -60.00   94
  3  \w    -24.00  19.00   1.00   14.00    --    0.00  82.00  90.00   43
  4  \w     16.00 130.00   1.00   14.00    --  101.30 -82.00-180.00  114
  5  \w     82.00 123.00   1.00   14.00    --  101.30  82.00-180.00   41
  6  \w    147.00 177.00   1.00   14.00    --  101.30  82.00-180.00   30
  7  \w     15.00 127.00   1.00   14.00    --  101.30 -19.00   0.00  112
;
_diffrn_measurement_device       'four-circle diffractometer'
_diffrn_measurement_device_type  'XtaLAB AFC12 (RINC): Kappa single'
_diffrn_measurement_method       '\w scans'
_diffrn_orient_matrix_type
'CrysAlisPro convention (1999,Acta A55,543-557)'
_diffrn_orient_matrix_UB_11      0.0198278000
_diffrn_orient_matrix_UB_12      0.0764136000
_diffrn_orient_matrix_UB_13      -0.0423475000
_diffrn_orient_matrix_UB_21      0.0303839000
_diffrn_orient_matrix_UB_22      -0.0728444000
_diffrn_orient_matrix_UB_23      -0.0444107000
_diffrn_orient_matrix_UB_31      -0.4028106000
_diffrn_orient_matrix_UB_32      -0.0017459000
_diffrn_orient_matrix_UB_33      -0.0054339000
_diffrn_radiation_monochromator  mirror
_diffrn_radiation_probe          x-ray
_diffrn_radiation_type           CuK\a
_diffrn_radiation_wavelength     1.54184
_diffrn_reflns_av_R_equivalents  0.0881
_diffrn_reflns_av_unetI/netI     0.0851
_diffrn_reflns_Laue_measured_fraction_full 0.994
_diffrn_reflns_Laue_measured_fraction_max 0.994
_diffrn_reflns_limit_h_max       4
_diffrn_reflns_limit_h_min       -3
_diffrn_reflns_limit_k_max       22
_diffrn_reflns_limit_k_min       -29
_diffrn_reflns_limit_l_max       16
_diffrn_reflns_limit_l_min       -17
_diffrn_reflns_number            4397
_diffrn_reflns_point_group_measured_fraction_full 0.994
_diffrn_reflns_point_group_measured_fraction_max 0.994
_diffrn_reflns_theta_full        64.998
_diffrn_reflns_theta_max         64.998
_diffrn_reflns_theta_min         3.535
_diffrn_source                   'Rotating-anode X-ray tube (dual wavelength)'
_diffrn_source_type              'Rigaku (Cu) X-ray DW Source'
_exptl_absorpt_coefficient_mu    25.714
_exptl_absorpt_correction_T_max  1.00000
_exptl_absorpt_correction_T_min  0.41781
_exptl_absorpt_correction_type   multi-scan
_exptl_absorpt_process_details
;
CrysAlisPro 1.171.40.84a (Rigaku Oxford Diffraction, 2020)
Empirical absorption correction using spherical harmonics,
implemented in SCALE3 ABSPACK scaling algorithm.
;
_exptl_crystal_colour            colourless
_exptl_crystal_colour_primary    colourless
_exptl_crystal_density_diffrn    2.378
_exptl_crystal_description       needle
_exptl_crystal_F_000             976
_exptl_crystal_size_max          0.09
_exptl_crystal_size_mid          0.03
_exptl_crystal_size_min          0.03
_refine_diff_density_max         4.338
_refine_diff_density_min         -3.378
_refine_diff_density_rms         0.591
_refine_ls_extinction_method     none
_refine_ls_goodness_of_fit_ref   1.860
_refine_ls_hydrogen_treatment    constr
_refine_ls_matrix_type           full
_refine_ls_number_parameters     122
_refine_ls_number_reflns         1236
_refine_ls_number_restraints     66
_refine_ls_restrained_S_all      1.842
_refine_ls_R_factor_all          0.2050
_refine_ls_R_factor_gt           0.1848
_refine_ls_shift/su_max          0.000
_refine_ls_shift/su_mean         0.000
_refine_ls_structure_factor_coef Fsqd
_refine_ls_weighting_details
'w=1/[\s^2^(Fo^2^)+(0.2000P)^2^] where P=(Fo^2^+2Fc^2^)/3'
_refine_ls_weighting_scheme      calc
_refine_ls_wR_factor_gt          0.4317
_refine_ls_wR_factor_ref         0.4500
_reflns_Friedel_coverage         0.000
_reflns_number_gt                930
_reflns_number_total             1236
_reflns_threshold_expression     'I > 2\s(I)'
_cod_data_source_file            am1c17080_si_002.cif
_cod_data_source_block           3717
_cod_database_code               4519090
_shelx_shelxl_version_number     2018/1
_shelx_space_group_comment
;
The symmetry employed for this shelxl refinement is uniquely defined
by the following loop, which should always be used as a source of
symmetry information in preference to the above space-group names.
They are only intended as comments.
;
_shelx_estimated_absorpt_t_max   0.513
_shelx_estimated_absorpt_t_min   0.206
_reflns_odcompleteness_completeness 98.97
_reflns_odcompleteness_iscentric 1
_reflns_odcompleteness_theta     66.97
_olex2_refinement_description
;
1. Fixed Uiso
 At 1.2 times of:
  All C(H) groups, All O(H,H) groups
2. Uiso/Uaniso restraints and constraints
Uanis(O2) \\sim Ueq, Uanis(O4) \\sim Ueq, Uanis(C1) \\sim Ueq, Uanis(C2) \\sim
Ueq, Uanis(C3) \\sim Ueq, Uanis(C4) \\sim Ueq, Uanis(C5) \\sim Ueq, Uanis(O5)
\\sim Ueq: with sigma of 0.01 and sigma for terminal atoms of 0.02
Uanis(O1) \\sim Ueq: with sigma of 0.005 and sigma for terminal atoms of 0.01
Uanis(F1) \\sim Ueq, Uanis(F2) \\sim Ueq: with sigma of 0.05 and sigma for
terminal atoms of 0.1
3. Others
 Fixed Sof: H6A(0.5) H6B(0.5)
4.a Riding coordinates:
 O6(H6A,H6B)
4.b Aromatic/amide H refined with riding coordinates:
 C3(H3), C4(H4)
;
_shelx_res_file
;
TITL 3717_a.res in Pbcm
    3717.res
    created by SHELXL-2018/1 at 10:01:03 on 07-Apr-2021
REM Old TITL 3717 in P212121 #19
REM SHELXT solution in Pbcm
REM R1 0.282, Rweak 0.143, Alpha 0.150, Orientation a'=-a, b'=c, c'=b
REM Formula found by SHELXT: Fe3 C10 O12
CELL 1.54184 3.811 25.0044 14.585 90 90 90
ZERR 4 0.0005 0.0052 0.0013 0 0 0
LATT 1
SYMM -X,-Y,0.5+Z
SYMM -X,0.5+Y,0.5-Z
SYMM +X,0.5-Y,-Z
SFAC C H F Fe O
UNIT 36 20 12 12 40
ISOR 0.01 0.02 O2 O4 C1 C2 C3 C4 C5 O5
ISOR 0.005 0.01 O1
ISOR 0.05 0.1 F1 F2

L.S. 10
PLAN  10
SIZE 0.03 0.03 0.09
list 4
fmap 2 53
acta
OMIT -3 130
OMIT 1 0 10
OMIT 1 2 16
OMIT 1 2 12
OMIT 4 2 0
REM <olex2.extras>
REM <HklSrc "%.\\3717.hkl">
REM </olex2.extras>

WGHT    0.200000
FVAR       0.21823
FE1   4    0.813430    0.750000    0.500000    10.50000    0.00605    0.04443 =
         0.00417    0.00008    0.00000    0.00000
FE2   4    0.823003    0.627493    0.374349    11.00000    0.00228    0.05057 =
         0.00357    0.00041   -0.00065    0.00033
O1    5    0.807195    0.686906    0.582784    11.00000    0.02511    0.02788 =
         0.01158    0.00116   -0.00450    0.00228
O3    5    1.165789    0.446341    0.672225    11.00000    0.04449    0.02911 =
         0.01114   -0.00357   -0.00051    0.00705
O2    5    0.828066    0.609594    0.505961    11.00000    0.04680    0.04074 =
         0.01535    0.00087    0.00063    0.00594
F1    3    0.337344    0.750000    0.500000    10.50000    0.06687    0.03472 =
         0.10496    0.04383    0.00000    0.00000
O4    5    0.807560    0.704237    0.396832    11.00000    0.06671    0.02938 =
         0.02126    0.00002    0.00196   -0.00554
F2    3    0.353833    0.627422    0.376321    11.00000    0.03310    0.07723 =
         0.08106   -0.01993   -0.01148    0.01180
C1    1    0.830252    0.639593    0.579909    11.00000    0.02130    0.03190 =
         0.00721    0.00430   -0.00325   -0.00250
O5    5    0.816984    0.651151    0.250000    10.50000    0.06734    0.03792 =
         0.01984    0.00000    0.00000    0.00225
O6    5    0.316118    0.747158    0.250000    10.50000    0.03448    0.06046 =
         0.02423    0.00000    0.00000   -0.00012
AFIX   3
H6A   2    0.433748    0.727307    0.285970    10.50000   -1.20000
H6B   2    0.192728    0.727467    0.215100    10.50000   -1.20000
AFIX   0

C6    1    1.128173    0.469963    0.750000    10.50000    0.01790    0.03832 =
         0.02526    0.00000    0.00000    0.00045
C2    1    0.879245    0.607268    0.666876    11.00000    0.02566    0.03589 =
         0.02042   -0.00828   -0.00311   -0.00306
C3    1    0.830549    0.634992    0.750000    10.50000    0.02012    0.02315 =
         0.01455    0.00000    0.00000    0.00167
AFIX  43
H3    2    0.767443    0.670920    0.750000    10.50000   -1.20000
AFIX   0
C5    1    1.017446    0.525183    0.750000    10.50000    0.02991    0.03248 =
         0.02218    0.00000    0.00000    0.00303
C4    1    0.978830    0.554739    0.666072    11.00000    0.02608    0.04569 =
         0.02369   -0.00159    0.00068   -0.00249
AFIX  43
H4    2    1.022241    0.537876    0.610382    11.00000   -1.20000
AFIX   0
HKLF 4




REM  3717_a.res in Pbcm
REM R1 =  0.1848 for     930 Fo > 4sig(Fo)  and  0.2050 for all    1236 data
REM    122 parameters refined using     66 restraints

END

WGHT      0.2000      0.0000

REM Highest difference peak  4.338,  deepest hole -3.378,  1-sigma level  0.591
Q1    1   0.8096  0.7077  0.5016  11.00000  0.05    4.34
Q2    1   0.8149  0.6651  0.3782  11.00000  0.05    3.84
Q3    1   0.5956  0.6242  0.3739  11.00000  0.05    3.76
Q4    1   1.1733  0.4170  0.6281  11.00000  0.05    3.68
Q5    1   0.6051  0.7500  0.5000  10.50000  0.05    2.89
Q6    1   0.8069  0.6166  0.3780  11.00000  0.05    2.87
Q7    1   1.0542  0.6236  0.3753  11.00000  0.05    2.30
Q8    1   0.8183  0.6523  0.4994  11.00000  0.05    2.26
Q9    1   0.6779  0.6524  0.2500  10.50000  0.05    2.19
Q10   1   0.6985  0.6997  0.3960  11.00000  0.05    2.02
;
_shelx_res_checksum              79508
_shelx_hkl_file
;
   0  -2   0 1052.09   93.28
   0  -3   0   -0.29    1.46
   0   4   0 1856.19  166.56
   0  -4   0 1901.78  166.56
   0   5   0    0.34    2.37
   0  -5   0   -0.52    2.63
   0   6   0  549.60   48.56
   0  -6   0  541.52   48.62
   0  -7   0    0.23    3.38
   0 -10   0  980.97   87.27
   0 -11   0   -0.70    4.54
   0 -12   0 1806.05  160.32
   0 -13   0    1.81    3.51
   0 -14   0  452.95   37.94
   0 -14   0  406.82   37.16
   0 -15   0    5.81    6.55
   0 -16   0 2365.11  210.24
   0 -17   0    4.13    6.64
   0 -18   0  303.09   28.29
   0 -19   0   -0.06    6.84
   0 -20   0   32.87    8.43
   0 -21   0   -2.58    7.58
   0 -22   0   58.88    9.90
   0 -23   0   14.24    8.00
   0 -25   0   -4.30    6.97
   0 -26   0  243.27   23.50
   0 -27   0    3.01    6.50
   0 -28   0    3.36    6.41
   0 -29   0    4.62    5.64
   0 -30   0   17.58    5.30
   0 -31   0    1.38    3.65
   0   2   1 1599.20  141.80
   0   3   1    2.15    2.22
   0  -4  -1   54.65    5.53
   0  -4  -1   54.40    5.51
   0   5  -1   -0.17    2.23
   0  -5  -1    0.77    2.70
   0  -5  -1   -0.72    2.91
   0   6  -1  319.04   29.08
   0  -6  -1  357.51   29.20
   0  -6  -1  309.85   29.14
   0   7  -1    0.22    2.43
   0  -7  -1   -3.59    3.21
   0  -7  -1    0.18    3.44
   0  -8  -1   18.92    3.84
   0   8  -1   17.38    3.11
   0  -8  -1   10.45    3.88
   0  -9  -1   -0.02    3.71
   0  -9  -1   -1.03    3.54
   0 -10  -1  660.71   63.07
   0 -10  -1  741.39   62.97
   0 -11  -1    2.28    4.68
   0 -11  -1    0.24    3.18
   0 -12  -1  264.11   23.71
   0 -14   1  394.35   36.10
   0 -15   1    5.78    6.75
   0 -15  -1    3.37    6.03
   0 -16  -1   31.64    6.91
   0 -16   1   39.09    7.49
   0 -17  -1    5.15    6.06
   0 -17   1    0.47    6.86
   0 -18   1   76.49    9.58
   0 -18  -1   45.83    8.52
   0 -19   1   -0.06    7.10
   0 -19  -1    2.42    6.76
   0 -20   1    0.27    7.78
   0 -20  -1    0.92    7.19
   0 -21  -1    4.26    7.76
   0 -21   1    3.57    7.88
   0 -22  -1  109.27   12.41
   0 -22   1  101.85   13.10
   0 -23  -1   -6.53    7.49
   0 -23   1    2.99    7.83
   0 -24   1   12.68    8.42
   0 -24  -1   19.85    7.66
   0 -25  -1    1.13    6.84
   0 -26   1  163.06   18.40
   0 -26  -1  202.80   18.45
   0 -27   1   -7.09    6.90
   0 -27  -1    0.48    6.44
   0 -28  -1   17.37    6.45
   0 -28   1    8.49    6.45
   0 -29  -1    8.76    5.64
   0 -29   1    4.65    5.56
   0 -30  -1   46.34    6.11
   0 -30   1   48.09    6.08
   0 -31   1    1.56    2.92
   0 -31   1    0.94    3.59
   0 -31  -1   -2.62    3.59
   0   2   2 3242.21  287.46
   0   3   2    1.65    2.87
   0   4   2  139.59   12.92
   0  -5  -2    3.17    3.74
   0   5   2    3.45    3.75
   0  -6  -2  543.77   48.84
   0  -6  -2  525.07   48.87
   0   6   2  575.14   48.87
   0  -7  -2    0.62    3.69
   0   7  -2    1.15    3.13
   0  -7  -2    3.55    3.56
   0  -8  -2  582.07   46.66
   0  -8  -2  462.08   46.67
   0  -9  -2    1.98    3.53
   0  -9  -2   -1.90    3.90
   0 -10  -2   97.21    9.84
   0 -11  -2    1.26    4.63
   0 -12  -2  229.24   21.09
   0 -13  -2    5.61    4.85
   0 -14  -2  359.72   32.66
   0 -15  -2    6.07    5.78
   0 -16  -2  297.42   27.55
   0 -17  -2    2.33    5.82
   0 -18  -2   88.45   10.61
   0 -19  -2    5.61    6.83
   0 -20   2   56.55    9.86
   0 -20  -2   66.81    9.72
   0 -20  -2   63.32    9.34
   0 -21  -2    1.46    7.25
   0 -21   2   -1.43    8.39
   0 -22   2   82.36   11.31
   0 -22  -2   83.33   10.96
   0 -23  -2   -4.31    7.25
   0 -23   2    6.34    8.32
   0 -24  -2   50.46    8.95
   0 -24   2   53.99   10.03
   0 -25   2    2.65    8.41
   0 -25  -2    0.37    6.78
   0 -26  -2   11.30    6.77
   0 -27   2   -3.97    6.81
   0 -27  -2    0.23    6.28
   0 -28   2   72.63    9.86
   0 -28  -2   82.45    9.72
   0 -29  -2   -6.38    4.01
   0 -29   2    5.46    5.60
   0 -29  -2    0.17    5.36
   0 -30   2   18.13    5.33
   0 -30  -2   23.75    5.18
   0 -31  -2    0.79    3.27
   0 -31   2    5.75    3.44
   0   2   3  701.13   62.43
   0   3   3    0.57    3.56
   0   4   3    4.36    3.72
   0   5   3   -0.81    4.00
   0   6   3  763.27   68.00
   0   7   3   -0.79    4.71
   0  -8  -3  181.22   16.81
   0  -9  -3   -0.17    4.20
   0 -10  -3 1081.66   96.19
   0 -11  -3    9.34    4.67
   0 -12  -3    3.29    5.01
   0  12  -3    5.01    2.89
   0  13  -3   -0.25    2.76
   0 -13   3    4.08    7.44
   0 -13  -3    2.92    5.08
   0 -14  -3  480.62   43.25
   0 -15  -3    1.23    5.82
   0 -15  -3    4.95    5.93
   0 -15  -3    3.30    5.75
   0 -16  -3   72.31    9.19
   0 -16  -3   74.11    9.53
   0 -17  -3    8.83    5.92
   0 -17  -3   -3.66    6.30
   0 -18  -3  123.14   13.51
   0 -19  -3   -4.57    6.65
   0 -20  -3    4.17    6.89
   0 -21  -3   -0.86    7.08
   0 -22  -3  258.45   24.89
   0 -23  -3   -6.58    7.12
   0 -24  -3    4.34    6.85
   0 -25  -3    0.63    6.58
   0 -26  -3  196.31   19.34
   0 -27  -3    2.79    6.08
   0 -28  -3   89.77    8.90
   0 -28   3   87.87    9.37
   0 -29   3    3.99    5.46
   0 -29  -3    3.03    5.26
   0 -29  -3    3.83    3.28
   0 -30  -3   22.15    4.86
   0 -30   3   22.06    5.13
   0   2   4  351.61   31.72
   0   3   4    2.00    4.24
   0   4   4 4602.56  408.15
   0   5   4   -0.15    4.69
   0   6   4  967.92   86.16
   0   7   4    8.06    5.19
   0   8   4  119.32   12.26
   0  -9  -4    2.35    4.63
   0  10  -4  622.05   56.05
   0 -10  -4  636.62   56.18
   0 -11  -4    0.76    4.61
   0  11  -4    0.39    3.45
   0 -12  -4 3428.07  298.13
   0  12  -4 3300.60  297.64
   0 -12  -4 3423.43  297.80
   0 -13  -4    0.03    5.20
   0 -13  -4    0.59    5.10
   0  13  -4    0.71    2.72
   0 -13   4    3.52    7.52
   0 -14  -4  828.56   73.47
   0 -14   4  811.48   73.58
   0 -14  -4  815.11   73.11
   0 -15   4    2.21    7.57
   0 -15  -4   -3.85    5.61
   0 -16   4  323.63   31.82
   0 -16  -4  351.46   31.51
   0 -17   4   -0.50    7.88
   0 -17  -4   -1.37    6.16
   0 -18   4   41.84    9.28
   0 -18  -4   38.73    7.84
   0 -19  -4   -0.09    6.59
   0 -19   4    3.81    8.65
   0 -20  -4  681.86   61.87
   0 -21  -4    3.27    7.19
   0 -22  -4  399.11   37.16
   0 -23  -4    3.71    7.05
   0 -24  -4   55.76    8.97
   0 -25  -4    9.60    6.81
   0 -26  -4    7.35    6.38
   0 -27  -4   -5.19    6.30
   0 -27  -4   -1.31    4.13
   0 -28  -4  493.06   42.05
   0 -28   4  429.73   42.14
   0 -29  -4    3.43    4.83
   0 -29   4   -1.08    5.31
   0 -30   4   91.58   10.15
   0 -30  -4  107.39    9.95
   0   1   5    3.36    5.49
   0   2   5 1657.29  147.29
   0   3   5    5.44    4.96
   0   4   5   41.59    6.37
   0   5   5    0.46    5.17
   0   6   5  725.17   64.83
   0   7   5   -0.96    5.48
   0   8   5   39.49    6.73
   0   9   5   -0.23    6.28
   0  -9  -5    3.26    4.91
   0 -10  -5  603.35   54.04
   0 -11  -5   -2.49    5.05
   0  11  -5    6.45    4.38
   0 -11  -5    3.98    5.36
   0  12  -5    1.93    3.62
   0 -12  -5    2.00    5.09
   0 -12   5    3.99    8.25
   0 -12  -5    5.00    5.34
   0 -13   5    8.38    7.87
   0 -13  -5    0.38    5.45
   0 -14   5  866.26   77.67
   0 -14  -5  861.14   77.48
   0 -15   5   -0.29    8.71
   0 -15  -5    0.45    5.91
   0 -16   5   80.03   11.20
   0 -16  -5   76.09    9.99
   0 -17  -5   -3.89    6.38
   0 -17   5    4.27    9.07
   0 -18   5  382.00   36.66
   0 -18  -5  404.27   36.46
   0 -19   5    3.83    8.74
   0 -19  -5   -3.06    7.13
   0 -20   5   54.91   10.76
   0 -20  -5   54.56    9.14
   0 -21  -5    1.54    7.36
   0 -21   5    6.87    8.58
   0 -22   5  179.28   18.51
   0 -22  -5  174.08   17.99
   0 -23   5    1.80    8.39
   0 -23  -5   -0.65    6.92
   0 -24   5   87.77   10.68
   0 -24  -5   90.50    9.88
   0 -25  -5   -3.84    6.57
   0 -25   5   12.51    7.59
   0 -25  -5   -1.34    4.42
   0 -26  -5   72.99    9.50
   0 -27  -5    0.64    5.77
   0 -28  -5   23.02    5.77
   0 -29  -5    0.71    4.26
   0 -29   5    2.61    4.94
   0 -30   5   48.08    5.82
   0   0   6  131.94   13.70
   0   1   6    7.59    5.99
   0   2   6  171.91   16.73
   0   3   6    7.46    5.94
   0   4   6  104.92   11.18
   0   5   6    2.37    6.13
   0   6   6 2637.22  234.20
   0   7   6   -1.32    6.12
   0   8   6  347.24   31.84
   0   9   6   -0.51    6.58
   0 -10  -6  283.08   25.76
   0 -10  -6  264.40   25.66
   0  10   6  293.94   26.13
   0 -11  -6    0.48    5.22
   0 -12  -6  121.53   13.01
   0 -12   6  132.26   14.77
   0 -13  -6   -0.69    5.70
   0 -13   6    4.03    8.66
   0 -14   6  492.45   45.73
   0 -14  -6  501.57   45.29
   0 -15   6    5.49    9.45
   0 -15  -6    0.32    6.49
   0 -16  -6  184.08   18.25
   0 -16   6  178.45   18.96
   0 -17   6    8.19    9.67
   0 -17  -6    2.03    6.56
   0 -18  -6  277.47   25.91
   0 -18   6  262.24   26.30
   0 -19  -6    0.95    7.01
   0 -19   6    6.89    8.98
   0 -20   6  197.74   21.84
   0 -20  -6  226.39   21.24
   0 -21  -6   -0.96    7.36
   0 -21   6    1.08    9.02
   0 -22  -6   99.47   11.81
   0 -22   6   89.07   12.43
   0 -23   6    0.83    8.07
   0 -23  -6   -5.84    7.18
   0 -24   6   41.50    8.57
   0 -24  -6   29.09    7.58
   0 -25   6    2.91    7.78
   0 -25  -6   -5.11    6.77
   0 -26  -6   54.86    8.17
   0 -27  -6   -3.10    5.37
   0 -28  -6   15.74    4.97
   0 -29  -6    0.97    3.50
   0 -29   6   -0.29    4.28
   0   0   7    6.08    7.13
   0  -1   7   34.98    8.11
   0   1   7    6.83    6.70
   0   2   7 1437.17  127.97
   0   3   7    3.29    6.33
   0   4   7   76.47    9.53
   0   5   7    0.61    6.37
   0   6   7  827.92   74.16
   0   7   7   -1.22    6.52
   0   7  -7    3.36    3.69
   0  -7  -7    5.20    4.82
   0   8   7   84.87    9.97
   0  -8  -7   77.20    8.69
   0   8  -7   70.18    8.08
   0  -9  -7   -3.87    5.22
   0   9   7    6.19    7.59
   0 -10  -7  703.08   63.20
   0 -11  -7   -3.43    5.55
   0 -12  -7    2.01    6.00
   0 -12   7    9.91    9.56
   0 -13  -7   -2.83    6.21
   0 -13   7    6.02    8.94
   0 -14  -7  235.19   23.08
   0 -14   7  247.07   24.21
   0 -15  -7   -1.02    6.55
   0 -15   7    2.62    9.52
   0 -16  -7   21.56    7.32
   0 -16   7   33.58   10.01
   0 -17   7   -6.99    9.89
   0 -17  -7  -10.22    7.23
   0 -18   7   13.44    9.01
   0 -18  -7   14.62    7.85
   0 -19  -7    2.23    7.72
   0 -19   7    1.28    9.61
   0 -20  -7   17.40    7.39
   0 -20   7   16.69    9.63
   0 -21  -7   -7.09    7.27
   0 -21   7   -2.09    8.67
   0 -22   7   73.33   10.59
   0 -22  -7   68.39   10.10
   0 -23  -7   -1.27    6.73
   0 -23   7   11.47    7.99
   0 -24  -7   10.79    6.81
   0 -24   7   22.46    7.90
   0 -25   7   20.46    7.85
   0 -25  -7   -0.47    5.96
   0 -26  -7   76.29    9.14
   0 -27  -7    2.21    4.71
   0 -28  -7   11.61    4.02
   0 -29   7    3.96    3.32
   0   0   8 4843.17  429.90
   0   1  -8 1136.30   90.24
   0  -1   8  995.78   90.71
   0   1   8 1033.41   90.58
   0  -1  -8  885.51   90.23
   0   2   8  702.70   64.90
   0  -2  -8  725.97   64.55
   0   2  -8  727.77   64.46
   0  -3  -8   -0.28    4.30
   0   3   8    4.55    6.90
   0   3  -8    2.52    3.86
   0  -4  -8  413.45   36.65
   0   4   8  394.49   37.08
   0   4  -8  403.13   36.48
   0   5   8    0.06    7.13
   0  -5  -8   -2.44    4.79
   0   5  -8    0.28    3.77
   0  -6  -8  132.68   13.15
   0   6  -8  135.05   12.72
   0   6   8  121.47   14.21
   0   7  -8    5.09    3.98
   0   7   8    1.18    7.30
   0  -7  -8    0.17    4.88
   0   8   8 3968.53  353.50
   0  -8  -8 3965.99  353.42
   0   8  -8 3999.53  353.26
   0  -9  -8    2.73    5.33
   0   9  -8    5.70    4.29
   0 -10  -8  217.69   20.76
   0 -11  -8   -2.33    5.85
   0 -11   8    9.51   10.03
   0 -12  -8  159.38   16.50
   0 -12   8  170.09   18.21
   0 -13  -8   -3.60    6.66
   0 -13   8   -4.41    9.93
   0 -14  -8   84.15   10.90
   0 -14   8   94.40   13.27
   0 -15   8    4.60   10.00
   0 -15  -8   -1.99    7.13
   0 -16  -8  567.11   51.84
   0 -16   8  570.14   52.19
   0 -17  -8   -0.96    7.56
   0 -17   8   -5.16    9.22
   0 -18   8  380.96   36.02
   0 -18  -8  382.85   35.61
   0 -19   8   -2.10    8.76
   0 -19  -8   -6.46    6.93
   0 -20  -8   59.90    9.56
   0 -20   8   65.55   10.62
   0 -21   8    8.06    8.72
   0 -21  -8   -1.50    6.98
   0 -22   8  160.43   16.88
   0 -22  -8  155.16   16.34
   0 -23  -8    0.30    6.53
   0 -23   8   15.75    7.79
   0 -24   8  495.60   42.82
   0 -24  -8  445.22   42.77
   0 -25  -8    7.28    5.56
   0 -26  -8   70.34    8.29
   0 -27  -8   -6.82    4.11
   0   0  -9    1.86    4.10
   0  -1  -9  128.19   10.24
   0   1  -9   64.96    9.37
   0   2  -9  985.33   85.17
   0  -2  -9  922.85   85.19
   0   3  -9    3.42    4.41
   0  -3  -9    0.95    4.77
   0   4  -9  164.41   15.63
   0  -4  -9  166.86   15.98
   0  -5  -9   -1.72    4.91
   0   5  -9    0.66    3.80
   0   6  -9  581.85   53.32
   0  -6  -9  612.51   53.58
   0  -7  -9   -4.97    5.54
   0   7  -9    6.43    4.30
   0  -8  -9   96.50   10.45
   0   8  -9   89.64    9.69
   0  -9  -9    1.21    5.86
   0   9  -9    1.33    4.68
   0 -10  -9  272.38   27.56
   0 -10   9  335.91   28.78
   0 -11  -9    0.55    6.16
   0 -11   9   10.18   10.35
   0 -12  -9   27.86    7.44
   0 -12   9   32.88   10.75
   0 -13   9   10.55   10.54
   0 -13  -9    3.04    6.63
   0 -14   9  161.81   18.55
   0 -14  -9  165.59   16.87
   0 -15  -9    0.83    7.28
   0 -15   9   -2.11    9.72
   0 -16   9   25.21   10.18
   0 -16  -9   18.70    7.55
   0 -17   9    8.06    9.40
   0 -17  -9    3.29    7.22
   0 -18   9  227.25   22.65
   0 -18  -9  223.79   22.01
   0 -19  -9    0.36    6.91
   0 -19   9    2.68    9.04
   0 -20   9  139.53   15.33
   0 -20  -9  133.33   14.59
   0 -21   9    5.26    8.15
   0 -21  -9    0.32    6.65
   0 -22   9   60.72    9.31
   0 -22  -9   46.57    8.26
   0 -23   9    6.90    7.31
   0 -23  -9   50.72    6.97
   0 -24  -9    5.99    5.33
   0 -25  -9    7.28    4.96
   0 -26  -9   19.22    4.41
   0   0 -10  206.40   19.35
   0  -1 -10  179.13   15.22
   0   1 -10  134.36   14.94
   0  -2 -10  524.02   47.73
   0   2 -10  535.79   47.70
   0  -3 -10    2.25    5.14
   0   3 -10   21.20    5.01
   0   4 -10  140.23   13.78
   0  -4 -10  144.97   14.15
   0   5 -10    5.35    4.42
   0  -5 -10   -1.92    5.42
   0  -6 -10  200.36   19.32
   0   6 -10  201.02   18.84
   0   7 -10    3.54    4.68
   0  -7 -10   -1.74    5.64
   0   8 -10   35.33    5.65
   0  -8 -10   23.16    6.66
   0   9 -10    1.20    4.81
   0  -9 -10   -2.00    6.06
   0 -10 -10   44.61    7.74
   0 -11 -10   -4.76    6.86
   0 -11  10    6.70   10.03
   0 -12  10   50.03   11.23
   0 -12 -10   27.11    7.83
   0 -13  10    9.34    9.94
   0 -13 -10    3.28    6.66
   0 -14  10  120.57   15.03
   0 -14 -10  119.76   13.46
   0 -15  10    1.58    9.52
   0 -15 -10    3.00    7.03
   0 -16  10  165.63   17.22
   0 -16 -10  152.27   16.43
   0 -17  10    5.74    8.91
   0 -17 -10    3.21    7.03
   0 -18 -10   37.24    8.19
   0 -18  10   51.23    9.68
   0 -19 -10    2.06    6.50
   0 -19  10    8.23    8.08
   0 -20 -10   83.41   10.61
   0 -20  10   90.63   11.14
   0 -21 -10   -4.54    6.17
   0 -21  10    9.89    7.12
   0 -22  10   94.02    9.94
   0 -22 -10   70.53    9.65
   0 -24 -10   33.05    5.64
   0 -25 -10    2.44    3.69
   0   0 -11   11.48    5.15
   0   1 -11   82.62   13.28
   0  -1 -11  203.68   13.78
   0  -2 -11  585.49   52.58
   0   2 -11  583.00   52.54
   0   3 -11   49.99    6.01
   0  -3 -11   13.04    5.84
   0   4 -11   45.77    6.44
   0  -4 -11   51.96    7.16
   0   5 -11    7.76    4.56
   0  -5 -11    8.23    5.56
   0   6 -11  194.55   18.92
   0  -6 -11  210.57   19.46
   0  -7 -11    0.52    5.72
   0   7 -11    2.05    4.87
   0   8 -11    9.94    4.96
   0  -8 -11    6.51    6.08
   0  -9 -11   -0.08    6.38
   0 -10 -11  298.85   28.05
   0 -11 -11    5.02    6.63
   0 -12 -11   -4.42    6.93
   0 -13 -11   -8.93    6.85
   0 -14 -11  321.96   30.89
   0 -14  11  339.42   31.24
   0 -15  11    4.42    8.47
   0 -15 -11   -5.56    6.88
   0 -16  11   50.52    9.42
   0 -16 -11   37.99    7.88
   0 -17 -11   -4.66    6.48
   0 -17  11    4.45    7.65
   0 -18 -11  141.94   14.68
   0 -18  11  140.46   15.10
   0 -19 -11   -5.42    6.23
   0 -19  11   14.05    7.19
   0 -20 -11   15.78    6.11
   0 -20  11   31.63    6.70
   0 -21 -11    1.73    5.12
   0 -22 -11   42.59    6.39
   0 -23 -11    3.58    4.21
   0 -24 -11   23.01    3.99
   0   0 -12  427.55   38.83
   0   1 -12  217.94   17.79
   0  -1 -12  152.28   17.59
   0   2 -12   55.49    7.24
   0  -2 -12   53.78    7.56
   0   3 -12   15.48    5.30
   0  -3 -12   11.99    5.69
   0   4 -12  707.22   62.83
   0  -4 -12  692.44   62.94
   0   5 -12    9.35    5.14
   0  -5 -12    4.09    5.56
   0   6 -12  136.46   14.05
   0  -6 -12  148.14   14.41
   0   7 -12   -2.72    4.60
   0  -7 -12    2.44    5.55
   0  -8 -12  136.78   13.85
   0   8 -12  128.06   13.20
   0  -9 -12    1.66    6.34
   0 -10 -12  111.87   12.46
   0 -11 -12   -3.42    6.20
   0 -12 -12  457.16   41.80
   0 -13 -12    0.89    6.51
   0 -14 -12  341.24   31.67
   0 -15 -12   -1.61    6.33
   0 -16 -12    6.06    6.59
   0 -17 -12   -8.36    6.04
   0  18 -12   17.54    7.25
   0 -18 -12    1.39    5.52
   0 -19 -12    5.39    5.29
   0 -20 -12  659.22   59.13
   0 -21 -12    4.97    4.36
   0 -22 -12   67.56    7.25
   0 -23 -12    5.57    2.65
   0   0 -13   20.60    5.64
   0  -1 -13  117.27    9.92
   0   1 -13   60.62    9.59
   0  -2 -13  313.49   29.17
   0   2 -13  318.85   28.98
   0   3 -13   61.84    6.36
   0  -3 -13   15.78    6.70
   0  -4 -13    1.27    5.63
   0   4 -13    8.41    4.84
   0   5 -13    3.17    4.96
   0  -5 -13   -5.40    5.57
   0  -6 -13  506.09   44.36
   0   6 -13  475.15   44.14
   0   7 -13   -2.45    4.75
   0  -7 -13    3.63    5.63
   0  -8 -13    3.78    5.34
   0  -9 -13   10.66    5.88
   0 -10 -13  207.83   19.96
   0 -11 -13   -1.42    5.84
   0 -12 -13   21.35    6.15
   0 -13 -13    6.45    5.84
   0 -14 -13  134.89   13.79
   0 -15 -13   -0.75    5.61
   0 -16 -13    0.12    5.32
   0 -17 -13    5.77    4.85
   0  18 -13  177.40   17.58
   0 -18 -13  187.66   17.41
   0 -19 -13    1.53    4.05
   0 -20 -13   13.98    3.80
   0 -21 -13    3.79    2.79
   0   0 -14   19.10    5.32
   0   1 -14   28.23    5.92
   0  -1 -14   42.80    6.18
   0   2 -14  113.53   11.22
   0  -2 -14  104.02   11.25
   0   3 -14   23.11    5.22
   0  -3 -14    9.47    5.06
   0   4 -14    6.85    4.76
   0  -4 -14    4.10    5.12
   0  -5 -14    2.78    5.18
   0   5 -14    5.74    4.58
   0   6 -14   57.86    7.33
   0  -6 -14   60.13    7.91
   0  -7 -14   -5.91    5.48
   0  -8 -14  176.54   17.08
   0  -9 -14   -6.76    5.34
   0 -10 -14    4.77    5.22
   0 -11 -14   -0.47    5.07
   0 -12 -14  103.45   10.95
   0 -13 -14    3.96    4.83
   0 -14 -14   60.41    7.46
   0 -15 -14   -3.75    4.41
   0 -16 -14   83.92    8.88
   0 -17 -14   -1.21    3.84
   0  17 -14    8.30    5.59
   0 -18 -14   19.15    3.94
   0 -19 -14   -2.35    2.81
   0   0 -15   82.34    9.18
   0   1 -15   86.94   12.06
   0  -1 -15  165.40   12.36
   0   2 -15  416.17   37.54
   0  -2 -15  413.64   37.54
   0  -3 -15   55.51    8.79
   0   3 -15  105.73    8.98
   0   4 -15   20.06    4.79
   0  -4 -15   19.33    5.03
   0  -5 -15    2.88    4.70
   0  -6 -15   87.81    9.52
   0  -7 -15   -1.23    4.79
   0  -8 -15    2.56    4.66
   0  -9 -15    2.88    4.62
   0 -10 -15   59.83    7.33
   0 -11 -15    3.91    4.50
   0 -12 -15   -0.27    4.42
   0 -13 -15   -6.37    4.31
   0 -14 -15  143.88   13.68
   0 -15 -15   -2.38    3.52
   0  16 -15    3.19    4.92
   0 -16 -15    3.94    3.11
   0 -17 -15   -0.49    2.43
   0   0 -16  710.44   63.56
   0   1 -16  446.04   33.70
   0  -1 -16  306.69   33.59
   0  -2 -16   88.85   11.52
   0   2 -16  156.19   11.89
   0  -3 -16   17.33    4.54
   0  -4 -16  119.73   11.77
   0  -5 -16    3.74    4.08
   0  -6 -16   33.54    5.15
   0  -7 -16    7.40    3.98
   0  -8 -16  746.02   66.62
   0  -9 -16    4.78    3.82
   0 -10 -16  152.84   14.34
   0 -11 -16    1.32    3.43
   0 -12 -16   27.84    4.16
   0 -13 -16    0.41    2.82
   0 -14 -16   10.80    2.69
   0  14 -16   21.58    4.85
   0  -1 -17   21.27    4.24
   0  -2 -17   61.77    6.77
   0  -3 -17    9.38    3.66
   0  -4 -17   17.98    3.91
   0  -5 -17    1.29    3.39
   0  -6 -17  119.86   11.40
   0  -7 -17    2.91    3.15
   0  -8 -17   13.43    3.24
   0  -9 -17    2.88    2.70
   0 -10 -17   48.37    5.07
  -1   0   0 6100.82  540.85
  -1   1   0 9999.00  874.06
  -1  -1   0 9785.23  873.91
  -1  -2   0   61.22    6.70
  -1   2   0   67.79    7.92
  -1   3   0 1035.82   92.18
  -1   4   0  138.12   13.19
  -1   5   0  340.15   30.55
  -1   6   0    4.84    2.79
  -1  -6   0    1.19    1.90
  -1  -7   0   59.72    9.60
  -1   7   0   58.50    7.45
  -1  -8   0   -1.53    7.80
  -1   8   0   11.67    5.16
  -1   9   0  253.71   21.77
  -1  -9   0  192.93   22.81
  -1 -10   0    5.78    8.83
  -1  10   0   13.29    5.73
  -1 -11   0  250.72   19.58
  -1  11   0  157.78   17.96
  -1 -12   0  115.25   15.23
  -1  12   0  135.77   13.35
   1 -13   0  207.07   20.53
  -1  13   0  248.44   20.31
  -1 -14   0   12.44    9.46
   1 -14   0    8.77    6.85
   1 -15   0  341.68   26.45
  -1 -15   0  211.14   26.50
  -1 -16   0   32.66    9.87
   1 -16   0   58.80    9.08
   1 -17   0  238.45   21.72
  -1 -17   0  194.84   21.94
  -1 -18   0    0.08    8.96
   1 -18   0    0.51    8.20
   1 -19   0    6.90    8.66
  -1 -19   0    2.60    8.74
  -1 -20   0    6.36    8.61
   1 -20   0    0.99    9.08
   1 -21   0   10.89    8.66
  -1 -21   0    4.60    9.20
  -1 -22   0    0.08    9.22
  -1 -23   0   26.70    8.90
  -1 -23   0   21.49    6.58
   1 -23   0   16.85    7.42
  -1 -24   0    8.47    8.61
   1 -24   0    1.78    6.59
  -1 -24   0   -0.27    5.72
   1 -25   0   82.15   10.23
  -1 -25   0   70.59    9.56
   1 -26   0   10.88    6.38
  -1 -26   0    6.30    5.20
   1 -27   0    9.47    5.94
  -1 -27   0   11.22    4.87
   1 -28   0    0.59    5.32
  -1 -28   0    5.01    3.98
   1 -29   0    3.18    3.78
   1 -29   0    5.10    4.93
  -1 -29   0    4.58    3.13
   1 -30   0   -2.44    3.27
   1 -30   0   -1.33    3.91
   1 -30  -1   -1.43    3.97
   1 -30  -1    2.80    3.17
   1 -29  -1    6.22    4.98
   1 -29  -1    5.74    3.89
  -1 -29   1   11.97    3.28
   1 -28  -1    1.58    5.31
   1 -28  -1   -1.52    4.17
  -1 -28   1    4.59    4.07
  -1 -27   1   35.10    6.03
   1 -27  -1   40.71    7.17
  -1 -26   1   14.11    8.25
  -1 -26   1    8.04    5.29
   1 -26  -1   10.77    6.40
  -1 -25   1   20.73    9.04
   1 -25  -1   25.95    7.02
  -1 -25   1   10.54    6.02
   1 -24  -1   -3.07    6.54
  -1 -24   1    1.40    8.74
  -1 -23   1   25.39   10.20
   1 -23  -1   18.17    7.01
  -1 -22   1   11.23    9.49
   1 -22  -1    5.45    6.92
  -1 -21   1   25.07    9.67
   1 -21  -1   12.92    9.19
   1 -21  -1   14.18    7.28
   1 -20  -1    4.60    8.87
  -1 -20   1    4.49   10.04
   1 -19  -1    4.55    8.67
  -1 -19   1    3.47   10.04
   1 -18  -1    3.44    8.43
  -1 -18   1   -0.41    9.36
  -1 -17   1    1.35    9.10
   1 -17  -1    3.59    8.11
   1 -16  -1   -1.42    7.90
  -1 -16   1    4.35    9.27
   1 -15  -1   94.88   11.72
   1 -14  -1   13.55    6.96
  -1 -14   1    1.83    9.31
   1 -13  -1   16.11    7.01
  -1 -13   1   15.37    9.09
  -1  13  -1   17.92    6.31
  -1  12  -1    5.57    5.90
  -1 -12   1   -2.02    8.64
   1 -12  -1   13.08    6.61
  -1  11  -1  210.69   19.84
  -1  10  -1    0.64    5.39
  -1   9  -1    0.57    5.42
  -1   8  -1   -6.43    5.42
  -1   7  -1    5.61    5.19
  -1   6  -1    3.73    4.86
  -1  -4   1   13.19    2.55
  -1   3  -1   15.73    4.24
  -1  -3   1    6.63    2.67
  -1   2  -1    4.97    3.87
  -1  -2   1    7.61    3.06
  -1   1  -1  415.19   36.67
  -1  -1   1  403.70   36.31
  -1   0   1    0.65    2.86
  -1   1   1  395.34   35.36
  -1   3   1    5.17    5.24
  -1   4   1    8.87    4.63
  -1  -5  -1    4.30    7.62
  -1   5   1   10.03    4.06
  -1   6   1    0.21    2.83
  -1  -6  -1   -1.28    7.49
  -1   7   1   11.86    5.30
  -1  -7  -1   14.01    8.13
  -1   8   1    1.66    5.35
  -1  -8  -1    0.71    7.97
  -1  -9  -1    4.40    2.24
  -1  -9  -1    4.38    7.97
  -1   9   1    6.58    5.49
  -1 -10  -1    9.14    8.75
  -1 -10  -1    1.29    1.94
  -1  10   1    2.62    5.71
  -1 -11  -1  229.95   22.59
   1 -12   1    3.16    7.10
  -1 -12  -1   13.20    8.56
   1 -13   1   12.66    7.08
   1 -13   1   12.25    6.48
   1 -14   1    9.92    7.60
  -1 -14  -1    2.98    7.01
   1 -14   1    7.78    6.61
  -1 -14  -1    2.65    8.67
  -1 -15  -1   53.73    9.60
   1 -15   1   55.91    9.94
   1 -15   1   75.89    9.39
  -1 -16  -1    6.99    7.90
   1 -16   1    9.04    7.43
   1 -17   1   24.84    8.16
  -1 -17  -1    7.32    8.34
   1 -18   1   -0.08    8.19
  -1 -18  -1    6.56    8.37
  -1 -19  -1    8.04    8.42
   1 -19   1    3.27    8.70
  -1 -20  -1    6.34    8.48
   1 -20   1    3.66    8.64
   1 -21   1   17.73    8.84
  -1 -21  -1   16.05    6.52
  -1 -21  -1   19.26    8.69
  -1 -22  -1    2.78    6.10
  -1 -22  -1   15.56    8.12
   1 -22   1   11.24    8.73
  -1 -23  -1   20.55    6.55
  -1 -23  -1   37.74    8.35
   1 -24   1    1.97    6.74
  -1 -24  -1    2.37    5.64
  -1 -24  -1    8.93    7.83
  -1 -25  -1   21.29    5.94
   1 -25   1    7.41    6.72
   1 -26   1    1.90    6.20
  -1 -26  -1    5.76    5.12
  -1 -27  -1   30.74    5.52
   1 -27   1   29.81    6.87
   1 -28   1    3.45    5.23
  -1 -28  -1   -2.06    3.86
   1 -29   1   14.41    4.98
   1 -29   1    2.25    3.84
  -1 -29  -1    7.35    3.06
   1 -30   1    1.59    3.88
   1 -30   1    2.34    3.19
   1 -30  -2    4.56    3.81
   1 -30  -2    5.46    3.00
  -1 -29   2   17.99    3.53
   1 -29  -2   20.47    5.15
   1 -29  -2   13.96    4.09
   1 -28  -2   -0.06    5.35
   1 -28  -2   -0.54    4.10
  -1 -28   2    5.37    4.06
   1 -27  -2   24.93    6.14
  -1 -27   2   18.92    5.26
   1 -27  -2    8.46    4.83
  -1 -26   2    2.48    8.14
  -1 -26   2    1.12    5.21
   1 -26  -2    8.64    6.18
  -1 -25   2   17.09    8.89
   1 -25  -2    8.29    6.33
  -1 -24   2    4.77    9.83
   1 -24  -2    6.28    6.38
   1 -23  -2   25.21    7.56
  -1 -23   2   33.52   10.11
  -1 -22   2    4.83   10.62
   1 -22  -2   -1.56    6.54
  -1 -21   2   26.47   10.91
   1 -21  -2   29.13    7.93
   1 -20  -2   -2.43    6.52
  -1 -20   2    3.14   10.12
   1 -20  -2    4.20    8.83
  -1 -19   2   26.95   11.29
   1 -19  -2   18.33    6.92
   1 -19  -2   21.66    9.51
   1 -18  -2   -1.16    6.34
   1 -18  -2    6.39    8.60
  -1 -18   2    5.98   10.63
   1 -17  -2   72.18    9.31
   1 -17  -2   81.23   11.02
   1 -16  -2   21.11    8.55
   1 -16  -2   12.40    6.00
   1 -15  -2  106.78   13.11
   1 -14  -2    0.14    7.27
  -1  13  -2  124.08   13.74
   1 -13  -2  150.45   14.56
   1 -12  -2   20.74    6.95
  -1  12  -2   12.99    5.85
  -1  11  -2    3.72    5.71
  -1  10  -2    2.15    5.95
   1 -10  -2    5.67    6.39
  -1   9  -2   11.53    5.76
   1  -9  -2   12.96    6.41
   1  -8  -2   31.38    6.68
  -1   8  -2   22.90    6.22
  -1   7  -2  328.83   30.07
  -1   6  -2   16.99    5.46
  -1   4  -2    1.80    3.34
   1  -4  -2    2.01    4.77
   1  -3  -2  581.73   52.86
  -1   3  -2  600.31   52.81
   1  -2  -2  296.09   28.32
  -1   2  -2  331.69   28.35
  -1   1  -2  828.43   74.08
   1  -1  -2  831.55   73.87
   1   0  -2   16.23    3.76
   1   0   2    7.59    7.35
   1   1  -2  866.52   68.99
   1  -1   2  453.43   69.56
   1   2  -2  293.07   27.40
  -1   2   2  293.63   27.69
   1  -3   2  668.88   60.03
   1  -4   2    4.77    6.97
  -1  -4  -2    1.33    6.56
   1  -5   2   93.18   10.86
  -1  -5  -2   80.59   10.84
  -1   6   2   11.56    3.99
   1  -6   2   23.89    6.64
  -1  -6  -2   26.67    8.33
  -1  -7  -2  372.63   19.85
   1  -7   2  325.04   18.85
  -1  -8  -2   20.98    8.39
   1  -8   2   26.71    6.05
   1  -9   2    6.86    4.97
  -1  -9  -2    5.34    8.14
  -1 -10  -2    1.89    8.14
   1 -10   2    2.91    4.09
  -1 -11  -2    4.67    3.02
  -1 -11  -2    7.38    8.26
  -1 -12  -2    9.70    8.02
   1 -12   2   17.90    7.79
  -1 -12  -2    5.81    2.91
  -1 -13  -2  117.39   14.31
   1 -13   2  103.60   13.92
   1 -13   2  139.66   13.06
  -1 -14  -2    0.71    8.07
   1 -14   2    5.39    6.65
   1 -14   2    5.20    7.50
   1  14  -2   12.40    6.78
  -1 -15  -2   93.52   12.55
   1 -15   2   87.67   12.91
   1 -15   2  113.18   12.55
  -1 -16  -2   19.01    7.26
   1  16  -2   18.49    7.66
   1 -16   2   17.15    7.51
   1 -16   2   14.06    7.86
  -1 -17  -2   68.72    9.95
   1 -17   2   65.91   10.68
  -1 -17  -2   67.22    9.06
   1 -17   2   88.50   10.46
  -1 -18  -2   -1.17    5.79
  -1 -18  -2   12.45    7.29
   1 -18   2   18.18    8.26
  -1 -19  -2   17.91    6.34
   1 -19   2   33.30    9.20
  -1 -19  -2   17.82    7.71
  -1 -20  -2    3.50    6.09
  -1 -20  -2    1.71    7.45
   1 -20   2    7.98    9.09
   1 -21   2   29.94    9.54
  -1 -21  -2   26.17    6.80
  -1 -21  -2   30.44    8.00
  -1 -22  -2   14.42    7.35
   1 -22   2   10.30    8.60
  -1 -22  -2    6.36    5.99
  -1 -23  -2   30.45    7.90
  -1 -23  -2   30.20    6.71
  -1 -24  -2    6.43    5.73
  -1 -25  -2   12.78    5.53
   1 -26   2    1.83    6.29
  -1 -26  -2    2.47    4.89
  -1 -27  -2   16.40    4.81
   1 -27   2   20.82    6.33
   1 -28   2    4.31    5.39
  -1 -28  -2    6.81    3.79
   1 -29   2   21.22    5.18
   1 -30   2    1.22    3.56
   1 -30  -3    2.30    3.35
   1 -29  -3    1.45    4.62
  -1 -29   3   11.47    3.05
   1 -29  -3    4.37    3.47
   1 -28  -3    2.11    4.05
  -1 -28   3    4.60    3.92
   1 -28  -3   -3.19    5.38
   1 -27  -3   50.66    7.20
   1 -27  -3   71.44    8.46
  -1 -27   3   55.44    7.51
   1 -26  -3    2.37    4.70
  -1 -26   3    9.50    8.08
  -1 -26   3    1.79    5.22
   1 -26  -3    7.00    6.03
   1 -25  -3   15.39    5.33
   1 -25  -3   17.43    6.60
  -1 -24   3    2.59   10.23
   1 -24  -3    5.33    6.55
   1 -23  -3   30.50    7.67
  -1 -23   3   49.34   10.74
   1 -22  -3    7.73    6.94
  -1 -22   3    6.18   11.17
   1 -21  -3   35.64    8.15
  -1 -21   3   36.13   11.97
  -1 -20   3    1.67   10.58
   1 -20  -3   -1.90    6.52
  -1 -19   3   15.10   11.54
   1 -19  -3   10.09    6.75
   1 -19  -3   13.59    8.74
   1 -18  -3    4.10    8.73
   1 -18  -3    3.78    6.35
  -1 -18   3    3.34   11.32
  -1 -17   3   -1.37    9.89
   1 -17  -3    0.72    6.26
   1 -17  -3   -1.00    8.35
   1 -16  -3    5.24    8.37
   1 -16  -3    0.30    5.97
   1 -15  -3   74.69   11.59
   1 -15  -3   81.20    9.72
   1 -14  -3    2.62    5.63
   1 -14  -3   15.12    7.87
   1 -13  -3    9.68    5.45
  -1  12  -3   -2.28    6.27
   1 -12  -3   -6.22    5.05
   1 -11  -3   75.77   10.04
  -1  11  -3   80.29    9.53
  -1  10  -3   17.00    6.26
   1 -10  -3   17.32    6.62
  -1   9  -3  205.09   17.91
   1  -9  -3  166.36   17.98
   1  -8  -3   12.56    5.82
  -1   8  -3    2.36    6.06
   1   4   3   -5.45    7.53
   1  -4  -3   -2.04    5.35
   1  -3  -3   29.20    7.80
  -1   3  -3   94.86    7.57
  -1   2  -3   20.41    5.00
   1  -2  -3   -0.66    4.75
  -1   1  -3   13.23    5.25
   1  -1  -3    7.51    4.42
   1   0  -3   -2.11    4.12
   1   0   3    5.94    7.78
  -1   0  -3    4.54    5.58
   1   1  -3   11.82    3.85
   1  -1   3   29.15    8.22
   1  -2   3   10.82    8.35
   1   2  -3    0.32    3.38
   1  -3   3   59.43    8.88
   1   3  -3   21.76    3.72
   1   4  -3   -0.48    2.27
  -1  -4  -3    0.82    6.85
   1  -4   3   12.39    8.31
  -1  -5  -3   55.18    9.29
   1  -5   3   77.88   11.05
   1  -6   3   -0.20    8.17
  -1  -6  -3    7.64    7.17
  -1  -7  -3    5.61    7.91
   1  -7   3    9.95    7.92
   1  -8   3    9.12    7.30
  -1  -8  -3   -0.10    7.69
   1  -9   3  223.11   20.83
  -1  -9  -3  212.66   21.36
   1 -10   3   35.86    6.42
  -1 -10  -3   23.74    8.31
   1 -11   3   75.09    8.73
  -1 -11  -3   80.68   10.76
  -1 -12  -3    2.47    7.56
   1 -12   3    2.25    4.28
  -1 -12  -3    1.60    3.77
   1 -12   3   12.19    8.45
   1 -13   3   18.16    8.65
  -1 -13  -3   15.19    5.13
   1 -13   3   11.77    6.22
   1  13  -3   26.16    7.03
  -1 -13  -3   21.33    7.70
   1  14  -3   13.89    7.13
  -1 -14  -3    6.70    5.11
   1 -14   3    9.42    6.34
   1 -14   3   10.36    8.14
   1 -15   3   79.46   11.67
  -1 -15  -3   80.24    9.66
   1  15  -3  106.83   10.82
   1 -15   3   78.81   10.85
   1  16  -3    9.26    7.30
   1 -16   3    1.83    7.24
  -1 -16  -3    2.68    5.36
   1 -16   3   13.87    8.51
  -1 -17  -3    8.45    5.67
   1  17  -3   12.49    7.69
   1 -17   3   14.77    7.70
   1 -17   3   13.61    8.84
  -1 -18  -3    5.66    5.92
  -1 -18  -3   10.80    6.47
   1 -18   3   10.95    8.08
   1 -18   3   17.51    7.97
  -1 -19  -3   14.09    6.75
  -1 -19  -3    7.35    5.99
   1 -19   3   10.64    8.33
   1 -20   3   13.10    8.70
  -1 -20  -3    6.80    6.50
  -1 -20  -3   -2.97    6.08
   1 -21   3   38.02    9.59
  -1 -21  -3   43.21    7.56
  -1 -21  -3   35.06    7.29
  -1 -22  -3    7.06    6.08
   1 -22   3    9.92    8.26
  -1 -23  -3   34.86    6.88
  -1 -24  -3    2.73    5.57
  -1 -25  -3   24.78    5.83
   1 -26   3    5.21    6.47
  -1 -26  -3    5.86    4.92
   1 -27   3   56.29    8.27
  -1 -27  -3   65.27    7.28
   1 -28   3    6.34    5.24
  -1 -28  -3    3.99    3.39
   1 -29   3    3.76    4.50
   1 -30   3    0.85    2.80
   1 -30   3    5.09    3.29
   1 -29  -4  100.92   10.21
  -1 -28   4   11.45    3.96
   1 -28  -4   13.93    5.20
   1 -28  -4   19.62    4.04
   1 -27  -4   28.56    5.36
  -1 -27   4   29.83    5.67
   1 -27  -4   33.35    6.75
   1 -26  -4   -0.99    4.65
  -1 -26   4    2.51    7.96
   1 -26  -4   -6.81    6.12
  -1 -25   4   42.71    9.56
   1 -25  -4   25.72    5.83
   1 -25  -4   34.63    7.14
  -1 -24   4    9.00   10.22
   1 -24  -4    1.13    5.07
   1 -24  -4    6.81    6.31
   1 -23  -4    5.94    6.43
  -1 -23   4   -2.13   10.33
   1 -23  -4    0.92    5.34
  -1 -22   4   10.59   11.75
   1 -22  -4   10.17    6.73
  -1 -21   4  176.25   19.40
   1 -21  -4  161.18   17.05
   1 -20  -4    2.77    6.98
  -1 -20   4    9.00   11.80
   1 -19  -4   41.10    8.18
  -1 -19   4   51.06   13.28
   1 -18  -4   -4.53    6.80
  -1 -18   4    2.91   11.08
   1 -17  -4   79.64   11.66
   1 -17  -4   73.10    9.86
   1 -16  -4   13.59    6.56
   1 -16  -4   22.04    9.11
   1 -15  -4    6.93    5.99
   1 -14  -4    5.23    5.73
   1 -13  -4  452.74   41.15
   1 -12  -4   39.28    6.53
   1 -12  -4   42.94    8.90
   1 -11  -4  222.16   22.36
   1 -11  -4  239.31   23.29
  -1  11  -4  260.98   22.65
  -1  10  -4   -2.75    6.79
   1 -10  -4    3.12    6.06
   1 -10  -4    2.93    7.10
   1  -9  -4    7.21    6.27
   1   6   4   -7.19    7.95
   1  -5  -4  231.47   19.56
   1   5   4  159.84   20.66
   1   4   4   29.54    8.93
   1  -4  -4   43.44    6.72
   1  -3  -4  117.12   11.62
   1   3   4  102.82   13.53
   1  -2  -4    9.27    5.34
   1  -1  -4  292.16   25.05
  -1   1  -4  250.45   25.26
  -1   0  -4  128.65   12.99
   1   0  -4  100.26   12.44
   1   1  -4  250.07   24.52
   1  -1   4  345.88   26.27
   1   2  -4    8.80    4.13
   1  -2   4    0.12   10.03
   1   3  -4  114.41   10.66
  -1  -3  -4   89.77   12.04
  -1  -4  -4   45.50    7.88
   1   4  -4   37.03    4.67
   1   5  -4  178.61   16.76
  -1  -5  -4  190.46   18.37
   1   6  -4    0.71    1.74
   1  -6   4    0.21   10.26
  -1  -6  -4    9.95    7.10
  -1  -7  -4   31.49    8.04
   1  -7   4   20.78   10.53
  -1   8   4    5.86    2.91
   1  -8   4    8.62    9.07
  -1  -8  -4   11.53    7.44
  -1  -9  -4   10.17    7.60
   1  -9   4   15.54    8.44
   1 -10   4    4.56    7.69
  -1 -10  -4   10.19    7.61
   1 -11   4  263.75   26.02
  -1 -11  -4  295.01   26.33
  -1 -12  -4   43.95    8.41
   1 -12   4   45.90    7.31
   1 -12   4   49.60   10.08
  -1 -12  -4   42.20    6.32
   1 -13   4  438.09   40.26
  -1 -13  -4  379.07   39.79
   1  13  -4  467.86   39.82
   1 -13   4  456.35   39.66
  -1 -13  -4  435.02   39.43
   1  14  -4   18.57    7.06
   1 -14   4   12.96    8.57
  -1 -14  -4    7.58    5.35
   1 -14   4   12.45    6.40
  -1 -15  -4    9.47    5.45
   1 -15   4   16.05    8.44
   1 -15   4    3.51    6.97
   1  15  -4   20.80    7.23
  -1 -16  -4   22.99    6.24
   1  16  -4   32.73    7.68
   1 -16   4   25.72    9.64
   1 -16   4   28.25    7.94
   1  17  -4   95.26   11.06
   1 -17   4   75.41   12.30
  -1 -17  -4   76.40   10.01
   1 -17   4   87.45   11.17
   1  18  -4   11.96    7.88
  -1 -18  -4    2.84    5.84
   1 -18   4   -5.16    8.33
   1 -18   4   16.34    8.12
   1 -19   4   56.82   10.32
  -1 -19  -4   50.02    8.13
   1 -19   4   55.64    9.71
  -1 -20  -4   11.22    6.14
   1 -20   4    5.81    8.43
   1 -21   4  141.46   16.67
  -1 -21  -4  161.89   15.68
  -1 -22  -4   15.58    6.36
  -1 -23  -4    2.93    5.99
  -1 -24  -4   -1.42    5.44
  -1 -25  -4   34.06    6.27
  -1 -26  -4    8.56    4.66
   1 -27   4   18.16    6.40
  -1 -27  -4   38.20    5.04
   1 -28   4    9.55    5.16
   1 -29   4   59.89    7.13
   1 -29   4   85.31    7.76
   1 -29  -5    6.72    3.63
  -1 -28   5    3.99    3.43
   1 -28  -5    7.82    4.70
   1 -28  -5   10.63    3.10
  -1 -27   5   38.15    6.27
   1 -27  -5   49.25    7.08
   1 -27  -5   46.58    5.87
  -1 -27   5   64.19    8.52
  -1 -26   5   14.71    8.43
   1 -26  -5    8.42    4.46
   1 -26  -5    2.38    5.91
   1 -25  -5    0.75    4.83
  -1 -25   5    7.13    9.37
   1 -25  -5   -0.07    5.98
   1 -24  -5    2.34    5.09
  -1 -24   5    9.59    9.57
   1 -24  -5   -6.53    6.21
   1 -23  -5   45.79    6.80
   1 -23  -5   40.72    7.98
   1 -22  -5    5.70    5.42
   1 -22  -5    3.18    6.59
   1 -21  -5   -2.28    5.51
   1 -21  -5    4.83    6.98
   1 -20  -5    5.04    6.99
   1 -20  -5   -0.86    5.54
   1 -19  -5   68.02    8.90
   1 -19  -5   81.76   10.30
   1 -18  -5   18.23    5.79
   1 -18  -5   15.39    6.90
   1 -17  -5   58.16    8.61
   1 -17  -5   46.51    7.12
   1 -16  -5    4.30    6.40
   1 -15  -5  143.34   14.85
   1 -14  -5    6.24    5.85
   1 -13  -5   49.98    7.44
   1 -13  -5   39.65    6.45
   1 -13  -5   50.17    9.64
   1 -12  -5   -5.94    5.44
   1 -12  -5    4.36    8.02
   1 -12  -5   -0.60    4.39
   1 -11  -5  133.47   15.14
   1 -11  -5  130.56   13.58
   1 -11  -5  138.25   13.06
   1 -10  -5    9.98    5.28
   1 -10  -5   25.65    4.60
   1 -10  -5   25.92    8.26
   1  -9  -5   26.63    8.23
   1   7   5   18.60    8.70
   1  -6  -5   17.64    5.93
   1   6   5    0.92    8.91
   1  -5  -5   41.82    7.18
   1   5   5   42.67    9.46
   1   4   5   10.40    8.83
   1  -4  -5   15.86    6.21
   1   3   5  273.53   31.17
   1  -3  -5  361.17   30.32
   1  -2  -5   62.09    8.51
   1  -1  -5  380.77   34.61
   1   0  -5   49.98    7.96
   1  -1   5  395.92   34.96
   1   1  -5  360.87   33.58
   1  -2   5   56.08   11.65
   1   2  -5   36.39    6.72
   1   3  -5  305.24   28.34
  -1  -3  -5  292.72   28.94
   1  -4   5   15.29   12.78
  -1  -4  -5   28.68    7.19
   1   4  -5   15.51    4.59
   1  -5   5   48.78   13.84
   1   5  -5   55.44    5.95
  -1  -5  -5   46.91    8.65
   1  -6   5   22.34   12.34
   1   6  -5   12.19    2.86
  -1  -6  -5   14.77    7.29
   1  -7   5   30.79   12.38
  -1   7   5   27.56    4.67
   1   7  -5   20.44    2.72
  -1  -7  -5   28.07    7.62
  -1   8   5    5.63    3.87
   1  -8   5    0.56   11.16
  -1  -8  -5    7.98    7.31
  -1   9   5   11.10    3.83
   1  -9   5   40.96   11.02
  -1  -9  -5   39.94    7.68
   1 -10   5   36.35   10.12
  -1 -10  -5   29.60    8.30
   1 -11   5  150.65   15.60
   1 -11   5  142.87   13.99
  -1 -11  -5  121.07   14.76
   1 -12   5   15.80    9.20
   1 -12   5    2.10    5.93
  -1 -12  -5    0.21    4.93
   1 -13   5   60.06   11.36
   1 -13   5   46.69    8.37
  -1 -13  -5   69.06    7.81
   1  14  -5   16.75    7.34
   1 -14   5   21.96    9.98
   1 -14   5   11.86    6.53
  -1 -14  -5   12.92    5.55
   1  15  -5  170.98   15.60
   1 -15   5  144.50   17.01
   1 -15   5  140.37   15.42
  -1 -15  -5  138.76   14.84
   1 -16   5   10.42    9.00
   1  16  -5   13.41    7.20
   1 -16   5    5.82    7.51
  -1 -16  -5    6.15    5.94
   1 -17   5   52.76   10.05
   1 -17   5   62.22   11.65
   1  17  -5   81.00    9.98
  -1 -17  -5   71.92    9.11
   1 -18   5   25.58    8.13
   1  18  -5   30.26    8.02
   1 -18   5   20.99    9.11
  -1 -18  -5   14.79    6.54
  -1 -19  -5   78.42   10.42
   1 -19   5   80.22   12.71
   1  19  -5  100.92   11.27
  -1 -20  -5    3.65    6.35
  -1 -21  -5   -1.85    6.10
  -1 -22  -5    0.47    6.05
  -1 -23  -5   48.51    7.64
  -1 -24  -5    2.00    5.35
  -1 -25  -5    7.89    4.90
  -1 -26  -5    3.80    4.17
  -1 -27  -5   44.41    5.25
   1 -27   5   39.60    6.84
   1 -28   5   -1.64    4.61
   1 -29   5    2.77    3.46
   1 -29   5    0.80    2.86
   1 -28  -6   -1.78    4.01
   1 -27  -6    6.37    4.98
   1 -26  -6    6.17    3.86
   1 -26  -6    2.35    5.42
   1 -25  -6   17.69    6.09
   1 -25  -6   21.06    4.84
   1 -24  -6    1.61    4.79
   1 -24  -6   -6.54    6.04
   1 -23  -6   22.78    5.61
   1 -23  -6   20.28    6.78
   1 -22  -6    3.25    5.28
   1 -22  -6    2.50    6.57
   1 -21  -6  103.70   11.29
   1 -21  -6   79.17    9.84
   1 -20  -6   14.91    5.79
   1 -20  -6   10.01    7.25
   1 -19  -6   -5.57    7.23
   1 -19  -6    6.04    5.74
   1 -18  -6   22.55    5.86
   1 -18  -6   17.32    7.63
   1 -17  -6    6.71    7.06
   1 -17  -6    5.48    5.50
   1 -16  -6    9.70    6.69
   1 -16  -6   17.76    5.54
   1 -15  -6  183.47   17.66
   1 -15  -6  190.01   18.62
   1 -14  -6   24.10    5.48
   1 -14  -6   17.80    6.95
   1 -13  -6  105.51   10.97
   1 -13  -6  110.94   12.04
   1 -12  -6    3.35    4.43
   1 -12  -6  -10.03    5.99
   1  11   6  100.25   11.75
   1 -11  -6   77.67    9.86
   1 -11  -6   83.70    8.94
   1 -10  -6   11.91    4.45
   1  10   6   19.22    8.44
   1 -10  -6    9.83    5.47
   1  -9  -6  129.36   13.62
   1   9   6  170.30   15.35
   1  -9  -6  129.45   12.97
   1  -8  -6    6.43    7.28
   1   8   6    1.05    8.45
   1  -8  -6    5.58    4.82
   1   7   6  456.92   42.19
   1  -6  -6  246.29   20.64
   1   6   6  160.90   21.81
   1  -5  -6 1068.07   88.86
   1   5   6  875.88   89.30
   1  -4  -6    6.74    6.67
   1   4   6   10.25    8.87
   1  -3  -6   27.70    7.24
   1   3   6   29.81    9.64
   1   2   6   20.10    9.70
   1  -2  -6   20.11    7.09
   1  -1  -6   75.48   10.00
   1   0  -6   83.34   10.42
   1  -1   6   36.59   12.02
   1   1  -6   46.49    7.74
   1   2  -6    8.35    6.23
   1  -2   6   17.15   11.77
   1   3  -6   18.09    6.06
   1  -3   6   26.07   13.52
   1  -4   6   -2.14   13.59
   1   4  -6    2.45    4.96
   1   5  -6 1064.43   92.70
   1  -5   6  912.64   94.45
   1   6  -6  240.30   21.72
   1  -6   6  229.66   26.50
   1   7  -6  536.85   49.25
   1  -7   6  488.66   52.13
  -1   7   6  615.28   49.66
   1   8  -6    8.38    3.48
   1  -8   6    6.54   12.66
  -1   8   6    8.20    4.83
   1  -9   6  132.51   18.36
   1 -10   6   15.62    6.15
   1 -10   6   11.97   11.95
  -1 -10  -6    9.12    4.83
  -1 -11  -6   77.00    9.23
   1 -11   6   90.78    9.65
   1 -11   6   65.14   12.03
   1 -12   6   11.58    8.93
   1 -12   6    5.38    6.07
  -1 -12  -6    5.23    5.31
   1 -13   6   99.63   12.51
   1 -13   6  124.61   14.44
  -1 -13  -6  129.36   12.37
   1 -14   6   18.11    6.88
  -1 -14  -6   19.02    6.34
   1 -15   6  220.46   20.34
   1 -15   6  176.86   19.13
   1  15  -6  211.46   19.42
  -1 -15  -6  181.68   18.78
   1  16  -6   19.32    7.55
   1 -16   6   15.08    9.84
  -1 -16  -6    5.99    6.31
   1  17  -6   11.90    7.60
   1 -17   6   18.40    9.66
  -1 -17  -6   17.27    6.62
   1  18  -6   27.94    8.12
   1 -18   6   38.70    9.98
  -1 -18  -6   21.98    7.28
   1  19  -6    8.90    7.87
  -1 -19  -6   -4.26    6.43
  -1 -20  -6   17.75    6.67
  -1 -21  -6   80.09   10.03
  -1 -22  -6    4.22    6.02
  -1 -23  -6   19.63    5.93
  -1 -24  -6    1.56    4.98
  -1 -25  -6   19.81    4.77
  -1 -26  -6    8.15    3.69
   1 -27   6    9.16    5.09
   1 -28   6    4.46    4.06
   1 -28  -7   -0.84    3.14
   1 -27  -7   11.13    4.40
   1 -26  -7   -0.71    4.88
   1 -25  -7   18.75    6.06
   1 -24  -7   14.13    4.37
   1 -24  -7    1.60    6.24
   1 -23  -7    9.99    4.80
   1 -23  -7   -1.70    6.09
   1 -22  -7   11.44    5.10
  -1 -22   7    7.74   10.78
   1 -22  -7    8.00    6.42
  -1 -21   7   43.86   11.98
   1 -21  -7   40.14    6.46
   1 -21  -7   27.96    7.42
  -1 -20   7    4.88   11.37
   1 -20  -7    2.65    5.35
   1 -20  -7    0.28    6.56
   1 -19  -7    8.12    5.54
  -1 -19   7   12.53   12.63
   1 -19  -7    3.25    6.88
   1 -18  -7    3.15    5.51
  -1 -18   7   -1.73   12.57
   1 -18  -7   -6.12    7.49
   1 -17  -7    3.15    5.47
  -1 -17   7   -0.43   11.87
   1 -17  -7    5.10    7.18
   1 -16  -7    1.85    5.36
   1 -16  -7   -6.92    6.85
   1 -15  -7   16.93    7.46
   1 -15  -7   26.40    5.77
   1 -14  -7   10.96    5.12
   1 -14  -7   -2.99    6.67
   1 -13  -7   24.94    5.36
   1 -13  -7    9.85    6.83
   1 -12  -7    1.51    4.65
   1  12   7    9.63    9.14
   1 -12  -7   -5.66    6.22
   1 -11  -7   48.37    6.32
   1  11   7   43.75   10.43
   1 -11  -7   35.94    7.38
   1 -10  -7   19.31    4.61
   1  10   7   13.54    9.32
   1 -10  -7   14.09    5.94
   1   9   7  265.94   23.55
   1  -9  -7  250.06   22.34
   1  -9  -7  222.20   21.71
   1  -8  -7   11.47    4.15
   1   8   7   21.23    9.43
   1  -8  -7    9.21    5.30
   1  -7  -7  110.23    9.89
   1   7   7   81.50   13.21
   1  -7  -7   85.67   10.52
   1  -6  -7   25.67    5.55
   1   6   7   38.00    9.18
   1  -5  -7   41.88    6.25
   1   5   7   51.89   10.54
   1  -4  -7   12.87    7.04
   1   4   7    8.60    9.22
   1   4   7   10.87    9.45
   1  -4  -7   -2.80    4.38
   1   3   7  252.56   29.10
   1   3   7  245.01   29.05
   1   2   7  133.66   17.02
   1  -2  -7  155.43   15.39
   1   2   7  142.51   16.69
   1  -1  -7  233.78   22.44
   1   0  -7   60.32    9.43
   1  -1   7  141.53   19.55
   1   1  -7  177.27   16.79
   1   2  -7   96.62   11.64
   1  -2   7   90.56   13.68
   1   3  -7  207.78   23.10
   1  -3   7  261.91   24.36
   1   4  -7    2.21    5.82
   1  -4   7    0.25   14.55
   1  -4   7   -1.47    8.12
   1   5  -7   62.48    6.86
   1   5  -7   39.05    5.56
   1  -5   7   44.53    9.48
  -1   6   7   20.42    6.26
   1   6  -7   32.67    5.10
   1   6  -7   22.97    4.21
   1  -6   7   18.68    9.01
   1   7  -7   83.65    9.26
  -1   7   7   93.31   10.32
  -1  -8  -7    9.72    4.73
   1   8  -7   10.73    3.72
   1  -8   7   12.69    6.36
   1  -9   7  243.12   22.93
  -1  -9  -7  242.78   22.61
   1 -10   7   19.99    6.45
  -1 -10  -7   17.96    5.44
   1 -11   7   43.07    7.09
  -1 -11  -7   36.60    6.75
   1 -12   7    9.29    9.23
  -1 -12  -7   -0.57    5.58
   1 -12   7    3.61    6.13
   1 -13   7   26.95    9.79
   1 -13   7   24.39    6.88
  -1 -13  -7   18.65    6.31
   1 -14   7   18.07    9.63
  -1 -14  -7    9.99    6.34
   1 -15   7   29.98    9.93
  -1 -15  -7   18.59    6.60
   1  16  -7    5.20    7.68
   1 -16   7    9.71    9.76
  -1 -16  -7   -8.59    6.48
   1  17  -7   -0.89    7.67
   1 -17   7   17.08    9.38
  -1 -17  -7    3.29    6.54
   1 -18   7    3.35    9.15
   1  18  -7   -4.28    7.49
  -1 -18  -7   -2.23    6.48
  -1 -19  -7    8.83    6.45
   1  19  -7   13.85    7.53
  -1 -20  -7    6.11    6.31
   1  20  -7    8.26    7.35
  -1 -21  -7   34.71    6.97
  -1 -22  -7    7.69    5.68
  -1 -23  -7    8.44    5.10
  -1 -24  -7    7.47    4.62
  -1 -25  -7   18.60    4.25
   1 -27   7    7.62    4.43
   1 -28   7    4.83    3.08
   1 -27  -8    2.34    3.34
  -1 -26   8   10.09    5.69
   1 -26  -8   -8.20    4.49
  -1 -25   8   76.01   10.06
   1 -25  -8   78.66    8.87
  -1 -24   8   11.57    8.37
   1 -24  -8   17.88    5.93
  -1 -23   8  142.30   14.62
   1 -23  -8  110.28   12.94
  -1 -22   8   11.70    9.60
   1 -22  -8   -1.39    5.94
  -1 -21   8   14.16   11.08
   1 -21  -8   17.98    5.00
   1 -21  -8    4.42    6.30
   1 -20  -8   16.03    6.89
  -1 -20   8   20.23   11.74
   1 -20  -8   18.54    5.31
   1 -19  -8   10.93    5.27
  -1 -19   8   -0.10   11.17
   1 -19  -8    2.20    6.43
   1 -18  -8   24.19    5.82
   1 -18  -8   20.09    7.03
   1 -17  -8  149.49   14.68
  -1 -17   8  142.93   19.20
   1 -17  -8  150.96   15.83
   1 -16  -8   17.13    5.53
   1 -16  -8    6.14    6.77
   1 -15  -8   66.96    7.87
   1 -15  -8   50.31    9.22
   1 -14  -8   17.66    5.40
   1 -14  -8    0.62    6.98
   1 -13  -8   30.12    5.61
   1 -13  -8   12.63    6.99
   1 -12  -8   18.55    5.11
   1  12   8   26.03   10.37
   1 -12  -8   -0.65    6.58
   1  11   8   44.95   11.17
   1 -11  -8   35.43    5.79
   1 -11  -8   32.48    7.31
   1 -10  -8   10.40    4.65
   1 -10  -8    0.37    5.98
   1  10   8    6.77   10.42
   1  -9  -8  582.25   50.63
   1   9   8  517.35   51.52
   1   8   8  160.28   19.04
   1  -8  -8  172.13   16.58
   1   7   8  731.92   64.14
   1  -7  -8  689.34   63.06
   1   6   8   -0.35   10.50
  -1   6  -8    6.15    3.43
   1  -6  -8   -1.46    5.01
   1  -5  -8  180.34   15.19
  -1   5  -8  146.61   14.38
   1   5   8  133.53   17.91
   1  -4  -8   27.25    5.69
  -1   4  -8   33.52    4.47
   1   4   8   34.30   10.90
  -1   3  -8   26.05    4.04
   1  -3  -8   28.72    5.29
   1   3   8   36.73   10.99
   1   2   8  102.38   13.64
  -1   2  -8  124.93    9.38
   1  -1  -8 1104.40   94.63
   1   1   8  947.44   95.52
   1   0  -8  606.31   54.32
   1   1  -8 1076.05   93.80
   1   1  -8 1033.83   93.41
   1   2  -8   39.12    9.65
   1  -2   8   57.18   11.59
   1   3  -8   32.44    5.16
  -1  -3  -8   40.37    5.01
   1   3  -8   33.17    7.76
   1  -3   8   22.45   10.06
   1   4  -8   38.99    7.09
   1  -4   8   22.22   10.38
  -1  -4  -8   35.77    5.20
   1   4  -8   30.25    4.96
  -1  -5  -8  156.13   15.17
   1   5  -8  158.14   14.99
   1  -5   8  196.10   16.52
  -1   5   8  141.57   16.33
   1  -6   8    8.40    6.99
   1   6  -8    8.83    3.73
  -1  -6  -8    1.75    4.42
  -1  -7  -8  700.15   58.70
   1  -7   8  613.48   58.99
   1   7  -8  641.37   58.53
   1  -8   8  168.13   15.92
  -1  -8  -8  151.33   15.19
   1   8  -8  154.16   14.82
   1   9  -8  480.02   45.71
   1  -9   8  600.80   46.21
  -1  -9  -8  476.45   45.96
   1 -10   8    2.06    6.03
  -1 -10  -8    0.36    5.33
  -1 -11  -8   46.88    6.98
   1 -11   8   30.23    7.31
  -1 -12  -8    7.05    5.97
  -1 -13  -8    5.14    6.11
   1 -14   8   15.67    8.98
  -1 -14  -8    7.66    6.33
   1 -15   8   85.83   11.47
  -1 -15  -8   67.45    9.60
   1  16  -8   11.51    8.02
   1 -16   8   16.65    9.05
  -1 -16  -8    5.36    6.49
   1  17  -8  171.77   18.22
  -1 -17  -8  183.76   17.78
   1  18  -8   23.99    8.00
  -1 -18  -8   14.66    6.62
   1  19  -8    5.63    7.53
  -1 -19  -8    6.76    6.07
   1  20  -8   22.22    7.81
  -1 -20  -8   11.49    6.04
  -1 -21  -8    5.20    5.61
  -1 -22  -8   11.43    5.18
  -1 -23  -8  114.84   11.53
  -1 -24  -8    9.79    3.93
   1 -27   8    6.29    3.38
  -1 -26   9   11.64    4.36
   1 -26  -9   -0.61    3.33
   1 -25  -9   -5.69    4.44
  -1 -25   9    8.17    5.62
  -1 -24   9    8.06    6.98
   1 -24  -9   10.71    5.18
  -1 -23   9   27.22    8.29
   1 -23  -9   30.93    6.37
  -1 -22   9   13.63    9.25
   1 -22  -9   27.43    6.49
  -1 -21   9    7.21    9.92
   1 -21  -9    5.38    5.84
  -1 -20   9    4.75   10.94
   1 -20  -9    4.87    6.02
  -1 -19   9   96.54   14.24
   1 -19  -9   91.40   11.03
  -1 -18   9    4.17   11.40
   1 -18  -9    1.34    6.56
   1 -17  -9    2.65    6.34
  -1 -17   9    4.14   12.42
  -1 -16   9   -3.69   12.65
   1 -16  -9    0.28    6.90
   1 -15  -9   48.92    8.42
   1 -14  -9    5.61    6.94
   1 -13  -9   23.53    7.25
   1  12   9    6.65   10.22
   1 -12  -9    0.51    6.37
   1  11   9   53.93   11.85
   1 -11  -9   41.49    8.01
   1  10   9   18.53   11.33
   1 -10  -9   -0.94    6.14
   1   9   9    9.37   11.32
   1  -9  -9    0.90    6.16
   1  -8  -9    3.67    5.92
   1   8   9   17.67   11.76
   1   7   9  237.99   28.09
   1  -7  -9  297.70   26.21
  -1   6  -9   38.15    5.46
   1   6   9   29.87   12.34
   1  -6  -9   50.08    6.88
  -1   5  -9   20.61    4.51
   1  -5  -9   40.06    6.09
   1   5   9   38.88   12.32
  -1   4  -9   23.23    4.11
   1  -4  -9   14.34    5.32
   1   4   9   25.08   11.14
   1  -3  -9  358.99   28.04
   1   3   9  286.35   30.43
  -1   3  -9  280.19   27.53
   1   2   9  162.10   17.14
  -1   2  -9  145.59   12.36
  -1   1  -9  174.35   18.04
   1  -1  -9  228.17   18.41
   1   1   9  202.31   21.48
   1   0  -9  110.35   10.28
  -1   0  -9   93.09    9.97
  -1  -1  -9  207.05   20.14
   1   1  -9  234.93   20.34
  -1  -2  -9  141.99   12.42
   1   2  -9  111.44   12.49
   1  -3   9  288.50   28.53
   1   3  -9  338.08   26.43
  -1  -3  -9  252.25   26.23
   1   4  -9   12.63    4.24
  -1  -4  -9   12.98    4.32
   1  -5   9   26.88    8.55
  -1  -5  -9   40.09    5.80
   1   5  -9   38.97    5.27
   1  -6   9   46.34    8.78
  -1  -6  -9   44.43    6.63
   1   6  -9   46.44    6.03
  -1  -7  -9  259.52   24.75
   1  -7   9  322.56   25.50
   1   7  -9  249.19   24.48
   1   8  -9    7.92    4.36
  -1  -8  -9   -1.14    5.19
   1  -8   9   13.65    6.85
   1  -9   9   12.28    6.56
   1   9  -9   15.85    4.66
  -1  -9  -9   12.06    5.54
  -1 -10  -9    1.97    5.69
  -1 -11  -9   35.69    7.15
  -1 -12  -9    2.90    6.12
  -1 -13  -9   28.51    7.11
  -1 -14  -9    1.02    6.38
  -1 -15  -9   54.38    8.55
   1  16  -9    0.90    8.05
  -1 -16  -9   -0.36    6.38
   1  17  -9    1.79    7.86
  -1 -17  -9   -4.78    6.38
  -1 -18  -9  -10.58    6.30
   1  18  -9    1.13    7.46
   1  19  -9   90.06   11.16
  -1 -19  -9   85.25   10.20
   1  20  -9   11.63    7.09
  -1 -20  -9    0.16    5.39
  -1 -21  -9   -0.19    4.92
  -1 -22  -9    2.17    4.43
  -1 -23  -9   23.62    4.34
  -1 -25  10   16.56    4.05
   1 -25 -10    8.62    3.35
  -1 -24  10    5.72    5.32
   1 -24 -10   -4.22    4.10
  -1 -23  10   36.91    7.32
   1 -23 -10   22.99    5.50
  -1 -22  10    7.83    7.02
   1 -22 -10   -4.32    5.38
  -1 -21  10   70.90    9.62
   1 -21 -10   43.08    7.70
  -1 -20  10    6.31    9.77
   1 -20 -10   -0.07    6.09
   1 -19 -10   15.89    6.52
  -1 -19  10   46.39   10.40
   1 -18 -10   -4.28    6.25
  -1 -18  10   -3.34   11.44
  -1 -17  10   53.50   12.59
   1 -17 -10   28.46    7.50
  -1 -16  10    6.65   12.34
   1 -16 -10    0.35    6.57
  -1 -15  10   87.28   14.60
   1 -15 -10   74.87   10.22
   1 -14 -10   -3.96    6.75
   1 -13 -10   58.14    9.29
   1 -12 -10   -7.05    7.09
   1  11  10    8.16   11.12
   1 -11 -10   -4.16    6.92
   1  10  10    1.66   11.53
   1 -10 -10   -4.31    6.34
   1  -9 -10    3.16    5.96
   1   9  10    9.49   11.81
   1   8  10    5.23   11.98
   1  -8 -10    3.09    5.99
   1   7  10   98.20   16.74
   1  -7 -10  117.02   12.28
  -1   6 -10   19.26    4.57
   1   6  10   10.30   12.44
   1  -6 -10   18.33    5.93
   1   5  10  129.12   19.43
  -1   5 -10  141.05   14.68
  -1   4 -10   27.23    4.62
   1  -4 -10   15.56    5.76
   1   4  10   27.39   12.50
   1  -3 -10  356.00   30.24
   1   3  10  267.81   32.73
  -1   3 -10  324.39   29.87
   1  -2 -10  191.49   21.84
   1   2  10  264.44   25.47
  -1   2 -10  265.43   21.65
   1  -1 -10  446.73   34.23
   1   1  10  413.83   36.90
  -1   1 -10  327.55   33.88
  -1   0 -10  223.08   21.58
   1   0 -10  250.16   21.90
   1   1 -10  436.82   38.30
  -1  -1 -10  411.88   38.14
  -1  -2 -10  256.95   22.02
   1   2 -10  218.63   22.00
   1   3 -10  319.73   27.12
  -1  -3 -10  275.67   27.01
   1   4 -10   18.35    5.09
  -1  -4 -10   29.45    5.17
   1  -5  10  175.71   18.01
  -1  -5 -10  171.92   16.64
   1   5 -10  177.49   16.54
  -1  -6 -10   24.92    5.28
   1  -6  10   24.00    8.23
   1   6 -10   20.06    4.94
  -1  -7 -10  114.45   11.76
   1   7 -10  103.38   11.28
   1  -7  10  128.91   12.89
   1   8 -10    5.73    4.60
  -1  -8 -10    3.76    5.61
   1  -8  10   11.80    6.92
  -1  -9 -10    2.91    5.58
  -1 -10 -10    4.01    5.88
  -1 -11 -10    9.59    6.10
  -1 -12 -10   -0.89    6.28
  -1 -13 -10   51.44    8.09
  -1 -14 -10    5.44    6.10
  -1 -15 -10   83.27   10.11
   1  16 -10    8.78    8.15
  -1 -16 -10   -1.55    6.08
   1  17 -10   38.06    8.31
  -1 -17 -10   19.59    6.66
   1  18 -10    2.09    7.45
  -1 -18 -10   -0.50    5.46
   1  19 -10   36.28    8.03
  -1 -19 -10   31.34    6.10
   1  20 -10   10.03    6.67
  -1 -20 -10    2.64    4.62
  -1 -21 -10   47.36    6.07
  -1 -22 -10    5.70    3.38
   1 -24 -11    7.12    2.77
  -1 -23  11   37.37    5.71
   1 -23 -11   28.73    4.84
  -1 -22  11    7.08    6.02
   1 -22 -11   -1.33    4.43
  -1 -21  11    8.74    7.16
   1 -21 -11   -9.59    5.08
  -1 -20  11    5.65    7.74
   1 -20 -11   -3.12    5.15
  -1 -19  11   70.57    9.42
   1 -19 -11   30.60    7.03
  -1 -18  11    7.04    9.65
   1 -18 -11    1.90    5.85
  -1 -17  11   15.99   10.95
   1 -17 -11   -4.22    5.90
  -1 -16  11   10.48   10.94
   1 -16 -11   -2.93    6.07
  -1 -15  11  120.05   15.61
   1 -15 -11  106.92   12.27
  -1 -14  11   20.90   11.35
   1 -14 -11   13.16    6.69
   1 -13 -11   30.69    7.38
   1 -12 -11   -2.46    6.16
   1 -11 -11   34.74    7.26
   1 -10 -11    7.59    6.53
   1  -9 -11   78.65   10.13
   1  -8 -11   -2.03    6.14
   1  -7 -11   65.87    8.94
   1  -6 -11   19.46    6.23
  -1   5 -11   20.41    5.05
   1  -5 -11   32.67    5.99
   1  -4 -11    9.99    5.46
  -1   4 -11   18.02    4.71
   1  -3 -11  312.28   28.41
  -1   3 -11  306.30   28.11
   1  -2 -11  130.70   14.54
  -1   2 -11  161.81   14.24
   1  -1 -11  104.61    9.75
  -1   1 -11   77.17    9.08
  -1   0 -11   46.04    6.53
   1   0 -11   59.30    7.19
  -1  -1 -11  112.14   11.55
   1   1 -11  119.86   11.81
   1   2 -11  140.67   15.52
  -1  -2 -11  184.82   15.64
   1   3 -11  291.25   25.61
   1  -3  11  339.15   26.93
  -1  -4 -11    4.56    5.07
   1   4 -11   12.29    4.48
  -1  -5 -11   21.17    5.64
   1  -5  11   21.97    8.34
   1   5 -11   35.17    5.26
   1  -6  11   14.04    7.56
  -1  -6 -11   16.46    5.11
   1   6 -11   12.06    4.74
   1   7 -11   47.52    6.90
  -1  -7 -11   50.44    7.16
   1  -7  11   66.64    8.82
  -1  -8 -11    8.83    5.16
   1   8 -11   -1.65    4.72
  -1  -9 -11   85.34    9.81
  -1 -10 -11   11.10    5.94
  -1 -11 -11   27.02    6.39
  -1 -12 -11    5.43    5.90
  -1 -13 -11   46.60    7.65
  -1 -14 -11   21.46    6.41
  -1 -15 -11  104.60   11.49
   1  16 -11    0.29    7.87
  -1 -16 -11   -1.93    5.45
   1  17 -11    7.85    7.55
  -1 -17 -11   10.10    5.28
   1  18 -11    9.11    7.18
  -1 -18 -11   11.86    4.92
   1  19 -11   56.12    8.21
  -1 -19 -11   41.50    6.10
  -1 -20 -11    3.30    3.42
   1  20 -11    4.53    6.17
   1 -22 -12    6.19    3.09
  -1 -21  12  135.84   13.70
   1 -21 -12  146.47   13.50
  -1 -20  12   32.74    6.26
   1 -20 -12   24.21    5.26
  -1 -19  12  124.09   11.89
   1 -19 -12   94.30   10.95
  -1 -18  12   14.14    7.55
   1 -18 -12   -1.39    5.17
  -1 -17  12   22.42    8.56
   1 -17 -12    0.51    5.45
  -1 -16  12   -1.76    9.29
   1 -16 -12   -3.68    5.40
  -1 -15  12   27.91   10.04
   1 -15 -12    4.76    5.70
   1 -14 -12    8.13    5.84
  -1 -14  12   14.81   10.51
  -1 -13  12  199.13   20.39
   1 -13 -12  176.39   18.00
  -1 -12  12   13.79   11.42
   1 -12 -12    7.76    6.10
   1 -11 -12  136.50   14.14
   1 -10 -12    8.47    5.95
   1  -9 -12   23.97    6.32
   1  -8 -12   19.93    6.50
   1  -7 -12   14.16    5.96
   1  -6 -12   14.83    5.79
   1  -5 -12  310.00   26.21
  -1   5 -12  262.36   25.77
  -1   4 -12   78.31    8.09
   1  -4 -12   57.70    8.68
  -1   3 -12  131.67   13.23
   1  -3 -12  140.77   13.68
  -1   2 -12   45.61    6.37
   1  -2 -12   44.98    7.13
   1  -1 -12  193.53   18.34
  -1   1 -12  190.80   18.06
  -1   0 -12  233.58   20.10
   1   0 -12  193.22   20.29
  -1  -1 -12  141.57   14.37
   1   1 -12  155.64   14.62
   1   2 -12   61.72    7.12
   1  -2  12   35.81   10.07
  -1  -2 -12   47.51    6.93
  -1  -3 -12  145.31   14.32
   1  -3  12  133.99   15.98
   1   3 -12  153.03   14.28
   1  -4  12   73.37   10.45
  -1  -4 -12   59.03    8.08
   1   4 -12   68.14    7.85
   1  -5  12  299.59   26.41
   1   5 -12  276.89   25.59
  -1  -5 -12  265.59   25.70
   1   6 -12   10.66    4.92
  -1  -6 -12    5.19    5.36
  -1  -7 -12   18.17    5.65
   1   7 -12   21.44    5.13
  -1  -8 -12   10.18    5.43
  -1  -9 -12    9.76    5.34
  -1 -10 -12    6.45    5.36
  -1 -11 -12  129.01   13.07
  -1 -12 -12   10.30    5.34
  -1 -13 -12  183.35   17.59
  -1 -14 -12   18.19    5.28
   1  15 -12   10.58    8.08
  -1 -15 -12    8.82    4.86
  -1 -16 -12   10.03    4.46
   1  16 -12   -3.74    7.36
  -1 -17 -12   14.86    4.25
   1  17 -12   14.32    7.02
  -1 -18 -12    5.09    3.48
   1  18 -12    9.82    6.63
   1  19 -12  107.45   11.69
   1  20 -12   34.80    5.89
   1 -21 -13   -1.75    2.33
   1 -20 -13    1.83    2.97
   1 -19 -13   61.21    6.91
   1 -18 -13    6.84    4.24
   1 -17 -13   50.99    6.68
   1 -16 -13    3.32    4.81
   1 -15 -13   14.76    5.41
  -1 -15  13   32.21    8.15
  -1 -14  13   12.69    8.70
   1 -14 -13    7.58    5.04
  -1 -13  13   45.17    9.49
   1 -13 -13   28.38    6.29
  -1 -12  13    6.68    9.55
   1 -12 -13    7.12    5.12
   1 -11 -13   28.17    5.97
   1 -10 -13   17.17    5.58
   1  -9 -13  110.70   11.62
   1  -8 -13    5.62    4.97
   1  -7 -13  132.03   13.37
   1  -6 -13   32.05    6.35
   1  -5 -13  149.86   14.86
  -1   4 -13   18.28    4.98
   1  -4 -13   11.17    5.70
  -1   3 -13  200.76   18.45
   1  -3 -13  190.44   18.75
  -1   2 -13  131.48   11.68
   1  -2 -13   94.90   11.91
   1  -1 -13   70.49    8.64
  -1   1 -13   76.74    8.47
  -1   0 -13   46.63    7.17
   1   0 -13   70.81    7.49
   1   1 -13   97.46   10.62
  -1  -1 -13  114.67   10.58
   1   2 -13  118.46   12.91
   1  -2  13  115.61   14.75
  -1  -2 -13  147.85   12.98
   1   3 -13  165.61   15.98
  -1  -3 -13  146.73   15.93
   1  -4  13   20.22    7.56
   1   4 -13   21.09    5.29
  -1  -4 -13   12.68    5.14
  -1  -5 -13  158.20   15.69
   1   5 -13  166.01   15.55
   1   6 -13   53.18    6.77
  -1  -6 -13   46.05    6.97
  -1  -7 -13  112.04   11.56
   1   7 -13  110.36   11.39
  -1  -8 -13   -5.08    5.05
  -1  -9 -13  129.46   13.01
  -1 -10 -13   13.90    5.29
  -1 -11 -13    4.03    4.92
  -1 -12 -13   -0.91    4.79
  -1 -13 -13   19.24    5.01
   1  14 -13    6.28    7.91
  -1 -14 -13   -4.03    4.30
  -1 -15 -13    9.83    4.05
   1  15 -13   17.37    7.48
   1  16 -13   -0.05    6.70
  -1 -16 -13   -4.43    3.51
   1  17 -13   51.58    8.05
   1  18 -13   17.64    5.89
   1  19 -13   61.09    7.46
   1 -19 -14    3.80    2.34
   1 -18 -14   -0.78    2.97
   1 -17 -14   34.04    4.84
   1 -16 -14   -3.54    3.93
   1 -15 -14   46.08    6.13
   1 -14 -14   -2.25    4.31
   1 -13 -14   84.77    9.25
   1 -12 -14    3.84    4.79
   1 -11 -14   23.43    5.38
   1 -10 -14   -2.98    4.72
   1  -9 -14   48.08    6.88
   1  -8 -14   14.62    5.11
   1  -7 -14  169.53   16.35
   1  -6 -14    5.83    4.87
   1  -5 -14   19.77    5.29
   1  -4 -14    9.09    4.89
   1  -3 -14   94.44   10.11
  -1   2 -14   96.17    8.88
   1  -2 -14   63.52    8.86
  -1   1 -14   73.25    8.39
   1  -1 -14   68.96    8.47
   1   0 -14   66.73    7.01
   1   0  14   37.54   10.10
  -1   0 -14   49.26    7.08
  -1  -1 -14  109.67    9.80
   1   1 -14   86.47    9.62
   1  -2  14   81.63   11.58
  -1  -2 -14  102.46   10.08
   1   2 -14   93.36   10.00
  -1  -3 -14   80.23    9.19
   1   3 -14   89.12    9.22
   1   4 -14    9.02    4.55
  -1  -4 -14   12.36    4.78
  -1  -5 -14   26.73    5.26
   1   5 -14   30.80    5.28
  -1  -6 -14   17.20    4.90
  -1  -7 -14  193.54   18.14
  -1  -8 -14   28.02    5.28
  -1  -9 -14   58.73    7.14
  -1 -10 -14   -1.52    4.22
  -1 -11 -14   29.53    5.00
  -1 -12 -14    7.99    3.87
  -1 -13 -14   81.30    8.31
   1  13 -14   87.22   10.84
   1  14 -14    7.39    6.90
  -1 -14 -14    1.97    3.10
   1  15 -14   57.88    8.31
   1  16 -14   11.26    5.95
   1  17 -14   46.88    6.77
   1 -16 -15   -1.25    2.56
   1 -15 -15   22.73    3.84
   1 -14 -15    1.51    3.50
   1 -13 -15   31.72    4.89
   1 -12 -15   -1.57    4.00
   1 -11 -15   33.78    5.37
   1 -10 -15    1.30    4.21
   1  -9 -15    6.16    4.46
   1  -8 -15   -1.35    4.38
   1  -7 -15   36.33    5.56
   1  -6 -15    9.17    4.57
   1  -5 -15    7.92    4.39
   1  -4 -15   12.75    4.54
   1  -3 -15  166.75   15.07
   1   3  15  132.88   16.95
   1  -2 -15  157.72   14.80
   1   2  15  146.54   16.43
   1  -1 -15  223.23   21.01
   1   1  15  235.59   22.10
   1   0 -15  204.72   18.07
  -1   0 -15  181.20   17.95
   1   1 -15  241.12   23.60
  -1  -1 -15  271.93   23.57
   1   2 -15  171.65   17.93
  -1  -2 -15  211.91   17.95
  -1  -3 -15  143.81   13.98
   1   3 -15  148.64   14.04
  -1  -4 -15   27.53    4.90
   1   4 -15   19.49    4.78
  -1  -5 -15   22.66    4.65
  -1  -6 -15   20.93    4.46
  -1  -7 -15   48.57    5.96
  -1  -8 -15    4.21    3.62
  -1  -9 -15   13.96    3.69
  -1 -10 -15   10.33    3.28
  -1 -11 -15   37.90    4.55
   1  12 -15    4.51    7.02
   1  13 -15   36.39    7.10
   1  14 -15    8.63    5.80
   1  15 -15   26.17    5.62
   1 -13 -16    6.29    2.46
   1  12  16    9.61    5.52
   1 -12 -16    8.23    2.84
   1  11  16    6.41    5.99
   1 -11 -16    1.07    3.02
   1  10  16   16.30    6.50
   1 -10 -16    5.77    3.39
   1  -9 -16  325.43   29.29
   1   9  16  322.58   30.05
   1  -8 -16   77.90    8.12
   1   8  16   84.37   10.23
   1  -7 -16  239.97   22.55
   1   7  16  265.91   23.53
   1   6  16    7.80    7.12
   1  -6 -16    7.17    3.71
   1   5  16   28.49    7.32
   1  -5 -16   33.03    4.80
   1  -4 -16   30.96    4.84
   1  -3 -16   55.81    6.50
   1  -2 -16  147.47   14.07
   1  -1 -16  445.82   40.11
   1   0 -16  413.75   37.28
   1   1 -16  395.64   35.66
   1   2 -16  171.39   16.07
  -1  -4 -16   29.71    4.43
  -1  -5 -16   25.27    4.00
  -1  -6 -16    6.13    3.05
  -1  -7 -16  223.56   20.20
   1  12 -16    8.73    5.12
   1  13 -16   13.27    4.57
   1  -9 -17   10.59    2.43
   1  -8 -17    2.28    2.46
   1  -7 -17   51.42    5.48
   1  -6 -17   15.02    3.27
   1  -5 -17   55.29    5.93
   1  -4 -17    8.87    3.20
   1  -3 -17   22.64    3.82
   1  -2 -17   30.03    4.33
   1  -1 -17   38.76    4.92
   1   0 -17   26.85    5.96
   1   1 -17   35.04    6.71
   1   2 -17   21.24    6.10
   1   3 -17   12.35    6.28
   1   4 -17   15.34    6.03
   1   5 -17   49.48    7.52
   1   6 -17   14.51    5.89
   1   7 -17   54.69    7.43
   1   8 -17    4.63    4.92
   1   9 -17   11.39    4.46
  -2   0   0 5990.99  538.88
  -2   0   0 6110.43  538.49
  -2   1   0 8260.12  707.12
  -2  -1   0 8199.74  707.20
  -2  -1   0 7950.12  706.73
  -2   1   0 7749.77  706.76
  -2   2   0 1288.81  126.23
  -2  -2   0 1590.90  125.94
  -2   2   0 1476.78  125.95
  -2  -3   0  500.32   47.55
  -2  -3   0  463.82   46.11
  -2   3   0  507.16   46.39
  -2  -4   0  166.08   21.95
  -2  -4   0  179.08   19.50
  -2   4   0  209.74   20.08
  -2  -5   0   80.76    9.37
  -2   5   0   95.41   10.73
  -2  -6   0   52.31    6.28
   2  -6   0   65.92    8.33
  -2   6   0   66.95    8.24
   2  -7   0  750.18   66.66
   2  -7   0  743.32   67.08
  -2   7   0  744.39   66.72
   2  -8   0  637.67   56.41
   2   8   0  580.53   56.99
   2  -8   0  661.38   56.93
   2  -9   0  804.68   69.54
   2   9   0  747.72   70.10
   2  -9   0  757.74   69.99
   2 -10   0   46.34    7.22
   2 -10   0   40.37    8.73
   2  10   0   43.67    9.41
   2 -11   0   40.16    7.47
   2  11   0   42.63    9.40
   2 -12   0    8.38    6.86
   2  12   0   21.55    8.13
   2  13   0   58.02   10.17
   2 -14   0    5.09    6.11
   2  14   0   23.82    7.98
   2  15   0  379.52   28.86
   2 -15   0  340.10   30.06
  -2 -16   0  189.72   21.85
   2  16   0  245.14   20.79
   2 -16   0  231.29   22.76
   2 -16   0  178.39   19.82
   2  17   0  243.49   19.80
  -2 -17   0  181.66   20.72
   2 -17   0  219.90   21.71
   2 -17   0  156.35   18.86
   2 -18   0   43.77    8.44
  -2 -18   0   44.81   11.42
   2  18   0   65.35    9.84
   2 -18   0   74.49   13.05
   2 -19   0    7.72    6.46
   2 -19   0    6.74   12.16
   2 -19   0   -1.37    6.95
  -2 -19   0   12.64    9.35
   2  19   0   13.93    8.12
   2 -20   0    4.91    6.71
  -2 -20   0    5.59    8.55
   2  20   0   11.86    7.98
   2 -20   0   -3.74   12.19
   2 -20   0    2.75    6.30
   2 -21   0    3.88    6.18
   2 -21   0    0.06    6.05
  -2 -21   0    8.68    7.81
   2 -21   0   -0.64   11.47
   2 -22   0    5.24    5.89
   2 -22   0    0.06    5.54
  -2 -22   0    4.80    6.92
   2 -22   0    3.18   11.29
   2 -23   0    4.33    5.59
  -2 -23   0   16.57    6.12
   2 -23   0   19.80    5.85
   2 -23   0   25.85   11.14
   2 -24   0   24.98    5.84
   2 -24   0   34.04    6.06
   2 -25   0   29.72    5.69
   2 -25   0   41.56    5.93
   2 -26   0   10.44    4.21
   2 -26   0    8.05    4.21
   2 -27   0    9.72    3.74
   2 -26  -1    9.20    4.14
  -2 -25   1   13.81    5.39
   2 -25  -1   13.08    4.96
  -2 -24   1    5.03    6.22
   2 -24  -1    9.94    5.39
  -2 -23   1   17.06    7.84
   2 -23  -1   15.64    5.84
   2 -22  -1    6.73    5.92
  -2 -22   1   13.47    8.40
   2 -22  -1    4.29   10.69
   2 -21  -1    7.02    6.31
  -2 -21   1   16.03    9.26
   2 -21  -1   15.81   11.77
   2 -20  -1    2.43    6.27
   2 -20  -1   -2.30    6.08
  -2 -20   1    5.11    9.60
   2  20   1    3.98    7.94
   2 -20  -1    8.60   11.26
   2 -19  -1   13.39    6.73
   2 -19  -1   15.70    6.93
  -2 -19   1   13.36   10.77
   2 -19  -1   20.79   12.17
   2  19   1   27.14    8.63
   2 -18  -1    7.41    6.71
   2 -18  -1    2.74    7.07
  -2 -18   1    2.27   11.42
   2  18   1   -0.51    8.26
   2 -18  -1   -0.27   12.12
   2 -17  -1   -0.53    6.58
   2 -17  -1    0.15    7.24
  -2 -17   1   -0.97   11.74
   2  17   1    6.16    8.52
   2 -17  -1   29.97   12.00
   2 -16  -1   -1.70    6.52
   2 -16  -1  -12.71    7.47
   2  16   1    1.29    8.33
   2 -15  -1   24.07    7.07
   2 -15  -1   23.47    7.95
   2  15   1   46.53    9.19
   2 -14  -1   29.79    7.17
   2 -14  -1   32.66    8.32
   2  14   1   54.67    9.07
   2 -13  -1   17.15    6.16
   2 -13  -1   14.48    7.04
   2  13   1   22.41    8.65
   2 -12  -1    2.73    6.64
   2 -12  -1    1.38    9.00
   2  12   1    2.29    7.78
   2 -11  -1  176.74   16.90
   2  11   1  169.25   17.75
   2 -11  -1  160.40   18.14
   2 -10  -1  117.02   11.73
   2  10   1  106.85   13.21
   2 -10  -1   99.70   13.30
   2  -9  -1   19.69    5.50
   2  -9  -1   10.57    7.60
   2   9   1   -0.49    7.64
   2  -8  -1   10.71    4.84
   2  -8  -1   15.81    6.94
   2   8   1   -3.44    8.36
   2  -7  -1   66.42    8.10
   2  -7  -1   71.35    6.47
   2   7   1   47.11    9.34
   2  -6  -1   24.49    6.56
   2  -6  -1   27.29    4.37
  -2  -5   1   35.69   10.96
  -2   5  -1   34.60    6.82
  -2  -4   1   45.40    5.85
  -2   4  -1   36.62    7.59
   2   4   1   51.31    8.61
  -2  -4   1   44.90   11.49
  -2   4  -1   38.23    7.13
  -2  -3   1  111.56   10.04
  -2   3  -1   99.08   10.81
  -2   3  -1   86.87   10.69
  -2  -2   1  582.12   50.40
  -2   2  -1  563.11   50.54
  -2  -2   1  513.35   51.54
  -2   2  -1  554.69   50.91
  -2   1  -1  607.93   54.49
  -2  -1   1  606.79   54.82
  -2  -1   1  581.08   53.91
  -2   1  -1  624.98   54.01
  -2   0   1   93.52   10.43
  -2   0   1   71.29   11.96
  -2   0  -1   53.08   12.08
  -2  -1  -1  524.98   54.42
  -2   1   1  642.82   54.24
  -2   1   1  638.94   53.61
  -2  -1  -1  570.22   53.55
  -2  -2  -1  510.80   53.19
  -2   2   1  634.33   53.08
  -2   2   1  625.82   52.42
  -2  -2  -1  556.59   52.31
  -2  -3  -1   94.88   13.50
  -2   3   1  109.80   12.37
  -2   3   1  109.92   11.10
  -2  -3  -1   94.41   10.54
   2   4  -1   56.41    9.99
  -2  -4  -1   65.07   11.72
  -2   4   1   59.71    8.74
  -2  -4  -1   49.90    7.65
   2   5  -1   42.32    8.50
  -2   5   1   41.95    7.73
  -2  -5  -1   41.55    5.85
  -2   5   1   55.80    7.87
   2  -5   1   27.53    6.84
  -2  -6  -1   22.98    4.69
  -2   6   1   18.52    6.70
   2  -6   1   24.97    6.20
  -2   7   1   84.75    8.99
   2  -7   1   71.28    8.19
   2  -7   1   73.02    9.43
   2   8  -1    6.75    7.58
   2  -8   1   12.41    4.73
   2  -8   1   16.57    6.51
   2   9  -1   10.36    8.19
   2  -9   1   15.54    5.29
   2 -10   1   99.29   11.68
   2  10  -1  129.31   13.32
   2  11  -1  180.62   18.50
   2  12  -1   13.05    8.20
   2 -13   1    4.76    9.29
   2  13  -1   19.37    8.29
   2 -14   1   39.94   11.24
   2  14  -1   58.66    9.89
   2 -15   1   36.47   11.65
  -2 -15  -1   27.14    9.70
   2  15  -1   39.36    9.09
   2 -16   1   -6.19    6.44
   2 -16   1   13.45   10.96
  -2 -16  -1    4.88    9.27
   2  16  -1   -1.79    7.91
   2 -17   1   26.89   11.57
   2 -17   1    0.81    6.43
  -2 -17  -1    3.55    8.80
   2  17  -1    7.94    8.01
   2 -18   1   25.69   11.97
   2 -18   1   -1.56    6.49
  -2 -18  -1    1.71    8.05
   2  18  -1    8.04    7.81
   2 -19   1    9.76    6.69
  -2 -19  -1   19.62    7.74
   2  19  -1   26.92    8.12
   2 -19   1   28.08   12.62
   2 -20   1   -1.99    6.09
   2  20  -1    7.05    7.39
   2 -20   1  -10.33   12.12
   2 -21   1    9.28    6.00
   2 -21   1    3.36    6.46
   2 -21   1    9.94   12.09
   2 -22   1    4.11    5.77
   2 -22   1    1.35    5.96
   2 -22   1    9.33   11.70
   2 -23   1   10.66    5.57
   2 -23   1    3.48    5.54
   2 -23   1   20.94   11.10
   2 -24   1    0.05    4.94
   2 -24   1    4.87    5.11
   2 -25   1    5.50    4.62
   2 -25   1    7.63    4.62
   2 -26   1    8.46    4.17
   2 -26   1    7.92    3.94
   2 -27   1   14.09    3.79
   2 -28   1    5.57    2.86
   2 -28  -2    7.87    2.79
   2 -27  -2    9.31    3.51
  -2 -26   2   16.07    4.66
   2 -26  -2    8.25    4.00
   2 -26  -2    8.02    4.03
   2 -25  -2    0.25    4.27
  -2 -25   2    6.84    5.90
   2 -25  -2    3.25    4.71
   2 -24  -2    2.04    4.54
  -2 -24   2   10.16    7.05
   2 -24  -2    0.05    5.24
  -2 -23   2   20.12    8.40
   2 -23  -2    3.02    5.69
  -2 -22   2    8.41    9.38
   2 -22  -2    1.25    6.02
  -2 -21   2   10.66   10.02
   2 -21  -2   19.04   10.99
   2 -21  -2   10.87    6.37
   2 -20  -2   11.08    6.61
   2 -20  -2   14.29   11.03
  -2 -20   2    2.15   10.82
   2 -19  -2    9.21    6.96
  -2 -19   2   19.61   12.12
   2  19   2   15.64    8.78
   2 -19  -2   15.57   11.30
   2 -18  -2   13.91    6.75
  -2 -18   2    2.21   12.64
   2  18   2   11.95    8.74
   2 -17  -2   32.13    7.49
   2  17   2   30.66    9.58
   2 -16  -2   29.82    7.31
   2  16   2   23.69    9.21
   2 -15  -2   28.22    7.05
   2  15   2   25.06    9.35
   2 -14  -2   30.40    7.45
   2 -14  -2   60.21   11.70
   2 -14  -2   42.31    8.07
   2  14   2   49.61    9.82
   2 -13  -2   43.83    7.80
   2 -13  -2   61.95   11.34
   2 -13  -2   53.93    8.40
   2  13   2   59.74   10.37
   2 -12  -2   15.03    6.71
   2 -12  -2   17.80    5.83
   2 -12  -2   15.47    9.58
   2  12   2   22.47    8.81
   2 -11  -2   15.24    9.16
   2 -11  -2    1.32    6.08
   2  11   2    1.80    8.43
   2 -10  -2   12.72    5.69
   2 -10  -2    4.55    8.35
   2  10   2    6.94    8.47
   2  -9  -2   10.26    5.29
   2  -9  -2    3.95    7.99
   2   9   2    9.34    8.32
   2  -8  -2   48.55    6.56
   2  -8  -2   41.15    8.62
   2   8   2   39.14    9.46
   2   7   2  125.07   14.47
   2  -7  -2  116.18   13.94
   2  -7  -2  135.13   12.63
   2  -6  -2   74.54   10.20
  -2   6  -2   63.82    9.13
   2  -5  -2   30.61    4.98
  -2   5  -2   30.87    5.88
   2  -4  -2  122.58   11.00
  -2   4  -2  113.52   12.10
  -2  -4   2   85.11   15.22
   2   4   2   97.29   13.05
  -2   4  -2  111.35   11.86
  -2   3  -2  251.39   22.66
   2   3   2  246.99   23.24
  -2  -3   2  210.37   24.44
  -2   3  -2  238.36   22.68
  -2   2  -2  138.20   14.11
  -2  -2   2  124.78   15.91
  -2   2  -2  150.57   14.43
  -2   1  -2  383.31   32.80
  -2  -1   2  381.87   33.74
  -2   1  -2  309.50   33.27
  -2   0  -2  681.09   59.34
  -2   0   2  678.02   59.98
  -2   0  -2  612.97   59.89
  -2   1   2  380.48   35.10
  -2  -1  -2  410.14   35.20
  -2   1   2  369.75   36.00
  -2  -1  -2  379.83   36.21
  -2   2   2  232.94   18.78
  -2  -2  -2  195.73   18.74
  -2   2   2  183.74   20.23
  -2  -3  -2  250.28   28.55
  -2   3   2  354.13   27.52
  -2   3   2  307.19   28.29
  -2  -3  -2  266.12   27.25
  -2   4   2  165.38   14.39
  -2   4   2  163.06   13.72
  -2  -4  -2  118.17   13.14
   2   4  -2  130.47   14.43
   2  -4   2  109.66   13.08
  -2  -4  -2   91.63   15.26
   2   5  -2   21.54    8.22
  -2   5   2   53.24    7.78
  -2   5   2   45.10    7.76
  -2  -5  -2   27.17    6.26
   2  -5   2   20.02    6.20
   2  -6   2   83.79    9.84
  -2  -6  -2   87.33    9.32
  -2   6   2   77.59   10.08
   2  -8   2   50.05    6.58
   2  -9   2   12.39    5.34
   2   9  -2   12.92    8.07
   2  10  -2   11.22    8.28
   2 -11   2    1.85    7.93
   2  11  -2   11.22    8.06
   2  12  -2   28.19    8.09
   2 -12   2    5.72    8.53
   2  13  -2   55.17    9.29
   2 -13   2   41.33   10.35
   2  14  -2   51.01    9.72
   2 -14   2   52.22   11.26
   2  15  -2   30.43    8.51
   2 -15   2   23.28   11.23
   2 -16   2   22.86   11.16
   2  16  -2   27.16    8.45
   2 -17   2   34.09   12.57
   2  17  -2   29.96    8.56
   2 -18   2   24.51   11.73
   2  18  -2   18.08    7.92
   2 -19   2    4.37    6.49
   2  19  -2   15.57    7.85
   2 -19   2   29.05   12.76
   2 -20   2    2.39    6.30
   2  20  -2   13.87    7.49
   2 -20   2   17.36   12.25
   2 -21   2   10.15    6.20
   2  21  -2   15.17    7.51
   2 -21   2    9.02   11.82
   2 -22   2    5.63    5.80
   2 -22   2    7.07    6.27
   2 -22   2   13.88   11.20
   2 -23   2    7.09    5.80
   2 -23   2   12.97    5.62
   2 -24   2    3.93    4.90
   2 -24   2    1.78    5.03
   2 -24   2   15.12    9.35
   2 -25   2    6.28    4.43
   2 -25   2   -1.20    4.62
   2 -26   2    1.14    4.10
   2 -26   2    7.79    3.66
   2 -27   2    3.88    3.38
   2 -28   2    6.58    2.70
   2 -27  -3   22.10    3.84
  -2 -26   3   22.75    5.19
   2 -26  -3   12.36    4.03
   2 -26  -3   11.67    3.92
   2 -25  -3   10.52    4.43
  -2 -25   3    5.76    6.10
   2 -25  -3    4.28    4.49
   2 -24  -3    0.60    4.47
  -2 -24   3    6.07    7.51
   2 -24  -3   -2.95    5.16
   2 -23  -3    6.94    5.21
  -2 -23   3   30.59    8.96
   2 -23  -3   20.97    5.98
   2 -22  -3    9.46    5.21
  -2 -22   3   24.09   10.00
   2 -22  -3   11.40    6.24
   2 -21  -3    6.57    5.60
  -2 -21   3   14.69   10.94
   2 -21  -3   12.23    6.50
   2 -20  -3    0.06    5.58
  -2 -20   3    7.91   11.66
   2 -20  -3    7.30   10.64
   2 -20  -3   -6.44    6.61
   2 -19  -3    0.06    5.93
  -2 -19   3    4.24   12.68
   2  19   3   24.87    9.00
   2 -19  -3    8.16    6.76
   2 -18  -3    6.34    6.36
   2  18   3   14.86    9.24
   2 -18  -3    3.72    6.79
   2  17   3   14.60    9.34
   2 -17  -3   17.05    7.13
   2  16   3   -3.43    9.12
   2 -16  -3    0.13   11.37
   2 -16  -3   10.71    6.80
   2  15   3   71.83   11.49
   2 -15  -3   59.80   12.96
   2 -15  -3   60.80    9.09
   2  14   3   45.97   10.12
   2 -14  -3   43.46   11.75
   2 -14  -3   32.07    7.42
   2  13   3   24.21    9.45
   2 -13  -3    8.66    6.35
   2 -12  -3   24.05    9.93
   2 -12  -3    3.27    5.90
   2  12   3    5.21    8.58
   2 -11  -3   76.79   11.37
   2  11   3   81.14   10.54
   2 -11  -3   49.40    8.19
   2  10   3   91.60   12.12
   2 -10  -3   88.44   12.70
   2   9   3  143.22   14.65
   2  -9  -3  104.67   14.58
   2  -8  -3    4.43    8.12
   2  -8  -3   11.32    5.14
   2   8   3    8.14    8.31
   2  -7  -3   74.01    7.66
   2  -7  -3   45.49    9.81
   2   7   3   56.44   10.32
   2  -6  -3  169.70   15.63
   2  -6  -3  155.07   16.91
   2  -5  -3  202.07   20.22
  -2   5  -3  251.90   20.85
   2  -4  -3   11.16    4.28
  -2   4  -3   32.23    6.18
  -2   3  -3  201.46   19.50
   2   3   3  177.04   19.95
  -2   3  -3  225.64   19.65
  -2   2  -3  151.60   16.10
   2   2   3  131.34   16.46
   2   1   3   86.32   12.82
  -2   1  -3  156.26   13.39
   2   0   3   17.60    6.28
  -2   0  -3   38.33    8.63
  -2  -1  -3   98.72   12.21
   2  -1   3   84.76   10.26
  -2  -2  -3  116.28   14.66
   2  -2   3   98.55   12.59
  -2   3   3  204.56   20.37
   2   3  -3  206.40   20.03
   2  -3   3  193.71   19.01
   2  -4   3    7.18    5.77
   2   4  -3    9.00    8.07
  -2   4   3    8.97    8.13
  -2   5   3  207.24   19.86
   2   5  -3  192.76   20.09
   2  -5   3  198.62   19.08
   2   6  -3  131.26   14.81
   2  -8   3    9.06    4.41
   2  -9   3  104.82   11.85
   2   9  -3  137.93   14.08
   2  -9   3  129.44   13.26
   2  10  -3   94.86   11.71
   2 -10   3   75.41   11.12
   2  11  -3   63.50    9.97
   2 -11   3   75.20   10.59
   2  12  -3    9.52    8.10
   2 -12   3    3.11    8.51
   2  13  -3   15.61    8.26
   2 -13   3   20.50    9.08
   2  14  -3   48.63    9.19
   2 -14   3   29.13   10.65
   2 -15   3   51.31   12.63
   2  15  -3   82.14   10.62
   2  16  -3    3.19    7.74
   2 -16   3   -2.91   11.04
   2  17  -3   16.42    8.07
   2 -17   3    6.42   11.82
   2 -18   3    2.05   11.34
   2  18  -3    7.09    7.69
   2 -19   3   20.21   11.86
   2  19  -3   13.69    7.72
   2 -20   3    5.32    6.36
   2  20  -3    9.90    7.17
   2 -20   3   27.53   12.40
   2 -21   3   16.59    6.43
   2 -21   3   12.00   12.18
   2  21  -3   24.25    7.35
   2 -22   3   15.62    5.84
   2 -22   3    8.97    6.43
   2 -22   3   25.36   11.19
   2 -23   3   18.00    5.78
   2 -23   3   18.09    6.03
   2 -24   3    5.01    4.73
   2 -24   3   -1.44    5.07
   2 -24   3    8.18    8.98
   2 -25   3   10.51    4.21
   2 -25   3    3.67    4.62
   2 -26   3    8.71    4.04
   2 -27   3   16.44    3.62
   2 -26  -4    8.34    3.66
  -2 -26   4    9.88    4.92
   2 -26  -4    3.63    3.29
  -2 -25   4   10.75    6.88
   2 -25  -4   12.25    4.22
   2 -25  -4   11.80    4.31
   2 -24  -4    3.90    4.41
  -2 -24   4    9.61    7.33
   2 -24  -4    3.34    4.82
   2 -23  -4    2.08    4.71
  -2 -23   4    5.99    9.52
   2 -23  -4    1.60    5.39
   2 -22  -4    3.39    5.34
  -2 -22   4   30.58   11.09
   2 -22  -4   28.27    6.31
  -2 -21   4   98.10   14.50
   2 -21  -4   60.87    8.63
   2 -21  -4   80.58    9.69
   2 -20  -4   59.62    9.03
  -2 -20   4   97.78   15.24
   2 -20  -4   85.93    9.99
   2 -19  -4   39.16    7.42
  -2 -19   4   44.86   13.95
   2 -19  -4   49.96    8.31
   2 -18  -4    3.58    6.20
   2 -18  -4   -1.26   10.61
   2  18   4    3.64    9.55
   2 -18  -4   -7.59    6.94
   2 -17  -4   15.76    6.72
   2  17   4   29.75   10.07
   2 -17  -4   16.20    7.37
   2 -17  -4   21.13   11.30
   2 -16  -4    0.39    6.25
   2  16   4    1.73    9.81
   2 -16  -4   -1.40   11.20
   2 -16  -4   -7.28    6.99
   2 -15  -4   -8.93    6.33
   2  15   4    3.60    9.70
   2 -15  -4    8.59   10.97
   2 -15  -4  -11.87    6.99
   2 -14  -4   60.37    8.89
   2  14   4   70.52   11.69
   2 -14  -4   61.25   13.09
   2 -14  -4   58.52    9.09
   2 -13  -4  434.73   39.55
   2  13   4  498.85   40.53
   2 -13  -4  408.41   41.05
   2 -13  -4  406.65   39.71
   2 -12  -4  332.33   29.17
   2  12   4  365.27   30.45
   2 -12  -4  312.14   30.90
   2 -12  -4  273.12   29.29
   2  11   4  335.71   30.44
   2 -11  -4  345.86   30.80
   2 -11  -4  346.42   29.18
   2 -11  -4  264.57   29.22
   2 -10  -4   97.92   11.96
   2  10   4   93.67   11.09
   2   9   4    1.13    9.29
   2  -9  -4   23.59    9.25
   2  -8  -4   14.89    8.75
   2   8   4    3.55    8.84
   2  -7  -4   18.10    8.24
   2   7   4    8.28    8.66
   2   6   4  241.94   25.02
   2  -6  -4  267.45   24.65
   2  -5  -4  851.21   76.45
   2   3   4 1031.55   92.41
   2   2   4  172.64   17.93
   2   1   4   87.30   11.05
   2   0   4   59.39    8.93
   2   0   4   75.54    9.69
   2   1  -4  102.35   12.04
   2  -1   4   71.84    9.90
   2  -1   4   79.60   11.01
   2  -2   4  169.00   16.90
   2  -2   4  129.66   16.37
   2  -3   4  979.85   90.59
   2   3  -4 1083.76   91.00
   2  -3   4  997.65   90.55
   2  -4   4  777.34   74.51
  -2   4   4  879.41   74.74
   2   4  -4  845.07   74.85
   2  -5   4  930.79   79.26
   2   5  -4  819.75   79.55
   2  -6   4  277.26   25.74
   2   6  -4  256.85   25.97
   2  -7   4    5.18    6.04
   2  -8   4    6.68    6.79
   2  -9   4    7.78    6.96
   2  -9   4    3.76    4.69
   2  10  -4   90.44   11.60
   2 -10   4   71.74   10.76
   2  11  -4  296.07   29.95
   2 -11   4  340.11   30.20
   2  12  -4  308.72   30.69
   2 -12   4  344.63   31.10
   2  13  -4  411.96   39.90
   2 -13   4  459.23   40.44
   2  14  -4   70.02   10.48
   2 -14   4   68.41   12.12
   2  15  -4    9.35    7.59
   2 -15   4  -13.45   10.48
   2  16  -4    5.72    7.69
   2 -16   4   -2.49   10.76
   2  17  -4   20.72    7.95
   2 -17   4   17.28   11.95
   2  18  -4    2.39    7.54
   2 -18   4    9.14   11.93
   2 -19   4   67.31   13.87
   2  19  -4   66.96    9.89
   2  20  -4   97.37   12.04
   2 -20   4  112.06   15.63
   2 -21   4  109.46   14.33
   2  21  -4  100.27   10.40
   2 -22   4   12.31    5.82
   2 -22   4   14.56    6.53
   2 -22   4   31.52   11.30
   2 -23   4    8.62    5.09
   2 -23   4    6.05    5.61
   2 -23   4   11.55    9.57
   2 -24   4    0.04    4.40
   2 -24   4   -2.16    4.95
   2 -25   4    6.68    3.82
   2 -25   4    8.64    4.40
   2 -26   4    1.06    3.55
  -2 -26   5    5.99    4.88
   2 -25  -5    5.01    3.77
  -2 -25   5    3.41    5.99
   2 -25  -5    6.09    3.73
   2 -24  -5   10.63    4.39
  -2 -24   5   11.91    8.04
   2 -24  -5   12.61    4.68
   2 -23  -5   35.21    6.02
  -2 -23   5   45.51    9.75
   2 -23  -5   39.66    6.47
   2 -22  -5    3.97    4.88
  -2 -22   5    9.33   10.63
   2 -22  -5    1.00    5.75
   2 -21  -5    2.52    5.23
  -2 -21   5   -2.18   11.60
   2 -21  -5   -2.36    6.01
   2 -20  -5    0.05    5.46
  -2 -20   5   -6.07   12.09
   2 -20  -5   16.13    6.63
   2 -19  -5   23.44    6.49
  -2 -19   5   28.49   14.28
   2 -19  -5   28.14    7.36
   2 -18  -5   15.77    6.36
   2  18   5   25.68   10.18
   2 -18  -5   18.02    7.52
   2 -17  -5   14.37    6.42
   2  17   5   40.00   10.62
   2 -17  -5   10.39   10.08
   2 -17  -5   15.44    7.27
   2 -16  -5    0.06    6.14
   2  16   5    3.74   10.32
   2 -16  -5    4.51   10.54
   2 -16  -5   -3.63    7.11
   2 -15  -5  118.52   14.22
   2 -15  -5  133.98   17.08
   2 -15  -5  124.05   14.70
   2 -14  -5  122.70   12.68
   2  14   5  148.75   15.52
   2 -14  -5  112.91   15.81
   2 -14  -5   96.88   13.03
   2 -13  -5   40.78    7.06
   2  13   5   39.09   10.88
   2 -13  -5   35.78   11.64
   2 -13  -5   18.28    7.43
   2 -12  -5    8.72    6.06
   2  12   5    7.31   10.33
   2 -12  -5   14.84   10.69
   2 -12  -5  -10.41    6.60
   2 -11  -5  121.32   11.55
   2  11   5  122.49   14.61
   2 -11  -5   90.62   11.87
   2 -11  -5   92.83   14.81
   2 -10  -5   44.38    6.52
   2  10   5   42.12   10.49
   2 -10  -5   42.64   10.78
   2 -10  -5   13.90    6.48
   2  -9  -5   30.76    5.90
   2   9   5   22.47   10.32
   2  -9  -5   22.75    9.58
   2  -9  -5    8.97    5.62
   2   8   5    2.28    9.21
   2  -8  -5   12.91    5.43
   2  -8  -5    7.69    4.93
   2  -8  -5    6.88    8.93
   2  -7  -5  127.99   12.30
   2   7   5  114.11   14.78
   2  -7  -5  110.76   14.50
   2  -6  -5  104.86   10.31
   2   6   5   96.89   13.48
   2  -6  -5   81.75   12.51
   2  -5  -5  118.39   13.73
   2   2   5  467.49   43.05
   2   1   5  313.64   30.76
   2  -1  -5  338.16   30.90
   2   0  -5   84.53   11.60
   2   0   5   51.55   10.94
   2  -1   5  312.50   27.72
   2   1  -5  276.31   28.07
   2  -1   5  279.58   27.04
   2  -2   5  399.34   45.01
   2   2  -5  612.93   45.54
   2  -3   5  380.14   34.93
   2   3  -5  367.45   35.62
   2   4  -5   15.93   10.28
   2  -4   5   18.86    8.77
   2  -5   5  117.15   12.54
   2  -5   5  111.18   13.62
   2   5  -5  108.45   14.43
   2   6  -5   83.61   12.82
   2  -6   5   82.63   12.06
   2  -6   5   84.36   10.31
   2  -7   5  122.11   14.57
   2   7  -5  117.67   14.74
   2  -7   5  122.54   13.29
   2  -8   5   12.98    8.87
   2  -8   5    5.55    6.80
   2  -9   5   19.11    7.57
   2  10  -5   42.22    9.71
   2 -10   5   35.61    8.65
   2  11  -5  107.98   13.76
   2 -11   5  128.49   13.86
   2  12  -5    6.73    8.40
   2 -12   5    2.61    8.59
   2  13  -5   33.50    9.02
   2 -13   5   42.44    9.98
   2  14  -5  112.69   13.19
   2 -14   5  104.53   14.21
   2  15  -5  133.34   14.97
   2 -15   5  143.35   16.90
   2  16  -5   -2.61    7.53
   2 -16   5   -2.54   10.98
   2  17  -5   23.34    7.99
   2 -17   5   11.80   11.59
   2  18  -5   15.90    7.70
   2 -18   5   32.13   11.76
   2  19  -5   37.06    8.40
   2 -19   5   49.54   11.94
   2  20  -5    0.06    7.22
   2 -20   5   26.56   11.36
   2 -21   5    1.41    6.50
   2 -21   5    3.59   10.87
   2  21  -5    5.05    6.61
   2 -22   5    4.72    5.34
   2 -22   5    5.34    5.86
   2 -22   5   18.88   10.20
   2  22  -5   11.86    5.93
   2 -23   5   24.14    5.67
   2 -23   5   30.36    6.22
   2 -24   5   15.32    4.34
   2 -24   5    7.52    4.70
   2 -25   5    5.41    3.87
   2 -26   5    7.79    3.05
  -2 -26   6    5.50    4.18
  -2 -25   6    6.27    5.87
   2 -25  -6    0.13    3.15
  -2 -24   6    9.08    7.42
   2 -24  -6    7.34    4.08
   2 -23  -6    8.21    4.38
  -2 -23   6    4.89    8.21
   2 -23  -6    7.95    4.79
   2 -22  -6   20.99    5.22
  -2 -22   6   29.04   10.45
   2 -22  -6   25.10    6.01
   2 -21  -6   43.17    6.61
  -2 -21   6   56.20   12.13
   2 -21  -6   39.33    7.35
   2 -20  -6    4.95    5.40
  -2 -20   6    5.45   12.19
   2 -20  -6    0.14    6.16
   2 -19  -6    3.39    5.54
  -2 -19   6   -7.88   13.84
   2 -19  -6    1.91    6.65
   2 -18  -6   13.64    5.99
   2 -18  -6    6.58    6.88
   2 -17  -6    2.41    6.94
   2 -17  -6    8.35    5.92
   2  17   6   17.43   10.64
   2  16   6   12.81   11.02
   2 -16  -6   13.16    6.18
   2 -16  -6    0.08    6.99
   2 -15  -6   72.13    9.04
   2 -15  -6   55.55    9.82
   2 -14  -6   42.91    7.51
   2  14   6   51.08   11.99
   2 -14  -6   33.99   11.05
   2 -14  -6   33.05    8.11
   2 -13  -6   58.57    7.74
   2  13   6   61.07   12.39
   2 -13  -6   39.24   11.89
   2 -13  -6   27.85    8.19
   2 -12  -6   37.37    7.17
   2  12   6   44.49   11.86
   2 -12  -6   31.42   11.33
   2 -12  -6   32.11    7.48
   2 -11  -6   36.11    6.61
   2  11   6   20.90   11.33
   2 -11  -6   22.25   10.74
   2 -11  -6   27.83    6.86
   2 -10  -6   32.27    6.25
   2  10   6   30.79   11.36
   2 -10  -6   25.04   10.44
   2 -10  -6   16.77    6.54
   2  -9  -6   24.28    5.70
   2   9   6   31.33   10.40
   2  -9  -6   27.09   10.06
   2  -9  -6    4.35    5.96
   2  -8  -6  134.56   11.59
   2  -8  -6   96.72   11.65
   2  -8  -6   91.83   14.14
   2   8   6  107.60   14.70
   2   7   6  216.79   19.10
   2  -7  -6  162.15   18.30
   2  -7  -6  161.73   16.46
   2   6   6  129.76   14.93
   2  -6  -6  117.57   13.72
   2  -6  -6  106.07   11.26
   2   5   6  273.33   25.45
   2  -5  -6  239.43   24.29
   2  -2  -6   19.87    9.01
   2   2   6   20.43    9.99
   2  -1  -6   39.97   10.31
   2   1   6   43.74   10.76
   2   0  -6   20.42   10.42
   2   0   6   20.04    9.21
   2   1  -6   44.63   11.68
   2  -1   6   44.75   10.19
   2   2  -6   18.69   11.39
   2  -2   6   26.04   10.06
   2   3  -6    9.39   11.45
   2  -3   6   12.23    6.97
   2  -3   6    8.28    8.91
   2  -4   6  109.33   13.65
   2   4  -6  124.39   15.25
   2  -4   6   94.96   12.22
   2  -5   6  265.01   27.48
   2   5  -6  231.01   28.04
   2  -5   6  321.36   26.69
   2  -6   6  107.10   14.92
   2  -6   6  120.77   13.20
   2   6  -6  124.72   15.98
   2  -7   6  203.27   22.87
   2   7  -6  193.27   23.19
   2  -7   6  247.86   21.60
   2  -8   6   93.48   14.09
   2  -8   6  119.13   12.68
   2  -9   6   28.07    9.86
   2  -9   6   20.38    7.79
   2 -10   6   24.46    8.10
   2  11  -6   17.11    9.14
   2 -11   6   17.77    8.59
   2  12  -6   38.69    9.16
   2 -12   6   18.96    9.33
   2  13  -6   35.91    8.93
   2 -13   6   41.80   10.27
   2  14  -6   30.77    8.47
   2 -14   6   30.50   10.09
   2  15  -6   67.99   10.44
   2 -15   6   60.61   11.78
   2  16  -6   -1.81    7.59
   2 -16   6  -15.50   10.80
   2  17  -6   12.34    7.70
   2 -17   6    4.20   11.07
   2  18  -6    9.88    7.31
   2 -18   6    4.01   10.77
   2  19  -6    7.15    7.17
   2 -19   6   14.30   11.08
   2 -20   6    7.41    6.46
   2 -20   6   11.94   10.31
   2  20  -6    8.73    6.89
   2 -21   6   36.17    7.53
   2 -21   6   63.83   11.29
   2  21  -6   57.19    8.16
   2 -22   6   17.22    5.35
   2 -22   6   14.77    5.75
   2 -22   6   34.71    8.99
   2  22  -6   26.89    5.94
   2 -23   6    7.67    4.75
   2 -24   6    7.35    3.89
  -2 -25   7   12.55    5.03
  -2 -24   7   13.92    6.57
   2 -24  -7   -3.04    3.37
  -2 -23   7    5.91    7.70
   2 -23  -7   -6.14    4.24
  -2 -22   7   23.57    9.54
   2 -22  -7   13.80    5.10
  -2 -21   7   20.48   11.02
   2 -21  -7   19.54    5.81
   2 -20  -7    0.62    5.85
   2 -19  -7   13.77    5.39
   2 -19  -7    8.33    6.12
   2 -18  -7   12.63    5.70
   2 -18  -7    2.98    6.41
   2 -17  -7    0.99    5.70
   2 -17  -7   -0.31    6.76
   2  17   7   -3.51   11.18
   2 -16  -7   16.44    6.09
   2  16   7   28.30   11.70
   2 -16  -7    5.25    6.92
   2 -15  -7   14.25    6.20
   2  15   7   27.85   11.68
   2 -15  -7    8.40    6.98
   2 -14  -7   14.13    6.17
   2  14   7   16.31   11.65
   2 -14  -7    8.90    7.07
   2 -13  -7   52.00    7.64
   2  13   7   55.31   12.83
   2 -13  -7   39.93    8.38
   2 -12  -7   11.47    5.97
   2  12   7    8.27   11.61
   2 -12  -7   -2.60    6.66
   2  11   7   35.70   12.18
   2 -11  -7   30.36    7.44
   2 -10  -7   80.90   10.45
   2  10   7   97.85   14.60
   2   9   7  159.16   17.36
   2  -9  -7  119.03   13.38
   2   8   7   16.87   11.67
   2  -8  -7   -8.44    5.56
   2  -7  -7   87.61   10.12
   2   7   7  110.98   15.09
   2   6   7  123.85   15.67
   2  -6  -7  105.94   11.28
   2  -5  -7   81.85    9.17
   2   5   7   98.48   14.18
   2  -4  -7   30.59    5.08
   2  -3  -7  148.46   14.56
   2  -3  -7  179.23   16.88
   2  -2  -7  185.73   15.99
   2  -2  -7  123.42   12.53
   2   1   7  230.76   24.27
   2  -1  -7  240.14   24.27
   2   0  -7  124.39   15.64
   2   0   7   91.34   14.74
   2  -1   7  248.49   23.68
   2   1  -7  180.33   24.16
   2  -1   7  246.16   22.48
   2  -2   7  106.22   15.34
   2   2  -7  130.71   16.84
   2  -2   7  108.04   13.02
   2   3  -7  114.06   20.97
   2  -3   7  162.81   20.03
   2   4  -7   17.84   12.09
   2  -4   7   22.81    7.58
   2  -4   7   16.99   10.91
   2   5  -7   68.28   15.22
   2  -5   7   99.73   14.09
   2  -5   7   99.10   11.63
   2  -6   7  101.75   15.75
   2  -6   7  123.58   13.40
   2   6  -7  132.48   16.68
   2   7  -7  108.25   15.54
   2  -7   7   91.83   14.60
   2  -7   7  113.88   12.64
   2  -8   7    9.66   10.38
   2  -8   7    9.83    7.34
   2  -9   7  153.78   16.40
   2 -10   7   92.38   12.20
   2  11  -7   31.60    9.84
   2 -11   7   21.00    8.71
   2  12  -7    7.05    9.18
   2 -12   7   -0.84    8.52
   2  13  -7   46.46    9.49
   2 -13   7   33.21    9.89
   2  14  -7    4.18    8.34
   2 -14   7    0.30    8.85
   2  15  -7    6.46    8.08
   2 -15   7   -0.10    9.72
   2  16  -7   10.54    7.71
   2 -16   7    9.87   10.42
   2  17  -7   -3.81    7.27
   2 -17   7   -5.08   10.10
   2  18  -7   10.74    7.20
   2 -18   7    7.11   10.72
   2 -19   7   31.17   10.28
   2  19  -7   13.89    7.09
   2 -19   7   13.52    6.06
   2  20  -7    3.17    6.54
   2 -20   7   10.30    5.65
   2 -20   7   13.52    9.43
   2  21  -7   21.27    6.52
   2  22  -7   26.35    5.78
   2 -23  -8   39.38    5.08
   2 -22  -8    1.40    4.10
   2 -21  -8    2.53    4.82
   2 -20  -8   -9.13    5.61
   2 -19  -8   -9.25    5.95
   2 -18  -8    7.96    6.28
   2 -17  -8   98.55   11.65
   2  16   8  127.12   14.69
   2 -16  -8   72.38   10.82
   2  15   8   91.96   13.96
   2 -15  -8   57.85    9.77
   2  14   8    2.52   12.11
   2 -14  -8   -2.61    6.95
   2  13   8   21.92   12.59
   2 -13  -8  -12.08    6.95
   2  12   8    7.09   12.67
   2 -12  -8   -4.78    6.89
   2  11   8   23.30   12.56
   2 -11  -8    2.59    6.57
   2  10   8   57.26   13.80
   2 -10  -8   50.42    8.25
   2   9   8  446.35   41.84
   2  -9  -8  431.31   39.74
   2   8   8  439.89   41.97
   2  -8  -8  440.51   40.12
   2   7   8  531.62   47.91
   2  -7  -8  503.96   46.21
   2   6   8  123.90   15.60
   2  -6  -8   89.77   10.44
   2   5   8   79.73   14.08
   2  -5  -8   63.40    7.86
   2   4   8   70.34   13.92
   2  -4  -8   70.05    7.92
   2  -3  -8   28.25    9.53
   2  -3  -8   19.70    4.59
   2  -2  -8  287.60   28.01
   2  -2  -8  282.31   25.82
   2   1   8 1266.20   94.78
   2  -1  -8 1022.54   94.29
   2  -1  -8 1006.93   93.02
   2   0   8 1153.84  126.95
   2   0  -8 1493.85  127.35
   2   0  -8 1475.94  125.97
   2  -1   8 1110.86   97.34
   2   1  -8  845.10   97.46
   2   1  -8 1092.57   95.92
   2  -1   8 1157.64   96.76
   2  -2   8  202.29   30.30
   2  -2   8  198.21   29.00
   2  -3   8   27.33    8.20
   2  -3   8   22.78   11.30
   2   3  -8   19.70    3.80
   2   4  -8   66.76   15.12
   2  -4   8   67.09   10.00
   2  -4   8   56.84   13.45
   2   4  -8   62.35    6.75
   2  -5   8   69.87    9.96
   2   5  -8   55.11   14.44
   2  -5   8   52.40   12.79
   2   5  -8   61.26    6.61
   2  -6   8   76.38   11.22
   2  -6   8   73.53   14.06
   2  -7   8  457.34   46.99
   2   7  -8  503.02   47.47
   2  -7   8  531.92   46.10
   2   8  -8  376.72   39.49
   2  -8   8  431.84   38.15
   2  -9   8  493.98   45.37
   2 -10   8   53.61    9.89
   2  11  -8   12.44    9.53
   2 -11   8    3.01    8.56
   2  12  -8   13.72    9.11
   2 -12   8    3.29    8.84
   2  13  -8    8.44    8.59
   2 -13   8    1.68    9.23
   2  14  -8   10.79    8.38
   2 -14   8    0.09    9.26
   2  15  -8   54.05    9.98
   2 -15   8   61.98   11.07
   2  16  -8   83.62   11.31
   2 -16   8   89.38   13.39
   2  17  -8  115.22   13.30
   2 -17   8  125.05   15.34
   2 -18   8   23.01    9.78
   2  18  -8   18.70    7.26
   2  19  -8    1.72    6.69
   2 -19   8   30.11    8.89
   2  20  -8    3.98    6.17
   2  21  -8    8.20    5.66
   2 -22  -9    3.27    3.32
   2 -21  -9    0.18    4.00
   2 -20  -9    5.62    4.66
  -2 -19   9   57.56   11.71
   2 -19  -9   39.90    6.72
  -2 -18   9   23.05   12.15
   2 -18  -9    8.77    5.80
   2 -17  -9   -2.87    5.96
   2  16   9   -3.88   11.06
   2 -16  -9   -9.19    6.37
   2  15   9   46.35   12.46
   2 -15  -9   -1.06    6.76
   2  14   9   14.17   12.40
   2 -14  -9   -9.93    6.72
   2  13   9   20.78   13.06
   2 -13  -9    2.01    6.69
   2  12   9   -2.33   13.04
   2 -12  -9   -3.11    6.62
   2  11   9   50.72   14.22
   2 -11  -9   47.99    8.16
   2  10   9   45.59   13.77
   2 -10  -9   31.85    7.31
   2   9   9   26.00   13.47
   2  -9  -9   22.02    6.66
   2   8   9    4.43   13.88
   2  -8  -9   24.71    6.31
   2   7   9  127.30   18.42
   2  -7  -9  128.84   13.16
   2   6   9   48.43   14.62
   2  -6  -9   56.56    7.59
   2   5   9   24.01   13.49
   2  -5  -9   17.51    5.21
   2   4   9   11.82   13.29
   2  -4  -9   28.61    5.40
   2  -3  -9  181.63   17.24
   2  -3  -9  184.88   19.38
   2  -2  -9  284.97   27.42
   2  -2  -9  269.54   24.96
   2  -1  -9  206.10   22.58
   2  -1  -9  203.90   18.98
   2   0  -9  121.64   18.10
   2   0   9   92.08   17.60
   2   0  -9  132.51   12.34
   2   1  -9  208.71   19.19
   2  -1   9  209.84   23.52
   2  -1   9  204.06   21.02
   2  -2   9  179.25   25.93
   2  -2   9  192.20   24.03
   2  -3   9  180.02   22.50
   2   3  -9  192.22   18.27
   2  -3   9  232.42   20.33
   2  -4   9   21.31    8.68
   2  -4   9   13.89   12.53
   2   4  -9   26.32    4.42
   2  -5   9   28.24    8.41
   2   5  -9   32.40   14.77
   2  -5   9   13.92   12.09
   2   5  -9   21.04    4.23
   2   6  -9   41.42   13.94
   2  -6   9   52.80    9.11
   2   7  -9  125.55   17.95
   2  -7   9  142.94   15.21
   2   8  -9   15.42   11.59
   2  -8   9   16.10    7.85
   2  -9   9   24.19    8.61
   2 -10   9   35.89    9.10
   2 -11   9   62.60   10.55
   2  12  -9    1.85    8.67
   2 -12   9   -6.23    8.66
   2  13  -9    4.07    8.40
   2 -13   9   25.83    9.00
   2  14  -9   13.73    8.20
   2 -14   9   17.78    8.87
   2  15  -9   22.46    8.04
   2 -15   9    5.15    9.30
   2  16  -9    1.78    7.18
   2 -16   9    6.91    9.19
   2 -17   9    9.63    8.99
   2  17  -9    5.41    6.98
   2  18  -9   31.12    7.45
   2  19  -9   53.66    8.24
   2  20  -9   17.02    6.03
   2  21  -9    6.11    5.20
  -2 -22  10   12.69    5.13
  -2 -21  10   19.05    6.77
   2 -21 -10    9.79    3.07
   2 -20 -10   10.67    3.80
  -2 -20  10   21.18    7.92
  -2 -19  10    6.45    8.98
   2 -19 -10    9.43    4.41
  -2 -18  10    8.57   10.61
   2 -18 -10    3.20    4.91
   2 -17 -10   -3.93    5.30
  -2 -17  10   11.83   11.88
   2 -16 -10    3.98    5.66
   2  15  10    6.53   11.15
   2 -15 -10   11.73    6.10
   2  14  10   25.44   12.50
   2 -14 -10    5.77    6.22
   2  13  10   17.32   12.82
   2 -13 -10    6.82    6.51
   2  12  10    0.96   13.37
   2 -12 -10  -10.12    6.48
   2  11  10    4.71   13.47
   2 -11 -10   -6.12    6.33
   2  10  10   10.78   13.86
   2 -10 -10    5.43    5.97
   2   9  10   -4.42   13.50
   2  -9 -10    5.51    5.90
   2   8  10    5.38   14.10
   2  -8 -10   12.11    5.86
   2   7  10   26.64   14.39
   2  -7 -10   31.05    6.30
   2   6  10   37.34   14.61
   2  -6 -10   40.10    6.54
   2   5  10   35.69   14.24
   2  -5 -10   25.56    5.65
   2   4  10   55.47   15.11
   2  -4 -10   58.29    7.49
   2  -3 -10   87.76   12.28
   2  -3 -10   77.18    8.96
   2  -2 -10   61.60   12.87
   2  -2 -10   76.49    8.38
   2  -1 -10   89.42   16.42
   2  -1 -10  127.35   12.04
   2   0 -10  207.21   23.85
   2   0  10  146.63   23.75
   2   0 -10  240.11   19.65
   2   0  10  156.36   21.41
   2   1 -10  144.23   13.18
   2   1 -10   85.58   18.85
   2  -1  10  124.31   18.41
   2  -1  10  137.90   15.90
   2  -2  10   51.12   10.62
   2  -2  10   35.19   14.78
   2   2 -10   75.50    7.55
   2  -3  10   94.00   15.73
   2   3 -10   88.23    9.32
   2  -3  10  102.21   12.37
   2  -4  10   56.66   10.02
   2   4 -10   44.05   15.37
   2   4 -10   61.24    6.81
   2  -4  10   49.87   14.13
   2  -5  10   41.86    8.73
   2   5 -10   33.71   14.70
   2   5 -10   27.24    4.89
   2   6 -10   42.87   14.13
   2  -6  10   30.51    8.75
   2   7 -10   40.51   12.87
   2  -7  10   30.13    8.26
   2   8 -10   21.28   11.59
   2  -8  10    5.34    7.96
   2   9 -10    6.54   10.84
   2  -9  10    2.45    7.87
   2 -10  10   11.80    7.88
   2 -11  10    6.74    8.04
   2  12 -10    3.57    8.74
   2 -12  10   -0.56    8.41
   2  13 -10   10.14    8.36
   2 -13  10   13.62    8.31
   2  14 -10   19.27    8.13
   2 -14  10   13.67    8.64
   2  15 -10   14.34    7.79
   2 -15  10   15.54    8.54
   2  16 -10   17.01    7.24
   2  17 -10   13.09    6.96
   2  18 -10    3.64    6.44
   2  19 -10    9.17    5.91
   2  20 -10    9.63    5.12
  -2 -21  11    5.64    4.34
  -2 -20  11   13.15    5.81
   2 -20 -11    1.99    2.41
   2 -19 -11   13.99    3.40
  -2 -19  11   22.52    7.76
  -2 -18  11   15.06    9.08
   2 -18 -11   17.35    4.09
  -2 -17  11   14.66   10.23
   2 -17 -11    7.11    4.28
  -2 -16  11    2.99   10.30
   2 -16 -11    4.62    4.64
   2 -15 -11   30.62    5.92
   2 -14 -11   13.97    5.44
   2 -13 -11   20.85    5.80
   2  12  11   -2.68   12.76
   2 -12 -11   -0.64    5.35
   2  11  11   45.85   13.47
   2 -11 -11   19.07    6.09
   2  10  11   20.21   13.78
   2 -10 -11   21.51    6.00
   2   9  11   55.34   15.05
   2  -9 -11   51.38    7.56
   2   8  11   20.70   13.91
   2  -8 -11    6.46    5.45
   2   7  11   39.66   14.26
   2  -7 -11   47.56    7.08
   2   6  11   64.13   15.58
   2  -6 -11   65.31    8.28
   2   5  11   54.04   14.59
   2  -5 -11   50.40    7.29
   2   4  11   29.37   15.36
   2  -4 -11   73.05    8.23
   2   3  11  191.43   23.00
   2  -3 -11  204.07   18.35
   2  -3 -11  169.87   19.87
   2  -2 -11  128.98   16.09
   2  -2 -11  133.66   13.12
   2  -1 -11   87.92   14.65
   2   1  11   98.86   13.52
   2  -1 -11   93.92    9.84
   2   0 -11   47.51   13.89
   2   0  11   46.92   11.19
   2   0  11   42.44   14.61
   2   0 -11   73.13    7.47
   2   1 -11   67.26   15.43
   2  -1  11   78.76   12.59
   2  -1  11   66.26   15.48
   2   1 -11   93.06    9.10
   2   2 -11   62.22   17.52
   2  -2  11   80.18   14.04
   2   3 -11  213.15   19.85
   2  -3  11  248.69   21.72
   2  -4  11   63.46   10.33
   2   4 -11   59.18   14.74
   2   4 -11   63.14    7.24
   2   5 -11   63.58   15.21
   2  -5  11   64.16   10.27
   2   6 -11   66.43   14.73
   2  -6  11   60.88   10.08
   2   7 -11   49.23   13.61
   2  -7  11   55.50    9.34
   2   8 -11    5.10   11.48
   2  -8  11   -0.08    7.45
   2   9 -11   51.55   11.91
   2  -9  11   60.30    9.68
   2 -10  11   30.97    8.34
   2 -11  11   30.42    8.41
   2 -12  11    6.95    7.79
   2  13 -11    7.79    7.98
   2 -13  11   10.98    7.74
   2  14 -11   14.07    7.75
   2  15 -11   39.59    8.30
   2  16 -11    1.27    6.75
   2  17 -11    4.39    6.37
   2  18 -11   19.34    5.93
   2  19 -11   18.39    5.35
   2  20 -11    7.70    4.17
  -2 -18  12   12.20    6.42
   2 -18 -12    1.97    2.57
  -2 -17  12   12.23    7.40
   2 -17 -12    4.13    3.24
  -2 -16  12    1.26    8.30
   2 -16 -12   -3.13    3.59
  -2 -15  12   12.37    9.61
   2 -15 -12    7.05    4.08
  -2 -14  12   23.25   10.69
   2 -14 -12   15.19    4.67
   2 -13 -12   76.81    8.61
   2 -12 -12   94.11   10.08
   2 -11 -12   54.14    7.21
   2 -10 -12   -5.36    5.04
   2  -9 -12   -0.80    5.08
   2  -8 -12    0.60    5.13
   2  -7 -12    3.15    5.22
   2  -6 -12   31.41    6.08
   2  -5 -12  213.25   20.02
   2  -4 -12  226.66   21.15
   2  -3 -12  113.38   11.50
   2  -2 -12  109.07   15.71
   2   2  12   96.05   16.35
   2  -1 -12   71.04   13.05
   2   1  12   64.38   12.54
   2  -1 -12   93.15    9.14
   2   0 -12   18.51   11.78
   2   0  12   16.44    9.75
   2   0 -12   48.32    6.01
   2  -1  12   65.42   11.44
   2   1 -12   77.25    8.05
   2   2 -12  120.12   18.11
   2  -2  12   95.33   15.47
   2   3 -12  106.06   17.42
   2   3 -12  130.47   12.43
   2  -3  12  125.16   14.47
   2   4 -12  220.15   18.86
   2   4 -12  182.05   22.77
   2  -4  12  167.12   20.13
   2   5 -12  218.09   24.44
   2  -5  12  226.93   22.03
   2   6 -12   18.95   12.31
   2  -6  12   34.28    8.15
   2   7 -12    4.28   11.49
   2  -7  12   10.93    7.61
   2   8 -12    3.79   10.55
   2  -8  12    1.70    7.27
   2   9 -12    3.77    9.75
   2  -9  12    2.67    7.19
   2  10 -12   14.95    9.45
   2 -10  12   11.41    7.32
   2 -11  12   76.71   10.23
   2  13 -12   87.49   11.44
   2  14 -12   12.11    7.27
   2  15 -12    9.62    6.93
   2  16 -12   -1.38    6.28
   2  17 -12   13.59    5.61
   2  18 -12   10.63    4.80
   2  17  13    9.18    4.52
   2 -16 -13   -0.20    2.37
  -2 -15  13   21.61    7.06
   2 -15 -13   15.19    3.36
  -2 -14  13   13.12    8.22
   2 -14 -13    7.18    3.49
  -2 -13  13   12.02    8.71
   2 -13 -13   10.85    3.87
   2 -12 -13   -1.91    4.02
   2 -11 -13    6.85    4.32
   2 -10 -13    7.60    4.54
   2  -9 -13   46.96    6.51
   2  -8 -13    1.03    4.58
   2  -7 -13   61.97    7.52
   2  -6 -13  121.24   12.09
   2   5  13   80.39   14.09
   2  -5 -13  111.13   10.76
   2   4  13   30.32   10.72
   2  -4 -13   60.55    6.91
   2  -3 -13  137.40   12.94
   2   3  13  115.89   15.86
   2  -2 -13   55.49   11.10
   2   2  13   49.68   12.18
   2  -1 -13   36.37   11.01
   2   1  13   54.36   11.36
   2   0 -13   38.23   10.70
   2   0  13   19.99    9.67
   2  -1  13   45.04   10.43
   2   1 -13   56.03   11.88
   2   1 -13   68.67    7.33
   2  -2  13   62.45   10.97
   2   2 -13   46.71   13.01
   2   3 -13  106.27   16.89
   2   3 -13  137.79   13.25
   2  -3  13  155.13   14.93
   2   4 -13   37.67   11.72
   2  -4  13   46.11    8.53
   2   5 -13  104.79   14.96
   2  -5  13  104.44   12.22
   2   6 -13  112.05   15.67
   2  -6  13  124.69   13.17
   2   7 -13   84.18   13.10
   2  -7  13   77.73   10.09
   2   8 -13    4.00    9.91
   2  -8  13   15.07    6.65
   2   9 -13   55.10   10.64
   2  -9  13   52.01    8.17
   2  10 -13    8.95    8.83
   2  14 -13   12.13    6.63
   2  15 -13   19.49    6.26
   2  16 -13    2.82    5.07
   2  17 -13   10.70    4.24
   2 -13 -14    9.30    2.57
   2  12  14    9.41    7.05
   2 -12 -14    5.67    2.87
   2  11  14    3.63    7.45
   2 -11 -14    4.10    3.12
   2  10  14    9.34    8.13
   2 -10 -14    8.10    3.42
   2   9  14    8.52    8.66
   2  -9 -14   13.72    3.78
   2   8  14   10.73    8.74
   2  -8 -14   20.55    4.19
   2   7  14   41.39    9.53
   2  -7 -14   38.04    5.26
   2   6  14    8.43    8.88
   2  -6 -14   21.18    4.28
   2   5  14    0.17    8.75
   2  -5 -14   11.68    4.03
   2   4  14    7.70    8.69
   2  -4 -14   23.65    4.49
   2   3  14   14.94    9.07
   2  -3 -14   32.26    4.98
   2   2  14   27.21    8.93
   2  -2 -14   29.41    4.98
   2   1  14   27.20    8.71
   2  -1 -14   19.19    7.43
   2  -1 -14   37.72    5.16
   2   0  14   44.43    9.24
   2   0 -14   45.81    9.31
   2   0 -14   59.46    6.49
   2   1 -14   26.31    9.30
   2   1 -14   45.90    5.65
   2  -1  14   37.85    8.49
   2   2 -14   25.94    9.29
   2  -2  14   20.86    7.49
   2   3 -14   21.51    9.66
   2  -3  14   27.77    7.38
   2   4 -14    7.61    9.13
   2  -4  14   12.75    6.46
   2   5 -14    2.78    9.34
   2  -5  14    3.93    6.15
   2   6 -14   28.39    9.23
   2  -6  14   13.94    6.18
   2   7 -14   47.50    9.92
   2   8 -14   16.14    8.46
   2   9 -14    6.86    8.00
   2  10 -14    4.07    7.40
   2  14 -14   16.53    5.23
   2  15 -14    7.21    4.09
   2  12  15    1.38    4.22
   2  11  15    5.48    5.12
   2  10  15    7.75    5.87
   2   9  15   10.59    6.46
   2  -9 -15    8.09    2.54
   2   8  15    8.84    6.91
   2  -8 -15    6.74    2.76
   2   7  15   21.35    7.52
   2  -7 -15   25.91    3.79
   2   6  15    2.94    7.17
   2  -6 -15   15.77    3.40
   2   5  15   12.28    7.18
   2  -5 -15   11.61    3.36
   2   4  15    9.34    6.90
   2  -4 -15   17.19    3.57
   2   3  15   64.64    9.00
   2  -3 -15   59.91    6.53
   2  -2 -15  153.02   13.13
   2   2  15  103.79   14.32
   2   1  15  133.79   13.81
   2   0  15   92.69   10.54
   2   1 -15   93.79   11.15
   2  -1  15  107.30   11.10
   2   2 -15   87.11   10.80
   2  -2  15   99.09   10.26
   2   3 -15   50.86    8.88
   2  -3  15   58.15    7.33
   2   4 -15    7.67    7.18
   2   5 -15    3.27    7.12
   2   6 -15   13.17    7.16
   2   7 -15   17.30    7.15
   2   8 -15    2.74    6.51
   2   9 -15    1.27    6.06
   2  10 -15   18.78    5.86
   2  11 -15   17.10    5.19
   3   0   0 1627.28  144.01
   3   0   0 1603.61  143.77
   3   1   0  236.00   14.91
   3   1   0  218.81   13.48
   3  -2   0  143.18   15.17
   3   2   0  137.62   16.06
   3  -2   0  143.27   14.59
   3   2   0  130.04   14.11
   3  -3   0   20.88    7.62
   3  -3   0   30.02    8.12
   3   3   0   27.38    9.88
   3  -4   0  410.18   37.13
   3   4   0  393.08   38.00
   3  -4   0  404.20   37.23
   3  -5   0    2.89    7.18
   3   5   0   17.09    9.14
   3  -6   0   12.26    7.55
   3   6   0   16.02    9.74
   3  -7   0    1.81    7.57
   3   7   0   13.11    9.55
   3  -8   0  444.31   41.13
   3  -9   0   -2.61    8.65
   3 -10   0   20.41    9.65
   3 -11   0    3.82    9.21
   3  11   0   13.32    8.74
   3 -12   0  150.24   15.01
   3  12   0  134.97   15.30
   3 -12   0  108.34   15.77
   3 -13   0    9.62    9.96
   3 -13   0   19.33    8.77
   3  13   0    5.21    8.33
   3 -14   0    9.40    9.60
   3 -14   0   16.51    9.00
   3  14   0    7.40    7.93
   3 -15   0    5.71    9.26
   3 -15   0    4.30    8.89
   3  15   0    1.45    7.61
   3  16   0  311.68   24.27
   3 -16   0  277.94   25.48
   3 -17   0    9.64    8.64
   3  17   0   21.52    7.55
   3 -18   0   66.62   10.47
   3  18   0   74.31    9.64
   3 -19   0   10.08    7.27
   3  19   0    3.23    6.53
   3 -20   0   21.41    6.80
   3  20   0   26.37    6.53
   3  21   0    6.44    5.79
   3 -21   0    7.85    8.44
   3 -22   0    9.07    7.49
   3  21   1   -1.52    5.60
   3 -20  -1   13.80    6.17
   3  20   1    6.96    6.42
   3 -19  -1    8.02    6.91
   3  19   1    0.94    6.71
   3 -18  -1   17.07    7.77
   3  18   1   21.64    7.49
   3 -18  -1   24.51    9.87
   3 -17  -1   -4.55    7.96
   3  17   1   -4.49    7.08
   3 -17  -1   -1.97    9.81
   3 -16  -1   -1.28    8.28
  -3 -16   1    2.68    7.27
   3  16   1   -3.75    7.73
   3 -16  -1    9.54    9.61
   3 -15  -1    0.92    8.57
   3  15   1   -0.78    7.90
   3 -15  -1   18.75   10.02
   3 -14  -1   75.95   12.71
   3 -14  -1   75.80   11.58
   3  14   1   82.71   11.13
   3 -13  -1    6.23   10.23
   3 -13  -1   17.19    8.63
   3  13   1    2.34    8.46
   3 -12  -1   18.23   10.15
   3 -12  -1   42.38    8.87
   3  12   1   20.02    9.23
   3 -11  -1   28.04    7.97
   3 -11  -1    1.94    9.55
   3  11   1    2.51    8.89
   3 -10  -1   43.67   10.60
   3  -9  -1   -0.50    9.28
   3  -8  -1   27.07    9.34
   3  -7  -1   -6.73    8.22
   3   7   1    0.68    9.22
   3  -6  -1    8.63    7.94
   3   6   1    8.04    9.60
   3  -5  -1    9.15    8.05
   3   5   1   10.87    9.73
   3  -4  -1   64.64    9.94
   3   4   1   69.33    8.82
   3   4   1   62.88   11.56
   3  -3  -1    7.08    7.03
   3   3   1    6.81    6.10
   3  -3  -1    3.21    7.44
   3   3   1    2.96    9.36
   3   2   1  132.88   15.97
   3  -2  -1  145.39   15.06
   3  -2  -1  130.33   14.52
   3   2   1  142.20   14.23
   3  -1  -1    8.67    6.72
   3   1   1    7.47    6.40
   3   1   1    9.29    8.65
   3  -1  -1    6.02    8.24
   3   0  -1    2.15    6.37
   3   0   1    5.79    6.27
   3   0   1    1.50    8.66
   3   0  -1   -1.07    8.35
   3  -1   1   13.98    6.73
   3  -1   1    2.17    8.34
   3   1  -1    7.91    9.20
   3  -2   1  138.06   15.54
   3   2  -1  145.76   16.09
   3  -2   1  141.38   14.69
   3  -3   1   10.41    6.66
   3  -3   1    3.05    8.05
   3   3  -1   10.00    9.17
   3  -4   1   73.78    9.70
   3  -4   1   72.20   10.45
   3   4  -1   64.38   11.65
   3  -5   1   22.92    7.50
   3   5  -1   17.91   10.28
   3  -6   1   17.81    7.75
   3   6  -1   19.39    9.94
   3  -7   1    4.24    7.51
   3   7  -1   11.30    9.43
   3  -8   1   25.32    8.11
   3   8  -1   27.17    9.73
   3  -9   1   -1.68    7.86
   3 -10   1  101.38   10.55
   3 -10   1   56.91   12.05
   3 -11   1   20.24    7.64
   3 -11   1    0.93    8.67
   3  11  -1    9.22    8.84
   3 -12   1    4.54    9.36
   3  12  -1   16.81    8.71
   3 -13   1   -6.23    9.27
   3  13  -1    5.37    7.81
   3 -14   1   61.07   12.07
   3 -14   1   82.93   11.66
   3  14  -1   85.94   11.02
   3 -15   1   -6.45    8.97
   3  15  -1   -3.25    7.44
   3 -16   1   -9.56    9.05
   3  16  -1    1.25    7.12
   3 -17   1   -8.59    8.63
   3  17  -1    1.33    7.03
   3 -18   1   22.57    8.50
   3  18  -1   30.16    7.22
   3 -19   1    5.65    7.30
   3  19  -1    2.30    6.21
   3 -19   1   -2.35    9.44
   3 -20   1    5.26    6.41
   3  20  -1   10.41    5.81
   3 -20   1    0.09    9.09
   3 -21   1    5.03    5.46
   3  21  -1    5.31    5.16
   3 -21   1    4.75    8.56
   3 -22   1   35.69    8.42
   3  20   2   32.63    6.99
   3 -20  -2   15.55    8.78
  -3 -19   2   13.35    5.87
   3  19   2   11.53    7.09
   3 -19  -2   11.54    9.09
   3 -18  -2   16.46    7.21
  -3 -18   2   22.43    6.80
   3  18   2   28.84    7.71
   3 -18  -2   15.97    9.80
   3 -17  -2    6.50    7.51
  -3 -17   2    1.09    7.44
   3  17   2    2.03    7.79
   3 -17  -2   13.45   10.04
   3 -16  -2   26.47    8.41
   3  16   2   51.22    8.77
   3 -16  -2   20.09   10.47
   3 -15  -2    7.83    7.90
   3  15   2    4.83    8.18
   3 -15  -2    4.73   10.40
   3 -14  -2   54.22    9.65
   3  14   2   42.67    9.88
   3 -14  -2   62.33   11.66
   3 -13  -2   24.13    8.39
   3  13   2    4.07    8.76
   3 -13  -2   18.20   10.26
   3 -12  -2   39.09   10.98
   3  12   2   47.04   10.16
   3 -11  -2   17.45   10.21
   3  11   2    3.43    8.86
   3 -10  -2   27.22   10.14
   3  10   2   28.54    9.67
   3  -9  -2    6.91    9.35
   3  -8  -2   60.92   11.00
   3  -7  -2   10.20    9.25
   3   7   2    7.96    9.24
   3  -6  -2   54.71   10.52
   3   6   2   70.72    9.36
   3   6   2   62.92   11.87
   3  -5  -2   10.70    8.51
   3   5   2   14.70    9.84
   3   5   2   15.73    7.12
   3  -4  -2   64.09   10.92
   3   4   2   80.57   10.10
   3   4   2   80.09   12.22
   3  -3  -2    3.18    7.66
   3   3   2   15.63    9.83
   3  -3  -2    5.35    7.02
   3   3   2    9.60    6.80
   3   2   2  136.34   15.39
   3  -2  -2  132.50   14.16
   3  -2  -2  107.62   14.17
   3   2   2  136.46   13.66
   3   1   2   50.25    8.30
   3  -1  -2   33.96    9.45
   3   0   2  211.34   21.50
   3   0  -2  228.29   21.41
   3   0   2  203.11   20.50
   3  -1   2   35.24    9.45
   3  -1   2   33.17    7.57
   3   1  -2   52.16    9.92
   3  -2   2  133.91   15.66
   3   2  -2  147.01   16.26
   3  -2   2  137.65   14.42
   3  -3   2    7.19    6.50
   3  -3   2   13.42    8.57
   3   3  -2    5.78    9.94
   3  -4   2   96.69   11.71
   3  -4   2   82.42   10.54
   3   4  -2   76.90   12.93
   3  -5   2   18.48    7.12
   3  -5   2   18.34    8.38
   3   5  -2   15.81   10.64
   3  -6   2   67.67    9.75
   3   6  -2   55.81   11.79
   3  -7   2   -2.11    7.45
   3   7  -2   11.69    9.97
   3  -8   2   66.80    9.93
   3   8  -2   58.68   12.00
   3  -9   2   10.09    7.96
   3 -10   2   27.25    8.93
   3 -11   2   29.46    7.17
   3 -11   2   -5.33    8.46
   3 -12   2   58.35    8.62
   3 -12   2   28.88    9.56
   3  12  -2   30.70    9.51
   3 -13   2   26.69    8.30
   3  13  -2    8.95    8.26
   3 -14   2   50.09   10.09
   3  14  -2   60.31    9.52
   3 -15   2   -2.53    8.61
   3  15  -2    3.52    7.32
   3 -16   2    8.73    8.84
   3  16  -2   37.09    7.56
   3 -17   2    7.05    9.22
   3 -17   2    7.12    8.30
   3  17  -2    3.81    6.57
   3 -18   2   15.16    8.09
   3  18  -2   23.81    6.93
   3 -19   2   14.80    7.06
   3  19  -2    2.91    5.98
   3 -19   2   -0.38    9.47
   3 -20   2   22.20    6.63
   3  20  -2   35.56    6.40
   3 -20   2   23.48    9.67
   3  21  -2    4.56    5.06
   3 -21   2    5.96    8.60
   3 -22   2   27.58    8.05
  -3 -20   3    3.78    5.26
   3  20   3    3.76    6.21
  -3 -19   3    0.64    6.40
   3  19   3    1.58    7.21
   3 -19  -3   16.18    8.64
  -3 -18   3   25.40    7.85
   3  18   3   42.37    8.52
   3 -18  -3   30.41    9.71
  -3 -17   3    4.86    8.06
   3  17   3    2.32    7.99
   3 -17  -3   11.70    9.63
   3  16   3    0.98    8.10
   3 -16  -3    7.51   10.02
   3  15   3   -6.35    8.60
   3 -15  -3    9.09    9.94
   3  14   3   46.82    9.84
   3 -14  -3   40.32   11.34
   3  13   3   -3.02    9.24
   3 -13  -3   -3.09   10.58
   3  12   3   17.52    9.51
   3 -12  -3   21.57   10.41
   3  11   3    2.15    9.54
   3 -11  -3   19.77    9.71
   3  10   3   84.78   12.33
   3 -10  -3   77.84   12.94
   3  -9  -3   14.25    9.93
   3   9   3   10.19    8.38
   3  -8  -3   10.92    9.66
   3   8   3   11.02    8.50
   3  -7  -3   15.34    9.26
   3   7   3   11.41    8.51
   3   6   3  154.09   17.81
   3  -6  -3  144.79   17.05
   3   6   3  158.03   16.71
   3   5   3    3.17    7.98
   3  -5  -3    3.55    8.68
   3   5   3    8.27    9.63
   3  -4  -3    0.96    8.08
   3   4   3    0.79    9.81
   3   4   3    8.31    7.89
   3  -3  -3    0.75    7.89
   3   3   3    7.46    9.82
   3   3   3    6.91    7.51
   3   2   3   50.80   11.20
   3  -2  -3   58.31    9.54
   3   2   3   66.58    9.28
   3   1   3   -1.75    9.70
   3   1   3    9.60    6.85
   3  -1  -3   15.84    8.44
   3   0   3    1.86    9.27
   3   0   3    8.51    6.78
   3   0  -3    4.17    8.79
   3  -1   3   18.32    9.36
   3  -1   3   19.05    7.18
   3   1  -3    7.90    9.50
   3  -2   3   57.10   10.77
   3  -2   3   57.41    8.80
   3   2  -3   52.74   11.53
   3  -3   3    0.48    9.04
   3  -3   3   -4.39    6.87
   3   3  -3   -0.81   10.18
   3  -4   3    8.71    9.09
   3  -4   3   -0.84    6.59
   3   4  -3   -1.16   10.59
   3  -5   3    8.57    8.86
   3  -5   3    7.19    6.68
   3   5  -3    5.30   10.74
   3   6  -3  164.67   19.51
   3  -6   3  176.78   17.60
   3  -7   3    1.51    6.93
   3   7  -3    8.34   10.39
   3  -8   3    4.81    7.49
   3   8  -3    9.88    9.85
   3  -9   3   -1.46    7.57
   3   9  -3    1.49   10.10
   3 -10   3   65.60   10.57
   3 -11   3    1.17    7.83
   3 -12   3   36.15    7.40
   3  12  -3   20.76    8.83
   3 -13   3   18.43    7.25
   3  13  -3    2.17    8.11
   3 -14   3   33.80    8.55
   3  14  -3   54.44    8.79
   3 -15   3    3.88    7.64
   3 -15   3    3.25    8.28
   3  15  -3    0.07    7.09
   3 -16   3    6.54    9.16
   3 -16   3    1.59    7.65
   3  16  -3    5.80    6.91
   3 -17   3    5.48    9.30
   3 -17   3    5.93    7.37
   3  17  -3    4.87    6.56
   3 -18   3   51.47   10.39
   3 -18   3   27.14    7.75
   3  18  -3   33.21    7.20
   3 -19   3    8.53    6.31
   3  19  -3   10.02    5.86
   3 -19   3   15.02    9.34
   3  20  -3    7.72    5.40
   3 -20   3   -2.67    9.02
   3  21  -3    9.07    4.83
   3 -21   3    5.58    8.33
   3 -22   3   38.83    8.19
  -3 -21   4   13.18    4.80
  -3 -20   4  120.05   12.44
  -3 -19   4   -0.37    6.83
   3  19   4    6.21    7.11
  -3 -18   4    5.66    7.67
   3  18   4   -1.44    8.12
   3  17   4   -1.52    8.36
   3 -17  -4    3.18    9.30
   3  16   4   49.31   10.09
   3 -16  -4   42.17   10.61
   3  15   4    3.81    8.76
   3 -15  -4    2.72    9.61
   3  14   4   55.12   10.91
   3 -14  -4   63.35   11.80
   3  13   4   16.03    9.66
   3 -13  -4   15.54   10.75
   3  12   4  286.40   27.01
   3 -12  -4  257.61   27.42
   3  11   4   17.20    9.77
   3  11   4    8.25    9.48
   3 -11  -4    9.20   10.42
   3  10   4    9.83   10.23
   3  10   4    3.67    9.80
   3 -10  -4   14.60   10.62
   3   9   4   -3.52   10.19
   3   9   4   -2.03    9.60
   3  -9  -4   -0.50    9.85
   3   8   4   45.63   10.81
   3  -8  -4   37.93   10.53
   3   7   4    1.23   10.04
   3  -7  -4   15.38    9.39
   3   6   4   89.21   13.19
   3  -6  -4   97.21   12.84
   3   6   4   88.10   13.66
   3   5   4   26.82    9.69
   3   5   4   24.44   11.07
   3  -5  -4   36.95    9.37
   3   4   4  436.50   41.21
   3   4   4  443.55   40.93
   3   3   4    9.94    8.08
   3   3   4   22.30   10.21
   3   2   4   27.21   10.49
   3  -2  -4   16.10    8.00
   3   2   4   21.53    8.24
   3   1   4   23.94   10.53
   3  -1  -4   16.46    8.88
   3   1   4   28.74    7.90
   3   0  -4  113.84   14.14
   3   0   4  117.26   12.69
   3   0   4   98.47   14.75
   3  -1   4    6.87   10.24
   3  -1   4    3.44    7.05
   3   1  -4   19.21   10.02
   3  -2   4   25.34   10.34
   3  -2   4   13.60    7.06
   3   2  -4   14.97   10.94
   3  -3   4   29.89   10.29
   3  -3   4   11.96    6.90
   3   3  -4   18.38   11.44
   3  -4   4  476.50   40.26
   3   4  -4  386.05   40.81
   3  -4   4  423.99   39.55
   3   5  -4   27.17   11.87
   3  -5   4   30.55    9.86
   3  -5   4   26.22    7.74
   3   6  -4   85.12   15.07
   3  -6   4  117.25   13.76
   3  -6   4   99.51   11.95
   3   7  -4    0.59   11.07
   3  -7   4    7.75    7.35
   3  -8   4   39.50    8.06
   3   8  -4   34.71   11.80
   3  -9   4   -3.08    7.55
   3   9  -4    6.00   10.19
   3 -13   4    4.25    7.79
   3  13  -4    9.04    8.06
   3 -14   4   55.15   10.19
   3  14  -4   51.26    9.22
   3 -15   4   -5.80    9.16
   3  15  -4    0.37    6.97
   3 -16   4   39.38   10.49
   3  16  -4   57.85    8.46
   3 -17   4   10.01    9.44
   3  17  -4    6.05    6.45
   3 -18   4   13.44    9.10
   3  18  -4    2.43    6.02
   3  19  -4    2.95    5.69
   3 -19   4   11.52    9.02
   3  20  -4  168.79   16.14
   3 -20   4  171.51   18.00
   3  21  -4   11.22    4.65
   3 -21   4    9.70    7.93
   3 -22   4   40.66    7.68
  -3 -21   5    3.27    4.52
  -3 -20   5   13.38    6.21
  -3 -19   5   -1.75    7.05
   3  19   5    4.13    7.31
  -3 -18   5   54.53   10.82
   3  18   5  112.01   11.20
   3  17   5   -0.40    8.48
   3  16   5    8.10    8.97
   3  15   5    7.02    9.33
   3 -15  -5    7.30    9.20
   3  14   5  212.85   19.63
   3 -14  -5  150.51   19.22
   3  13   5   12.97    9.62
   3  13   5    0.19    9.69
   3 -13  -5   10.86    9.74
   3  12   5   69.24   12.18
   3  12   5   58.36   11.44
   3 -12  -5   48.29   11.68
   3  11   5    4.65   11.37
   3  11   5   -1.90    9.53
   3 -11  -5    9.60   10.05
   3  10   5   62.35   13.69
   3  10   5   86.77   12.89
   3 -10  -5   68.86   12.30
   3   9   5   -6.64   11.65
   3   9   5   10.87   10.09
   3  -9  -5   14.00    9.92
   3   8   5   -2.57   11.53
   3  -8  -5   13.56    9.79
   3   7   5    7.78   11.36
   3  -7  -5    8.48    9.28
   3   6   5  101.91   14.28
   3  -6  -5   89.74   12.89
   3   5   5    3.87   10.14
   3   5   5    2.85   10.91
   3   4   5   10.27    9.65
   3   4   5    8.01   11.24
   3   3   5   20.40    9.26
   3   3   5   22.41   11.64
   3   2   5  347.91   32.61
   3  -2  -5  303.06   31.18
   3   2   5  365.21   31.74
   3   1   5   42.87    9.19
   3   1   5   32.93   11.66
   3  -1  -5   61.88   10.16
   3   0   5   19.81   11.42
   3   0   5   15.21    7.56
   3   0  -5    6.98    9.81
   3  -1   5   73.93   12.52
   3  -1   5   59.61    9.36
   3  -2   5  335.89   33.16
   3   2  -5  363.03   33.57
   3  -2   5  340.82   32.14
   3   3  -5   15.88   11.69
   3  -3   5    7.27   10.37
   3  -3   5    0.16    6.90
   3   4  -5    2.03   11.95
   3  -4   5    7.02   10.38
   3  -4   5    2.77    6.98
   3   5  -5   10.80   11.95
   3  -5   5    1.08   10.25
   3  -5   5    5.99    6.89
   3   6  -5   80.37   14.84
   3  -6   5   99.33   11.63
   3  -6   5  103.95   13.69
   3   7  -5    6.65   11.44
   3  -7   5    3.35    9.63
   3  -7   5    3.73    6.74
   3   8  -5    2.41   11.38
   3   9  -5    4.18   10.22
   3  10  -5   70.23   12.06
   3 -11   5   -2.54    7.56
   3 -12   5   36.42    8.58
   3 -13   5    3.22    8.09
   3  13  -5    0.09    7.65
   3  14  -5  186.54   17.68
   3 -14   5  151.09   18.19
   3 -15   5   -4.02    8.93
   3  15  -5    1.38    6.98
   3 -16   5   10.89    8.83
   3  16  -5    2.65    6.78
   3 -17   5    0.82    9.11
   3  17  -5    3.99    6.28
   3 -18   5   72.85   11.36
   3  18  -5   65.33    8.67
   3  19  -5    1.19    5.40
   3 -19   5   10.94    8.54
   3  20  -5   12.78    4.90
   3 -20   5   10.55    8.26
   3 -21   5    7.77    6.95
   3  21  -5    5.84    4.23
  -3 -21   6    6.50    4.45
  -3 -20   6   19.26    6.06
  -3 -19   6    5.96    7.24
  -3 -18   6   -5.26    7.99
   3  18   6   17.53    7.68
   3  17   6    8.19    8.56
   3  16   6   16.50    9.45
   3  15   6    7.52    9.46
   3  14   6  114.26   14.94
   3  14   6  118.12   14.43
   3  13   6    7.55   10.50
   3  13   6    5.82   10.13
   3  12   6   70.21   13.53
   3  12   6   57.17   12.24
   3  11   6    3.33   12.17
   3  11   6   14.40   10.80
   3  10   6    0.14   12.33
   3 -10  -6   15.51    9.22
   3  10   6   22.37   10.94
   3   9   6    9.29   12.73
   3  -9  -6   25.53    9.02
   3   9   6   25.93   10.94
   3   8   6   92.79   16.74
   3   8   6  108.95   15.56
   3  -8  -6  124.14   13.84
   3   7   6    5.61   12.05
   3   6   6  223.00   23.78
   3   5   6   20.05   10.89
   3   5   6    4.31   11.29
   3   4   6   99.73   14.46
   3   4   6  108.92   15.64
   3   3   6   20.19    9.94
   3   3   6   29.35   11.89
   3   2   6   35.37    9.66
   3   2   6   51.96   12.05
   3  -2  -6   36.69    8.80
   3   1   6   16.92    8.54
   3   1   6   14.75   11.45
   3  -1  -6   11.29    9.13
   3   0  -6   48.52   11.28
   3   0   6   65.03   12.33
   3   0   6   51.85    9.65
   3   1  -6   14.28   11.00
   3  -1   6   11.55   10.90
   3  -1   6    8.76    7.88
   3   2  -6   37.08   12.29
   3  -2   6   41.02   11.91
   3  -2   6   33.03    8.30
   3   3  -6   22.35   12.31
   3  -3   6   26.13   11.85
   3  -3   6   20.32    7.36
   3   4  -6   66.08   14.91
   3  -4   6   82.46   10.70
   3  -4   6   89.07   13.85
   3   5  -6   -2.96   12.66
   3  -5   6   15.22   11.07
   3  -5   6    8.90    7.20
   3   6  -6  125.76   20.33
   3  -6   6  204.38   19.41
   3   7  -6    2.05   12.05
   3  -7   6    8.64   10.53
   3   8  -6   94.91   15.12
   3   9  -6   18.47   10.83
   3  -9   6    8.83    7.22
   3  10  -6   16.65    9.82
   3 -10   6   15.58    7.34
   3 -11   6   10.48    7.35
   3 -12   6   40.33    8.94
   3 -13   6   -4.03    7.95
   3 -14   6   55.55   11.01
   3  14  -6   80.34   10.25
   3 -15   6   -6.99    8.44
   3  15  -6    3.15    6.95
   3 -16   6   20.70    8.85
   3  16  -6   12.94    6.92
   3 -17   6   14.84    8.72
   3  17  -6    3.12    6.10
   3 -18   6   12.51    8.41
   3  18  -6    3.16    5.66
   3  19  -6    6.26    5.13
   3 -19   6   12.76    8.16
   3 -20   6   26.57    7.75
   3  20  -6   30.83    5.29
  -3 -20   7    4.50    5.05
  -3 -19   7    4.35    6.56
  -3 -18   7   24.93    8.11
   3  18   7   45.52    7.74
   3  17   7   -0.06    8.04
   3  16   7    7.41    9.02
   3  15   7   12.19    7.72
   3  15   7   19.44    9.83
   3  14   7   11.71    9.50
   3  14   7   12.81   10.20
   3  13   7   13.40   10.55
   3  13   7    2.65   10.46
   3  12   7   24.92   12.01
   3  12   7   27.40   11.04
   3  11   7   -1.86   12.84
   3  11   7    2.91   10.66
   3  10   7  133.37   14.17
   3  10   7   24.55   15.59
   3   9   7   -2.34   13.41
   3   9   7    9.04   11.19
   3   8   7    1.90   12.74
   3   8   7    2.30   11.02
   3   7   7    5.70   12.84
   3   6   7  138.11   18.33
   3   5   7  -11.28   11.76
   3   4   7   10.43   10.79
   3   4   7    4.77   11.93
   3   3   7   11.09    9.91
   3   3   7   17.38   12.07
   3   2   7   61.62   11.07
   3   2   7   58.75   13.76
   3   1   7   10.21    9.27
   3   1   7   10.92   11.64
   3  -1  -7   21.06    9.07
   3   0   7   12.80    8.37
   3   0  -7    8.21   10.07
   3   0   7   12.98   12.32
   3   1  -7   14.28   10.97
   3  -1   7   19.79   12.34
   3  -1   7   14.13    7.55
   3   2  -7   55.52   13.28
   3  -2   7   70.87   13.50
   3  -2   7   58.80    9.36
   3   3  -7   10.58   12.42
   3  -3   7   12.28   12.11
   3  -3   7    7.04    7.16
   3   4  -7    5.86   12.84
   3  -4   7   13.98   11.96
   3   5  -7   -7.38   12.99
   3  -5   7    0.92   11.43
   3   6  -7   71.23   16.45
   3  -6   7  125.71   15.00
   3   7  -7   -7.60   12.26
   3  -7   7    0.35   10.15
   3   8  -7   12.14   11.71
   3  -8   7   -2.22    6.87
   3   9  -7    6.37   10.95
   3  -9   7   -3.79    7.06
   3  10  -7  127.22   15.46
   3 -10   7  114.77   13.87
   3 -11   7    4.78    7.41
   3 -12   7    1.81    7.41
   3 -13   7   -0.43    8.05
   3 -14   7    1.69    8.28
   3  14  -7    1.52    7.42
   3 -15   7    1.56    8.42
   3  15  -7   -3.46    7.04
   3 -16   7    7.40    8.51
   3  16  -7    2.77    6.66
   3 -17   7    1.40    8.23
   3  17  -7   -1.61    5.89
   3  18  -7   30.85    6.25
   3 -18   7   40.34    8.47
   3  19  -7    5.33    4.58
   3 -19   7   -4.85    6.93
   3  20  -7    2.65    3.80
  -3 -20   8   16.41    4.14
  -3 -19   8    5.19    5.37
  -3 -18   8   21.28    7.06
  -3 -17   8   13.98    7.87
   3  17   8    6.92    6.86
   3  16   8  255.90   19.36
   3  16   8  159.87   17.72
   3  15   8   12.49    7.11
   3  15   8    1.96    9.55
   3  14   8   13.95    8.84
   3  14   8    5.84    9.90
   3  13   8    5.97   10.00
   3  13   8    1.27   10.43
   3  12   8   65.16   13.02
   3  12   8   48.96   12.23
   3  11   8   -3.69   12.19
   3  11   8   -6.02   11.02
   3  10   8   15.72   13.20
   3  10   8   43.14   11.86
   3   9   8   11.52   12.62
   3   9   8   11.75   11.57
   3   8   8  400.71   38.29
   3   8   8  395.74   39.10
   3   7   8    8.89   12.49
   3   7   8   29.73   11.85
   3   6   8   30.82   12.44
   3   5   8    4.80   11.38
   3   4   8   87.74   13.73
   3   4   8   97.54   15.19
   3   3   8   15.60   10.34
   3   3   8    2.51   12.56
   3   2   8   71.19   12.24
   3   2   8   91.30   14.64
   3  -1  -8   66.07   12.13
   3   1   8   92.35   12.60
   3   0   8  463.13   43.79
   3   0  -8  469.67   42.68
   3   0   8  447.25   42.46
   3  -1   8   59.24   15.64
   3  -1   8   77.28   12.28
   3   2  -8   47.00   13.07
   3  -2   8   65.49   13.96
   3   3  -8   -0.47   12.41
   3  -3   8    4.50   12.15
   3   4  -8   57.63   14.59
   3  -4   8   82.84   13.80
   3   5  -8  -14.52   13.11
   3  -5   8   11.88   11.63
   3   6  -8    5.24   12.87
   3  -6   8   29.98   11.19
   3  -6   8   22.31    7.33
   3   7  -8   21.91   12.17
   3  -7   8   23.24    7.48
   3   8  -8  421.95   39.93
   3  -8   8  412.29   38.35
   3   9  -8   21.89   11.24
   3  -9   8   15.15    7.17
   3  10  -8   47.27   11.56
   3 -10   8   45.17    8.59
   3  11  -8    0.10    9.27
   3 -11   8   -7.95    7.37
   3 -12   8   41.74    9.00
   3 -13   8   -4.75    7.61
   3 -14   8   -2.49    8.01
   3 -15   8   -3.27    8.05
   3  15  -8    4.55    6.75
   3  16  -8  175.59   17.16
   3 -16   8  172.94   18.00
   3 -17   8    8.44    7.24
   3  17  -8    4.17    5.53
   3  18  -8   22.18    5.81
   3 -18   8   41.10    7.17
   3  19  -8    2.84    3.99
  -3 -19   9    2.92    3.84
  -3 -18   9   28.70    6.15
  -3 -17   9    3.22    6.73
   3  16   9   12.27    4.55
   3  16   9    4.26    6.87
   3  15   9    1.26    5.96
   3  15   9    6.60    8.09
   3  14   9   62.91   10.38
   3  14   9   84.78   11.75
   3  13   9   -0.65    9.08
   3  13   9   -3.23   10.06
   3  12   9   13.93   10.38
   3  12   9   12.56   10.99
   3  11   9    6.26   10.86
   3  11   9    1.40   10.95
   3  10   9   47.23   13.59
   3  10   9   94.87   13.48
   3   9   9   -4.46   11.58
   3   9   9    1.50   11.79
   3   8   9   12.70   12.33
   3   8   9   22.28   11.74
   3   7   9   -2.31   11.55
   3   7   9    1.89   11.69
   3   6   9   83.18   14.45
   3   5   9   -2.46   10.96
   3   4   9    2.59   10.15
   3   4   9   -1.45   11.84
   3   3   9   14.75    9.87
   3   3   9   22.80   12.51
   3   2   9  143.99   18.95
   3   2   9  149.06   16.67
   3   1   9   38.05    9.32
   3   1   9   21.83   13.15
   3  -1  -9   40.93    9.00
   3   0  -9   13.61    9.27
   3   0   9   20.07   12.78
   3   1  -9   13.61   10.24
   3  -1   9   26.27   12.89
   3  -2   9  175.53   19.50
   3   2  -9  143.57   18.60
   3   3  -9   36.06   12.27
   3  -3   9   26.21   12.28
   3   4  -9    1.39   12.23
   3  -4   9    8.71   11.91
   3  -4   9    1.93    6.60
   3   5  -9   -7.59   12.65
   3  -5   9    3.03    6.69
   3   6  -9   37.58   13.74
   3  -6   9   71.89    9.45
   3   7  -9    2.16   12.09
   3  -7   9    2.37    6.77
   3   8  -9   24.28   11.65
   3  -8   9   17.38    7.08
   3   9  -9   10.99   10.87
   3  -9   9   -3.93    7.12
   3  10  -9   93.03   13.27
   3 -10   9   79.87   10.94
   3  11  -9    6.38    9.32
   3 -11   9    4.46    7.44
   3 -12   9  -11.14    7.41
   3 -13   9    0.55    7.45
   3 -14   9   51.04    9.21
   3 -15   9    8.87    7.38
   3  15  -9   12.10    6.59
   3 -16   9   21.80    7.09
   3  16  -9   14.83    6.01
   3  17  -9    1.89    4.97
   3 -17   9   18.91    5.75
   3  18  -9   41.95    5.74
   3  15  10    2.51    4.50
   3  14  10   40.85    7.40
   3  14  10   47.13    8.91
   3  13  10    6.38    7.60
   3  13  10    2.82    8.91
   3  12  10   24.28    9.21
   3  12  10   44.88   10.63
   3  11  10    8.91    9.26
   3  11  10    0.34   10.44
   3  10  10   17.18   10.43
   3  10  10   25.06   11.66
   3   9  10   -3.22   10.66
   3   9  10    1.35   11.22
   3   8  10   13.42   11.04
   3   8  10   23.65   11.89
   3   7  10    9.08   11.35
   3   7  10    7.83   11.68
   3   6  10   43.93   11.88
   3   5  10    5.72   10.16
   3   4  10   86.41   13.05
   3   3  10   19.11    9.60
   3   3  10   19.69   12.44
   3   2  10   90.18   15.46
   3   1  10   50.58   13.51
   3   0 -10   99.89   12.80
   3   0  10  110.01   16.11
   3   1 -10   68.47   10.99
   3  -1  10   51.61   13.68
   3   2 -10   70.84   12.01
   3  -2  10   63.74   13.35
   3  -2  10   57.32    9.51
   3   3 -10   24.02   11.21
   3  -3  10   11.68    7.32
   3   4 -10   61.68   13.27
   3  -4  10   68.73    9.46
   3   5 -10    7.70   11.48
   3  -5  10   14.49    7.29
   3   6 -10   48.38   12.78
   3  -6  10   53.70    8.64
   3   7 -10   13.18   11.45
   3  -7  10   -1.23    6.92
   3   8 -10   31.03   11.17
   3  -8  10   17.16    7.36
   3   9 -10    8.80   10.25
   3  -9  10   -6.26    6.82
   3  10 -10   40.31   10.28
   3 -10  10   28.85    7.71
   3  11 -10   -1.57    8.67
   3 -11  10    1.50    6.94
   3  12 -10   39.59    8.79
   3 -12  10   14.18    7.58
   3 -13  10   -4.31    7.02
   3 -14  10   41.15    7.75
   3 -15  10   18.27    5.89
   3  15 -10   -1.15    5.76
   3  16 -10   28.37    5.66
   3  17 -10    4.64    3.82
  -3 -15  11    2.57    5.30
   3  14  11   29.04    5.00
  -3 -14  11   24.15    7.21
   3  13  11    3.78    5.58
   3  12  11    6.71    6.87
   3  11  11    3.03    7.63
   3  10  11   49.37   10.27
   3  10  11   69.29   11.63
   3   9  11    0.52    8.99
   3   9  11   -7.11   10.62
   3   8  11    0.09    9.40
   3   8  11   -6.05   10.58
   3   7  11   -3.79    9.32
   3   7  11    2.39   11.22
   3   6  11  174.37   19.20
   3   6  11  154.01   17.87
   3   5  11   15.16    9.55
   3   3  11   17.27   12.19
   3   2  11   83.21   14.42
   3   1  11   33.54   12.47
   3   0  11   17.98    8.08
   3   1 -11   16.96    7.74
   3  -1  11   15.18    7.68
   3   2 -11   87.92   12.40
   3  -2  11  105.63   11.88
   3   3 -11   26.69    9.77
   3  -3  11   16.10    7.39
   3   4 -11   34.29   10.51
   3  -4  11   43.76    7.87
   3   5 -11   23.26   10.14
   3  -5  11   14.08    6.98
   3   6 -11  161.77   19.32
   3  -6  11  189.29   17.90
   3   7 -11   17.66    9.81
   3  -7  11    7.09    6.83
   3   8 -11   11.10    9.90
   3  -8  11    1.03    6.73
   3   9 -11    5.97    9.14
   3  -9  11   -4.40    6.53
   3  10 -11   64.04   10.52
   3 -10  11   56.63    8.75
   3  11 -11    3.36    8.13
   3 -11  11   -5.32    6.52
   3 -12  11    4.76    6.27
   3  12 -11    5.54    7.02
   3 -13  11    8.27    5.48
  -3 -12  12   96.19   11.16
   3  12  12  102.03   10.18
   3  11  12    6.94    5.46
   3  10  12   10.12    6.33
   3   9  12    3.25    6.90
   3   8  12   17.31    7.62
   3   7  12   -4.14    7.63
   3   2  12   51.26    9.13
   3   1  12   19.93    7.42
   3   0  12   10.44    7.02
   3  -1  12   14.07    6.95
   3  -2  12   64.67    8.60
   3   2 -12   44.93    7.93
   3   3 -12   49.98    8.93
   3  -3  12   53.81    8.32
   3   4 -12  162.80   18.01
   3  -4  12  192.74   17.71
   3   5 -12   22.98    8.55
   3  -5  12   28.02    6.91
   3   6 -12   34.97    8.82
   3  -6  12   26.15    6.91
   3   7 -12   16.40    8.24
   3  -7  12    4.35    6.20
   3   8 -12   33.97    8.48
   3  -8  12   26.30    6.72
   3   9 -12    5.85    7.34
   3  -9  12   -0.17    5.63
   3 -10  12    4.26    5.53
   3  10 -12    8.02    6.78
   3  11 -12    8.96    6.21
   3  12 -12  157.41   15.28
   3  13 -12    9.22    4.35
   3  10  13   27.94    4.54
   3   9  13    4.00    4.49
   3   8  13   11.15    5.23
   3   4  13   25.25    6.77
   3   3  13   25.38    6.79
   3   2  13   87.74   10.40
   3   1  13   45.45    7.67
   3   0  13    9.66    6.22
   3  -1  13   18.48    6.33
   3  -2  13   99.51   11.03
   3  -3  13   23.57    6.27
   3  -4  13   36.54    6.75
   3  -5  13   11.92    5.63
   3   5 -13   11.00    5.78
   3   6 -13  137.61   14.96
   3  -6  13  171.77   15.02
   3  -7  13   14.36    5.02
   3   7 -13    8.08    5.50
   3   8 -13   12.03    5.33
   3   4  14   12.27    4.21
   3   3  14    5.99    4.25
   3   2  14   32.08    5.37
   3   1  14   29.21    5.27
   3   0  14   47.57    6.31
   3  -1  14   29.44    5.15
   4   0   0  279.16   27.00
   4  -1   0 1005.91   92.42
   4   1   0 1066.48   92.70
   4   2   0  134.07   16.11
   4  -3   0   54.68   10.36
   4   3   0   53.72   11.57
   4  -4   0   77.41   12.00
   4   4   0   83.10   13.14
   4  -5   0   58.55   10.95
   4   5   0   55.87   11.93
   4  -6   0   17.27    8.95
   4   6   0   13.89   10.31
   4   7   0  461.52   47.36
   4  -7   0  558.80   47.18
   4  -8   0   81.00   11.25
   4   8   0   64.72   12.13
   4   9   0  556.63   53.22
   4  -9   0  602.69   52.99
   4  10   0   10.59    8.68
   4 -10   0   28.62    8.67
   4 -11   0    9.81    8.17
   4 -12   0    8.51    7.85
   4 -13   0   13.65    7.42
   4  14   0    6.27    6.20
   4 -14   0    5.75    6.89
   4  15   0  238.58   18.54
   4 -15   0  147.27   18.58
   4  16   0    8.48    5.13
   4 -16   0   23.63    5.42
   4  16   1   -1.37    4.94
   4  15   1   22.47    6.40
   4 -15  -1   25.28    6.11
   4  14   1    1.71    6.58
   4 -14  -1   14.74    6.66
   4 -13  -1   31.04    7.87
   4 -12  -1    6.63    7.61
   4 -11  -1   59.79    9.91
   4  10   1    8.36    8.54
   4 -10  -1    4.80    8.14
   4   9   1   34.07    9.96
   4  -9  -1   43.59    9.71
   4   8   1    3.01    9.27
   4  -8  -1    9.92    8.56
   4   7   1   52.12   11.61
   4  -7  -1   85.32   11.17
   4   6   1   13.79   10.41
   4  -6  -1   28.22    9.32
   4   5   1  133.85   16.43
   4   4   1   17.13   10.47
   4   3   1   65.26   12.13
   4   2   1   25.31   10.65
   4   1   1  117.89   14.55
   4  -1  -1  104.52   12.84
   4   0   1   23.55    9.95
   4   0  -1   15.40    8.73
   4  -1   1   93.82   13.49
   4  -1   1  110.16   13.50
   4   1  -1  116.59   13.50
   4  -2   1   21.84    9.55
   4  -2   1   15.77    8.46
   4   2  -1   36.69    9.91
   4  -3   1   61.10   11.00
   4   3  -1   71.64   12.03
   4  -4   1   16.32    9.18
   4   4  -1   15.27   10.46
   4   5  -1  139.94   15.77
   4  -5   1  113.03   14.69
   4  -6   1   16.53    9.19
   4   6  -1    2.60   10.28
   4  -7   1   57.64   10.28
   4   7  -1   50.19   11.49
   4  -8   1   10.22    8.93
   4   8  -1    0.44    9.66
   4  -9   1   53.04    9.92
   4   9  -1   40.89   10.49
   4 -10   1   16.20    8.30
   4  10  -1    7.48    8.46
   4 -11   1   77.01   11.00
   4  11  -1   76.02   11.17
   4 -12   1   14.04    7.62
   4 -13   1   26.06    8.01
   4 -14   1    1.96    6.77
   4  15  -1   28.65    6.10
   4 -15   1   24.80    6.74
   4  16  -1   -0.46    4.86
   4 -16   1    8.19    5.20
   4  16   2    0.30    4.48
   4  15   2   49.15    7.41
   4  14   2   -2.58    6.58
   4  13   2   51.66    8.35
   4 -13  -2   33.03    7.52
   4 -12  -2   12.81    6.94
   4 -11  -2   50.55    8.79
   4  10   2    2.59    8.72
   4 -10  -2   17.56    7.74
   4   9   2   59.62   10.48
   4  -9  -2   54.93    9.72
   4   8   2  -10.07    9.54
   4  -8  -2   18.61    8.10
   4   7   2  102.64   14.02
   4   6   2    3.83   10.23
   4   5   2   52.39   11.70
   4   4   2    9.63   10.69
   4   3   2   93.89   14.02
   4   2   2   27.74   11.10
   4   1   2  140.42   16.59
   4   0   2    6.47    9.30
   4   0   2   34.74   10.21
   4   0  -2   22.16    8.14
   4  -1   2  121.14   15.25
   4  -1   2  142.94   15.42
   4   1  -2  136.18   15.22
   4  -2   2    0.64    9.08
   4  -2   2   11.34    8.64
   4   2  -2   20.63    9.71
   4  -3   2   79.55   12.29
   4   3  -2   96.47   13.03
   4  -4   2   -7.71    9.02
   4   4  -2    6.51   10.22
   4  -5   2   44.14   10.13
   4   5  -2   62.26   11.77
   4  -6   2   -0.08    8.87
   4   6  -2    6.43   10.22
   4  -7   2   89.07   12.23
   4   7  -2   85.91   13.23
   4  -8   2   -3.95    8.47
   4   8  -2    2.03    9.89
   4  -9   2   46.93    9.33
   4   9  -2   39.23   10.27
   4 -10   2   12.05    8.19
   4  10  -2    8.03    8.79
   4 -11   2   54.85    9.75
   4  11  -2   63.91    9.95
   4 -12   2    9.19    7.26
   4 -13   2   56.66    9.00
   4 -14   2    7.48    6.76
   4  15  -2   46.82    6.74
   4 -15   2   27.87    7.05
   4  16  -2   -0.47    4.45
   4 -16   2    7.04    5.16
   4  16   3   -2.00    4.41
   4  15   3   25.34    5.89
   4  14   3   -0.62    6.15
   4  13   3   24.67    7.29
   4   9   3   41.53   10.04
   4   8   3    0.87    9.30
   4   7   3  104.91   14.11
   4   6   3   16.11   10.33
   4   5   3  123.14   15.80
   4   4   3   -1.99   10.68
   4   3   3   54.67   12.13
   4   2   3   20.36    8.82
   4   2   3   31.13   11.05
   4   1   3   90.54   12.34
   4   1   3   95.61   13.44
   4   0   3   27.40    9.28
   4   0   3   28.25   10.30
   4   0  -3   15.33    7.57
   4   1  -3  102.51   12.73
   4  -1   3  116.80   13.20
   4  -1   3   90.51   13.44
   4  -2   3   19.46    9.20
   4  -2   3   24.66    9.45
   4   2  -3   20.92    9.39
   4  -3   3   49.37   10.24
   4   3  -3   60.99   11.22
   4  -4   3   -6.63    9.02
   4   4  -3   11.18   10.06
   4   5  -3  119.88   15.62
   4  -5   3  124.21   14.45
   4  -6   3   15.24    8.97
   4   6  -3   33.54   11.03
   4  -7   3  117.17   13.47
   4   7  -3   93.30   14.37
   4  -8   3   -1.07    8.21
   4   8  -3   -9.27    9.87
   4  -9   3   56.48    9.77
   4   9  -3   50.38   10.95
   4 -10   3    0.35    7.80
   4  10  -3   11.69    8.75
   4  11  -3   83.49   11.11
   4 -11   3   71.40   10.66
   4 -12   3   -0.06    7.19
   4  12  -3   -0.91    7.33
   4 -13   3   24.76    7.34
   4 -14   3   14.72    6.64
   4  15  -3   23.21    5.56
   4 -15   3    8.68    5.96
   4  16  -3    2.82    4.26
   4 -16   3    7.46    4.84
   4  15   4   -0.84    4.88
   4  14   4    4.28    5.83
   4  13   4  331.81   30.58
   4  12   4   18.02    7.64
   4   9   4    9.54    8.80
   4   8   4   21.87    9.79
   4   7   4    2.89    9.96
   4   6   4   13.66   10.18
   4   5   4  611.82   56.10
   4   4   4  105.52   13.85
   4   4   4   80.99   12.01
   4   3   4  575.59   45.38
   4   3   4  430.81   44.60
   4   2   4   33.83    9.81
   4   2   4   21.91   10.81
   4   1   4   27.37    9.65
   4   1   4   19.10   10.65
   4   0   4   47.96   10.01
   4   0   4   29.45   10.81
   4  -1   4   27.81    9.05
   4  -1   4   18.68    9.92
   4   1  -4   22.73    7.87
   4  -2   4   75.05   10.59
   4  -2   4   64.11   10.71
   4   3  -4  547.46   51.93
   4  -3   4  589.31   51.94
   4  -4   4   79.60   11.54
   4   4  -4   78.90   12.64
   4   5  -4  619.41   60.70
   4  -5   4  706.66   60.47
   4  -6   4    0.62    8.41
   4   6  -4    2.05   10.10
   4  -7   4   -4.42    8.20
   4   7  -4    6.66   10.13
   4  -8   4   17.42    8.32
   4   8  -4    8.63   10.21
   4  -9   4    7.17    7.83
   4   9  -4    4.64    9.30
   4 -10   4    5.22    7.47
   4  10  -4    7.11    8.84
   4  11  -4  235.34   21.89
   4 -11   4  209.63   21.61
   4 -12   4   19.81    7.25
   4  12  -4   14.77    7.71
   4 -13   4  220.12   21.15
   4 -14   4   14.65    6.23
   4 -15   4    3.77    5.26
   4  14   5   13.44    5.47
   4  13   5   81.70    9.92
   4  12   5    9.32    7.40
   4   8   5    3.00    9.38
   4   7   5  101.11   13.76
   4   6   5   20.87   10.63
   4   5   5   78.21   10.95
   4   5   5   76.86   12.74
   4   4   5    7.83    8.50
   4   4   5    2.85   10.53
   4   3   5  118.59   14.61
   4   3   5   89.32   13.01
   4   2   5   80.11   12.01
   4   2   5   75.32   13.02
   4   1   5  251.83   23.92
   4   1   5  215.42   23.27
   4   0   5   58.44   11.04
   4   0   5   65.11   11.99
   4  -1   5  186.61   20.81
   4  -1   5  214.35   20.64
   4  -2   5   60.35   10.52
   4  -2   5   54.70   10.59
   4   2  -5   38.53    9.47
   4  -3   5  118.17   14.40
   4   3  -5  120.81   14.68
   4  -3   5  143.68   14.85
   4  -4   5   10.86    8.26
   4   4  -5    2.59    9.48
   4  -5   5   70.65   10.36
   4   5  -5   59.12   11.91
   4  -6   5   -4.37    8.09
   4   6  -5    7.19    9.77
   4  -7   5   95.36   10.91
   4   7  -5   47.53   12.04
   4  -8   5   -6.63    7.61
   4   8  -5   -2.31    9.47
   4  -9   5   16.18    8.11
   4   9  -5   27.95    9.77
   4 -10   5    7.97    7.42
   4  10  -5    9.59    8.44
   4  11  -5  107.63   11.51
   4 -11   5   73.52   11.05
   4 -12   5   23.58    6.99
   4  12  -5   19.51    7.49
   4 -13   5   41.63    8.44
   4  13  -5   80.06    8.53
   4  13   6   26.26    6.16
   4  12   6    2.42    6.57
   4  11   6   50.00    8.72
   4   8   6    9.38    9.44
   4   7   6   56.31   11.37
   4   6   6    8.64    7.19
   4   6   6   -3.88   10.01
   4   5   6   59.62   10.27
   4   5   6   75.06   12.15
   4   4   6   -3.00    9.02
   4   4   6   10.09   10.57
   4   3   6   64.67   11.04
   4   3   6   65.09   12.30
   4   2   6   35.96    9.73
   4   2   6   15.83   10.98
   4   1   6   36.58    9.73
   4   1   6   32.91   11.08
   4   0   6   26.51    9.36
   4   0   6   24.76   10.75
   4  -1   6   43.64    9.69
   4  -1   6   38.57   10.52
   4  -2   6   14.27    8.75
   4  -2   6   17.12    8.95
   4  -3   6   75.77   11.25
   4  -3   6   68.02   11.12
   4   3  -6   84.23   10.45
   4  -4   6   15.51    8.28
   4   4  -6    5.65    8.30
   4  -5   6   69.80   10.13
   4   5  -6   57.92   10.76
   4  -6   6   -2.96    7.64
   4   6  -6    2.91    8.95
   4  -7   6   43.25    8.44
   4   7  -6   16.84    9.47
   4  -8   6  -15.45    7.62
   4   8  -6   -5.87    8.97
   4  -9   6   12.05    7.54
   4   9  -6   23.15    8.74
   4 -10   6    7.01    6.96
   4  10  -6   14.31    8.00
   4 -11   6   28.48    7.84
   4  11  -6   62.47    8.41
   4  12  -6    5.70    6.26
   4  13  -6   32.60    6.19
   4  12   7    7.11    5.21
   4  11   7   23.54    6.79
   4   7   7   54.09   10.60
   4   6   7   18.70    7.21
   4   6   7   22.69    9.63
   4   5   7   45.60    9.33
   4   5   7   74.51   11.65
   4   4   7    4.71   10.15
   4   4   7   -6.75    8.35
   4   3   7   36.01   10.69
   4   3   7   23.58    9.05
   4   2   7   31.11   11.07
   4   2   7   35.53    9.59
   4   1   7   23.55    9.48
   4   1   7   39.81   10.68
   4   0   7   10.18    8.96
   4   0   7   12.71    9.52
   4  -1   7   16.68    9.06
   4  -1   7   27.95    9.66
   4  -2   7   28.13    8.71
   4  -2   7   27.08    8.61
   4  -3   7   51.96    9.75
   4  -4   7    9.59    7.97
   4   4  -7   15.18    7.24
   4  -5   7   68.05   10.12
   4   5  -7   69.49   10.37
   4  -6   7    5.58    7.62
   4   6  -7   10.89    8.03
   4  -7   7   50.11    8.40
   4   7  -7   23.36    8.77
   4  -8   7   -4.76    7.14
   4   8  -7    5.42    7.85
   4  -9   7   22.44    7.44
   4   9  -7   46.29    8.39
   4  10  -7   22.77    7.31
   4  11  -7   21.45    6.54
   4  12  -7   11.35    5.12
   4   7   8  267.78   25.67
   4   6   8   -3.22    8.60
   4   5   8    3.70    9.20
   4   5   8   10.29    7.05
   4   4   8   20.19    9.43
   4   4   8   -0.47    7.48
   4   3   8   26.72    9.67
   4   3   8   17.73    8.34
   4   2   8   96.34   11.73
   4   2   8   44.81   10.53
   4   1   8  425.16   33.76
   4   1   8  305.22   33.42
   4   0   8  212.06   23.18
   4   0   8  262.84   23.33
   4  -1   8  327.38   30.75
   4  -2   8   48.35    9.28
   4  -3   8   18.93    7.94
   4  -4   8   15.65    7.54
   4  -5   8   -6.88    7.34
   4  -6   8   -6.35    7.10
   4   6  -8   17.18    6.12
   4   7  -8  209.89   20.18
   4  -7   8  212.96   20.38
   4   8  -8   27.69    6.82
   4   7   9   24.57    6.67
   4   6   9   11.27    6.95
   4   5   9   21.32    7.72
   4   4   9    3.82    5.97
   4   3   9   37.91    7.56
   4   2   9   47.72    8.65
   4   1   9   51.85    8.83
   4   0   9   36.85    8.08
   4  -1   9   49.24    8.66
   4  -2   9   36.77    7.89
   4  -3   9   82.62   10.25
   4  -4   9    0.68    6.48
   4  -5   9    5.12    6.35
   0   0   0    0.00    0.00


TITL 3717 in P2(1)2(1)2(1)
REM P2(1)2(1)2(1) (#19 in standard setting)
CELL 1.54184   3.811018  14.584959  25.004410  90.0000  90.0000  90.0000
ZERR    1.00   0.000493   0.001346   0.005235   0.0000   0.0000   0.0000
LATT -1
SYMM -x+1/2,-y, z+1/2
SYMM -x, y+1/2,-z+1/2
SYMM  x+1/2,-y+1/2,-z
SFAC Fe
UNIT 1.00
TREF
HKLF 4
END
_computing_structure_solution     'SHELXT 2014/5 (Sheldrick, 2014)'
;
_shelx_hkl_checksum              46115
_olex2_submission_special_instructions 'No special instructions were received'
_oxdiff_exptl_absorpt_empirical_details
;
Empirical correction (ABSPACK) includes:
- Absorption correction using spherical harmonics
- Frame scaling
;
_oxdiff_exptl_absorpt_empirical_full_max 2.385
_oxdiff_exptl_absorpt_empirical_full_min 0.511
loop_
_space_group_symop_operation_xyz
'x, y, z'
'-x, -y, z+1/2'
'-x, y+1/2, -z+1/2'
'x, -y+1/2, -z'
'-x, -y, -z'
'x, y, -z-1/2'
'x, -y-1/2, z-1/2'
'-x, y-1/2, z'
loop_
_atom_site_label
_atom_site_type_symbol
_atom_site_fract_x
_atom_site_fract_y
_atom_site_fract_z
_atom_site_U_iso_or_equiv
_atom_site_adp_type
_atom_site_occupancy
_atom_site_site_symmetry_order
_atom_site_calc_flag
_atom_site_refinement_flags_posn
_atom_site_refinement_flags_adp
_atom_site_refinement_flags_occupancy
_atom_site_disorder_assembly
_atom_site_disorder_group
Fe1 Fe 0.8134(10) 0.750000 0.500000 0.0182(13) Uani 1 2 d S T P . .
Fe2 Fe 0.8230(7) 0.62749(13) 0.37435(17) 0.0188(12) Uani 1 1 d . . . . .
O1 O 0.807(3) 0.6869(5) 0.5828(9) 0.022(3) Uani 1 1 d . U . . .
O3 O 1.166(4) 0.4463(5) 0.6722(9) 0.028(3) Uani 1 1 d . . . . .
O2 O 0.828(4) 0.6096(6) 0.5060(10) 0.034(4) Uani 1 1 d . U . . .
F1 F 0.337(6) 0.750000 0.500000 0.069(8) Uani 1 2 d S TU P . .
O4 O 0.808(5) 0.7042(6) 0.3968(11) 0.039(4) Uani 1 1 d . U . . .
F2 F 0.354(4) 0.6274(7) 0.3763(14) 0.064(5) Uani 1 1 d . U . . .
C1 C 0.830(5) 0.6396(8) 0.5799(13) 0.020(4) Uani 1 1 d . U . . .
O5 O 0.817(7) 0.6512(9) 0.250000 0.042(6) Uani 1 2 d S TU P . .
O6 O 0.316(6) 0.7472(9) 0.250000 0.040(6) Uani 1 2 d S T P . .
H6A H 0.433748 0.727307 0.285970 0.048 Uiso 0.5 1 d R . . . .
H6B H 0.192728 0.727467 0.215100 0.048 Uiso 0.5 1 d R . . . .
C6 C 1.128(7) 0.4700(11) 0.750000 0.027(6) Uani 1 2 d S T P . .
C2 C 0.879(6) 0.6073(8) 0.6669(14) 0.027(5) Uani 1 1 d . U . . .
C3 C 0.831(7) 0.6350(10) 0.750000 0.019(6) Uani 1 2 d S TU P . .
H3 H 0.767443 0.670920 0.750000 0.023 Uiso 1 2 calc RS T P . .
C5 C 1.017(8) 0.5252(11) 0.750000 0.028(6) Uani 1 2 d S TU P . .
C4 C 0.979(6) 0.5547(8) 0.6661(15) 0.032(5) Uani 1 1 d . U . . .
H4 H 1.022241 0.537876 0.610382 0.038 Uiso 1 1 calc R . . . .
loop_
_atom_site_aniso_label
_atom_site_aniso_U_11
_atom_site_aniso_U_22
_atom_site_aniso_U_33
_atom_site_aniso_U_23
_atom_site_aniso_U_13
_atom_site_aniso_U_12
Fe1 0.006(2) 0.044(3) 0.0042(19) 0.0001(16) 0.000 0.000
Fe2 0.0023(17) 0.051(2) 0.0036(16) 0.0004(11) -0.0006(9) 0.0003(12)
O1 0.025(5) 0.028(5) 0.012(4) 0.001(4) -0.005(4) 0.002(4)
O3 0.044(10) 0.029(7) 0.011(7) -0.004(5) -0.001(6) 0.007(6)
O2 0.047(8) 0.041(7) 0.015(6) 0.001(5) 0.001(6) 0.006(5)
F1 0.067(17) 0.035(11) 0.10(2) 0.044(12) 0.000 0.000
O4 0.067(9) 0.029(6) 0.021(7) 0.000(5) 0.002(6) -0.006(6)
F2 0.033(9) 0.077(12) 0.081(14) -0.020(9) -0.011(8) 0.012(7)
C1 0.021(8) 0.032(7) 0.007(7) 0.004(6) -0.003(6) -0.003(6)
O5 0.067(10) 0.038(8) 0.020(8) 0.000 0.000 0.002(7)
O6 0.034(14) 0.060(15) 0.024(12) 0.000 0.000 0.000(10)
C6 0.018(16) 0.038(16) 0.025(16) 0.000 0.000 0.000(11)
C2 0.026(8) 0.036(8) 0.020(8) -0.008(7) -0.003(7) -0.003(6)
C3 0.020(9) 0.023(9) 0.015(9) 0.000 0.000 0.002(7)
C5 0.030(10) 0.032(9) 0.022(10) 0.000 0.000 0.003(8)
C4 0.026(9) 0.046(8) 0.024(8) -0.002(7) 0.001(7) -0.002(7)
loop_
_atom_type_symbol
_atom_type_description
_atom_type_scat_dispersion_real
_atom_type_scat_dispersion_imag
_atom_type_scat_source
C C 0.0181 0.0091 'International Tables Vol C Tables 4.2.6.8 and 6.1.1.4'
H H 0.0000 0.0000 'International Tables Vol C Tables 4.2.6.8 and 6.1.1.4'
F F 0.0727 0.0534 'International Tables Vol C Tables 4.2.6.8 and 6.1.1.4'
Fe Fe -1.1336 3.1974 'International Tables Vol C Tables 4.2.6.8 and 6.1.1.4'
O O 0.0492 0.0322 'International Tables Vol C Tables 4.2.6.8 and 6.1.1.4'
loop_
_geom_angle_atom_site_label_1
_geom_angle_atom_site_label_2
_geom_angle_atom_site_label_3
_geom_angle
_geom_angle_site_symmetry_1
_geom_angle_site_symmetry_3
_geom_angle_publ_flag
O1 Fe1 O1 178.6(8) 4_566 . ?
O1 Fe1 F1 90.7(4) . 1_655 ?
O1 Fe1 F1 90.7(4) 4_566 1_655 ?
F1 Fe1 O1 89.3(4) . 4_566 ?
F1 Fe1 O1 89.3(4) . . ?
F1 Fe1 F1 180.000(14) . 1_655 ?
F1 Fe1 O4 89.3(6) . 4_566 ?
F1 Fe1 O4 89.3(6) . . ?
O4 Fe1 O1 89.8(6) . 4_566 ?
O4 Fe1 O1 90.2(6) 4_566 4_566 ?
O4 Fe1 O1 89.8(6) 4_566 . ?
O4 Fe1 O1 90.2(6) . . ?
O4 Fe1 F1 90.7(6) 4_566 1_655 ?
O4 Fe1 F1 90.7(6) . 1_655 ?
O4 Fe1 O4 178.6(11) . 4_566 ?
O3 Fe2 O2 97.1(6) 5_766 . ?
O3 Fe2 F2 89.0(6) 5_766 1_655 ?
O2 Fe2 F2 88.6(8) . 1_655 ?
O4 Fe2 O3 169.5(6) . 5_766 ?
O4 Fe2 O2 93.4(7) . . ?
O4 Fe2 F2 91.6(7) . 1_655 ?
F2 Fe2 O3 91.5(7) . 5_766 ?
F2 Fe2 O2 89.7(8) . . ?
F2 Fe2 O4 88.2(7) . . ?
F2 Fe2 F2 178.3(12) . 1_655 ?
F2 Fe2 O5 90.2(10) . . ?
O5 Fe2 O3 87.9(8) . 5_766 ?
O5 Fe2 O2 175.1(8) . . ?
O5 Fe2 O4 81.6(8) . . ?
O5 Fe2 F2 91.5(10) . 1_655 ?
C1 O1 Fe1 140.3(13) . . ?
C6 O3 Fe2 137.5(15) . 5_766 ?
C1 O2 Fe2 132.1(13) . . ?
Fe1 F1 Fe1 180.0 . 1_455 ?
Fe1 O4 Fe2 136.9(9) . . ?
Fe2 F2 Fe2 178.3(12) . 1_455 ?
O1 C1 O2 126.7(17) . . ?
O1 C1 C2 120.7(17) . . ?
O2 C1 C2 112.5(16) . . ?
Fe2 O5 Fe2 143.8(13) . 6_556 ?
O3 C6 O3 124(2) 6_557 . ?
O3 C6 C5 118.1(12) 6_557 . ?
O3 C6 C5 118.1(12) . . ?
C3 C2 C1 116.2(18) . . ?
C4 C2 C1 122.6(18) . . ?
C4 C2 C3 121.1(19) . . ?
C2 C3 C2 119(2) . 6_557 ?
C4 C5 C6 121.4(13) . . ?
C4 C5 C6 121.4(13) 6_557 . ?
C4 C5 C4 117(3) . 6_557 ?
C2 C4 C5 121(2) . . ?
loop_
_geom_bond_atom_site_label_1
_geom_bond_atom_site_label_2
_geom_bond_distance
_geom_bond_site_symmetry_2
_geom_bond_publ_flag
Fe1 O1 1.987(13) . ?
Fe1 O1 1.987(13) 4_566 ?
Fe1 F1 2.00(2) 1_655 ?
Fe1 F1 1.81(2) . ?
Fe1 O4 1.891(16) . ?
Fe1 O4 1.891(16) 4_566 ?
Fe2 O3 1.968(13) 5_766 ?
Fe2 O2 1.971(15) . ?
Fe2 O4 1.948(15) . ?
Fe2 F2 1.788(16) . ?
Fe2 F2 2.023(16) 1_655 ?
Fe2 O5 1.908(8) . ?
O1 C1 1.19(2) . ?
O3 C6 1.287(19) . ?
O2 C1 1.31(3) . ?
C1 C2 1.52(3) . ?
C6 C5 1.44(4) . ?
C2 C3 1.41(2) . ?
C2 C4 1.37(3) . ?
C5 C4 1.44(3) . ?
C5 C4 1.44(3) 6_557 ?
