#------------------------------------------------------------------------------
#$Date: 2022-01-03 22:20:49 +0200 (Mon, 03 Jan 2022) $
#$Revision: 271713 $
#$URL: file:///home/coder/svn-repositories/cod/cif/4/51/92/4519217.cif $
#------------------------------------------------------------------------------
#
# This file is available in the Crystallography Open Database (COD),
# http://www.crystallography.net/
#
# All data on this site have been placed in the public domain by the
# contributors.
#
data_4519217
loop_
_publ_author_name
'Liu, Wansheng'
'Yang, Yi'
'Yang, Xiaojie'
'Peng, Yun-Lei'
'Cheng, Peng'
'Zhang, Zhenjie'
'Chen, Yao'
_publ_section_title
;
 Template-Directed Fabrication of Highly Efficient Metal-Organic Framework
 Photocatalysts.
;
_journal_issue                   49
_journal_name_full               'ACS applied materials &amp; interfaces'
_journal_page_first              58619
_journal_page_last               58629
_journal_paper_doi               10.1021/acsami.1c17925
_journal_volume                  13
_journal_year                    2021
_chemical_formula_moiety         'C24 H12 Cl0.5 Mn1.5 N3 O6'
_chemical_formula_sum            'C24 H12 Cl0.5 Mn1.5 N3 O6'
_chemical_formula_weight         538.50
_chemical_name_systematic        Mn-TATB(Ru(bpy)3
_space_group_crystal_system      tetragonal
_space_group_IT_number           95
_space_group_name_Hall           'P 4cw 2c'
_space_group_name_H-M_alt        'P 43 2 2'
_atom_sites_solution_hydrogens   geom
_audit_creation_date             2021-08-30
_audit_creation_method
;
Olex2 1.3
(compiled 2020.11.12 svn.r5f609507 for OlexSys, GUI svn.r6272)
;
_cell_angle_alpha                90
_cell_angle_beta                 90
_cell_angle_gamma                90
_cell_formula_units_Z            8
_cell_length_a                   17.976(3)
_cell_length_b                   17.976(3)
_cell_length_c                   26.415(3)
_cell_measurement_reflns_used    613
_cell_measurement_temperature    120
_cell_measurement_theta_max      14.0600
_cell_measurement_theta_min      3.4240
_cell_volume                     8536(2)
_computing_molecular_graphics    'Olex2 1.3 (Dolomanov et al., 2009)'
_computing_publication_material  'Olex2 1.3 (Dolomanov et al., 2009)'
_computing_structure_refinement  'SHELXL 2018/3 (Sheldrick, 2015)'
_computing_structure_solution    'SHELXT 2018/2 (Sheldrick, 2018)'
_diffrn_ambient_temperature      120
_diffrn_detector                 'CCD area detector'
_diffrn_detector_area_resol_mean 5.6
_diffrn_detector_type            'Bruker SMART CCD 6000 area detector'
_diffrn_measured_fraction_theta_full 0.965
_diffrn_measured_fraction_theta_max 0.965
_diffrn_measurement_device       'three-circle diffractometer'
_diffrn_measurement_device_type  'Bruker SMART CCD 6000'
_diffrn_measurement_method       '\w scans'
_diffrn_radiation_monochromator  graphite
_diffrn_radiation_probe          x-ray
_diffrn_radiation_type           MoK\a
_diffrn_radiation_wavelength     0.71073
_diffrn_reflns_av_R_equivalents  0.2083
_diffrn_reflns_av_unetI/netI     0.5065
_diffrn_reflns_Laue_measured_fraction_full 0.965
_diffrn_reflns_Laue_measured_fraction_max 0.965
_diffrn_reflns_limit_h_max       15
_diffrn_reflns_limit_h_min       -20
_diffrn_reflns_limit_k_max       15
_diffrn_reflns_limit_k_min       -18
_diffrn_reflns_limit_l_max       18
_diffrn_reflns_limit_l_min       -30
_diffrn_reflns_number            11698
_diffrn_reflns_point_group_measured_fraction_full 0.939
_diffrn_reflns_point_group_measured_fraction_max 0.939
_diffrn_reflns_theta_full        24.400
_diffrn_reflns_theta_max         24.400
_diffrn_reflns_theta_min         2.966
_diffrn_source                   'sealed X-ray tube'
_diffrn_source_target            Mo
_exptl_absorpt_coefficient_mu    0.507
_exptl_crystal_colour            'metallic light red'
_exptl_crystal_colour_lustre     metallic
_exptl_crystal_colour_modifier   light
_exptl_crystal_colour_primary    red
_exptl_crystal_density_diffrn    0.838
_exptl_crystal_description       prism
_exptl_crystal_F_000             2168
_exptl_crystal_size_max          0.2
_exptl_crystal_size_mid          0.2
_exptl_crystal_size_min          0.2
_refine_diff_density_max         0.264
_refine_diff_density_min         -0.266
_refine_diff_density_rms         0.043
_refine_ls_abs_structure_details
;
 Flack x determined using 311 quotients [(I+)-(I-)]/[(I+)+(I-)]
 (Parsons, Flack and Wagner, Acta Cryst. B69 (2013) 249-259).
;
_refine_ls_abs_structure_Flack   0.02(7)
_refine_ls_extinction_method     none
_refine_ls_goodness_of_fit_ref   0.817
_refine_ls_hydrogen_treatment    constr
_refine_ls_matrix_type           full
_refine_ls_number_parameters     317
_refine_ls_number_reflns         6603
_refine_ls_number_restraints     276
_refine_ls_restrained_S_all      0.812
_refine_ls_R_factor_all          0.2728
_refine_ls_R_factor_gt           0.0959
_refine_ls_shift/su_max          0.000
_refine_ls_shift/su_mean         0.000
_refine_ls_structure_factor_coef Fsqd
_refine_ls_weighting_details     'w=1/[\s^2^(Fo^2^)] where P=(Fo^2^+2Fc^2^)/3'
_refine_ls_weighting_scheme      calc
_refine_ls_wR_factor_gt          0.1251
_refine_ls_wR_factor_ref         0.1890
_reflns_Friedel_coverage         0.704
_reflns_Friedel_fraction_full    0.905
_reflns_Friedel_fraction_max     0.905
_reflns_number_gt                1763
_reflns_number_total             6603
_reflns_threshold_expression     'I > 2\s(I)'
_cod_data_source_file            am1c17925_si_004.cif
_cod_data_source_block           NKMOF-9-Mn
_cod_original_cell_volume        8536(3)
_cod_original_formula_sum        'C24 H12 Cl0.50 Mn1.50 N3 O6'
_cod_database_code               4519217
_shelx_shelxl_version_number     2018/3
_shelx_space_group_comment
;
The symmetry employed for this shelxl refinement is uniquely defined
by the following loop, which should always be used as a source of
symmetry information in preference to the above space-group names.
They are only intended as comments.
;
_shelx_estimated_absorpt_t_max   0.905
_shelx_estimated_absorpt_t_min   0.905
_olex2_refinement_description
;
1. Restrained distances
 C19-C24 \\sim C23-C24 \\sim C23-C22 \\sim C22-C21 \\sim C20-C21 \\sim C20-C19
 with sigma of 0.01
 C14-C13 \\sim C15-C14 \\sim C15-C16 \\sim C11-C16 \\sim C12-C11 \\sim C12-C13
 with sigma of 0.01
 C14-C17 \\sim C25-C21 \\sim C1-C2
 with sigma of 0.001
 C4-C5 \\sim C4-C3 \\sim C3-C2 \\sim C7-C2 \\sim C7-C6 \\sim C5-C6
 with sigma of 0.01
 N3-C9 \\sim N2-C9 \\sim N2-C8 \\sim N1-C8 \\sim N1-C10 \\sim N3-C10
 with sigma of 0.01
 N2-C9 \\sim N3-C9 \\sim N3-C10 \\sim N1-C10 \\sim N1-C8 \\sim N2-C8
 with sigma of 0.01
 O4-C17 \\sim O3-C17
 with sigma of 0.001
 O2-C1 \\sim O1-C1
 with sigma of 0.001
 O5-C25 \\sim O6-C25
 with sigma of 0.001
2. Restrained planarity
 C14, C15, C16, C11, C12, C13
 with sigma of 0.01
 C5, C4, C6, C7, C2, C3
 with sigma of 0.01
 C24, C23, C22, C21, C20, C19
 with sigma of 0.01
 N2, C9, N3, C10, N1, C8
 with sigma of 0.01
3. Uiso/Uaniso restraints and constraints
Uanis(C14) \\sim Ueq: with sigma of 0.001 and sigma for terminal atoms of 0.002
Uanis(C2) \\sim Ueq: with sigma of 0.001 and sigma for terminal atoms of 0.002
Uanis(C9) \\sim Ueq: with sigma of 0.001 and sigma for terminal atoms of 0.002
Uanis(C1) \\sim Ueq, Uanis(C25) \\sim Ueq, Uanis(C17) \\sim Ueq: with sigma of
0.001 and sigma for terminal atoms of 0.002
Uanis(C25) \\sim Ueq: with sigma of 0.001 and sigma for terminal atoms of 0.002
Uanis(C24) \\sim Ueq, Uanis(O1) \\sim Ueq: with sigma of 0.01 and sigma for
terminal atoms of 0.02
Uanis(C15) \\sim Ueq: with sigma of 0.001 and sigma for terminal atoms of 0.002
4. Rigid body (RIGU) restrains
 C13, C14, C16, C11, C12, C15
 with sigma for 1-2 distances of 0.001 and sigma for 1-3 distances of 0.001
 C20, C21, C22, C24, C19, C23
 with sigma for 1-2 distances of 0.001 and sigma for 1-3 distances of 0.001
 C2, C6, C5, C3, C4, C7
 with sigma for 1-2 distances of 0.001 and sigma for 1-3 distances of 0.001
 N2, N3, N1, C9, C10, C8
 with sigma for 1-2 distances of 0.001 and sigma for 1-3 distances of 0.001
5.a Aromatic/amide H refined with riding coordinates:
 C20(H20), C6(H6), C22(H22), C19(H19), C3(H3), C13(H13), C16(H16), C23(H23),
 C4(H4), C7(H7), C12(H12), C15(H15)
;
_shelx_res_file
;
TITL p20201215d9_a.res in P4(3)22
    p20201215d9_sq.res
    created by SHELXL-2018/3 at 15:20:50 on 16-Dec-2020
REM Old TITL p20201215d9_a.res in P4(3)22
REM SHELXT solution in P4(3)22: R1 0.294, Rweak 0.240, Alpha 0.124
REM <I/s> 1.389 for 18 systematic absences, Orientation as input
REM Flack x = 0.388 ( 0.055 ) from 388 Parsons' quotients
REM Formula found by SHELXT: C86 Cl8 Mn N34 O32 I3
CELL 0.71073 17.9764 17.9764 26.4154 90 90 90
ZERR 8 0.0025 0.0025 0.0032 0 0 0
LATT -1
SYMM -X,-Y,0.5+Z
SYMM -Y,+X,0.75+Z
SYMM +Y,-X,0.25+Z
SYMM -X,+Y,-Z
SYMM +X,-Y,0.5-Z
SYMM +Y,+X,0.25-Z
SYMM -Y,-X,0.75-Z
SFAC C H Cl Mn N O
UNIT 192 96 4 12 24 48
SADI 0.01 C19 C24 C23 C24 C23 C22 C22 C21 C20 C21 C20 C19
SADI 0.01 C14 C13 C15 C14 C15 C16 C11 C16 C12 C11 C12 C13
SADI 0.001 C14 C17 C25 C21 C1 C2
FLAT 0.01 C14 C15 C16 C11 C12 C13
FLAT 0.01 C5 C4 C6 C7 C2 C3
FLAT 0.01 C24 C23 C22 C21 C20 C19
RIGU 0.001 0.001 C13 C14 C16 C11 C12 C15
RIGU 0.001 0.001 C20 C21 C22 C24 C19 C23
RIGU 0.001 0.001 C2 C6 C5 C3 C4 C7
SADI 0.01 C4 C5 C4 C3 C3 C2 C7 C2 C7 C6 C5 C6
SADI 0.01 N3 C9 N2 C9 N2 C8 N1 C8 N1 C10 N3 C10
ISOR 0.001 0.002 C14
ISOR 0.001 0.002 C2
FLAT 0.01 N2 C9 N3 C10 N1 C8
SADI 0.01 N2 C9 N3 C9 N3 C10 N1 C10 N1 C8 N2 C8
SADI 0.001 O4 C17 O3 C17
RIGU 0.001 0.001 N2 N3 N1 C9 C10 C8
SADI 0.001 O2 C1 O1 C1
SADI 0.001 O5 C25 O6 C25
ISOR 0.001 0.002 C9
ISOR 0.001 0.002 C1 C25 C17
ISOR 0.001 0.002 C25
ISOR 0.01 0.02 C24 O1
ISOR 0.001 0.002 C15

L.S. 50 0 182
PLAN  60
SIZE 0.2 0.2 0.2
TEMP -153.15
CONF
FREE C20 C25
FREE O1 O2
BOND
list 4
MORE -1
BOND $H
ABIN
fmap 2 53
acta
SHEL 999 0.84
OMIT -2 48.8
OMIT 2 2 5
OMIT 1 1 8
OMIT 1 1 6
OMIT 0 0 8
OMIT 3 3 2
OMIT 0 1 10
OMIT 1 1 5
OMIT 2 2 1
OMIT 0 3 3
OMIT -1 3 6
OMIT 1 3 6
OMIT 1 1 16
OMIT 3 3 11
OMIT 2 2 18
OMIT 2 3 1
OMIT 1 2 4
OMIT -1 2 4
OMIT 0 2 9
OMIT -2 3 1
OMIT 2 2 7
OMIT 0 4 3
OMIT 0 5 5
OMIT 0 3 5
OMIT 0 4 0
OMIT 2 2 0
OMIT 0 4 5
OMIT 1 1 7
OMIT 3 3 8
OMIT 2 2 13
OMIT 0 4 6
OMIT 0 11 9
OMIT 0 6 6
OMIT 2 2 2
OMIT 1 4 0
OMIT 1 1 4
OMIT 0 2 15
OMIT 0 1 6
OMIT 0 8 5
OMIT 0 0 4
OMIT 0 5 0
OMIT 0 2 8
OMIT 1 5 0
OMIT -1 4 1
OMIT 0 3 4
OMIT 0 9 7
OMIT 0 8 1
OMIT 0 4 7
OMIT 0 7 3
OMIT 0 5 3
OMIT -1 3 5
OMIT -1 4 6
OMIT 1 1 13
OMIT 4 4 13
OMIT 0 5 6
OMIT -1 3 3
OMIT 0 6 16
OMIT 1 3 5
OMIT 0 2 11
OMIT 3 3 7
OMIT 0 1 5
OMIT 0 2 13
OMIT 1 4 6
OMIT 1 1 10
OMIT 6 6 5
OMIT 3 3 12
OMIT 2 3 8
OMIT 2 4 6
OMIT 0 9 5
OMIT 1 3 3
OMIT 3 6 0
OMIT 0 6 24
OMIT 1 4 4
OMIT 1 4 1
OMIT 1 5 6
OMIT 0 9 2
OMIT 3 4 4
OMIT 2 18 8
OMIT 8 10 11
OMIT -2 3 2
OMIT -1 2 3
OMIT 2 6 8
OMIT 7 7 12
OMIT 1 4 7
OMIT 1 4 15
OMIT 3 5 2
OMIT 0 3 1
OMIT -2 3 8
OMIT 1 2 7
OMIT 2 2 6
OMIT -1 5 3
OMIT 0 6 4
OMIT -1 4 4
OMIT 2 3 2
OMIT 2 3 4
OMIT -2 3 4
OMIT 0 1 8
OMIT 0 1 15
OMIT 1 4 8
OMIT -3 7 3
OMIT 7 8 13
OMIT 1 5 10
OMIT 0 2 4
OMIT 2 5 4
OMIT 0 2 12
OMIT -1 4 3
OMIT 4 4 14
OMIT 4 7 4
OMIT 2 2 9
OMIT -3 5 2
OMIT 3 6 6
OMIT -6 9 11
OMIT 0 3 17
OMIT 0 10 2
OMIT 3 7 14
REM <olex2.extras>
REM <HklSrc "%.\\p20201215d9_sq.hkl">
REM </olex2.extras>

WGHT    0.000000
FVAR       0.31991
MN2   4    1.000000    0.749244    0.500000    10.50000    0.06612    0.05335 =
         0.03435    0.00000   -0.00774    0.00000
MN1   4    1.248134    0.166747    0.176626    11.00000    0.09423    0.08118 =
         0.08299    0.02954    0.01288    0.00014
O2    6    1.189971    0.203191    0.239097    11.00000    0.10498    0.17122 =
         0.06266   -0.03647   -0.01912    0.07773
O1    6    1.165437    0.081318    0.249499    11.00000    0.09006    0.14987 =
         0.10979   -0.04586   -0.05051    0.02687
C20   1    0.782684    0.096471    0.594584    11.00000    0.11621    0.14267 =
         0.04856   -0.03319   -0.02540   -0.02425
AFIX  43
H20   2    0.747325    0.107422    0.620251    11.00000   -1.20000
AFIX   0
O4    6    0.842461    0.639818    0.560096    11.00000    0.08943    0.08782 =
         0.23511   -0.04818    0.06642   -0.01722
C2    1    1.110241    0.165413    0.304287    11.00000    0.07129    0.07127 =
         0.07101   -0.00004   -0.00068    0.00036
O3    6    0.918059    0.670125    0.489956    11.00000    0.09314    0.12120 =
         0.14908    0.04409   -0.05464   -0.02721
C6    1    1.020867    0.133386    0.370355    11.00000    0.10098    0.05950 =
         0.08193    0.00783    0.01730    0.00776
AFIX  43
H6    2    0.993908    0.095213    0.387148    11.00000   -1.20000
AFIX   0
O6    6    0.791829   -0.090893    0.621576    11.00000    0.08829    0.25491 =
         0.04079    0.01159   -0.00876    0.00166
C21   1    0.804806    0.020615    0.593329    11.00000    0.17397    0.14230 =
         0.06162   -0.03070    0.00335   -0.01676
C25   1    0.767124   -0.031900    0.632814    11.00000    0.10458    0.10487 =
         0.10454   -0.00032   -0.00013   -0.00019
N2    5    0.954857    0.296274    0.438285    11.00000    0.26418    0.08588 =
         0.17907    0.01374    0.09429    0.00487
C5    1    1.010635    0.206365    0.386088    11.00000    0.19068    0.05972 =
         0.05819    0.01525    0.02887    0.01569
C1    1    1.158735    0.148351    0.256636    11.00000    0.11512    0.11528 =
         0.11526    0.00012   -0.00024   -0.00017
O5    6    0.745849   -0.004231    0.670979    11.00000    0.07304    0.43498 =
         0.04489   -0.03364   -0.00381    0.00967
C22   1    0.858031    0.004583    0.555204    11.00000    0.21106    0.11246 =
         0.09349   -0.04380    0.03822   -0.03909
AFIX  43
H22   2    0.876471   -0.044634    0.551445    11.00000   -1.20000
AFIX   0
C24   1    0.856515    0.136457    0.527997    11.00000    0.15697    0.11561 =
         0.11430   -0.03296    0.02574   -0.03772
C17   1    0.886863    0.624113    0.522148    11.00000    0.12183    0.12180 =
         0.12184    0.00003   -0.00031    0.00005
C19   1    0.803258    0.159420    0.564778    11.00000    0.16091    0.14132 =
         0.08341   -0.02820    0.00918   -0.01976
AFIX  43
H19   2    0.784551    0.208491    0.568793    11.00000   -1.20000
AFIX   0
C3    1    1.100020    0.238246    0.320227    11.00000    0.16701    0.06613 =
         0.07566    0.01433    0.02532    0.01271
AFIX  43
H3    2    1.127162    0.276310    0.303458    11.00000   -1.20000
AFIX   0
C13   1    0.922365    0.520692    0.464303    11.00000    0.19016    0.10396 =
         0.16955   -0.04738    0.05136   -0.08330
AFIX  43
H13   2    0.942734    0.556994    0.442146    11.00000   -1.20000
AFIX   0
N3    5    0.877284    0.261502    0.506454    11.00000    0.23296    0.10994 =
         0.11431   -0.04031    0.05343   -0.02937
N1    5    0.935089    0.166134    0.453621    11.00000    0.25887    0.08226 =
         0.04689   -0.02829    0.00977   -0.02502
C14   1    0.882007    0.539877    0.508079    11.00000    0.12862    0.12788 =
         0.12844   -0.00035    0.00036    0.00006
C16   1    0.859720    0.413713    0.531253    11.00000    0.27967    0.12880 =
         0.12276    0.00771    0.06321    0.00373
AFIX  43
H16   2    0.839118    0.377199    0.553148    11.00000   -1.20000
AFIX   0
C23   1    0.883895    0.062096    0.522546    11.00000    0.24642    0.11155 =
         0.13180   -0.03366    0.06892   -0.03135
AFIX  43
H23   2    0.919471    0.051060    0.497034    11.00000   -1.20000
AFIX   0
C11   1    0.899623    0.390948    0.488250    11.00000    0.23902    0.11055 =
         0.13271   -0.03530    0.06115   -0.08184
C9    1    0.910932    0.311721    0.477510    11.00000    0.12270    0.12244 =
         0.12253   -0.00011    0.00048    0.00006
C4    1    1.052141    0.258969    0.359512    11.00000    0.19274    0.05525 =
         0.07893    0.01679    0.03669    0.01638
AFIX  43
H4    2    1.047806    0.310037    0.368282    11.00000   -1.20000
AFIX   0
C7    1    1.068884    0.113282    0.331021    11.00000    0.07299    0.07254 =
         0.07071    0.00592   -0.00130    0.00656
AFIX  43
H7    2    1.073377    0.062217    0.322280    11.00000   -1.20000
AFIX   0
C10   1    0.893199    0.192931    0.490815    11.00000    0.29424    0.11404 =
         0.09079   -0.04373    0.04509   -0.02226
C12   1    0.930264    0.444552    0.455835    11.00000    0.21292    0.10191 =
         0.14206   -0.02889    0.05010   -0.07289
AFIX  43
H12   2    0.957432    0.428388    0.427015    11.00000   -1.20000
AFIX   0
C8    1    0.963791    0.223945    0.429135    11.00000    0.22028    0.08762 =
         0.15268    0.01529    0.03966    0.01161
C15   1    0.849621    0.489813    0.542584    11.00000    0.13023    0.12962 =
         0.12988   -0.00027    0.00072   -0.00001
AFIX  43
H15   2    0.822797    0.506092    0.571522    11.00000   -1.20000
AFIX   0
CL1   3    1.274333    0.274333    0.125000    10.50000    0.13749    0.13749 =
         0.12238    0.07207   -0.07207   -0.05426
HKLF 4




REM  p20201215d9_a.res in P4(3)22
REM wR2 = 0.1890, GooF = S = 0.817, Restrained GooF = 0.812 for all data
REM R1 = 0.0959 for 1763 Fo > 4sig(Fo) and 0.2728 for all 6603 data
REM 317 parameters refined using 276 restraints

END

WGHT      0.0000      0.0000

REM Highest difference peak  0.264,  deepest hole -0.266,  1-sigma level  0.043
Q1    1   1.0000  0.8232  0.5000  10.50000  0.05    0.23
Q2    1   0.8961  0.4599  0.5625  11.00000  0.05    0.20
Q3    1   1.0535  0.0000  0.2500  10.50000  0.05    0.19
Q4    1   1.0000  0.5607  0.5000  10.50000  0.05    0.17
Q5    1   1.0000  0.6757  0.5000  10.50000  0.05    0.17
Q6    1   1.1730  0.1639  0.1771  11.00000  0.05    0.17
Q7    1   1.2486  0.0833  0.2461  11.00000  0.05    0.17
Q8    1   0.8440  0.5612  0.4717  11.00000  0.05    0.17
Q9    1   1.1598  0.1793  0.1678  11.00000  0.05    0.17
Q10   1   0.8298  0.6803  0.5786  11.00000  0.05    0.17
Q11   1   1.1980  0.1169  0.2311  11.00000  0.05    0.16
Q12   1   0.8246  0.1595  0.5170  11.00000  0.05    0.16
Q13   1   0.7963  0.4888  0.5709  11.00000  0.05    0.16
Q14   1   1.2707  0.1998  0.1190  11.00000  0.05    0.16
Q15   1   0.9989  0.2148  0.3479  11.00000  0.05    0.15
Q16   1   0.7546  0.1653  0.6397  11.00000  0.05    0.15
Q17   1   0.7542  0.2583  0.5624  11.00000  0.05    0.15
Q18   1   1.0001  0.0141  0.4265  11.00000  0.05    0.15
Q19   1   1.2016  0.5000  0.2500  10.50000  0.05    0.15
Q20   1   0.7831  0.4972  0.5598  11.00000  0.05    0.15
Q21   1   0.6988  0.3225  0.5094  11.00000  0.05    0.15
Q22   1   0.9804  0.5393  0.3505  11.00000  0.05    0.15
Q23   1   0.6815 -0.0170  0.6109  11.00000  0.05    0.14
Q24   1   1.0951  0.1612  0.3113  11.00000  0.05    0.14
Q25   1   0.8480 -0.0768  0.5582  11.00000  0.05    0.14
Q26   1   1.1198  0.2419  0.2231  11.00000  0.05    0.14
Q27   1   0.9865  0.6429  0.5394  11.00000  0.05    0.14
Q28   1   0.9811  0.1779  0.3881  11.00000  0.05    0.14
Q29   1   0.8652  0.4010  0.5317  11.00000  0.05    0.14
Q30   1   0.9226  0.0379  0.5219  11.00000  0.05    0.14
Q31   1   0.7536  0.1768  0.5627  11.00000  0.05    0.14
Q32   1   0.8231  0.5793  0.5686  11.00000  0.05    0.14
Q33   1   0.9175  0.4996  0.4591  11.00000  0.05    0.13
Q34   1   0.8960  0.3377  0.5799  11.00000  0.05    0.13
Q35   1   1.2306  0.1006  0.2206  11.00000  0.05    0.13
Q36   1   1.0000  0.4780  0.5000  10.50000  0.05    0.13
Q37   1   1.3012  0.1845  0.0984  11.00000  0.05    0.13
Q38   1   0.9447  0.1176  0.3561  11.00000  0.05    0.13
Q39   1   1.3241  0.2875  0.1745  11.00000  0.05    0.13
Q40   1   0.8205  0.5142  0.4889  11.00000  0.05    0.13
Q41   1   1.1797  0.4005  0.2390  11.00000  0.05    0.13
Q42   1   0.7441  0.0317  0.6629  11.00000  0.05    0.13
Q43   1   1.2955  0.1230  0.1779  11.00000  0.05    0.13
Q44   1   0.8337  0.0704  0.5057  11.00000  0.05    0.13
Q45   1   0.9925  0.3919  0.3810  11.00000  0.05    0.12
Q46   1   0.8062 -0.1412  0.5914  11.00000  0.05    0.12
Q47   1   1.2041  0.1265  0.3155  11.00000  0.05    0.12
Q48   1   1.2575  0.3541  0.2491  11.00000  0.05    0.12
Q49   1   0.7819  0.3655  0.5422  11.00000  0.05    0.12
Q50   1   0.8351  0.4183  0.5096  11.00000  0.05    0.12
Q51   1   1.1182  0.3010  0.4103  11.00000  0.05    0.12
Q52   1   0.7801  0.4816  0.4528  11.00000  0.05    0.12
Q53   1   1.1694  0.2569  0.3445  11.00000  0.05    0.12
Q54   1   0.7240  0.0236  0.6758  11.00000  0.05    0.12
Q55   1   0.8944  0.5675  0.6844  11.00000  0.05    0.12
Q56   1   0.9944  0.5775  0.3483  11.00000  0.05    0.12
Q57   1   0.8620  0.6821  0.4296  11.00000  0.05    0.12
Q58   1   0.8709  0.2232  0.4586  11.00000  0.05    0.12
Q59   1   0.6909  0.0927  0.6177  11.00000  0.05    0.12
Q60   1   1.2391  0.2574  0.1951  11.00000  0.05    0.12
;
_shelx_res_checksum              44650
_shelx_hkl_file
;
   0   0  -4 6396.13  148.27
   0   0  -5   11.88   13.69
   0   0   5    8.04   14.56
   0   0  -6  139.62   30.40
   0   0   6  107.38   25.83
   0   0  -7   27.22   13.69
   0   0  -8    4.10   15.11
   0   0  -9   12.52   15.21
   0   0 -10  118.03   34.84
   0   0 -11   18.15   20.18
   0   0 -12 2765.57  179.02
   0   0 -13   19.43   25.62
   0   0 -14  -11.69   19.30
   0   0 -15   38.49   37.28
   0   0 -16 4563.89  272.66
   0   0 -17   -7.35   18.17
   0   0 -18  196.08   63.93
   0   0 -19   13.41   18.61
   0   0 -20  152.41   61.02
   0   0 -21   42.74   36.30
   0   0 -22   72.16   50.77
   0   0 -23   -3.60   31.32
   0   0 -24  255.54   93.06
   0   0 -25   45.05   31.33
   0   0 -26   65.63   57.71
   0   0 -27  -46.50   41.77
   0   0 -28   -5.49   23.75
   0   0 -29  -38.79   48.57
   0   0 -30  157.97   91.33
   0   0 -31    8.70   47.40
   0   0 -32   45.07   58.45
   0   0 -33  -33.95   60.59
   0   1  -4  100.22   17.51
   0  -1  -4   82.82   18.71
  -1   0  -4   99.71   19.22
   0   1   5  222.40   34.73
   0   1  -5  198.06   27.49
   0  -1  -5  225.57   35.08
   1   0   5  224.04   30.87
  -1   0  -5  222.70   32.43
  -1   0  -6 4560.10  157.51
   0  -1  -6 4542.88  168.42
   1   0   6 4684.29  151.74
   0   1   6 4594.68  162.89
   0   1  -6 4527.27  143.61
   1   0   7   16.89   14.07
   0   1   7   39.54   18.85
   0   1  -7   13.25   13.78
  -1   0  -7   12.78   16.26
   0  -1  -7   22.98   18.18
   1   0  -8  241.07   42.89
   1   0   8  268.99   42.54
   0   1  -8  293.15   44.11
   0   1   8  320.92   50.77
  -1   0  -8  256.03   42.95
   0  -1  -8  271.27   45.56
   0   1   9  195.02   37.61
   1   0  -9  144.20   38.43
   0   1  -9  218.68   42.17
   1   0   9  208.83   38.53
   0  -1  -9  166.94   40.74
  -1   0  -9  263.82   49.92
   0   1 -10  138.09   33.16
   0   1  10  157.44   38.62
   1   0  10  140.13   28.66
   1   0 -10  157.85   41.84
   0  -1 -10  135.82   33.60
  -1   0 -10  209.71   45.90
   0  -1 -11  687.44   88.14
  -1   0 -11  729.62   88.95
   1   0  11  735.34   80.62
   0   1 -11  793.48   85.82
   1   0 -11  777.18   90.24
   0   1 -12  347.49   59.85
   1   0 -12  369.37   64.49
   0  -1 -12  344.23   65.94
  -1   0 -12  419.69   66.55
   1   0 -13  959.06  109.61
  -1   0 -13 1037.43  114.41
   0   1 -13  985.48  107.49
   0  -1 -13  988.92  114.78
   1   0 -14  255.70   58.16
   0  -1 -14  313.71   65.67
  -1   0 -14  248.43   57.75
   0   1 -14  202.02   49.01
  -1   0 -15  719.21  103.24
   1   0 -15  745.48  101.91
   0   1 -15  770.48  104.53
   0  -1 -15  729.33  111.87
   1   0 -16  585.49   99.62
  -1   0 -16  656.74  103.97
   0   1 -16  737.23  105.16
   0  -1 -16  618.72  102.88
  -1   0 -17  827.11  122.55
   0  -1 -17  882.13  130.76
   1   0 -17  779.20  119.69
   0   1 -17  854.55  120.83
  -1   0 -18   18.13   24.94
   1   0 -18  -13.39   23.45
   0  -1 -18  -36.09   36.34
   0   1 -18   37.25   25.59
   1   0 -19  185.98   55.39
   0  -1 -19  171.42   64.23
   0   1 -19  134.19   49.71
  -1   0 -19  330.71   86.66
   1   0 -20   52.19   34.63
   0  -1 -20   39.41   33.82
   0   1 -20    3.90   25.91
  -1   0 -20  -33.81   30.02
   1   0 -21   63.42   32.54
  -1   0 -21   21.53   28.84
   0   1 -21   97.09   60.59
   0  -1 -21  114.78   56.03
   0   1 -22   15.34   32.98
   0  -1 -22  123.45   68.19
  -1   0 -22   91.50   53.70
   1   0 -22  -50.37   50.48
   1   0 -23   46.48   40.03
  -1   0 -23   93.95   62.88
   0   1 -23   26.57   35.94
   0  -1 -23  103.87   59.69
   0  -1 -24   85.32   64.19
  -1   0 -24   14.81   30.48
   0   1 -24   26.49   48.15
   1   0 -24   93.14   57.58
   1   0 -25   16.86   22.40
   0   1 -25   65.77   55.42
   0  -1 -25   83.74   62.93
  -1   0 -25   99.50   56.96
   0  -1 -26   -4.53   40.12
   0   1 -26   47.53   43.90
   1   0 -26  138.17   63.17
  -1   0 -26  119.72   49.57
   0   1 -27  -70.22   64.06
   0  -1 -27   59.45   41.56
   1   0 -27   21.21   50.25
  -1   0 -27   24.70   31.38
   1   0 -28  133.24   75.96
   0   1 -28   44.76   38.28
   0  -1 -28  -64.00   56.54
  -1   0 -28   80.35   67.36
   0  -1 -29   98.99   68.86
   1   0 -29   29.25   37.48
  -1   0 -29   62.95   44.39
   0   1 -29   50.81   62.37
   0  -1 -30  -54.63   38.86
  -1   0 -30  -37.52   53.08
   1   0 -30   10.57   60.81
   0   1 -30   40.54   64.54
   1   0 -31   32.21   54.06
   0   1 -31   14.49   58.44
   0  -1 -31   82.31   72.26
   0   1 -32   58.51   65.50
   0  -1 -32   87.49   52.99
   1   0 -32   25.24   71.18
   0   1 -33  181.99  102.73
   1   0 -33   97.13   85.50
   0  -1 -33  -42.79   56.57
   1   0 -34 -154.19  104.69
  -1  -1  -4 1715.59   87.61
  -1   1  -4 1752.16   67.21
   1  -1   5  231.35   27.74
   1  -1  -5  258.91   39.24
   1   1   5  225.34   33.98
  -1  -1  -5  246.73   37.73
  -1   1  -5  269.16   32.55
   1  -1   6  363.23   38.95
   1  -1  -6  370.03   48.33
  -1   1  -6  363.28   39.53
  -1  -1  -6  293.86   44.23
   1   1   6  327.82   42.67
  -1  -1  -7  688.80   71.91
   1   1   7  654.70   65.58
  -1   1  -7  695.37   61.15
   1  -1   7  672.78   57.73
   1  -1  -7  700.65   74.27
   1   1   8 1048.62   87.11
   1  -1  -8  981.34   90.58
   1  -1   8 1036.29   78.36
  -1   1  -8  985.08   79.54
  -1  -1  -8 1024.30   92.80
   1  -1  -9  839.56   89.10
  -1   1  -9  855.43   80.98
   1  -1   9  930.46   78.93
   1   1   9  791.56   82.28
  -1  -1  -9  863.12   90.06
   1  -1 -10   72.25   29.41
   1  -1  10   53.08   20.83
   1   1  10   96.49   33.42
   1   1 -10  110.78   31.56
  -1  -1 -10   61.22   23.21
  -1   1 -10   90.75   29.72
  -1  -1 -11  737.77   92.29
   1  -1 -11  754.42   91.97
   1   1 -11  752.75   87.21
  -1   1 -11  731.73   80.84
   1  -1  11  717.56   78.35
   1  -1 -12   64.29   33.28
   1   1 -12   72.80   31.14
  -1   1 -12  104.57   30.93
  -1  -1 -12  111.23   44.65
   1  -1 -13 1437.53  140.00
  -1   1 -13 1449.66  129.79
  -1  -1 -13 1478.69  144.76
   1   1 -13 1470.13  129.92
   1  -1 -14   38.55   27.42
   1   1 -14    4.81   16.83
  -1   1 -14   33.57   31.92
  -1  -1 -14   62.04   33.27
   1  -1 -15  370.18   80.42
   1   1 -15  222.34   51.51
  -1  -1 -15  282.69   68.09
  -1   1 -15  316.28   67.89
   1   1 -16  263.21   65.30
  -1   1 -16  256.74   66.53
   1  -1 -16  342.56   74.33
  -1  -1 -16  279.52   71.24
   1   1 -17   83.94   36.83
  -1  -1 -17   80.31   37.14
   1  -1 -17   60.34   32.03
  -1   1 -17  134.65   46.93
  -1  -1 -18  547.74  104.32
   1   1 -18  501.62   95.41
  -1   1 -18  503.72  100.87
   1  -1 -18  510.16  100.03
   1  -1 -19   19.65   20.90
   1   1 -19    8.01   27.85
  -1  -1 -19   32.56   33.74
  -1   1 -19  -36.66   46.44
   1   1 -20  149.83   57.94
  -1   1 -20  182.89   68.25
   1  -1 -20  137.03   64.19
  -1  -1 -20  137.09   62.37
   1  -1 -21  -60.47   49.89
  -1  -1 -21   48.57   42.59
  -1   1 -21   59.48   38.14
   1   1 -21  -33.42   26.15
   1  -1 -22   36.17   39.34
   1   1 -22   82.97   51.96
  -1   1 -22   55.30   30.99
  -1  -1 -22   16.09   24.25
   1   1 -23   -5.45   36.21
   1  -1 -23   97.70   61.72
  -1  -1 -23   31.66   30.98
  -1   1 -23   97.10   68.45
  -1  -1 -24   14.41   41.91
   1  -1 -24  -90.78   48.18
  -1   1 -24  -23.59   48.68
   1   1 -24  -65.58   50.42
  -1  -1 -25  228.96   81.16
  -1   1 -25  189.00   75.48
   1   1 -25  140.27   68.75
   1  -1 -25  255.85   97.26
  -1   1 -26   54.08   31.88
   1  -1 -26  -28.46   28.33
  -1  -1 -26   29.25   29.37
   1   1 -26  -13.45   26.18
   1   1 -27   39.55   50.55
   1  -1 -27    1.56   38.85
  -1  -1 -27  159.59   98.40
  -1   1 -27   32.70   51.85
  -1  -1 -28   84.35   70.04
   1  -1 -28   46.75   54.78
   1   1 -28   -4.82   52.90
  -1   1 -28   44.43   50.55
   1   1 -29   14.12   40.19
   1  -1 -29   15.83   31.96
  -1   1 -29  151.19   85.28
  -1  -1 -29   15.19   67.85
  -1  -1 -30  117.20   92.16
  -1   1 -30   43.77   65.26
   1  -1 -30    3.46   29.42
   1   1 -30  -41.88   51.60
   1  -1 -31   56.76   34.21
   1   1 -31   21.78   56.58
   1   1 -32  -12.84   49.66
   1  -1 -32  -43.19   37.37
   1   1 -33  120.49   88.06
   1  -1 -33    5.00   54.89
   1  -1 -34   27.20   45.69
   1  -1 -35   33.60   89.42
   0   2   3 1241.79   71.43
   2   0  -3 1227.28   74.98
   0  -2  -4  856.82   67.47
   0   2   4  827.86   65.39
  -2   0   4  915.72   74.87
   2   0  -4  938.60   71.36
   0  -2  -5  456.06   53.00
   2   0   5  486.11   48.63
   0   2   5  479.60   53.94
   2   0  -5  465.62   51.63
   0  -2  -6 1038.77   86.53
   2   0   6 1002.56   74.20
   0   2   6 1075.14   85.35
   2   0  -6 1164.47   92.29
   0   2   7   90.96   27.81
   0   2  -7   89.37   21.48
   2   0  -7   21.91   17.42
   2   0   7   79.38   25.69
   0  -2  -7   52.82   22.26
   0   2  -8  118.91   26.78
   0   2   8  104.39   33.64
   2   0   8   96.45   26.14
   0  -2  -8   73.26   27.30
   0   2  -9   69.44   22.26
   0   2   9  101.65   32.17
  -2   0  -9   49.29   22.54
   0  -2  -9   85.28   31.97
   2   0   9   67.68   21.32
   2   0  10 1058.45   94.39
  -2   0 -10  954.78   94.14
   0   2 -10 1002.36   87.38
   0  -2 -10  996.71  105.89
   0   2 -11   11.98   13.35
   2   0  11   34.18   20.47
  -2   0 -11   43.08   24.68
   0  -2 -11   26.56   24.69
   2   0 -12  487.10   77.20
   0   2 -12  444.63   65.99
  -2   0 -12  490.11   74.80
   0  -2 -12  413.73   76.79
   0   2 -13  191.80   46.33
   2   0 -13  207.70   58.36
  -2   0 -13  190.47   51.39
   0  -2 -13  168.23   53.81
   2   0 -14 1841.99  161.32
   0  -2 -14 2021.02  178.92
   0   2 -14 1901.18  150.94
  -2   0 -14 1889.43  163.19
   2   0 -15  129.48   47.97
   0   2 -15   97.93   41.53
   0  -2 -15  145.26   52.01
  -2   0 -15   78.22   34.57
   2   0 -16  425.07   83.07
   0   2 -16  412.47   78.60
  -2   0 -16  274.15   67.80
   0  -2 -16  391.03   83.57
   2   0 -17  253.04   66.18
   0   2 -17  177.03   54.87
   0  -2 -17  285.36   74.60
  -2   0 -17  234.83   62.48
   2   0 -18  313.35   77.35
  -2   0 -18  207.89   62.05
   0   2 -18  187.32   58.82
   0  -2 -18  187.70   64.43
  -2   0 -19  -27.94   24.69
   0  -2 -19   -4.97   19.29
   0   2 -19   45.23   29.75
   2   0 -20  119.40   57.08
   0  -2 -20  156.30   58.77
  -2   0 -20  128.40   61.47
   0   2 -20  171.64   59.00
   0   2 -21    6.72   25.27
  -2   0 -21   50.06   42.15
   2   0 -21   10.83   31.38
   0  -2 -21   60.95   51.54
   0   2 -22   21.30   44.72
  -2   0 -22   31.34   18.90
   0  -2 -22   68.86   57.40
   2   0 -22   66.30   41.34
   0  -2 -23    3.59   28.31
   0   2 -23    1.09   37.04
   2   0 -23   -6.97   23.33
  -2   0 -23   48.98   53.15
   0   2 -24  -13.91   20.43
  -2   0 -24    7.04   29.75
   0  -2 -24   50.06   67.50
   2   0 -24   53.39   46.79
  -2   0 -25  -43.35   23.96
   0  -2 -25   28.46   41.56
   2   0 -25   17.62   27.61
   0   2 -25   56.27   38.38
   0  -2 -26  302.51  102.90
   2   0 -26  205.95   90.28
   0   2 -26   99.72   62.33
   2   0 -27  -17.60   52.99
   0  -2 -27  -72.49   44.32
   0   2 -27  -72.12   69.51
   0  -2 -28   49.01   68.85
   0   2 -28   46.99   57.40
   2   0 -28   43.11   43.93
   0  -2 -29  -17.66   38.03
   2   0 -29   92.55   79.77
   0   2 -29   -9.62   37.90
   2   0 -30   68.29   48.51
   0  -2 -30   73.06   71.48
   0   2 -30  -30.96   38.82
   2   0 -31   52.51   53.87
   0  -2 -31   -2.24   39.63
   0   2 -31  -60.29   64.57
   2   0 -32   59.71   71.57
   0  -2 -32   81.04   63.07
   2   0 -33   55.69   60.67
   0  -2 -33  -59.70   38.54
   2   0 -34 -102.40   91.23
   2   0 -35   68.22  103.40
   1  -2 -35   -8.15   39.84
   1  -2 -34   60.08   90.51
   1  -2 -33  -70.97   62.28
   2   1 -33  -19.74   39.99
   1  -2 -32   31.13   63.34
   2   1 -32   41.26   71.67
   2   1 -31  123.66   82.85
   1  -2 -31  -78.46   80.99
   1  -2 -30  -37.66   32.82
   2   1 -30   -1.50   61.34
  -1   2 -29   83.00   53.53
   1  -2 -29   18.41   25.11
   2   1 -29   87.16   70.82
   1  -2 -28  168.45   90.54
  -1   2 -28   56.66   51.61
   2   1 -28   13.89   46.59
  -1   2 -27   29.45   45.23
   2   1 -27  -91.91   44.41
   1  -2 -27   -6.34   44.71
   1  -2 -26  144.73   78.49
  -1   2 -26   58.51   49.46
   2   1 -26  171.60   74.38
   2   1 -25   15.77   32.62
  -2  -1 -25   90.03   57.27
  -1   2 -25   42.74   53.75
   1  -2 -25   21.46   44.36
  -2  -1 -24  106.68   39.14
   2   1 -24  -15.85   28.91
  -1   2 -24  134.07   62.63
   1  -2 -24   33.31   27.24
   1  -2 -23  -14.99   21.16
  -1   2 -23  -39.60   19.45
  -2  -1 -23   66.48   46.22
   2   1 -23   -2.20   19.48
  -2  -1 -22  133.54   59.14
   1  -2 -22   29.54   33.91
   2   1 -22   -4.45   18.82
  -1   2 -22   65.46   36.28
   2   1 -21   39.11   19.93
  -1   2 -21  162.01   68.56
  -2  -1 -21  112.29   56.91
   1  -2 -21  140.76   66.20
   2   1 -20   11.13   43.04
  -2  -1 -20  116.65   47.63
  -1   2 -20   37.78   43.10
   1  -2 -20  -44.82   39.26
   2   1 -19  234.26   62.93
   1  -2 -19  264.51   84.18
  -1   2 -19  280.22   70.11
  -2  -1 -19  249.71   70.74
   2   1 -18  101.63   44.49
  -2  -1 -18   66.46   35.58
   1  -2 -18  126.25   53.44
  -1   2 -18  136.92   51.55
   2   1 -17  195.47   59.10
   1  -2 -17  245.51   71.54
  -1   2 -17  192.23   56.24
  -2  -1 -17  130.87   53.81
   2   1 -16  456.17   86.17
   1  -2 -16  394.46   87.48
  -1   2 -16  448.08   81.94
  -2  -1 -16  404.16   80.34
   2   1 -15   98.09   39.94
  -2  -1 -15  164.77   53.12
   1  -2 -15   86.71   43.69
  -1   2 -15   59.60   29.04
   2   1 -14  875.27  106.48
  -1   2 -14  941.90  104.43
  -2  -1 -14  951.67  117.14
   1  -2 -14  865.72  117.32
   2   1 -13  446.98   71.95
   1  -2 -13  465.66   82.35
  -1   2 -13  442.42   69.66
  -2  -1 -13  492.86   83.00
  -1   2 -12 1008.59   98.03
  -2  -1 -12  916.23  106.71
   2  -1  12  971.22   93.03
   1  -2 -12 1008.50  116.87
   1  -2 -11  173.69   47.70
   2  -1  11  118.10   28.44
  -2  -1 -11  133.96   40.20
  -1   2 -11  125.17   32.94
   1  -2 -10  345.65   66.04
   2  -1  10  315.98   47.94
  -2  -1 -10  301.74   55.72
  -1   2 -10  351.77   50.65
   1   2   9  607.83   73.57
   2  -1   9  740.76   70.48
  -1   2  -9  717.65   67.06
   1  -2  -9  670.46   83.97
  -2  -1  -9  609.58   75.63
   2   1  -9  592.88   68.01
  -1   2  -8  340.16   41.43
   1   2   8  372.66   52.49
   2  -1   8  314.24   43.31
   1  -2  -8  346.45   57.74
   2   1  -8  327.71   51.95
   1   2   7  184.32   37.92
  -1   2  -7  178.25   28.54
   2  -1   7  212.23   35.08
   1  -2  -7  131.47   33.77
   2   1  -7  191.28   35.71
   2  -1   6  176.74   29.75
  -1   2  -6  149.25   23.31
   1   2   6  166.69   37.84
   1  -2  -6  138.04   31.56
   2   1  -6  126.04   28.35
   1  -2  -5  404.81   52.93
   2  -1   5  452.72   42.69
  -1   2  -5  450.12   34.92
   1   2   5  425.98   51.25
   2   1  -5  486.29   46.15
   1  -2  -4 1114.27   79.63
   1   2   4 1070.94   75.42
   2   1  -4 1130.52   62.77
   1   2   3  423.27   44.39
  -1   2  -3  423.97   34.34
  -1   2  -2  609.99   44.21
   2  -1  -3  299.14   45.52
  -1  -2  -4 1163.25   79.68
   2  -1  -4 1028.64   87.19
  -2  -1   4 1257.00   69.99
  -1  -2  -5  439.97   52.89
   2   1   5  419.45   50.50
   1  -2   5  426.53   33.64
   2  -1  -5  365.95   50.07
  -2  -1   5  412.71   44.08
   2  -1  -6   83.33   25.63
   1  -2   6  166.42   24.12
   2   1   6  168.67   37.19
  -1  -2  -6  128.46   32.64
   2   1   7  178.16   36.06
  -1  -2  -7  149.07   38.55
  -1  -2  -8  390.68   60.76
   2   1   8  382.90   56.20
  -1  -2  -9  719.24   86.95
  -2   1  -9  697.40   72.62
   2   1   9  657.30   77.15
   2  -1 -10  331.02   61.67
   2   1  10  286.69   51.51
  -1  -2 -10  243.70   53.28
  -2   1 -10  296.84   50.99
   2  -1 -11  151.56   45.38
   1   2 -11  138.02   36.92
  -2   1 -11  130.92   40.89
  -1  -2 -11  128.95   41.55
  -1  -2 -12 1084.72  123.57
   1   2 -12 1007.24  100.97
   2  -1 -12  894.35  107.08
  -2   1 -12 1002.39  102.58
   2  -1 -13  489.43   84.83
   1   2 -13  535.02   78.61
  -2   1 -13  522.50   77.34
  -1  -2 -13  522.36   86.42
   2  -1 -14  932.91  118.77
  -1  -2 -14  966.44  124.50
  -2   1 -14  810.88   99.67
   1   2 -14  904.09  105.36
   1   2 -15   91.31   37.39
   2  -1 -15   24.36   18.96
  -2   1 -15  125.43   40.24
  -1  -2 -15  110.21   48.92
   1   2 -16  493.23   88.12
   2  -1 -16  360.98   77.36
  -1  -2 -16  398.50   85.50
  -2   1 -16  405.08   78.89
   1   2 -17  213.51   63.30
   2  -1 -17  280.13   76.07
  -2   1 -17  217.51   61.73
  -1  -2 -17  195.20   60.68
   2  -1 -18   61.57   39.90
   1   2 -18   73.69   32.41
  -2   1 -18  111.20   48.51
  -1  -2 -18   98.44   47.60
   2  -1 -19  288.33   83.57
  -2   1 -19  260.19   70.59
   1   2 -19  289.49   76.26
  -1  -2 -19  276.84   78.70
  -1  -2 -20   13.11   31.27
  -2   1 -20   41.54   31.43
   2  -1 -20   42.20   41.08
   1   2 -20   46.02   36.79
   2  -1 -21   54.38   32.28
  -2   1 -21  200.24   74.63
  -1  -2 -21  105.44   56.36
   1   2 -21   38.36   31.39
  -2   1 -22   46.97   36.45
   2  -1 -22   97.93   44.99
  -1  -2 -22   61.46   40.47
   1   2 -22  -13.78   32.81
   1   2 -23  -53.78   52.10
  -2   1 -23   96.77   49.42
   2  -1 -23  -32.63   28.46
  -1  -2 -23  -70.68   42.03
  -1  -2 -24  119.54   64.84
   1   2 -24   46.74   39.84
  -2   1 -24   75.53   52.35
   2  -1 -24  -16.33   24.98
   1   2 -25  109.36   58.95
   2  -1 -25   15.40   26.61
  -1  -2 -25   -0.98   25.47
  -2   1 -25   76.64   66.03
  -1  -2 -26   38.21   28.62
   1   2 -26  109.05   67.93
   2  -1 -26  113.39   64.18
  -1  -2 -27   12.36   61.81
   1   2 -27   37.09   71.26
   2  -1 -27   57.59   66.95
   1   2 -28   78.86   55.33
   2  -1 -28   49.70   52.60
  -1  -2 -28   98.44   67.57
  -1  -2 -29   70.82   86.04
   2  -1 -29   28.31   63.45
   1   2 -29   23.32   40.44
   2  -1 -30   -0.95   65.73
   1   2 -30  -34.02   33.44
   2  -1 -31   57.58   59.17
   1   2 -31  -10.00   52.13
   2  -1 -32  -20.22   45.63
   1   2 -32   48.29   43.69
   2  -1 -33   -5.10   67.05
   2  -1 -34   -5.19   47.59
   2  -1 -35  -19.14   71.99
  -2   2   0 2057.39  112.70
  -2   2  -1   66.07   20.82
  -2   2   1   36.42   13.53
  -2   2   2 3020.33  157.89
  -2   2  -2 3046.31  121.17
   2  -2  -2 3055.15  150.28
   2  -2  -3 1362.64  110.05
   2  -2  -4   48.27   16.66
  -2  -2   4   29.90   11.21
   2   2   5 1159.55   89.72
   2  -2   5 1206.70   59.37
  -2  -2   5 1174.36   60.23
   2   2   6 2821.33  143.38
   2  -2   6 2815.95  100.71
   2   2  -6 2814.78   92.21
   2   2   7 2282.38  136.20
   2  -2   7 1984.48   92.60
   2   2  -7 2045.87   89.49
   2  -2   8 1370.43   83.43
   2  -2  -8 1269.93  110.55
   2   2   8 1243.88  104.34
   2   2  -8 1242.91   78.39
  -2   2  -9  130.04   31.35
   2   2   9  122.61   35.11
  -2  -2  -9  156.24   43.43
   2  -2   9  126.24   28.76
   2  -2  -9  127.14   34.76
   2   2  -9  135.00   24.88
  -2  -2 -10  142.15   43.37
  -2   2 -10  100.99   28.94
   2  -2  10  130.62   28.81
   2  -2 -10   92.76   34.98
   2   2 -10   75.63   21.34
  -2  -2 -11  393.53   71.85
  -2   2 -11  342.69   52.81
   2  -2 -11  337.82   64.73
   2  -2  11  351.61   52.79
   2   2 -11  357.42   55.12
   2   2 -12  115.52   32.50
   2  -2 -12  121.64   42.74
   2  -2  12  167.32   40.20
  -2   2 -12  177.25   40.36
  -2  -2 -12  222.18   57.88
  -2  -2 -13  636.61  100.06
  -2   2 -13  766.06   89.48
   2  -2  13  716.46   82.44
   2  -2 -13  582.96   94.29
   2   2 -14   44.05   23.89
   2  -2 -14   58.92   33.30
  -2   2 -14   76.81   35.88
  -2  -2 -14   41.54   30.35
   2  -2 -15   57.89   34.06
   2   2 -15   95.39   39.28
  -2   2 -15  121.63   37.42
  -2  -2 -15   99.07   46.26
   2  -2 -16  111.27   43.89
   2   2 -16   69.84   30.65
  -2  -2 -16  104.92   47.34
  -2   2 -16  118.74   44.10
   2   2 -17  348.20   76.31
   2  -2 -17  366.06   84.36
  -2  -2 -17  298.31   75.95
  -2   2 -17  353.32   74.91
   2  -2 -18  179.71   61.62
   2   2 -18  337.94   76.61
  -2  -2 -18  295.13   81.16
  -2   2 -18  306.88   73.33
   2   2 -19  101.96   40.94
  -2   2 -19   72.59   32.78
  -2  -2 -19    7.64   34.26
   2  -2 -19   32.77   19.44
   2   2 -20  143.34   60.03
  -2   2 -20  166.03   56.48
  -2  -2 -20  199.48   76.89
   2  -2 -20  145.94   59.95
   2   2 -21   96.86   49.94
  -2  -2 -21   91.93   62.59
  -2   2 -21   44.32   36.26
   2  -2 -21    1.14   40.14
  -2   2 -22   10.75   27.93
   2   2 -22   10.21   32.50
   2  -2 -22    9.44   28.84
  -2  -2 -22  -36.17   26.75
   2   2 -23   38.50   30.11
  -2  -2 -23  134.62   61.46
  -2   2 -23  136.90   60.63
   2  -2 -24   78.67   48.29
  -2  -2 -24   97.75   67.26
   2   2 -24  149.77   67.34
   2  -2 -25   11.47   39.18
   2   2 -25   -3.98   46.45
  -2  -2 -25   49.50   48.97
   2  -2 -26   64.19   61.02
   2   2 -26   30.29   42.53
   2   2 -27   64.23   63.94
   2  -2 -27   33.13   36.19
   2   2 -28   37.16   40.29
   2  -2 -28   38.90   53.26
   2  -2 -29  -22.02   49.80
   2   2 -29   41.26   38.25
   2   2 -30   86.00   58.52
   2  -2 -30   73.52   28.51
   2   2 -31   71.57   44.95
   2  -2 -31  -28.53   30.48
   2  -2 -32  -44.07   30.03
   2   2 -32  -57.18   34.26
   2  -2 -33  -66.33   84.61
   2  -2 -34   -2.51   45.44
   2  -2 -35   19.91   83.60
   0   3   0 6405.32  134.65
   0   3   1  648.03   49.52
  -3   0   1  635.91   59.76
   3   0  -2  238.77   38.12
  -3   0   2  281.55   41.93
   0  -3  -2  162.81   28.92
   0   3   2  213.71   31.76
   0   3   3  505.12   50.26
   0  -3  -3  458.27   50.92
  -3   0   3  427.32   52.32
   3   0  -3  461.25   53.61
   0  -3  -4 1383.73   94.17
   0   3   4 1280.50   88.65
   3   0  -4 1411.97   94.52
  -3   0   4 1536.87  105.66
   0  -3  -5  183.71   36.69
   0   3   5  189.32   37.68
  -3   0   5  222.01   42.60
   3   0  -5  186.10   35.95
   0  -3  -6 1046.17   92.76
   0   3   6 1092.88   89.63
  -3   0   6  858.53   89.22
   3   0  -6  861.31   85.33
   0  -3  -7  -31.16   22.26
   3   0   7   18.42   20.41
   0   3   7   34.87   17.00
   3   0  -7   12.66   18.13
   3   0   8  663.12   69.40
   0   3   8  741.98   81.66
   0  -3  -8  700.13   83.46
   0   3  -8  709.24   59.07
   3   0  -8  700.35   85.19
   0  -3  -9  189.05   46.15
   3   0   9  227.36   43.70
   0   3  -9  294.88   42.52
   3   0  -9  279.96   56.23
   3   0  10  110.39   37.85
   0  -3 -10   36.95   25.19
   0   3 -10   66.30   23.67
   3   0 -10   51.35   36.46
   3   0  11  155.41   40.17
   0  -3 -11  117.40   35.10
   0   3 -11  149.38   38.30
   3   0 -11  106.06   35.76
   0  -3 -12   53.61   27.68
   0   3 -12  132.36   33.72
   3   0 -12  113.11   48.65
   0  -3 -13  180.26   49.32
   0   3 -13  214.69   47.18
   3   0 -13  208.24   59.32
   0  -3 -14   77.94   44.57
   3   0 -14   43.03   29.25
   3   0 -14   92.61   32.58
   0   3 -14   83.62   35.79
   0   3 -15   28.49   21.15
   0  -3 -15   28.45   29.52
   3   0 -15   27.09   23.10
   0   3 -16   58.93   23.79
   0  -3 -16   42.55   36.46
   3   0 -16   23.53   18.61
   0  -3 -17  100.82   58.11
   0   3 -17   69.84   25.68
   3   0 -17   43.56   25.95
   0  -3 -18  182.84   69.26
   0   3 -18  205.65   52.99
   3   0 -18  221.02   65.02
   0   3 -19   51.59   30.67
   0  -3 -19  114.40   59.17
   3   0 -19   72.91   37.00
   0  -3 -20   22.99   41.22
   0   3 -20    5.80   15.99
   3   0 -20   69.82   35.48
   0  -3 -21   10.55   31.65
   0   3 -21   21.53   22.42
   3   0 -21   32.39   39.85
   0  -3 -22   73.33   45.05
   0   3 -22   16.67   21.68
   3   0 -22   27.52   33.66
   0   3 -23   67.94   41.96
   0  -3 -23   30.27   56.47
   3   0 -23   41.19   37.89
   0  -3 -24   -4.64   34.73
   3   0 -24    5.35   36.41
   0   3 -24   17.54   33.87
   3   0 -25  162.97   70.99
   0   3 -25  152.53   69.47
   0  -3 -25  111.16   59.38
   0   3 -26   80.01   54.36
   3   0 -26   74.23   53.00
   0  -3 -26   80.40   59.20
   3   0 -27   -8.86   46.93
   0   3 -27  -12.03   25.44
   0  -3 -27   40.11   37.56
   0  -3 -28   29.62   45.31
   3   0 -28   16.34   25.15
   0   3 -28  -76.28   58.42
   0   3 -29   10.60   50.66
   3   0 -29  -45.47   51.01
   0  -3 -29   36.80   56.40
   0  -3 -30   62.62   42.10
   0   3 -30   34.66   66.63
   3   0 -30   21.54   35.36
   0  -3 -31   20.32   47.15
   3   0 -31   29.23   58.04
   3   0 -32  -33.00   44.65
   0  -3 -32   36.31   46.24
   0  -3 -33   14.09   86.66
   3   0 -33   13.02   51.70
   3   0 -34   -0.96   29.35
   3   0 -35   15.49   58.92
   1  -3 -34  -89.45   46.75
   3   1 -34  185.08   94.84
   1  -3 -33   69.52   79.07
   3   1 -33   59.40   36.14
   3   1 -32   70.52   57.70
   1  -3 -32  144.84  115.99
   1  -3 -31  158.40   88.31
   3   1 -31   38.19   65.62
   3   1 -30   34.04   44.96
   1  -3 -30    6.21   68.38
   3   1 -29    6.00   40.11
   1  -3 -29  -25.67   41.77
  -1   3 -29   43.41   61.32
   3   1 -28   37.33   26.85
   1  -3 -28  -10.71   44.29
  -1   3 -28    5.47   30.45
   3   1 -27    6.62   37.05
   1  -3 -27   -4.12   40.65
  -1   3 -27   25.25   35.65
  -1   3 -26  -31.90   32.35
   3   1 -26   25.35   32.28
   1  -3 -26  -23.42   38.75
   1  -3 -25    6.85   43.10
   3   1 -25  125.28   65.48
  -1   3 -25   95.00   71.09
  -1   3 -24  -55.03   27.30
   1  -3 -24   77.13   59.12
   3   1 -24   55.19   52.83
   1  -3 -23  168.94   83.86
  -1   3 -23   48.13   41.63
   3   1 -23   77.41   31.75
   1  -3 -22   -4.15   32.01
  -1   3 -22   73.66   52.55
   3   1 -22   -5.14   22.11
   1  -3 -21   91.47   47.92
  -1   3 -21   76.14   40.08
   3   1 -21   51.10   28.54
   1  -3 -20  106.67   63.88
  -1   3 -20   36.74   16.93
   3   1 -20   53.16   33.28
   1  -3 -19  136.01   48.43
  -1   3 -19  167.05   54.07
   3   1 -19   92.49   54.98
  -1   3 -18  137.69   48.52
   1  -3 -18  160.35   65.92
   3   1 -18  117.80   52.80
   1  -3 -17  162.93   64.36
  -1   3 -17  108.08   44.89
   3   1 -17   83.58   44.20
   1  -3 -16   -2.49   30.20
  -1   3 -16  116.36   36.89
   3   1 -16   78.69   34.46
   3   1 -16   98.37   45.82
   1  -3 -15   62.98   35.49
  -1   3 -15   90.78   36.12
   3   1 -15  165.53   52.29
  -1   3 -14   58.46   28.08
   1  -3 -14   74.30   39.85
   3   1 -14   68.37   31.71
  -1   3 -13  427.52   65.77
   1  -3 -13  348.16   72.18
   3   1 -13  364.52   78.28
  -1   3 -12  139.75   30.84
   1  -3 -12  179.33   49.10
   3  -1  12  152.12   37.38
   3   1 -12  112.36   34.72
   3  -1  11  565.25   69.83
  -1   3 -11  639.16   69.47
   1  -3 -11  636.32   95.00
   3   1 -11  592.12   79.64
   3  -1  10   -4.82   12.19
  -1   3 -10   -4.22   11.34
   1  -3 -10    0.98   11.47
   3   1 -10    6.92   16.96
   3  -1   9  592.32   66.94
  -1   3  -9  516.14   52.33
   1  -3  -9  506.18   77.68
   3   1  -9  586.65   73.41
   1   3   8  498.06   69.28
  -1   3  -8  486.57   46.89
   1  -3  -8  450.18   69.47
   3  -1   8  486.02   57.19
   3   1  -8  511.07   63.82
  -1   3  -7 1049.36   60.51
   1  -3  -7  946.94   93.44
   1   3   7 1077.82   96.53
   3  -1   7 1011.20   77.61
   3   1  -7  972.17   82.35
   1  -3  -6 1050.41   94.04
  -1   3  -6 1112.55   53.73
   1   3   6 1054.53   91.11
   3   1  -6 1109.99   81.08
   1  -3  -5 1550.56  105.95
   1   3   5 1480.86  103.36
   3   1  -5 1463.31   89.65
  -1   3  -5 1522.11   70.81
  -3   1   5 1594.27  127.57
   1   3   4 3739.33  152.46
   1  -3  -4 3549.94  150.71
   3   1  -4 3523.62  132.07
  -3   1   4 3314.36  175.59
  -1   3  -4 3532.71  112.05
   1   3   3  128.79   31.75
   1  -3  -3   82.47   24.74
  -3   1   3  113.33   32.78
  -1   3  -3   80.72   20.28
   1  -3  -2  644.67   55.14
  -3   1   2  672.79   69.84
  -1   3  -2  664.75   59.69
  -1   3  -1 1119.39   83.23
  -3   1   1 1119.04   85.78
  -3   1   0 1409.05   92.10
   1  -3   0 1361.92   97.60
  -1   3   1 1202.10   64.97
   3  -1  -1 1150.71   85.46
  -1   3   2  663.82   54.61
   1  -3   2  681.77   56.28
   3  -1  -2  664.87   67.05
  -1   3   3   84.58   18.90
   3  -1  -3   96.46   26.75
  -3  -1   3  136.08   29.13
   1  -3   3  107.53   20.92
  -1   3   4 3550.73  146.07
  -1  -3  -4 3411.63  149.92
   3  -1  -4 3419.21  167.87
  -3  -1   4 3252.42  133.08
  -1  -3  -5 1563.36  107.83
  -1   3   5 1631.46  106.59
   3  -1  -5 1718.32  128.39
  -3  -1   5 1539.56   98.80
  -1  -3  -6 1056.00   93.91
  -1   3   6 1112.01   95.52
   3  -1  -6 1189.06  109.02
  -3  -1   6 1175.93   90.81
   3   1   7 1025.94   90.72
  -1  -3  -7  997.62   96.93
   3  -1  -7 1046.07  105.14
  -3  -1   7 1058.85   93.21
  -1  -3  -8  448.86   69.11
   3   1   8  503.24   67.62
   3  -1  -8  475.23   75.48
  -1  -3  -9  602.98   83.98
   3   1   9  554.67   73.17
   3  -1  -9  456.82   75.46
  -1  -3 -10   10.46   16.10
   3  -1 -10   46.84   36.09
  -1  -3 -11  524.55   85.76
   3  -1 -11  564.06   92.69
  -1  -3 -12  118.18   43.52
   1   3 -12  123.20   35.28
   3  -1 -12  133.14   47.97
  -1  -3 -13  449.17   86.17
   3  -1 -13  347.02   71.62
   1   3 -13  366.92   62.94
  -1  -3 -14  190.31   63.47
   1   3 -14   55.43   19.02
   3  -1 -14   56.43   27.30
  -1  -3 -15  161.74   57.94
   1   3 -15   65.33   30.76
   3  -1 -15   97.00   41.56
  -1  -3 -16   91.71   46.53
   1   3 -16   52.36   26.50
   3  -1 -16   38.34   31.37
  -1  -3 -17   93.76   44.80
   3  -1 -17   85.58   39.50
   1   3 -17   65.23   23.89
  -1  -3 -18   59.83   32.46
   1   3 -18   36.82   16.12
   3  -1 -18  102.66   44.40
  -1  -3 -19  117.86   60.74
   1   3 -19  140.21   49.11
   3  -1 -19  115.38   57.47
  -1  -3 -20   40.36   31.94
   1   3 -20   68.28   43.92
   3  -1 -20   78.88   42.19
   1   3 -21   77.05   38.77
  -1  -3 -21   88.23   53.44
   3  -1 -21   13.51   23.86
  -1  -3 -22  -66.67   59.32
   1   3 -22  -11.08   30.56
   3  -1 -22   -2.19   20.63
   1   3 -23   49.54   45.79
   3  -1 -23   96.15   52.28
  -1  -3 -23  103.88   55.84
   1   3 -24   -6.83   25.10
  -1  -3 -24  -21.61   38.17
   3  -1 -24    5.78   34.24
   3  -1 -25  123.29   64.81
   1   3 -25   78.24   56.93
  -1  -3 -25   31.24   42.33
   1   3 -26   40.24   39.93
  -1  -3 -26  -66.96   54.89
   3  -1 -26  135.19   80.81
   1   3 -27   67.29   45.81
  -1  -3 -27   13.55   47.45
   3  -1 -27   13.57   38.83
   1   3 -28   73.31   72.99
   3  -1 -28   92.19   63.98
  -1  -3 -28   17.42   32.73
  -1  -3 -29   -8.73   50.03
   3  -1 -29  152.24   86.29
   1   3 -29   71.80   61.55
   3  -1 -30   20.54   43.52
   1   3 -30   57.31   52.10
   3  -1 -31  142.60   76.88
   3  -1 -32   -9.56   32.14
   3  -1 -33   -2.13   55.72
   3  -1 -34  -97.78   88.18
   3  -1 -35  -48.75   64.24
   2  -3 -34  -31.21   56.09
   3   2 -33   94.90   81.04
   2  -3 -33  -61.64   41.64
   2  -3 -32  -59.40   83.98
   3   2 -32  181.85   93.73
   2  -3 -31  -58.69   44.17
   3   2 -31   43.02   63.08
   2  -3 -30   80.57   61.05
   3   2 -30   74.44   76.66
   3   2 -29   60.11   34.21
   2  -3 -29  -66.65   69.55
   3   2 -28   43.74   43.30
   2  -3 -28   44.63   50.72
   2  -3 -27  111.92   88.13
   3   2 -27  -35.76   32.21
   3   2 -26   -7.07   43.74
   2  -3 -26  -25.10   36.50
   3   2 -25   17.37   29.05
   2  -3 -25   16.73   33.53
   2  -3 -24   16.33   44.61
   3   2 -24  101.06   50.50
   2  -3 -23  106.71   53.29
  -2   3 -23   58.02   45.58
   3   2 -23  110.81   61.62
   2  -3 -22   58.05   52.58
  -2   3 -22   84.62   56.53
   3   2 -22   54.32   38.59
  -2   3 -21  -20.93   32.16
   2  -3 -21   13.88   51.82
   3   2 -21    5.21   19.26
   2  -3 -20  262.42   89.80
  -2   3 -20  170.75   61.65
   3   2 -20  112.63   48.94
   2  -3 -19   93.90   56.38
  -2   3 -19   84.12   42.05
   3   2 -19  184.24   69.09
   2  -3 -18  328.57   86.99
  -2   3 -18  268.14   66.83
   3   2 -18  242.23   68.39
   3   2 -18  181.13   58.27
  -2   3 -17  161.20   51.84
   2  -3 -17  119.72   57.09
   3   2 -17  119.19   41.71
   3   2 -17   72.62   30.29
  -2   3 -16  122.30   41.54
   2  -3 -16  121.66   51.16
   3   2 -16   64.66   39.08
  -2   3 -15   50.70   27.58
   2  -3 -15   29.03   35.27
   3   2 -15   27.07   22.68
  -2   3 -14  165.44   46.52
   2  -3 -14  183.95   60.71
   3   2 -14  111.22   39.59
  -2   3 -13   60.63   24.85
   3  -2  13   78.35   29.58
   2  -3 -13  110.66   49.36
   3   2 -13   48.27   28.41
   3  -2  12  692.65   76.76
   2  -3 -12  702.63  104.73
  -2   3 -12  770.20   82.67
   3   2 -12  607.14   76.47
  -2   3 -11  169.71   37.98
   2  -3 -11  100.50   37.12
   3  -2  11  129.40   32.23
   3   2 -11  108.08   29.42
   3  -2  10  332.63   46.93
  -2   3 -10  286.28   43.13
   2  -3 -10  363.77   68.99
   3   2 -10  329.14   47.67
   2  -3  -9  135.43   41.97
   3   2  -9   96.15   27.24
   3  -2   9  108.14   26.71
   3  -2   8  754.30   64.99
   2   3   8  786.46   85.73
   2  -3  -8  752.76   90.98
   3   2  -8  736.41   64.40
   2   3   7 1288.53  108.58
   3  -2   7 1363.14   81.86
   2  -3  -7 1372.07  113.76
   3   2  -7 1367.20   81.98
   2   3   6  794.39   81.77
   2  -3  -6  774.62   82.20
   2  -3  -5  179.87   35.45
   2   3   5  190.29   39.39
  -2   3  -4 3502.26  136.35
  -3   2   4 3495.27  200.18
   2  -3  -4 3412.81  197.12
   2  -3  -3  124.87   40.13
  -2   3  -3  131.60   27.44
  -3   2   3  191.20   52.15
  -3   2   2 2067.61  140.89
   2  -3  -2 2127.38  146.03
  -2   3  -2 2090.19  118.44
   3  -2   1  355.63   53.68
   2  -3  -1  426.76   61.49
  -2   3  -1  402.43   57.08
  -3   2   1  382.93   59.80
   3  -2   0 1778.11  110.43
   2  -3   0 1638.70  112.80
  -2   3   0 1526.28  113.07
  -3   2   0 1684.63  114.20
  -2   3   1  422.46   64.13
  -3   2  -1  251.50   43.03
   3  -2  -1  407.88   53.99
   2  -3   1  414.54   52.94
   3  -2  -2 2232.63  135.51
   2  -3   2 2190.07  111.36
  -3   2  -2 2143.94  119.41
   2  -3   3  232.05   36.86
   3  -2  -3  213.33   47.46
  -3  -2   4 3620.93  125.69
   3  -2  -4 3823.70  198.27
  -3  -2   5  229.83   33.12
   3  -2  -5  267.70   54.57
   2  -3   6  682.32   42.37
  -3  -2   6  727.26   62.76
   3  -2  -6  632.68   86.95
   2  -3   7 1374.48   68.17
   3   2   7 1370.52  110.86
  -3  -2   7 1275.03   89.57
   3  -2  -7 1232.14  126.69
   3   2   8  771.13   87.15
   2  -3   8  721.31   55.03
   3  -2  -8  836.24  107.82
   3  -2  -9   96.45   49.28
   2  -3   9  117.59   25.01
  -2  -3  -9   85.87   35.81
   2   3  -9   83.56   17.47
  -2  -3 -10  253.94   58.76
   2  -3  10  349.75   45.80
   3  -2 -10  325.59   68.07
   2   3 -10  283.07   36.32
  -2  -3 -11   60.11   27.12
   3  -2 -11   69.46   33.17
   2   3 -11   99.55   25.67
  -2  -3 -12  657.55   98.58
   3  -2 -12  584.63   91.58
   2   3 -12  712.66   68.68
  -2  -3 -13   71.84   38.00
   3  -2 -13    6.20   13.16
   2   3 -13   45.46   24.33
  -2  -3 -14  100.60   32.94
   3  -2 -14  176.98   55.52
   2   3 -14  114.09   31.47
  -2  -3 -15   13.63   20.66
   2   3 -15    7.99   17.35
   3  -2 -15   40.93   35.22
   2   3 -15   25.37   27.96
  -2  -3 -16   60.13   37.74
   2   3 -16  103.37   43.28
   3  -2 -16   67.56   40.61
   2   3 -16  102.74   37.25
  -2  -3 -17   99.99   47.00
   2   3 -17  142.27   47.73
   3  -2 -17  152.98   54.55
   2   3 -17  129.58   43.27
  -2  -3 -18  186.20   68.11
   2   3 -18  289.91   72.34
   3  -2 -18  201.97   63.48
   2   3 -18  198.71   51.15
  -2  -3 -19  160.54   66.61
   3  -2 -19   48.26   25.26
   2   3 -19   96.31   47.99
   2   3 -19  103.40   37.95
  -2  -3 -20  111.19   63.64
   2   3 -20  143.76   55.47
   3  -2 -20   72.78   45.33
  -2  -3 -21   26.64   40.06
   3  -2 -21   21.35   41.83
   2   3 -21  -36.14   35.62
   3  -2 -22  121.48   48.23
  -2  -3 -22   28.99   42.26
   2   3 -22   56.59   47.02
   2   3 -23   53.05   39.90
   3  -2 -23  119.80   60.39
  -2  -3 -23  155.20   77.32
   3  -2 -24   46.86   47.45
   2   3 -24   34.77   23.04
   2   3 -25   54.32   45.00
   3  -2 -25  148.57   68.41
   3  -2 -26   14.66   36.94
   2   3 -26   16.89   39.12
   3  -2 -27   20.90   35.26
   2   3 -27  -12.89   37.12
   2   3 -28    5.54   44.68
   3  -2 -28    3.65   36.01
   2   3 -29  106.60   83.76
   3  -2 -29  -20.03   38.48
   2   3 -30   18.73   27.59
   3  -2 -30  -38.54   34.83
   3  -2 -31   71.00   91.75
   2   3 -31  127.22   78.89
   3  -2 -32   31.64   51.10
   3  -2 -33   54.31   55.89
   3  -2 -34  -42.09   59.40
   3  -3   0   44.22   19.99
  -3   3   0   72.23   27.55
   3  -3   1   21.78   20.14
  -3   3   1   86.12   35.88
   3  -3  -1   42.41   26.68
  -3   3  -1   29.14   17.08
  -3   3   2  766.80   95.94
   3  -3   2  871.84   79.20
  -3   3  -2  770.04   78.73
   3  -3  -2  799.54   91.88
  -3   3   3  297.29   67.40
  -3   3  -3  264.61   45.15
   3  -3  -3  284.14   63.93
   3  -3  -4 1805.23  146.92
  -3   3  -4 2059.18  120.12
   3  -3  -5   42.46   34.14
  -3  -3   6   80.86   18.19
   3  -3  -6   43.53   26.72
   3  -3   7 2317.59   96.06
   3   3   7 2368.01  151.24
  -3  -3   7 2319.52  103.32
   3  -3  -7 2466.12  194.54
   3  -3   8  181.94   29.90
   3  -3  -8  179.29   60.18
  -3  -3   8  238.33   34.68
   3  -3   9 1365.35   85.93
   3  -3  -9 1262.77  123.42
   3   3  -9 1263.44   73.85
   3  -3 -10   27.09   25.06
   3  -3  10   43.87   16.79
   3   3 -10   37.84   15.13
   3  -3 -11  159.96   47.34
   3  -3  11  153.70   35.23
   3   3 -11  162.78   30.33
   3  -3 -12  260.69   62.71
   3  -3  12  307.56   48.07
   3   3 -12  210.78   36.37
   3  -3  13   28.33   21.69
   3  -3 -13    2.52   19.07
   3   3 -13    9.42   15.74
   3  -3 -14  -24.83   33.09
   3  -3  14   11.98   20.57
   3   3 -14   11.23   13.54
   3  -3 -15   98.73   44.20
   3   3 -15   60.46   29.58
   3  -3 -16   67.30   43.07
   3   3 -16    1.53   12.96
   3  -3 -17  467.50  104.10
   3   3 -17  529.80   90.61
   3   3 -17  557.52   80.82
   3  -3 -18    0.47   20.46
   3   3 -18   -4.45   22.37
   3   3 -18   -5.34   18.04
   3  -3 -19  169.37   69.35
   3   3 -19  166.33   60.16
   3   3 -19  111.54   36.93
   3  -3 -20    4.42   37.61
   3   3 -20   34.08   38.59
   3   3 -21  120.12   42.43
   3  -3 -21  120.46   68.38
   3   3 -22   35.87   25.54
   3  -3 -22  126.23   60.11
   3   3 -23   64.79   40.01
   3  -3 -23   81.83   66.76
   3   3 -24   15.91   35.82
   3  -3 -24    9.47   35.10
   3   3 -25   41.10   25.14
   3  -3 -25  159.08   85.87
   3   3 -26   42.23   43.01
   3  -3 -26   68.19   48.77
   3  -3 -27   42.82   48.96
   3   3 -27  -35.95   38.87
   3  -3 -28  -14.28   40.95
   3   3 -28   37.48   26.42
   3  -3 -29   69.39   56.11
   3   3 -29    0.46   39.69
   3  -3 -30   55.84   68.64
   3   3 -30  -52.72   30.68
   3   3 -31  103.21   79.90
   3  -3 -31  -11.86   50.27
   3  -3 -32   15.96   60.47
   3  -3 -33  129.82   91.57
   3  -3 -34   17.41   68.37
   0   4   0  243.61   31.54
   0   4   1   76.74   19.73
   0   4   2 3469.55  134.25
   0  -4  -2 3425.94  136.40
  -4   0   2 3453.33  162.03
   0  -4  -3 3219.36  143.31
   0   4   3 3209.41  139.94
  -4   0   3 3286.32  160.93
   0  -4   3 3230.06  124.64
   4   0  -3 3219.60  153.22
   0  -4  -4 7040.37  228.09
   0   4   4 7051.67  217.96
  -4   0   4 6897.54  244.27
   0  -4   4 6903.76  152.22
   4   0  -4 7086.37  232.83
   0   4   5 9801.83  271.17
   0  -4  -5 9789.98  285.41
   4   0  -5 9999.00  285.03
  -4   0   5 9800.53  305.24
   0   4   6  231.66   45.59
   0  -4  -6  156.48   39.44
   4   0  -6  172.49   39.16
  -4   0   6  213.11   48.73
   0  -4  -7  148.93   40.45
   0   4   7   82.62   29.37
   4   0  -7  102.04   33.06
  -4   0   7  104.91   28.56
   0  -4  -8  244.56   53.37
  -4   0   8  249.03   54.62
   4   0  -8  231.86   52.70
   0  -4  -9   81.10   34.86
   4   0   9   63.19   23.23
   4   0  -9   57.95   31.26
   0  -4 -10   69.74   34.41
   4   0  10   74.05   32.94
   0   4 -10   35.68   14.67
   4   0 -10   54.52   37.21
   0   4 -11  899.81   81.74
   0  -4 -11  784.30  104.68
   4   0 -11  862.64  108.20
   0  -4 -12  398.00   79.60
   0   4 -12  542.03   67.38
   4   0 -12  499.42   84.44
   0  -4 -13  124.26   46.32
   0   4 -13  153.53   39.12
   4   0 -13  131.58   51.93
   0  -4 -14  236.99   65.68
   0   4 -14  310.35   56.28
   0  -4 -15  173.86   63.21
   0   4 -15  117.88   35.25
   0   4 -16  431.52   73.71
   0  -4 -16  484.66  101.94
   0  -4 -17   26.89   20.15
   0   4 -17   34.94   15.91
   4   0 -17  -14.27   33.01
   0   4 -18   64.15   34.17
   0  -4 -18   99.78   49.67
   4   0 -18   83.87   52.59
   0   4 -19   15.07   27.00
   4   0 -19  -11.78   26.42
   0   4 -20   19.49   25.04
   0  -4 -20   94.85   45.06
   4   0 -20   36.70   49.84
   0   4 -21   38.11   33.58
   0  -4 -21   35.40   34.81
   4   0 -21   21.08   36.93
   0  -4 -22   66.98   44.33
   0   4 -22   70.06   51.32
   4   0 -22   33.28   43.61
   0   4 -23  107.86   57.12
   0  -4 -23   62.79   50.92
   4   0 -23   22.91   33.68
   0   4 -24  254.52   89.41
   0  -4 -24  135.61   81.10
   4   0 -24  160.79   74.23
   0   4 -25  -31.20   42.79
   0  -4 -25    6.05   31.08
   4   0 -25   42.83   38.80
   4   0 -26  -17.38   43.73
   0  -4 -26   48.88   57.34
   0   4 -26   20.32   33.41
   4   0 -27  -11.50   34.39
   0   4 -27  -21.92   25.66
   0  -4 -27   24.47   45.90
   0   4 -28  -16.62   30.56
   0  -4 -28   75.64   65.96
   4   0 -28  108.55   63.62
   0  -4 -29   79.59  106.08
   4   0 -29   11.38   48.16
   0  -4 -30  150.98  111.72
   4   0 -30  -22.18   46.76
   4   0 -31  -26.21   48.40
   0  -4 -31   36.16   62.37
   0  -4 -32  118.17   92.29
   4   0 -32  149.61   92.05
   4   0 -33  150.81   88.50
   4   0 -34   67.81   60.64
   4   0 -35  -25.02   36.69
   4   1 -34   68.18   72.50
   1  -4 -34   59.20   96.57
   1  -4 -33  201.15  126.96
   4   1 -33  187.79   91.49
   4   1 -32  -36.09   30.94
   1  -4 -32    2.82   52.54
   1  -4 -31   -8.97   86.74
   4   1 -31   81.40   57.27
   4   1 -30    9.02   39.67
   1  -4 -30   17.91   30.57
   1  -4 -29  -53.70   53.34
   4   1 -29  -60.55   47.80
   4   1 -28  129.11   62.81
   1  -4 -28  103.74   57.24
  -1   4 -27   20.90   28.09
   4   1 -27  -65.33   32.10
   1  -4 -27  -13.65   25.62
  -1   4 -26   77.27   47.46
   1  -4 -26   57.87   61.82
   4   1 -26  164.96   69.85
   1  -4 -25   42.58   36.40
  -1   4 -25    7.80   22.73
   4   1 -25  -47.94   25.57
  -1   4 -24   36.84   25.03
   1  -4 -24   10.06   44.23
   4   1 -24   75.84   46.55
  -1   4 -23   26.72   28.57
   1  -4 -23   43.42   47.28
   4   1 -23   38.84   49.45
   1  -4 -22   58.29   49.39
  -1   4 -22   26.52   40.82
   4   1 -22   95.29   55.05
  -1   4 -21   38.84   28.75
   1  -4 -21   27.80   43.67
   4   1 -21  122.54   57.51
   1  -4 -20   11.99   34.18
  -1   4 -20   70.55   39.54
   4   1 -20   54.48   29.59
  -1   4 -19   -9.15   14.02
   1  -4 -19   35.02   37.05
   4   1 -19   53.99   37.73
  -1   4 -18   92.31   46.10
   1  -4 -18    7.41   23.44
   4   1 -18   71.67   45.52
   1  -4 -17  241.99   75.43
  -1   4 -17  199.36   53.79
   1  -4 -16   94.97   31.13
  -1   4 -16  167.26   47.58
   1  -4 -15   76.86   33.28
  -1   4 -15   78.84   29.94
   4   1 -15   52.86   29.93
   1  -4 -14  518.70   98.58
  -1   4 -14  630.97   78.88
   4   1 -14  527.57   89.99
   1  -4 -13  124.96   40.76
  -1   4 -13  155.66   36.50
   4   1 -13  132.88   46.00
  -1   4 -12  381.44   52.92
   1  -4 -12  435.17   85.16
   4   1 -12  399.55   72.72
   1  -4 -11  570.12   93.42
  -1   4 -11  576.30   60.94
   4  -1  11  590.59   75.87
   4   1 -11  511.44   77.12
   1  -4 -10  346.38   68.80
   4  -1  10  212.27   47.84
  -1   4 -10  322.71   42.32
   4   1 -10  238.88   51.72
   4   1  -9   59.88   31.38
   1  -4  -9   59.78   29.27
  -1   4  -9   55.82   17.25
   4  -1   9   65.94   25.64
   4   1  -8  116.68   30.84
  -1   4  -8  156.86   22.84
   1  -4  -8  164.23   44.90
   1  -4  -7 1170.59  111.89
  -1   4  -7 1286.72   58.61
   1   4   7 1339.40  111.60
  -4   1   7 1270.14  133.79
  -1   4  -7 1246.52   69.01
   4   1  -7 1289.43  100.84
   1   4   6  262.48   48.51
   1  -4  -6  254.90   50.20
  -1   4  -6  295.87   35.23
   4   1  -6  328.46   47.95
  -4   1   6  277.16   58.01
   1  -4  -5 1932.39  127.12
   1   4   5 2073.05  127.87
  -4   1   5 1891.15  148.29
   4   1  -5 1859.87  113.05
  -1   4  -5 1995.71   96.90
   1   4   4  525.76   62.54
   1  -4  -4  464.06   58.29
  -1   4  -4  501.09   53.29
  -4   1   4  581.74   81.82
   1   4   3  360.91   48.19
   1  -4  -3  397.80   52.29
  -1   4  -3  426.03   53.16
  -4   1   3  357.24   59.52
   1   4   2  457.94   51.95
   1  -4  -2  493.27   52.83
  -4   1   2  392.90   60.88
  -1   4  -1  842.78   47.42
   1  -4  -1  836.31   62.71
  -4   1   1  766.56   81.77
  -1   4   0 2874.33  100.11
   1  -4   0 2849.08  100.68
  -4   1   0 2827.39  149.55
   1  -4   1  911.39   49.00
  -1   4   1  813.98   59.96
   4  -1  -1  835.76   85.64
   1  -4   1  890.01   82.93
  -1   4   2  507.81   52.26
   4  -1  -2  388.46   60.53
   1  -4   2  556.53   61.88
  -1   4   3  392.09   50.52
   4  -1  -3  422.06   63.23
   1  -4   3  432.79   48.82
  -4  -1   3  410.58   52.67
  -1   4   4  421.38   54.42
  -4  -1   4  510.24   60.30
   1  -4   4  466.39   45.46
   4  -1  -4  447.19   63.92
  -1  -4  -5 1891.85  126.27
  -1   4   5 1867.55  118.12
   4  -1  -5 1837.56  133.34
  -4  -1   5 1846.19  120.65
  -1  -4  -6  278.11   54.70
  -1   4   6  314.31   50.69
   4  -1  -6  340.18   62.88
  -4  -1   6  240.08   50.31
  -1  -4  -7 1346.05  117.45
  -1   4   7 1453.45  117.11
  -4  -1   7 1478.01  118.54
   4  -1  -7 1342.23  123.68
  -1  -4  -8  117.00   39.12
   4  -1  -8  159.19   51.55
  -4  -1   8  113.62   36.93
  -1  -4  -9   20.99   19.14
   4   1   9   81.49   33.32
   4  -1  -9   92.06   46.43
  -1  -4 -10  384.75   72.78
   4  -1 -10  245.74   59.08
  -1  -4 -11  638.35   95.39
   4  -1 -11  534.50   88.89
  -1  -4 -12  465.97   86.23
  -1  -4 -13   57.90   24.86
   1   4 -13  121.13   38.53
  -1  -4 -14  583.30  103.46
   1   4 -14  546.12   75.96
  -1  -4 -15   45.57   37.20
   1   4 -15   33.74   28.89
  -1  -4 -16   96.65   41.49
   4  -1 -16  122.44   50.96
   1   4 -16  144.83   45.84
  -1  -4 -17  163.53   59.10
   4  -1 -17  183.19   60.96
   1   4 -17  255.04   60.99
  -1  -4 -18   36.31   26.69
   1   4 -18   77.22   37.40
   4  -1 -18   81.89   48.49
  -1  -4 -19   43.92   45.24
   4  -1 -19   87.76   48.39
   1   4 -19   35.57   32.17
  -1  -4 -20  -29.81   34.02
   1   4 -20   33.31   16.09
   4  -1 -20  -16.41   30.85
   1   4 -21   69.50   40.03
  -1  -4 -21   89.13   57.29
   4  -1 -21   57.66   42.97
  -1  -4 -22  -24.90   38.64
   1   4 -22  -31.53   30.42
   4  -1 -22   21.82   28.08
  -1  -4 -23   79.25   43.94
   1   4 -23    3.01   27.72
   4  -1 -23   59.99   41.79
  -1  -4 -24   53.15   51.16
   1   4 -24   23.51   21.24
   4  -1 -24   86.21   66.74
   4  -1 -25   16.44   32.38
   1   4 -25    4.01   44.54
  -1  -4 -25   50.71   46.49
  -1  -4 -26   37.28   37.60
   4  -1 -26   86.63   50.69
   1   4 -26   44.54   50.80
   1   4 -27   23.30   54.95
   4  -1 -27  -12.99   43.56
  -1  -4 -27   38.50   57.88
   1   4 -28   73.39   67.50
   4  -1 -28   52.01   43.28
  -1  -4 -28  133.04   72.55
   4  -1 -29   39.45   36.93
  -1  -4 -29   34.20   41.57
   4  -1 -30  113.10   70.56
   4  -1 -31   31.31   44.51
   4  -1 -32    5.06   40.12
   4  -1 -33  153.82   96.78
   4  -1 -34  -54.64   31.00
   2  -4 -33  -41.32   45.34
   4   2 -33   41.33   67.80
   2  -4 -32  120.08   69.74
   4   2 -32  -62.00   58.82
   4   2 -31   52.21   51.13
   2  -4 -31   63.16   58.20
   4   2 -30    8.45   50.42
   2  -4 -30   -6.73   46.43
   4   2 -29   69.33   71.21
   2  -4 -29   26.16   59.60
   2  -4 -28  -38.80   27.39
   4   2 -28   44.57   44.27
   2  -4 -27   91.73   78.42
   4   2 -27  123.15   75.79
   2  -4 -26  107.93   59.06
   4   2 -26   53.52   44.30
   2  -4 -25   34.31   42.35
   4   2 -25    1.15   50.18
   2  -4 -24   37.19   43.39
   4   2 -24   73.68   43.97
   2  -4 -23   29.67   38.36
   4   2 -23   18.07   33.06
  -2   4 -22   76.14   36.78
   2  -4 -22   31.25   44.45
   4   2 -22   87.99   51.81
  -2   4 -21   41.24   25.08
   2  -4 -21   -4.84   28.59
   4   2 -21   55.40   30.38
   2  -4 -20   15.73   26.92
  -2   4 -20   37.24   40.45
   4   2 -20  -11.82   17.44
  -2   4 -19  101.10   47.18
   2  -4 -19   65.15   43.74
   4   2 -19  110.39   46.08
  -2   4 -18  291.02   71.40
   2  -4 -18  190.20   66.15
   2  -4 -17  168.87   63.53
  -2   4 -17  153.44   50.38
   4   2 -17  102.65   35.98
  -2   4 -16   28.45   19.16
   2  -4 -16   23.73   26.35
   4   2 -16    5.94   18.03
  -2   4 -15  253.72   54.10
   2  -4 -15  177.61   57.48
   4   2 -15  181.17   54.58
  -2   4 -14  113.67   34.34
   2  -4 -14  146.73   54.09
   4   2 -14   88.53   34.53
   4  -2  13   61.70   22.34
  -2   4 -13  151.42   36.27
   2  -4 -13  173.88   55.06
   4   2 -13  115.58   40.73
   2  -4 -12  336.56   75.86
   4   2 -12  242.53   48.14
   4  -2  12  287.44   50.75
  -2   4 -12  340.09   50.23
   2  -4 -11 1131.82  128.47
   4  -2  11 1053.58   94.20
   4   2 -11 1001.70   92.44
   2  -4 -10  265.28   58.99
   4   2 -10  245.06   47.66
   4  -2  10  260.76   43.52
   4  -2   9  407.13   55.13
   2  -4  -9  315.80   64.14
   4   2  -9  359.30   52.69
   2  -4  -8   55.37   30.69
   4   2  -8    4.53    8.61
   2  -4  -7  195.15   49.25
  -2   4  -7  248.24   38.37
   2  -4  -6  134.83   42.56
  -4   2   6   76.72   36.43
  -2   4  -6  111.75   26.14
   2   4   6  119.84   34.50
   2  -4  -5 1436.12  113.11
   2   4   5 1572.32  116.54
  -4   2   5 1471.49  145.51
  -2   4  -5 1497.68   97.87
   2   4   4  348.27   54.40
   2  -4  -4  342.50   53.17
  -4   2   4  410.66   76.08
  -2   4  -4  370.20   50.33
   2  -4  -3   32.20   31.84
   2  -4  -3   31.44   10.36
  -4   2   3    3.17   18.27
  -2   4  -3   87.74   29.86
   2  -4  -2 1333.95   87.44
   2  -4  -2 1381.93  128.05
  -4   2   2 1406.79  125.22
  -2   4  -2 1340.28  109.49
   2  -4  -1   13.42   10.75
  -4   2   1   69.27   35.99
  -2   4  -1   56.45   28.66
   2  -4  -1   78.40   34.20
   2  -4   0   68.78   17.97
  -2   4   0   55.81   32.53
   4  -2   0   49.34   24.75
  -4   2   0   43.07   22.79
   2  -4   0   65.03   27.24
   4  -2  -1    3.98   18.14
  -4   2  -1   96.96   37.21
   2  -4   1   10.74   19.47
   4  -2  -2 1305.68  111.62
  -4   2  -2 1423.03  109.56
   2  -4   2 1417.93  102.22
   2  -4   3   78.34   22.33
   4  -2  -3   51.11   35.61
  -4  -2   4  383.66   50.15
   2  -4   4  429.30   49.84
   4  -2  -4  475.11   73.48
  -4  -2   5 1548.84  100.20
   4  -2  -5 1487.55  132.68
  -4  -2   6  210.17   40.84
   4  -2  -6  297.98   66.93
   4  -2  -7  251.70   61.76
  -4  -2   7  289.63   51.01
  -4  -2   8   24.01   25.67
   4  -2  -8   36.05   26.12
  -4  -2   9  304.10   53.46
   4  -2  -9  310.18   73.30
  -2  -4 -10  196.59   56.28
  -2  -4 -11 1070.01  127.49
  -2  -4 -12  307.59   70.90
   2   4 -12  293.46   29.57
  -2  -4 -13  175.83   58.04
   2   4 -13  114.66   24.00
  -2  -4 -14  130.93   51.99
   4  -2 -14   82.21   38.16
   2   4 -14  104.61   24.60
  -2  -4 -15  150.70   57.20
   4  -2 -15  179.59   57.55
   2   4 -15  192.39   35.69
  -2  -4 -16  -12.21   22.89
   2   4 -16   53.54   23.03
   4  -2 -16   80.12   41.63
   2   4 -16   24.22   14.45
  -2  -4 -17  143.71   61.14
   2   4 -17  119.46   42.02
   4  -2 -17   83.48   40.52
   2   4 -17   69.75   26.30
  -2  -4 -18  233.91   82.10
   2   4 -18  227.21   62.99
   4  -2 -18  155.13   60.96
   2   4 -18  146.74   36.66
  -2  -4 -19   72.70   42.60
   4  -2 -19   89.53   36.18
   2   4 -19   36.79   32.56
   2   4 -19   84.73   34.08
  -2  -4 -20   21.16   22.56
   2   4 -20   -6.65   18.17
   4  -2 -20   20.30   26.76
  -2  -4 -21  109.42   65.66
   2   4 -21   42.65   23.95
   4  -2 -21   49.34   18.05
  -2  -4 -22  167.51   76.85
   2   4 -22   93.17   46.90
   4  -2 -22   53.70   45.90
   2   4 -23   -3.91   27.87
  -2  -4 -23   48.20   61.61
   4  -2 -23    1.14   26.22
   2   4 -24   34.82   50.04
   4  -2 -24   -8.95   33.69
   2   4 -25  -12.07   38.06
   4  -2 -25   68.52   58.58
   4  -2 -26   21.02   39.00
   2   4 -26   44.59   47.81
   2   4 -27   23.08   21.31
   4  -2 -27    2.15   38.48
   2   4 -28  -35.65   28.03
   4  -2 -28   -7.55   36.36
   4  -2 -29  -50.93   42.19
   2   4 -29  -33.10   49.99
   4  -2 -30   90.76   89.05
   4  -2 -31  107.09   94.53
   4  -2 -32   42.33   45.91
   4  -2 -33   82.15   98.31
   4  -2 -34  134.60   82.04
   3  -4 -33   36.09  124.59
   3  -4 -32   44.02   37.82
   4   3 -31   -9.62   50.92
   3  -4 -31   19.15   48.71
   4   3 -30  -32.76   49.46
   3  -4 -30  116.40   92.80
   3  -4 -29   79.21   95.08
   4   3 -29  -67.35   63.60
   4   3 -28  102.17   60.21
   3  -4 -28   32.05   69.11
   3  -4 -27   13.85   54.02
   4   3 -27   59.52   52.94
   3  -4 -26  -29.07   34.17
   4   3 -26   30.56   54.96
   3  -4 -25   35.27   58.53
   4   3 -25   56.17   27.88
   3  -4 -24   81.72   53.51
   4   3 -24   61.79   37.20
   3  -4 -23   79.24   73.55
   4   3 -23   89.27   61.59
   3  -4 -22   20.71   23.91
   4   3 -22  104.20   58.19
   3  -4 -21   57.92   44.07
   4   3 -21   87.09   50.35
   3  -4 -20  104.00   62.58
   4   3 -20   56.15   34.67
   3  -4 -19   59.60   43.62
   4   3 -19   39.39   23.30
   4   3 -19   75.02   37.15
   3  -4 -18  101.88   49.86
   4   3 -18   32.55   21.89
   3  -4 -17   41.01   35.76
   4   3 -17   53.51   30.30
   3  -4 -16  158.60   54.23
   4   3 -16  144.53   44.12
   3  -4 -15   67.31   44.06
   4   3 -15   38.66   24.28
   3  -4 -14   79.95   33.77
   4  -3  14  157.21   39.38
   4   3 -14  177.54   37.78
   4  -3  13   -1.24   10.77
   3  -4 -13   -1.07   15.57
   4   3 -13   21.35   16.59
   3  -4 -12  103.18   41.05
   4   3 -12  132.97   31.94
   4  -3  12   98.46   25.26
   3  -4 -11  405.88   82.96
   4   3 -11  405.66   52.35
   4  -3  11  363.57   50.11
   3  -4 -10  400.46   74.66
   4  -3  10  448.37   54.73
   3  -4  -9  814.69  102.35
   4  -3   9  692.02   65.10
   3  -4  -8  648.36   90.00
  -3  -4   8  659.71   49.83
   3  -4  -7  376.13   65.33
  -3   4  -7  375.47   53.79
  -3  -4   7  364.50   35.02
   3  -4  -6  348.99   78.13
   3   4   6  391.43   63.47
  -3   4  -6  439.46   59.13
  -4   3   5  405.50   80.14
  -3   4  -5  483.64   62.80
   3  -4  -5  451.07   85.61
  -3   4  -4  682.94   74.84
   3  -4  -4  589.54   91.93
  -4   3   4  560.24   93.79
   3  -4  -3   49.63   36.08
  -4   3   3   54.48   29.21
  -3   4  -3   66.14   28.61
   3  -4  -2  324.35   68.68
  -4   3   2  204.69   53.86
  -3   4  -2  250.76   53.00
   4  -3   1  228.45   47.96
  -4   3   1  224.73   53.72
  -3   4  -1  190.14   48.20
   3  -4  -1  238.08   49.96
   4  -3   0  184.68   48.99
  -3   4   0  134.72   42.87
   3  -4   0  202.41   48.22
  -4   3   0  159.10   49.83
   3  -4   1  249.14   47.17
  -4   3  -1  281.32   53.85
   4  -3  -1  202.48   45.82
  -3   4   1  294.73   69.96
  -3   4   2  209.91   55.18
   3  -4   2  167.80   38.45
  -4   3  -2  215.95   52.06
   4  -3  -2  189.36   51.09
  -4   3  -3   59.98   26.18
   3  -4   3   71.47   29.16
   4  -3  -3  110.12   45.90
   4  -3  -4  623.61   91.65
  -4   3  -4  659.33   80.13
   4  -3  -5  492.69   86.57
  -4  -3   6  491.42   55.23
   4  -3  -6  501.51   82.14
   3  -4   7  350.85   32.35
  -4  -3   7  302.94   43.89
   3  -4   8  581.60   46.41
  -4  -3   8  576.98   64.88
   3  -4   9  677.83   54.95
  -4  -3   9  637.06   70.44
   3  -4  10  450.08   48.21
   3  -4  11  411.15   50.08
   3  -4  12   81.42   25.63
   4  -3 -13   13.45   16.91
   3   4 -13   25.41   14.41
   4  -3 -14  181.08   55.21
   3   4 -14  178.02   30.93
   4  -3 -15   68.22   40.12
   3   4 -15   78.46   20.49
   4  -3 -16  190.54   71.26
   3   4 -16  122.79   30.85
   4  -3 -17   83.52   50.03
   3   4 -17   44.25   19.31
   3   4 -18   68.58   38.29
   4  -3 -18  102.07   49.84
   3   4 -18   27.81   22.57
   3   4 -19   56.14   38.09
   4  -3 -19   64.02   50.78
   3   4 -19   59.01   28.42
   4  -3 -20   59.96   44.99
   3   4 -20   61.50   34.12
   4  -3 -21   92.82   57.31
   3   4 -21  133.81   53.08
   4  -3 -22   72.11   52.98
   3   4 -22   54.19   40.37
   4  -3 -23  139.33   69.56
   3   4 -23   76.26   44.92
   4  -3 -24  122.37   65.69
   3   4 -24   22.91   36.73
   4  -3 -25  -57.41   39.54
   3   4 -25   21.57   32.67
   3   4 -26   50.10   44.67
   4  -3 -26   25.99   26.96
   3   4 -27  -11.93   29.31
   4  -3 -27  -73.28   69.62
   3   4 -28   68.67   60.38
   4  -3 -28  -12.74   49.50
   3   4 -29  -21.59   43.39
   4  -3 -29  -91.88   26.25
   3   4 -30  165.44   76.91
   4  -3 -30  119.62   69.93
   4  -3 -31   76.47   74.62
   4  -3 -32   24.47   35.74
   4  -3 -33   37.05   44.08
   4  -4   0  472.75   74.96
  -4   4   0  509.95   82.22
   4  -4   1   32.24   20.87
  -4   4   1   58.78   39.61
   4  -4  -1  -12.58   31.33
  -4   4  -1    4.46   19.82
   4  -4   2  289.55   54.26
   4  -4  -2  364.81   72.04
  -4   4  -2  282.66   60.33
  -4   4   2  316.20   72.06
  -4   4  -3  207.43   47.76
   4  -4   3  257.47   49.18
  -4   4   3  170.13   53.43
   4  -4  -3  214.83   62.55
  -4   4   4 1912.70  183.80
   4  -4  -4 1787.19  164.37
  -4   4  -4 1888.10  140.55
  -4   4  -5  665.46   82.11
  -4   4  -6   66.58   29.82
  -4  -4   7  261.33   38.76
  -4   4  -7  295.53   54.51
   4  -4   8 1319.81   77.32
  -4  -4   8 1223.37   83.30
   4  -4   9 1267.06   79.53
  -4  -4   9 1159.91   85.05
   4  -4  10  165.32   31.47
   4  -4 -11  657.82  104.87
   4  -4  11  755.99   69.29
   4  -4  12  145.41   33.34
   4  -4 -12  147.42   49.00
   4  -4  13  208.49   42.28
   4  -4 -13  144.13   54.34
   4  -4  14   35.49   19.70
   4  -4 -14   14.14   14.17
   4  -4 -15  104.35   51.54
   4  -4  15  128.73   37.33
   4   4 -15  135.59   28.64
   4  -4 -16  117.24   55.18
   4   4 -16   88.76   24.02
   4  -4 -17   45.62   36.09
   4   4 -17   32.63   19.38
   4  -4 -18  -18.90   30.43
   4   4 -18   38.86   17.20
   4  -4 -19   62.84   32.86
   4   4 -20   80.48   45.38
   4  -4 -20  139.79   57.79
   4   4 -21   75.56   46.98
   4  -4 -21  -17.28   33.12
   4   4 -22   -2.74   39.79
   4  -4 -22  -22.96   37.87
   4   4 -23   36.21   45.21
   4  -4 -23   -9.45   34.44
   4   4 -24   13.52   19.41
   4  -4 -24  -51.83   62.35
   4   4 -25   49.87   31.20
   4  -4 -25   41.72   26.92
   4   4 -26   -1.76   45.04
   4  -4 -26    9.91   54.25
   4   4 -27   62.11   67.39
   4  -4 -27  124.16   84.23
   4   4 -28   -4.10   21.69
   4  -4 -28   22.81   38.87
   4  -4 -29  -39.57   45.77
   4   4 -29   74.51   52.23
   4   4 -30   19.95   28.67
   4  -4 -30   70.61   73.53
   4  -4 -31  108.99   59.32
   4  -4 -32   -0.23   44.46
   4  -4 -33  -22.85   58.68
   0   5   0  124.23   26.02
   0   5  -1  317.21   35.33
   0   5   1  304.04   42.01
  -5   0   2  291.80   52.54
   0  -5  -2  309.09   45.41
   0   5   2  278.33   41.20
   0  -5  -3 1318.88   99.60
   0   5   3 1258.12   93.83
  -5   0   3 1317.14  114.88
   0  -5  -4  658.68   74.90
   0   5   4  738.38   77.29
  -5   0   4  668.24   84.24
   5   0  -4  756.07   84.89
   0  -5   4  710.02   61.92
   0  -5  -5 8235.88  275.90
   0   5   5 8190.33  262.87
   5   0  -5 8089.19  276.91
  -5   0   5 8295.04  303.98
   0  -5   5 8132.88  180.16
   0   5   6 1363.75  112.99
   0  -5  -6 1410.93  122.44
   5   0  -6 1290.89  114.42
   0  -5   6 1421.27   61.96
  -5   0   6 1241.78  123.42
   0  -5  -7   78.48   33.46
   5   0  -7   73.50   27.48
  -5   0   7  122.21   40.08
   0  -5  -8   91.71   35.65
   5   0  -8   44.06   27.49
  -5   0   8   29.63   17.39
  -5   0   9   77.20   26.49
   0  -5  -9   82.14   38.56
   5   0  -9  112.68   41.78
   0  -5 -10  134.59   48.16
   0   5 -10  158.47   30.54
   5   0 -10  127.50   44.86
   0  -5 -11  333.30   73.29
   0   5 -11  362.68   48.61
   5   0 -11  229.97   58.66
   0  -5 -12  318.21   71.73
   0   5 -12  271.61   44.65
   0  -5 -13  322.05   79.27
   0   5 -13  308.51   52.71
   0  -5 -14  301.02   79.20
   0   5 -14  213.05   46.76
   0  -5 -15  541.09  109.99
   0   5 -15  524.65   75.00
   0  -5 -16   43.28   26.73
   0   5 -16  129.47   37.39
   0   5 -17   -4.14   22.86
   0  -5 -17   72.45   41.06
   0   5 -18    7.83   14.36
   0  -5 -18   44.74   36.67
   0   5 -19    1.69   18.16
   0  -5 -19    5.22   19.23
   5   0 -19   38.93   46.84
   0  -5 -20  116.06   58.72
   0   5 -20   20.91   30.63
   5   0 -20   61.31   40.02
   0  -5 -21   24.77   67.24
   0   5 -21   31.58   26.09
   5   0 -21    5.01   32.02
   0  -5 -22    7.58   22.47
   0   5 -22  -41.42   20.42
   5   0 -22   42.33   39.37
   0   5 -23  100.15   49.09
   0  -5 -23  116.57   56.29
   5   0 -23   42.77   47.48
   0  -5 -24   30.64   36.60
   0   5 -24   31.80   41.27
   5   0 -24   97.08   62.16
   0   5 -25  157.58   68.77
   0  -5 -25  228.35  107.31
   5   0 -25  141.19   60.19
   0  -5 -26    5.44   36.06
   0   5 -26   96.33   55.99
   5   0 -26   16.91   26.86
   0  -5 -27   66.52   57.16
   5   0 -27   48.50   42.10
   0  -5 -28   34.28   38.30
   5   0 -28   86.00   43.80
   5   0 -29    1.18   26.76
   0  -5 -29   79.08   73.93
   5   0 -30   -8.45   28.54
   0  -5 -30  -23.83   29.53
   5   0 -31   12.99   44.16
   0  -5 -31   45.90   62.51
   5   0 -32   64.11   49.47
   0  -5 -32    9.47   68.76
   5   0 -33  -11.50   56.83
   5   0 -34   70.12   98.34
   5   1 -35  141.96   83.32
   5   1 -34  -24.55   30.55
   5   1 -33   83.98   61.70
   1  -5 -33  -70.39   39.01
   1  -5 -32  -18.57   65.73
   5   1 -32    2.53   54.10
   5   1 -31  105.85   91.77
   1  -5 -31  -61.03   53.64
   5   1 -30  -37.37   59.56
   1  -5 -30    0.86   62.73
   1  -5 -29  -78.53   72.64
   5   1 -29  162.92   85.28
   1  -5 -28    3.53   45.53
   5   1 -28    5.04   39.92
   1  -5 -27    6.55   49.20
   5   1 -27   23.09   50.28
  -1   5 -26  129.97   66.18
   1  -5 -26   10.90   29.26
   5   1 -26   89.37   32.79
  -1   5 -25   92.81   55.81
   1  -5 -25  131.37   74.70
   5   1 -25   47.36   32.28
   1  -5 -24  157.10   89.20
  -1   5 -24   66.57   35.50
   5   1 -24   42.21   28.41
   1  -5 -23   46.71   29.26
  -1   5 -23   83.69   39.25
   5   1 -23   49.41   44.18
  -1   5 -22   45.36   34.17
   1  -5 -22   63.32   75.32
   5   1 -22   57.63   58.80
  -1   5 -21   36.02   36.52
   1  -5 -21   61.48   56.55
   5   1 -21   42.73   22.48
  -1   5 -20  -11.95   20.76
   5   1 -20   35.00   39.68
  -1   5 -19   50.38   32.21
   1  -5 -19   42.99   48.38
  -1   5 -18   57.79   30.33
   1  -5 -18  105.63   50.94
  -1   5 -17  157.10   44.38
   1  -5 -17  123.33   59.37
   1  -5 -16  299.70   80.33
  -1   5 -16  277.72   56.95
   1  -5 -15  175.97   62.84
  -1   5 -15  221.54   48.63
   1  -5 -14  142.79   52.84
  -1   5 -14  205.51   42.05
   5   1 -14  214.32   61.53
   1  -5 -13  377.53   82.74
  -1   5 -13  434.73   57.24
   5   1 -13  370.93   72.33
   5   1 -12  203.71   48.31
  -1   5 -12  270.43   42.94
   1  -5 -12  263.63   69.83
  -1   5 -11  344.91   44.71
   5   1 -11  270.34   58.34
  -1   5 -11  370.55   39.93
   1  -5 -11  259.35   65.85
   5   1 -10  138.48   45.31
  -1   5 -10  182.41   28.59
  -1   5 -10  189.21   30.32
   1  -5 -10  201.04   57.69
   5  -1  10  189.66   48.83
   5   1  -9   89.00   34.76
  -1   5  -9   63.80   17.94
  -1   5  -9   69.13   16.73
   1  -5  -9   78.08   28.20
   1  -5  -8  612.07   86.37
  -1   5  -8  604.69   40.26
  -5   1   8  448.38   86.38
  -1   5  -8  681.94   55.63
   5   1  -8  553.08   74.61
   1  -5  -7  340.48   62.48
   5   1  -7  345.20   58.35
  -5   1   7  312.19   69.90
  -1   5  -7  312.39   39.73
   1   5   6   35.94   22.57
   1  -5  -6   35.43   21.93
   5   1  -6   27.62   17.78
  -1   5  -6   37.41   13.87
  -5   1   6   36.24   28.83
   1  -5  -5 1648.78  124.17
   1   5   5 1619.88  120.07
  -5   1   5 1786.36  154.49
  -1   5  -5 1527.77  101.88
   1   5   4  574.33   68.56
   1  -5  -4  548.17   69.37
  -5   1   4  593.90   88.84
   1   5   3  835.98   79.55
   1  -5  -3  756.08   75.45
  -5   1   3  738.66   92.31
  -1   5  -2  301.64   28.41
  -5   1   2  287.34   56.23
   1   5   2  345.29   50.34
   1  -5  -2  276.99   44.31
   1  -5  -1  832.50   68.35
  -1   5  -1  854.57   55.02
  -5   1   1  812.66   92.06
  -1   5   0 1965.00   93.20
   1  -5   0 2041.37   95.99
  -5   1   0 1999.74  139.27
  -1   5   1  753.45   63.20
   1  -5   1  829.87   54.63
   1  -5   1  740.39   85.81
  -1   5   2  298.04   42.32
   5  -1  -2  315.72   55.61
   1  -5   2  293.44   52.94
  -1   5   3  909.36   80.09
   5  -1  -3  926.03   98.12
   1  -5   3  885.79   80.86
  -5  -1   3  916.65   89.20
  -1   5   4  661.71   72.00
  -5  -1   4  556.74   72.46
   1  -5   4  685.79   63.89
   5  -1  -4  585.34   84.64
  -1   5   5 1674.44  121.34
  -5  -1   5 1622.63  122.85
   1  -5   5 1606.20   88.98
   5  -1  -5 1576.85  134.84
  -1   5   6   36.19   25.77
  -1  -5  -6   14.70   20.10
   5  -1  -6    9.25   25.67
  -5  -1   6   12.91   14.94
  -1  -5  -7  293.32   57.88
   5  -1  -7  342.09   62.37
  -5  -1   7  332.87   60.73
  -1  -5  -8  683.47   93.87
   5  -1  -8  605.45   93.04
  -5  -1   8  596.14   86.96
  -1  -5  -9   92.42   36.05
   5  -1  -9  106.71   45.15
  -5  -1   9  106.83   37.53
  -1  -5 -10  189.19   59.56
  -5  -1  10  188.76   55.97
  -1  -5 -11  370.29   80.67
  -1  -5 -12  278.76   70.29
  -1  -5 -13  369.58   86.29
  -1  -5 -14  228.81   75.22
   1   5 -14  194.25   44.77
  -1  -5 -15  106.83   49.04
   1   5 -15  180.29   44.53
  -1  -5 -16  297.89   85.67
   1   5 -16  251.84   59.00
   1   5 -16  166.57   27.27
  -1  -5 -17   81.79   51.20
   1   5 -17  104.03   42.03
   1   5 -17   33.55   16.08
  -1  -5 -18   66.87   50.41
   1   5 -18   40.79   29.71
   5  -1 -18    2.82   17.20
   1   5 -18   27.29   16.47
   1   5 -19   44.46   33.08
   5  -1 -19    5.72   20.10
  -1  -5 -19   48.88   40.56
   5  -1 -20   29.56   25.05
   1   5 -20  -13.48   26.31
  -1  -5 -20   40.26   38.88
   5  -1 -21   27.58   34.44
   1   5 -21   24.52   22.60
  -1  -5 -21   52.29   53.52
   5  -1 -22  122.50   72.38
   1   5 -22  106.28   44.67
  -1  -5 -22   47.59   56.89
   5  -1 -23  103.75   57.59
  -1  -5 -23   15.90   39.84
   1   5 -23   28.14   30.66
   5  -1 -24  111.28   64.76
  -1  -5 -24   70.36   50.78
   1   5 -24   12.17   24.94
   5  -1 -25   87.53   65.28
   1   5 -25  115.70   45.24
  -1  -5 -25   91.08   50.17
   5  -1 -26  127.81   86.03
  -1  -5 -26  -38.67   48.69
   1   5 -26  158.71   65.86
   5  -1 -27   31.35   52.02
   1   5 -27   12.25   38.07
  -1  -5 -27   78.83   58.83
   5  -1 -28  -16.04   38.68
  -1  -5 -28   17.80   54.92
   5  -1 -29   -2.10   40.98
   5  -1 -30   12.30   56.74
   5  -1 -31  -14.39   35.04
   5  -1 -32   28.15   44.49
   5  -1 -33   12.26   49.15
   5  -1 -34  125.96  109.51
   5   2 -33  105.31   55.02
   2  -5 -33   39.24   34.47
   2  -5 -32    0.23   54.46
   5   2 -32   21.46   26.99
   2  -5 -31   -0.67   33.62
   5   2 -31  -48.14   72.14
   5   2 -30  -14.84   31.36
   2  -5 -30   -2.56   65.24
   5   2 -29  107.29   59.12
   2  -5 -29  -11.88   54.77
   5   2 -28   61.84   36.31
   2  -5 -28  116.28   83.00
   5   2 -27   -6.36   37.65
   2  -5 -27   -5.51   29.12
   5   2 -26   48.02   38.68
   2  -5 -26  109.02   64.04
   5   2 -25   73.19   48.56
   2  -5 -25  -12.86   48.30
   5   2 -24   70.00   51.81
   2  -5 -24   74.06   51.69
   5   2 -23  180.34   75.06
   2  -5 -23  202.70   87.74
   5   2 -22   29.23   40.53
   2  -5 -22   39.89   40.22
   5   2 -21   39.56   30.51
   2  -5 -21   -2.67   31.17
   2  -5 -20  100.47   55.78
  -2   5 -20  138.15   55.59
  -2   5 -19   35.53   28.03
   2  -5 -19   21.62   31.15
  -2   5 -18  186.07   54.77
   2  -5 -18  218.22   73.95
   2  -5 -17  126.29   55.38
  -2   5 -17  152.96   43.31
   5   2 -16  124.45   43.58
   2  -5 -16  228.32   76.43
  -2   5 -16  182.91   49.89
   5   2 -15   70.30   33.96
   2  -5 -15  118.92   44.12
  -2   5 -15  151.45   41.31
   5   2 -14   77.37   29.23
   2  -5 -14   85.92   44.78
  -2   5 -14  139.40   38.30
   5   2 -13  135.87   43.00
   2  -5 -13  170.97   59.56
   5  -2  12  451.91   69.30
   5   2 -12  332.88   59.71
   2  -5 -12  489.41   93.87
   2  -5 -11  754.87  108.77
   5  -2  11  751.02   84.29
   5   2 -11  698.03   84.69
   2  -5 -10  198.65   57.24
  -2   5 -10  251.61   42.42
   5   2 -10  182.79   48.29
   5  -2  10  241.43   46.72
   2  -5  -9  190.25   51.55
   5   2  -9  190.64   45.29
  -2   5  -9  204.66   35.49
   2  -5  -8  457.83   76.32
  -5   2   8  428.01   84.94
  -2   5  -8  390.48   51.02
  -5   2   7  292.95   70.22
   2  -5  -7  239.40   53.59
  -2   5  -7  370.14   50.89
   2  -5  -6  326.36   57.96
  -5   2   6  309.46   76.70
  -2   5  -6  377.83   56.53
   2   5   5 1497.10  119.42
   2  -5  -5 1443.06  119.68
  -2   5  -5 1544.37  113.20
  -5   2   5 1438.73  150.91
   2   5   4  564.47   70.28
   2  -5  -4  534.71   70.20
  -2   5  -4  570.96   71.77
  -5   2   4  635.49   95.75
   2  -5  -3   46.31   20.75
  -5   2   3   93.05   41.28
  -2   5  -3   53.91   29.15
  -2   5  -2  508.80   75.42
   2  -5  -2  469.04   81.79
   2  -5  -2  534.88   61.98
  -5   2   2  492.82   81.20
   2  -5  -1  138.45   28.23
  -5   2   1  131.22   38.77
   2  -5  -1  111.36   40.44
   2  -5   0  229.41   33.17
  -5   2   0  132.38   41.50
   2  -5   0  267.49   55.27
   2  -5   1  135.78   23.07
   5  -2  -1  104.26   42.97
  -5   2  -1  151.87   45.87
   2  -5   1  145.31   42.66
   2  -5   2  491.41   36.90
   5  -2  -2  519.45   76.99
  -5   2  -2  523.73   75.67
   2  -5   2  483.20   66.78
   2  -5   3   67.49   17.11
   5  -2  -3   77.80   30.60
   5  -2  -4  645.78   89.14
   2  -5   4  656.58   68.46
   2  -5   5 1449.65   95.17
   5  -2  -5 1207.79  123.39
  -5  -2   5 1473.98  112.17
  -5  -2   6  318.97   53.87
   5  -2  -6  366.47   74.27
  -5  -2   7  319.99   58.01
   5  -2  -7  313.48   69.48
  -5  -2   8  594.21   79.49
  -5  -2   9  168.48   50.42
  -5  -2  10  198.68   46.96
  -2  -5 -12  387.11   84.97
  -2  -5 -13  176.10   61.04
  -2  -5 -14  136.43   61.08
  -2  -5 -15  151.83   65.02
   2   5 -16  164.15   48.69
  -2  -5 -16   85.86   45.21
   5  -2 -17   82.67   43.90
   2   5 -17  122.69   43.51
   2   5 -17   70.75   16.42
  -2  -5 -17  104.12   54.62
   2   5 -18  129.13   47.16
   5  -2 -18  179.56   67.24
   2   5 -18  155.67   27.35
  -2  -5 -18  271.46   91.73
   2   5 -19    3.31   22.07
   5  -2 -19   52.09   47.78
  -2  -5 -19   34.52   43.23
   5  -2 -20   94.07   37.95
   2   5 -20   50.72   39.25
  -2  -5 -20   20.22   29.15
   5  -2 -21   52.31   48.98
   2   5 -21   50.36   34.09
  -2  -5 -21   -5.78   42.16
   5  -2 -22   -3.48   32.89
   2   5 -22   24.40   17.72
  -2  -5 -22    4.71   36.98
   2   5 -23  152.16   70.38
   5  -2 -23  189.71   69.70
   5  -2 -24  -59.65   59.64
   2   5 -24   31.70   40.23
   5  -2 -25   36.38   40.75
   2   5 -25   15.65   33.17
   5  -2 -26  181.66   82.25
   2   5 -26   52.28   33.86
   5  -2 -27  110.03   46.84
   2   5 -27   24.15   41.46
   5  -2 -28   74.51   63.70
   5  -2 -29  -13.54   30.43
   5  -2 -30    8.83   51.20
   5  -2 -31  -15.45   36.66
   5  -2 -32  179.52  110.71
   5  -2 -33  207.48  116.78
   5   3 -32   -3.93   40.73
   3  -5 -32   44.21   69.60
   5   3 -31   28.27   43.05
   3  -5 -31  159.07   90.16
   3  -5 -30  155.71  104.94
   5   3 -30  -15.00   35.65
   5   3 -29   10.68   23.24
   3  -5 -29    3.30   51.59
   5   3 -28  123.47   65.97
   3  -5 -28  111.06   81.57
   5   3 -27  -33.44   42.18
   3  -5 -27   36.89   45.10
   5   3 -26  -12.16   35.21
   3  -5 -26   42.99   36.07
   5   3 -25   37.10   38.11
   3  -5 -25  103.59   85.51
   5   3 -24   40.72   47.27
   3  -5 -24  -58.55   45.43
   5   3 -23  128.21   63.11
   3  -5 -23  198.98   83.59
   5   3 -22   68.26   46.72
   3  -5 -22  136.81   63.01
   5   3 -21   96.51   48.78
   3  -5 -21  108.64   57.36
   3  -5 -20  134.60   66.78
   3  -5 -19  220.06   83.29
   5   3 -18  -13.09   13.32
   3  -5 -18    5.46   32.07
   5   3 -17   92.82   36.76
   3  -5 -17    1.57   29.16
   3  -5 -16   74.14   39.70
   5   3 -16   34.28   26.55
   3  -5 -15   74.08   50.68
   5   3 -15  120.51   34.89
   3  -5 -14  100.30   48.72
   5   3 -14  135.85   35.59
   3  -5 -13  515.10   97.12
   5  -3  13  608.30   75.56
   5   3 -13  602.48   75.20
   3  -5 -12  135.79   52.13
   5   3 -12  123.37   34.13
   5  -3  12  142.36   39.01
   5  -3  11 1082.89   95.20
   3  -5 -11 1022.65  124.96
   3  -5 -10  156.30   44.21
  -3   5 -10  183.64   37.74
   5  -3  10  191.57   39.27
   3  -5  -9  864.44  107.66
  -3   5  -9  903.34   86.42
   3  -5  -8  205.88   57.66
  -3   5  -8  161.34   37.87
   3  -5  -7  625.61   87.96
  -5   3   7  820.16  127.27
  -3   5  -7  765.59   82.00
  -5   3   6   81.06   43.62
   3  -5  -6   62.48   24.64
  -3   5  -6   60.00   28.18
   3  -5  -5  378.89   65.29
  -5   3   5  399.87   90.28
  -3   5  -5  484.21   69.29
   3  -5  -4  258.62   50.01
  -3   5  -4  261.87   52.69
  -5   3   4  183.43   58.31
   3  -5  -4  240.02   64.96
   3  -5  -3  963.91   89.52
   3  -5  -3 1064.92  129.32
  -3   5  -3  882.01  101.37
  -5   3   3 1017.79  129.00
   3  -5  -2  109.36   49.21
  -3   5  -2  133.06   42.66
  -5   3   2  134.30   47.93
   5  -3   1  497.08   76.07
  -5   3   1  443.51   78.64
   3  -5  -1  554.41   82.59
  -3   5  -1  473.10   80.51
  -5   3   0  664.09   92.09
   5  -3   0  681.68   88.26
   3  -5   0  753.51   95.89
  -3   5   0  729.27  106.33
  -3   5   1  453.14   86.42
  -5   3  -1  327.46   67.77
   5  -3  -1  424.30   73.55
   3  -5   1  442.34   67.23
   3  -5   2   94.53   29.33
  -5   3  -2   87.91   37.47
   5  -3  -2  132.51   44.27
  -5   3  -3 1053.97  107.89
   3  -5   3 1026.32   94.97
   5  -3  -3 1041.88  117.36
  -5   3  -4  206.26   48.11
   3  -5   4  235.49   44.89
   5  -3  -4  230.20   61.38
  -5  -3   6   44.60   27.51
  -5  -3   7  741.79   79.54
  -5  -3   8  254.54   50.45
  -5  -3   9  746.22   88.21
  -5  -3  10  161.56   41.26
   5  -3 -15  136.77   51.04
   5  -3 -16   35.73   31.08
   5  -3 -17  122.29   57.14
   5  -3 -18   14.16   22.70
   5  -3 -19  280.40   86.28
   3   5 -19  177.39   53.29
   3   5 -20   56.34   46.56
   5  -3 -20   54.67   42.67
   5  -3 -21   70.49   47.28
   3   5 -21  105.33   50.03
   3   5 -22   68.82   49.62
   5  -3 -22   24.46   30.87
   5  -3 -23   66.68   52.32
   3   5 -23  170.54   67.39
   3   5 -24  -17.68   26.07
   5  -3 -24   -2.93   27.72
   3   5 -25   16.25   20.78
   5  -3 -25   16.67   49.46
   3   5 -26   24.51   38.43
   5  -3 -26   31.34   31.78
   5  -3 -27  -51.22   63.06
   3   5 -27   32.13   47.42
   5  -3 -28    9.08   38.68
   3   5 -28   23.84   38.49
   5  -3 -29   52.56   27.73
   5  -3 -30    6.87   28.83
   5  -3 -31   42.93   64.69
   5  -3 -32   73.27   58.90
   5  -3 -33  122.45   80.06
   4  -5 -32  -47.46   50.28
   4  -5 -31   29.16   79.10
   4  -5 -30  168.09   92.12
   5   4 -30   37.87   62.74
   5   4 -29   15.61   45.90
   4  -5 -29  110.54   99.89
   5   4 -28    5.79   37.17
   4  -5 -28   27.89   61.19
   5   4 -27   66.78   58.17
   4  -5 -27   66.29   48.91
   5   4 -26   49.18   54.16
   4  -5 -26  -22.00   30.68
   5   4 -25    7.69   34.26
   4  -5 -25   55.47   68.24
   5   4 -24   92.86   66.64
   4  -5 -24   21.60   22.52
   5   4 -23   -5.73   30.15
   4  -5 -23   57.23   68.08
   5   4 -22   11.78   19.41
   4  -5 -22   14.14   42.00
   4  -5 -21   84.73   58.26
   4  -5 -20   28.60   38.00
   4  -5 -19  173.37   73.78
   4  -5 -18   41.46   36.30
   5   4 -18   28.02   21.16
   4  -5 -17   25.41   24.38
   5   4 -17   53.21   21.80
   4  -5 -16   86.46   44.19
   4  -5 -15   90.96   45.61
   5  -4  15   87.69   32.72
   5  -4  14  327.77   55.45
   4  -5 -14  257.70   76.45
   5  -4  13   40.18   25.15
   4  -5 -13   75.92   37.62
   4  -5 -12  383.12   80.76
   5  -4  12  483.26   61.12
   5  -4  11  182.04   36.16
   4  -5 -11  169.50   50.29
   4  -5 -10  278.13   64.57
   5  -4  10  242.04   38.90
  -4   5 -10  314.39   57.76
  -4  -5  10  312.80   41.04
   4  -5  -9 1081.12  121.27
  -4   5  -9 1118.84  106.79
  -4  -5   9 1155.13   74.35
   4  -5  -8  106.99   43.54
  -4  -5   8  104.54   21.02
  -4   5  -8  137.55   41.00
  -4   5  -7  649.86   84.37
  -5   4   6  285.53   82.19
  -4   5  -6  335.39   59.12
  -5   4   5   85.10   55.49
  -4   5  -5   10.09   19.45
  -5   4   4  353.73   83.44
  -4   5  -4  429.00   71.32
  -4   5  -3  998.03  115.07
  -5   4   3  916.37  132.11
   5  -4   2  659.65   85.48
  -5   4   2  588.57  100.17
   4  -5  -2  572.05   93.20
  -4   5  -2  570.69   91.12
   5  -4   1  350.92   65.66
   4  -5  -1  324.50   66.33
  -5   4   1  321.16   75.54
  -4   5  -1  371.42   75.36
   5  -4   0   93.05   36.88
  -4   5   0   97.31   44.58
   4  -5   0  138.07   48.67
  -5   4   0  192.00   59.91
   4  -5   1  283.05   59.15
   5  -4  -1  266.18   62.77
  -5   4  -1  352.91   73.33
  -4   5   1  258.45   68.38
  -4   5   2  575.49  105.93
  -5   4  -2  596.25   90.13
   4  -5   2  617.51   81.98
   4  -5   3 1039.93  101.78
  -4   5   3  853.06  128.31
  -5   4  -3  799.38  102.13
  -5   4  -4  518.80   77.44
   4  -5   4  485.68   69.01
  -5   4  -5   65.27   29.18
  -5   4  -6  331.50   63.57
  -5   4  -7  690.37   89.08
  -5  -4   7  698.50   71.25
  -5  -4   8  140.54   31.73
   4  -5   8  124.19   20.32
   4  -5   9 1177.64   67.08
  -5  -4   9 1063.95   95.16
   4  -5  10  311.25   38.76
  -5  -4  10  330.80   58.10
   4  -5  11  203.89   33.06
  -5  -4  11  176.43   41.99
   4  -5  12  443.72   52.04
   5  -4 -13   56.32   34.36
   4  -5  13   56.16   20.42
   5  -4 -14  263.01   71.32
   5  -4 -15  113.30   48.43
   5  -4 -16   97.23   44.99
   5  -4 -17   60.80   41.56
   5  -4 -18   56.83   49.16
   5  -4 -19   94.77   51.46
   5  -4 -20   11.52   41.06
   4   5 -21   66.86   36.55
   5  -4 -21   51.47   55.38
   5  -4 -22   36.37   35.75
   4   5 -22    4.06   20.96
   5  -4 -23  -27.11   48.29
   4   5 -23   35.91   46.81
   4   5 -24   85.88   55.97
   5  -4 -24   55.70   50.85
   5  -4 -25  -38.47   58.98
   4   5 -25   30.87   30.77
   5  -4 -26   50.61   37.67
   4   5 -26  -19.34   26.76
   5  -4 -27   53.70   55.75
   4   5 -27   -9.03   33.60
   4   5 -28  -31.03   47.22
   5  -4 -28   -6.32   44.18
   5  -4 -29  -39.83   69.26
   5  -4 -30   47.80   66.83
   5  -4 -31  -77.92   59.39
   5  -4 -32  -33.76   74.56
  -5   5   0  144.83   50.33
  -5   5  -1  563.30   97.42
  -5   5   1  702.38  116.48
   5  -5   2   84.09   36.71
  -5   5   2  107.58   53.22
  -5   5  -2  149.45   55.36
   5  -5   3  934.83  107.79
  -5   5  -3  851.59  109.93
  -5   5   3  785.19  124.35
  -5   5   4   68.50   48.38
  -5   5  -4   32.55   27.81
  -5   5   5  199.00   63.57
  -5   5  -5  229.64   54.76
  -5   5  -6   73.15   30.26
  -5   5  -7   61.12   37.94
  -5   5  -8  169.49   49.89
  -5  -5   8   68.40   24.62
  -5   5  -9  126.28   40.51
  -5  -5   9   59.89   20.08
   5  -5  10  650.53   59.98
  -5   5 -10  612.38   84.95
  -5  -5  10  616.32   66.02
   5  -5  11  126.65   30.89
   5  -5 -11  126.82   46.92
  -5  -5  11  144.36   34.02
   5  -5 -12   67.68   41.58
   5  -5  12   67.60   20.08
   5  -5  13  773.33   76.63
   5  -5 -13  783.83  120.56
   5  -5  14   44.70   24.82
   5  -5 -14   16.53   23.76
   5  -5  15  319.39   56.36
   5  -5 -15  433.32   97.80
   5  -5 -16   40.23   36.74
   5  -5  16   16.90   13.91
   5  -5 -17  102.32   43.79
   5  -5 -18   21.66   26.95
   5  -5 -19   28.37   42.38
   5  -5 -20   30.88   32.17
   5  -5 -21   63.65   52.77
   5   5 -22    8.18   24.09
   5  -5 -22   -3.22   29.15
   5   5 -23   69.06   43.06
   5  -5 -23   43.63   33.42
   5   5 -24   45.74   39.47
   5  -5 -24    1.42   28.20
   5   5 -25   60.28   37.89
   5  -5 -25   71.55   50.41
   5   5 -26   30.22   38.70
   5  -5 -26   25.31   59.96
   5   5 -27   72.59   54.27
   5  -5 -27   56.85   66.89
   5   5 -28   33.11   27.98
   5  -5 -28  -16.53   43.26
   5   5 -29   72.20   31.40
   5  -5 -29   -7.22   38.27
   5  -5 -30   12.17   32.98
   5  -5 -31   44.84   43.60
   5  -5 -32  124.74   94.48
   0   6   0    2.22    8.02
   0   6  -1  117.28   25.87
   0   6   1  120.93   29.75
   0   6  -2  357.68   39.10
  -6   0   2  322.77   60.12
   0   6   2  304.17   47.27
  -6   0   3   15.05   13.41
   0  -6  -3    2.80    9.89
   0   6   3    0.82   19.88
   0   6   4  584.44   75.37
   0  -6  -4  612.85   78.55
  -6   0   4  675.21   91.69
   0  -6   4  557.12   69.33
   0   6   5  327.71   55.78
   0  -6  -5  366.28   63.76
  -6   0   5  183.26   46.40
   6   0  -5  251.51   53.23
   0  -6   5  286.40   40.51
   0  -6  -6 1666.18  137.58
   0  -6   6 1619.01   84.55
   6   0  -6 1465.18  131.31
  -6   0   6 1490.50  145.04
   0  -6  -7  286.09   62.82
   6   0  -7  196.79   50.43
  -6   0   7  200.81   54.67
   0  -6  -8  156.72   52.76
   6   0  -8  149.05   49.14
  -6   0   8  136.61   51.65
   0  -6  -9  113.40   46.39
  -6   0   9  110.53   41.71
  -6   0  10  119.52   59.35
   0  -6 -10   72.73   36.53
   0   6 -11   44.45   14.95
   0  -6 -11   43.61   29.82
   0   6 -12    4.19    8.48
   0  -6 -12   39.52   26.94
   0   6 -13   27.30   16.51
   0  -6 -13   31.95   21.51
   0  -6 -14  980.73  144.88
   0   6 -14  985.47   94.44
   0   6 -15   36.71   18.60
   0  -6 -15  -36.04   30.76
   0   6 -16  166.62   41.49
   0  -6 -16  159.82   64.43
   0   6 -17  -18.89   16.96
   0  -6 -17  -22.90   26.73
   0   6 -18   -7.67   23.70
   0  -6 -18    7.92   25.66
   0   6 -19   16.66   14.06
   0  -6 -19  -11.55   36.44
   0   6 -20   47.28   31.78
   0  -6 -20   38.05   43.96
   6   0 -21   16.60   41.32
   0   6 -21  -14.19   19.75
   0  -6 -21   63.01   59.94
   6   0 -22   59.23   53.17
   0  -6 -22   46.96   31.09
   0   6 -22   12.84   15.48
   6   0 -23  -22.53   52.53
   0   6 -23   14.10   29.78
   0  -6 -23   70.24   52.13
   6   0 -24  163.04   68.30
   0   6 -24  140.17   59.20
   0  -6 -24  124.13   81.87
   6   0 -25  -26.80   23.82
   0  -6 -25   44.42   57.93
   6   0 -26   22.55   50.90
   0  -6 -26  109.67   77.62
   6   0 -27   40.04   27.88
   0  -6 -27  108.82   88.44
   6   0 -28  -41.28   45.44
   0  -6 -28  103.49   71.29
   6   0 -29   82.63   71.88
   0  -6 -29  -52.71   40.56
   6   0 -30  -10.93   22.70
   0  -6 -30  149.97  103.81
   6   0 -31   26.91   44.92
   0  -6 -31   -2.58   73.90
   6   0 -32   -5.42   34.46
   6   0 -33 -113.43   73.01
   6   0 -34  -63.54   29.10
   6   1 -34    5.36   48.35
   6   1 -33   45.34   41.12
   6   1 -32   -7.00   36.05
   1  -6 -32  192.80  116.45
   6   1 -31   55.16   61.61
   1  -6 -31  -20.59   53.05
   6   1 -30  -49.36   47.24
   1  -6 -30   36.19   55.08
   6   1 -29  -14.75   45.92
   1  -6 -29   -9.21   68.24
   6   1 -28  -42.08   52.72
   1  -6 -28   50.24   50.81
   6   1 -27  -16.50   41.06
   1  -6 -27  105.63   81.69
   6   1 -26   49.41   42.72
   1  -6 -26   42.66   43.63
   6   1 -25  183.44   82.64
   1  -6 -25  149.85   81.58
   6   1 -24   52.23   36.67
   1  -6 -24   21.21   32.74
  -1   6 -24   53.38   45.03
   6   1 -23   54.06   45.72
  -1   6 -23   57.50   44.44
   1  -6 -23  111.26   74.58
   6   1 -22  -17.48   28.87
   1  -6 -22   29.37   34.63
  -1   6 -22   40.04   45.83
   6   1 -21   68.64   52.19
   1  -6 -21   54.03   42.10
  -1   6 -21  118.14   51.05
  -1   6 -20  -11.11   21.54
   1  -6 -20   98.72   55.43
   1  -6 -19  -12.76   20.74
  -1   6 -19   38.74   29.39
   1  -6 -18   90.96   59.88
  -1   6 -18   -5.99   19.34
  -1   6 -17   33.06   19.41
   1  -6 -17    9.72   38.51
   1  -6 -16   38.91   35.06
  -1   6 -16  102.26   32.38
  -1   6 -15  265.15   35.98
  -1   6 -15  322.10   56.49
   1  -6 -15  272.30   82.54
  -1   6 -14  130.38   24.08
  -1   6 -14  165.68   34.87
   1  -6 -14  157.95   54.91
  -1   6 -13  339.11   47.37
  -1   6 -13  288.59   36.28
   1  -6 -13  304.48   78.29
  -1   6 -12  302.90   40.86
   1  -6 -12  336.60   77.45
  -1   6 -12  300.83   37.95
  -1   6 -11  355.34   39.16
   1  -6 -11  287.60   70.76
   6   1 -11  192.85   46.81
  -1   6 -11  271.90   36.71
  -6   1  10   83.19   49.11
  -1   6 -10  154.68   24.56
   1  -6 -10  147.27   50.45
   6   1 -10  149.09   45.06
  -1   6 -10  121.86   24.88
  -1   6  -9   45.57   12.10
   1  -6  -9   80.51   38.80
   6   1  -9   70.75   34.07
  -6   1   9    8.58   39.57
  -1   6  -9   60.02   21.68
   1  -6  -8   83.92   31.32
   6   1  -8   94.32   39.42
  -1   6  -8  110.85   28.46
  -6   1   8   39.51   18.36
   1  -6  -7  763.23   97.53
  -6   1   7  737.15  111.52
   1  -6  -6  589.39   82.64
  -1  -6   6  516.59   47.63
  -6   1   6  688.95  105.05
   1  -6  -5  161.63   42.24
  -6   1   5  139.77   49.23
  -6   1   4  347.30   73.95
   1   6   4  374.57   61.90
   1  -6  -4  273.69   53.21
   1  -6  -3 1200.59  101.29
   1   6   3 1262.25  104.05
  -1   6  -3 1246.23   58.23
  -6   1   3 1268.27  128.61
  -1   6  -2  129.84   22.37
  -6   1   2   80.93   36.08
   1   6   2  120.83   36.86
   1  -6  -2  153.29   35.26
   1   6   1  646.43   68.33
  -1   6  -1  614.24   52.18
   1  -6  -1  616.33   62.83
  -6   1   1  566.63   83.43
  -1   6   0  202.75   32.81
  -6   1   0  145.91   48.78
   1  -6   0  143.33   26.85
  -1   6   1  647.49   62.59
   1  -6   1  659.70   89.32
  -1   6   2  146.51   34.10
   1  -6   2  127.80   33.70
  -1   6   3 1379.27  103.69
   1  -6   3 1367.55  111.44
  -6  -1   3 1360.67  120.58
   6  -1  -3 1256.08  124.04
  -1   6   4  340.74   55.90
  -6  -1   4  420.91   68.62
   6  -1  -4  388.43   74.14
   1  -6   4  299.50   51.13
  -1   6   5  162.42   42.00
  -6  -1   5  109.19   36.16
   6  -1  -5  125.22   45.06
   1  -6   5  162.14   33.92
  -6  -1   6  587.25   86.07
   6  -1  -6  621.63   91.21
   1  -6   6  520.25   53.02
  -1  -6  -7  627.96   88.77
  -6  -1   7  723.02   96.87
  -1  -6  -8   66.75   32.18
  -6  -1   8  119.38   42.98
  -1  -6  -9   14.80   16.09
  -6  -1   9    1.68   23.10
  -1  -6 -10  141.27   49.04
  -6  -1  10  173.99   51.84
  -6  -1  11  263.00   63.53
  -1  -6 -11  366.56   81.22
  -1  -6 -12  363.22   82.13
  -1  -6 -13  320.88   80.01
   1   6 -14  121.73   35.22
  -1  -6 -14  145.84   58.40
   1   6 -15  286.99   57.22
  -1  -6 -15  404.00   98.90
   1   6 -16   56.63   26.38
  -1  -6 -16   26.05   28.38
   1   6 -17   32.72   25.42
  -1  -6 -17   43.33   41.12
   1   6 -18   32.79   22.07
  -1  -6 -18  107.99   65.86
   1   6 -19  -13.25   13.79
  -1  -6 -19   19.14   40.00
   6  -1 -20   29.54   32.99
   1   6 -20   23.16   21.87
  -1  -6 -20   15.51   37.13
   6  -1 -21   58.47   43.74
  -1  -6 -21   67.38   55.23
   1   6 -21    2.44   20.14
   6  -1 -22   44.81   26.93
  -1  -6 -22   50.82   63.04
   1   6 -22    6.51   20.65
   6  -1 -23   72.78   49.29
   1   6 -23   10.19   27.96
  -1  -6 -23  168.28   90.12
   6  -1 -24   40.55   56.75
  -1  -6 -24   13.08   37.52
   1   6 -24   69.49   36.48
   6  -1 -25   28.54   27.33
  -1  -6 -25  147.53   82.12
   1   6 -25  105.03   57.52
   6  -1 -26  -54.42   53.32
  -1  -6 -26  117.35   77.61
   6  -1 -27   46.25   45.48
  -1  -6 -27   45.73   80.96
   6  -1 -28   -1.50   58.56
   6  -1 -29  -18.27   32.14
   6  -1 -30  -74.15   36.41
   6  -1 -31 -144.91   69.75
   6  -1 -32    0.80   57.18
   6  -1 -33   -4.99   27.46
   6   2 -34  -29.07   71.47
   6   2 -33  -11.99   47.83
   6   2 -32  -17.99   65.38
   2  -6 -32   45.98   65.17
   2  -6 -31  157.10  108.40
   6   2 -31    5.16   43.89
   6   2 -30  -57.97   55.56
   2  -6 -30  -18.55   44.16
   6   2 -29   47.94   59.40
   2  -6 -29   -4.34   76.89
   6   2 -28   34.14   44.19
   2  -6 -28  159.95  126.12
   6   2 -27   16.91   24.89
   2  -6 -27   28.13   41.85
   6   2 -26   86.89   65.30
   2  -6 -26    7.70   52.10
   6   2 -25   -2.32   28.32
   2  -6 -25  -87.88   74.04
   6   2 -24   78.60   55.72
   2  -6 -24  183.21   84.82
   6   2 -23   17.04   24.55
   2  -6 -23  193.88   86.27
   6   2 -22   -3.56   22.33
   2  -6 -22   45.40   58.16
   2  -6 -21   55.84   37.17
   2  -6 -20   31.07   28.57
   2  -6 -19  155.78   77.10
   2  -6 -18  122.61   63.78
   2  -6 -17   29.00   22.48
   2  -6 -16  141.01   57.79
   2  -6 -15  145.53   56.17
   6   2 -14   60.98   33.54
  -2   6 -14   83.80   26.04
   2  -6 -14  129.35   60.00
  -2   6 -13   43.15   17.96
   6   2 -13   64.34   28.62
   2  -6 -13   49.14   33.22
   2  -6 -12  882.33  127.87
  -2   6 -12  942.27   79.91
   6   2 -12  773.67   99.45
   2  -6 -11   84.61   46.24
   6   2 -11  153.13   41.85
  -2   6 -11  108.67   27.09
   2  -6 -10  181.71   57.67
  -2   6 -10  284.72   46.21
   2  -6  -9  170.98   47.13
  -6   2   9  167.05   57.99
  -2   6  -9  233.50   41.39
   2  -6  -8  121.48   44.01
  -6   2   8  120.95   51.25
  -2   6  -8  113.19   34.79
   2  -6  -7  261.95   58.23
  -2   6  -7  328.78   54.71
  -6   2   7  248.76   66.14
   2  -6  -6  888.36  102.02
  -2   6  -6  763.67   84.02
  -6   2   6  724.88  118.02
   2  -6  -5  160.01   41.26
  -6   2   5  204.40   60.75
  -2   6  -5  187.76   48.60
   2  -6  -4   87.88   28.22
   2   6   4  134.87   36.05
  -2   6  -4  126.12   38.43
  -6   2   4  146.83   52.71
   2   6   3  331.79   55.63
   2  -6  -3  257.39   48.55
  -6   2   3  296.78   67.08
   2  -6  -2  467.69   59.94
   2  -6  -2  422.20   84.35
  -6   2   2  531.65   85.77
   2  -6  -1   68.78   39.18
  -6   2   1   82.76   38.30
   2  -6  -1  111.76   27.46
   2  -6   0 1041.36   76.38
   2  -6   0 1008.35  118.33
  -6   2   0 1044.16  114.74
   2  -6   1  100.77   22.27
  -6   2  -1  109.23   41.44
   2  -6   1  151.24   51.93
   2  -6   2  545.20   45.01
   6  -2  -2  563.33   84.08
   2  -6   2  564.44   80.44
  -6   2  -2  577.32   85.11
   2  -6   3  345.52   60.80
  -6  -2   4  116.20   38.11
   2  -6   4  113.56   29.11
   2  -6   5  212.22   41.91
  -6  -2   5  275.97   55.68
   2  -6   6  856.56   77.23
  -6  -2   6  635.68   83.26
  -6  -2   7  282.89   55.09
  -6  -2   8  114.45   36.55
  -6  -2   9  171.50   47.91
  -6  -2  10  243.43   63.18
  -6  -2  11  154.39   50.41
  -2  -6 -15   41.52   44.93
  -2  -6 -16  173.68   69.84
   2   6 -17   59.17   38.58
  -2  -6 -17  145.88   65.35
   2   6 -18   65.07   40.80
   6  -2 -18   19.82   32.70
  -2  -6 -18   76.07   49.35
   6  -2 -19   83.07   49.13
   2   6 -19   58.25   33.89
  -2  -6 -19   47.89   53.34
   6  -2 -20    7.12   40.06
   2   6 -20  -12.37   24.47
   6  -2 -21   -4.25   33.93
   2   6 -21    5.49   19.27
   2   6 -22    3.56   20.52
   6  -2 -22  123.16   57.18
   6  -2 -23   34.73   35.45
   2   6 -23   76.66   47.50
   6  -2 -24   75.15   41.16
   2   6 -24   39.34   19.14
   6  -2 -25  -26.87   36.76
   2   6 -25   75.09   43.12
   6  -2 -26   49.53   40.97
   2   6 -26   74.61   47.88
   6  -2 -27  -24.77   44.32
   6  -2 -28  -39.53   45.95
   6  -2 -29    9.18   40.73
   6  -2 -30  -29.62   30.45
   6  -2 -31  -11.50   64.79
   6  -2 -32  -55.96   68.67
   6  -2 -33   29.21   35.61
   6   3 -32  116.27   69.16
   3  -6 -32  135.41   86.73
   6   3 -31   54.60   70.31
   3  -6 -31  -32.78   78.21
   6   3 -30  134.76   51.87
   3  -6 -30   41.11   69.60
   6   3 -29   -7.36   32.98
   3  -6 -29  -12.12   39.02
   6   3 -28    7.96   26.50
   3  -6 -28   49.91   66.54
   6   3 -27   92.77   70.16
   3  -6 -27   24.71   57.34
   6   3 -26   32.63   50.98
   3  -6 -26   23.44   77.33
   6   3 -25   38.78   22.29
   3  -6 -25   91.94   63.65
   6   3 -24   61.70   45.38
   3  -6 -24  108.73   72.05
   6   3 -23   21.74   29.61
   3  -6 -23   28.71   34.65
   3  -6 -22   24.14   33.10
   3  -6 -21    9.49   40.99
   3  -6 -20   61.28   38.66
   3  -6 -19   92.56   56.49
   3  -6 -18  197.94   72.00
   6   3 -17   41.59   33.61
   3  -6 -17   81.42   52.89
   6   3 -16  103.50   47.76
   3  -6 -16   65.37   35.71
   6   3 -15  163.79   48.64
   3  -6 -15  171.74   63.03
   3  -6 -14   46.82   37.94
  -3   6 -14   40.75   23.28
   6   3 -14   25.60   21.96
   3  -6 -13  559.60  105.17
  -3   6 -13  609.10   74.49
   3  -6 -12   83.34   39.85
  -3   6 -12   48.97   21.70
   6  -3  12   47.07   24.75
   3  -6 -11  363.99   77.85
  -3   6 -11  331.43   53.88
   3  -6 -10  312.34   72.87
  -3   6 -10  360.99   57.44
   3  -6  -9  180.50   55.40
  -3   6  -9   63.28   24.08
   3  -6  -8  812.65  105.76
  -6   3   8  892.69  142.44
  -3   6  -8  884.10   95.33
   3  -6  -7  635.94   91.04
  -3   6  -7  610.18   83.35
  -6   3   7  604.82  115.71
   3  -6  -6  275.78   57.11
  -6   3   6  287.70   87.76
  -3   6  -6  315.23   59.85
   3  -6  -5   42.95   28.79
  -3   6  -5    7.43   17.38
  -6   3   5   10.23   34.34
   3  -6  -4  158.81   39.21
  -3   6  -4  226.01   55.13
  -6   3   4  206.21   64.92
   3  -6  -3  217.82   46.68
  -3   6  -3  174.92   50.44
  -6   3   3  273.63   64.29
   3  -6  -2  145.15   33.71
   3  -6  -2  242.31   66.79
  -3   6  -2  174.27   51.89
  -6   3   2  130.85   50.48
   3  -6  -1 1094.82   87.16
  -3   6  -1 1126.53  134.69
   3  -6  -1 1242.65  134.85
  -6   3   1  996.05  121.75
   3  -6   0  115.66   27.04
  -6   3   0  133.46   40.13
   3  -6   0   99.12   33.55
   3  -6   1 1209.88   78.70
  -6   3  -1 1232.92  130.36
   3  -6   1 1327.84  129.92
   3  -6   2  164.18   25.99
  -6   3  -2  156.60   48.67
   3  -6   2  157.76   39.87
   3  -6   3  245.61   27.59
   3  -6   3  231.15   50.90
  -6   3  -3  280.69   64.83
   3  -6   4  249.63   49.57
  -6   3  -4  182.33   50.43
   3  -6   5   22.36   14.54
  -6  -3   6  372.15   60.50
  -6  -3   7  565.41   76.81
  -6  -3   8  815.35   95.07
  -6  -3   9   70.57   35.71
  -6  -3  10  341.94   68.89
  -6  -3  11  243.36   62.14
  -6  -3  12   67.23   35.18
   6  -3 -17   47.53   45.53
   6  -3 -18  191.30   68.41
   6  -3 -19   56.44   40.97
   3   6 -19   70.69   40.75
   3   6 -20  107.50   47.33
   6  -3 -20   50.27   48.48
   3   6 -21   31.97   26.27
   6  -3 -21   -3.08   21.33
   3   6 -22   83.59   42.83
   6  -3 -22   91.55   49.01
   6  -3 -23   19.20   31.27
   3   6 -23   27.55   32.22
   6  -3 -24  134.30   67.96
   3   6 -24   27.67   35.22
   6  -3 -25   73.40   53.67
   3   6 -25   66.11   49.28
   6  -3 -26  -13.13   30.92
   3   6 -26  -29.62   43.39
   6  -3 -27  114.21   75.83
   6  -3 -28  -73.32   51.18
   6  -3 -29   28.13   29.07
   6  -3 -30   19.08   36.75
   6  -3 -31   16.91   30.51
   6  -3 -32    3.52   36.61
   4  -6 -31  -70.94   66.91
   6   4 -31  -24.31   35.74
   6   4 -30   38.86   39.56
   4  -6 -30   53.78   96.90
   6   4 -29   14.62   49.52
   4  -6 -29  108.18   81.13
   6   4 -28   51.32   43.01
   4  -6 -28   -1.31   55.81
   6   4 -27   49.60   45.02
   4  -6 -27  -32.85   51.36
   6   4 -26   66.02   51.84
   4  -6 -26   72.23   58.09
   6   4 -25    2.59   30.83
   4  -6 -25   63.58   60.28
   6   4 -24   10.35   20.68
   4  -6 -24   58.66   34.21
   6   4 -23   84.22   48.07
   4  -6 -23  -37.29   53.67
   4  -6 -22   31.66   44.47
   4  -6 -21   93.35   54.05
   4  -6 -20   14.13   34.03
   4  -6 -19   64.42   52.21
   4  -6 -18  173.16   72.95
   4  -6 -17  103.41   55.41
   4  -6 -16    4.59   24.83
   4  -6 -15   92.19   46.97
   6  -4  14  469.89   71.58
   4  -6 -14  410.71   92.81
  -4   6 -14  420.39   70.25
   4  -6 -13   87.09   45.40
  -4   6 -13   75.18   24.53
   6  -4  13   32.77   16.40
   4  -6 -12  381.80   84.31
  -4   6 -12  470.71   71.73
   6  -4  12  426.05   60.12
   4  -6 -11   95.92   44.01
  -4   6 -11   68.00   25.99
   6  -4  11  112.11   30.53
   4  -6 -10  656.06  101.82
  -4   6 -10  646.19   85.49
  -4  -6  10  640.41   47.19
   4  -6  -9  413.22   79.88
  -4   6  -9  386.55   66.69
  -4  -6   9  391.17   39.63
   4  -6  -8  350.42   72.25
  -4   6  -8  310.54   60.68
   4  -6  -7  166.35   49.87
  -6   4   7  154.98   65.23
  -4   6  -7  138.42   40.60
   4  -6  -6  185.75   52.29
  -4   6  -6  201.20   53.85
  -6   4   6  184.24   56.90
   4  -6  -5  124.34   40.16
  -6   4   5   93.16   37.15
  -4   6  -5   83.65   38.67
  -6   4   4   50.88   39.18
  -4   6  -4  124.00   46.13
  -6   4   3   50.46   38.50
  -4   6  -3  122.73   50.11
  -4   6  -2 1129.82  135.70
  -6   4   2 1150.66  150.43
  -4   6  -1   48.71   29.64
  -6   4   1   57.55   37.17
  -4   6   0   93.84   36.11
  -6   4   0  116.91   45.97
  -4   6   1  -18.32   39.89
  -6   4  -1   29.60   25.95
   4  -6   1   10.33   19.64
   4  -6   2 1197.11  120.75
  -6   4  -2 1216.95  135.65
  -6   4  -3  111.66   43.12
   4  -6   3  172.56   44.04
  -6   4  -4  102.78   43.33
   4  -6   4  166.77   44.94
  -6   4  -5  158.79   48.06
   4  -6   5  147.92   41.32
  -6   4  -6  221.23   57.97
  -6   4  -7  179.01   51.80
  -6  -4   7  136.58   36.74
  -6  -4   8  334.86   57.79
   4  -6   9  366.11   28.81
  -6  -4   9  365.94   62.16
  -6  -4  10  550.43   77.89
  -6  -4  11   76.77   26.89
  -6  -4  12  446.54   77.96
   6  -4 -16  -24.96   32.71
   6  -4 -17   84.50   41.58
   6  -4 -18  157.45   77.79
   6  -4 -19   57.66   39.51
   6  -4 -20   52.14   47.39
   4   6 -21   60.05   31.98
   6  -4 -21  -11.48   38.44
   4   6 -22   35.42   36.71
   6  -4 -22   81.28   56.66
   4   6 -23   33.90   36.08
   6  -4 -23   19.48   30.83
   4   6 -24   33.47   40.74
   6  -4 -24   12.35   38.56
   4   6 -25  -28.86   29.30
   6  -4 -25   25.37   41.69
   6  -4 -26  194.58   95.51
   4   6 -26  122.43   64.54
   4   6 -27   -2.20   23.03
   6  -4 -27   65.19   38.96
   6  -4 -28   89.44   62.62
   6  -4 -29   47.03   63.93
   6  -4 -30   20.62   60.19
   6  -4 -31  -29.52   28.55
   6  -4 -32  108.44   87.05
   5  -6 -31   15.84   30.03
   5  -6 -30   40.19   31.82
   6   5 -29   13.44   31.54
   5  -6 -29    7.27   34.85
   6   5 -28   49.21   43.63
   5  -6 -28  138.37   83.13
   6   5 -27   34.33   46.04
   5  -6 -27  -37.66   80.85
   6   5 -26   -7.11   18.94
   5  -6 -26  -24.11   34.82
   6   5 -25  -24.78   22.55
   5  -6 -25   21.11   49.36
   6   5 -24   50.03   41.91
   5  -6 -24  -60.57   58.23
   5  -6 -23   36.26   47.15
   5  -6 -22  -22.31   50.68
   5  -6 -21   28.82   29.66
   5  -6 -20   34.90   37.55
   5  -6 -19  102.98   42.79
   5  -6 -18   29.63   26.01
   5  -6 -17  147.26   59.31
   6  -5  16   63.82   21.69
   5  -6 -16   80.67   53.07
   5  -6 -15   11.98   34.79
   6  -5  15   71.71   30.13
   5  -6 -14  102.01   53.29
  -5   6 -14  129.62   44.23
   6  -5  14  215.10   47.88
   6  -5  13  437.03   60.73
   5  -6 -13  332.72   81.69
  -5   6 -13  405.12   74.05
   5  -6 -12  182.69   61.65
  -5   6 -12  115.91   43.30
   6  -5  12  169.85   35.88
   6  -5  11  583.65   65.39
   5  -6 -11  559.87   99.30
  -5  -6  11  625.10   61.80
  -5   6 -11  645.67   92.77
   5  -6 -10   76.61   37.06
  -5  -6  10  113.76   29.42
  -5   6 -10  106.97   40.60
   5  -6  -9  282.07   66.74
  -5   6  -9  198.33   54.46
  -5  -6   9  173.06   34.94
  -5   6  -8   23.34   27.74
  -5   6  -7    2.83   18.31
  -6   5   6   24.43   28.88
  -5   6  -6   49.68   20.10
  -6   5   5  156.54   64.43
  -5   6  -5  147.40   48.38
  -5   6  -4  529.25   95.85
  -6   5   4  476.67  107.18
  -5   6  -3  227.87   65.23
  -6   5   3  212.74   67.43
  -5   6  -2  438.29   92.10
  -6   5   2  464.12   97.68
  -6   5   1  556.32  104.92
  -5   6  -1  497.28   97.19
  -5   6   0  345.71   84.75
  -6   5   0  425.71   94.47
  -5   6   1  588.91  110.70
  -6   5  -1  631.46  110.25
  -5   6   2  395.47   90.28
  -6   5  -2  488.25   95.34
  -5   6   3  252.95   81.96
  -6   5  -3  219.27   59.76
  -6   5  -4  638.95   98.54
  -6   5  -5  192.30   53.90
  -6   5  -6   31.26   19.02
  -6   5  -7   56.22   36.31
  -6  -5   8   81.32   32.89
  -6   5  -8  138.12   46.89
   5  -6   9  213.15   28.99
  -6   5  -9  230.09   63.56
  -6  -5   9  211.11   45.61
   5  -6  10  102.79   21.76
  -6   5 -10  148.06   51.43
  -6  -5  10  117.83   40.45
   5  -6  11  581.20   52.21
  -6  -5  11  490.16   71.15
   5  -6  12  112.55   26.40
  -6  -5  12  166.39   45.88
   5  -6  13  392.34   50.40
   6  -5 -14   90.49   44.76
   5  -6  14  149.10   33.82
   6  -5 -15   53.62   44.61
   6  -5 -16  107.04   50.65
   6  -5 -17   70.35   43.92
   6  -5 -18  -36.30   30.78
   6  -5 -19   81.18   53.53
   6  -5 -20  -16.36   28.85
   6  -5 -21   29.22   50.64
   6  -5 -22   93.69   65.27
   5   6 -23  117.89   53.29
   6  -5 -23  -32.59   31.91
   5   6 -24  -34.51   27.03
   6  -5 -24  -49.00   59.62
   6  -5 -25   53.38   59.19
   5   6 -25   53.56   38.99
   5   6 -26   56.16   48.75
   6  -5 -26  101.97   71.32
   5   6 -27  -15.47   31.25
   6  -5 -27  105.48   76.73
   6  -5 -28   60.23   56.41
   6  -5 -29   60.37   49.78
   6  -5 -30  124.37   91.64
   6  -5 -31  -37.86   57.35
  -6   6   0 2623.27  238.58
  -6   6   1   32.18   34.84
  -6   6  -1   12.07   18.39
  -6   6   2   12.42   21.12
  -6   6  -2   30.54   44.31
  -6   6   3   76.61   44.05
  -6   6  -3   91.28   49.49
  -6   6   4  562.35  120.88
  -6   6  -4  416.40   87.16
  -6   6   5  223.94   79.02
  -6   6  -5  274.77   70.16
  -6   6  -6  141.90   49.84
  -6   6  -7   31.84   30.18
  -6   6  -8   27.58   29.85
  -6  -6   9   13.42    9.26
  -6   6  -9  -19.81   14.89
  -6   6 -10   68.72   35.53
  -6  -6  10   65.73   26.11
   6  -6  11    5.54   10.38
  -6   6 -11    4.98   19.23
  -6  -6  11   45.10   26.37
   6  -6  12 1157.86   86.25
   6  -6 -12 1279.73  155.65
  -6   6 -12 1070.78  129.58
  -6  -6  12 1184.97  101.95
   6  -6  13   62.51   19.55
   6  -6 -13   31.34   22.08
  -6   6 -13  -25.21   24.56
   6  -6 -14  -16.83   27.63
   6  -6  14   14.71   17.72
  -6   6 -14    1.78   15.21
   6  -6  15    8.44   10.22
   6  -6 -15   14.51   21.51
   6  -6  16  355.67   60.16
   6  -6 -16  340.58   91.77
   6  -6 -17   -2.71   42.95
   6  -6 -18  125.85   70.46
   6  -6 -19   15.76   21.05
   6  -6 -20  -82.05   53.16
   6  -6 -21   70.55   66.41
   6  -6 -22  -27.88   48.08
   6  -6 -23  -36.50   29.65
   6   6 -24   24.96   30.46
   6  -6 -24   54.97   38.60
   6   6 -25  -50.48   54.03
   6  -6 -25   81.95   61.39
   6   6 -26   48.28   42.86
   6  -6 -26   99.48   78.20
   6   6 -27   52.12   44.15
   6  -6 -27   68.27   70.56
   6   6 -28   51.75   27.63
   6  -6 -28  101.69   58.17
   6  -6 -29   -3.22   33.83
   6  -6 -30  -11.35   51.64
   6  -6 -31  -23.60   32.54
   0   7   0  313.71   44.60
  -7   0   1  182.78   55.15
   0   7   1  182.77   38.04
   0   7  -1  216.40   35.23
  -7   0   2   43.37   19.41
   0   7  -2  105.16   24.09
   0   7   2  103.18   28.25
   0   7   3  532.01   70.67
   0   7  -3  550.57   50.27
  -7   0   3  500.86   81.32
   0  -7   4   29.36   23.27
  -7   0   4   34.07   26.36
   0   7   4   43.15   14.96
   0  -7  -4   10.79   19.27
   0  -7  -5 1379.70  127.45
  -7   0   5 1416.73  144.70
   0  -7   5 1291.09  106.01
   0  -7  -6  293.78   61.50
   0  -7   6  240.45   38.90
  -7   0   6  192.05   54.42
   0  -7  -7 2360.90  178.43
  -7   0   7 2196.69  193.57
   0  -7   7 2387.91  106.82
   0  -7  -8    7.30   23.25
  -7   0   8   93.18   51.66
   0  -7  -9    9.57   18.79
  -7   0   9  -24.34   35.15
   0  -7 -10  192.83   58.85
  -7   0  10  198.80   67.70
  -7   0  11   93.17   43.53
   0  -7 -11  253.69   70.49
  -7   0  12   19.53   28.73
   0   7 -12   52.59   16.33
   0  -7 -12   79.73   38.41
   0   7 -13  115.05   30.51
   0  -7 -13  136.40   56.47
   0   7 -14   92.45   30.06
   0  -7 -14   54.39   29.48
   0   7 -15  232.18   44.48
   0  -7 -15  297.39   84.74
   0   7 -16   84.68   25.62
   0  -7 -16  160.50   71.04
   0  -7 -17  122.93   54.10
   0   7 -17   33.66   14.93
   0   7 -18   -6.00   12.80
   0  -7 -18  -16.62   34.40
   0   7 -19    9.57   16.19
   0  -7 -19   81.42   56.15
   0  -7 -20  -57.98   48.04
   0   7 -20  -12.97   21.22
   0  -7 -21   28.27   23.94
   0   7 -21   17.16   24.40
   7   0 -22   12.06   21.03
   0  -7 -22   15.99   39.13
   0   7 -22   73.58   40.96
   7   0 -23   11.52   26.20
   0  -7 -23   34.71   38.97
   7   0 -24   41.70   39.90
   0  -7 -24   39.38   70.11
   7   0 -25   -4.62   33.06
   0  -7 -25   -0.55   25.20
   7   0 -26   26.34   38.81
   0  -7 -26   46.96   46.00
   7   0 -27  -46.18   64.63
   0  -7 -27  -34.30   36.32
   7   0 -28   -3.79   22.22
   0  -7 -28   83.67   84.73
   7   0 -29  -27.37   55.92
   0  -7 -29  149.86  101.59
   7   0 -30   55.45   41.03
   0  -7 -30  -87.07   46.18
   7   0 -31    1.38   42.10
   7   0 -32  -99.42   73.22
   7   0 -33   22.34   59.11
   7   1 -34   -9.12   39.05
   7   1 -33  -61.75   56.50
   7   1 -32  -13.39   42.66
   1  -7 -32  101.97   66.36
   7   1 -31   13.77   41.77
   1  -7 -31    4.43   45.05
   7   1 -30  -51.67   24.79
   1  -7 -30   29.91   32.16
   7   1 -29  -31.66   55.09
   1  -7 -29   44.75   59.61
   7   1 -28  -21.03   29.88
   1  -7 -28   21.38   32.44
   7   1 -27    3.71   39.68
   1  -7 -27   65.00   64.61
   7   1 -26  115.87   59.97
   1  -7 -26   47.98   25.33
   7   1 -25   86.22   56.34
   1  -7 -25    2.29   36.24
   7   1 -24   26.11   52.05
   1  -7 -24   86.15   72.65
   7   1 -23   40.66   26.86
   1  -7 -23   26.51   32.09
  -1   7 -22   42.44   24.18
   1  -7 -22   77.38   23.41
   1  -7 -21  -22.75   42.51
  -1   7 -21   -3.70   28.07
   1  -7 -20   45.22   41.66
  -1   7 -20   31.82   31.90
  -1   7 -19   36.46   23.27
   1  -7 -19   15.70   25.97
   1  -7 -18   29.52   47.77
  -1   7 -18   36.93   28.74
  -1   7 -18    3.15    8.25
  -1   7 -17   12.85   17.14
   1  -7 -17   67.43   44.36
  -1   7 -17    5.39    5.95
  -1   7 -16   30.57   28.64
   1  -7 -16   44.24   45.25
  -1   7 -16   32.22   11.12
   1  -7 -15  150.46   59.76
  -1   7 -15  196.53   39.75
  -1   7 -15   89.96   18.35
   1  -7 -14   47.82   30.85
  -1   7 -14   77.84   24.51
  -1   7 -14   30.39   12.08
   1  -7 -13  228.58   67.36
  -1   7 -13  166.81   31.40
  -1   7 -12  181.56   30.36
   1  -7 -12  259.74   74.59
  -1   7 -11  118.28   20.53
   1  -7 -11   96.44   44.97
  -7   1  11  136.65   49.75
  -1   7 -10   68.33   13.35
   1  -7 -10  101.80   45.73
  -7   1  10   99.93   48.44
   1  -7  -9   82.97   39.81
  -7   1   9   14.55   20.76
   1  -7  -8  528.52   90.71
  -7   1   8  502.37   98.17
   1  -7  -7  794.37  103.42
  -1  -7   7  714.88   57.32
  -7   1   7  670.35  116.33
   1  -7  -6  228.70   57.28
  -7   1   6  275.58   72.41
  -1  -7   6  216.11   39.69
   1  -7  -5  345.57   65.67
  -7   1   5  369.33   81.14
  -1   7  -4 1143.38   55.21
   1  -7  -4 1093.69  108.34
  -7   1   4 1083.95  133.86
  -1   7  -3  175.86   24.88
  -7   1   3  118.97   40.62
   1  -7  -3  145.53   38.75
   1   7   3  155.07   41.68
  -1   7  -2   43.11   17.25
  -7   1   2   37.09   29.22
   1  -7  -2   89.95   32.03
   1   7   2   24.76   20.48
  -1   7  -1  693.02   60.32
   1   7   1  744.64   77.31
   1  -7  -1  704.14   72.00
  -7   1   1  617.02   91.81
  -1   7   0   44.45   17.56
  -7   1   0   53.69   30.72
   1   7   0   69.28   27.12
  -1   7   1  772.63   73.68
   1  -7   1  668.86   94.33
  -1   7   2   59.95   22.29
   1  -7   2   18.12   16.07
  -1   7   3  144.56   37.15
  -7  -1   3  155.99   44.70
   1  -7   3  137.37   40.45
  -1   7   4 1146.87  104.54
  -7  -1   4 1099.77  118.79
   1  -7   4 1144.95  104.78
  -7  -1   5  396.38   72.97
   1  -7   5  378.69   56.88
   1  -7   6  219.09   42.86
  -7  -1   6  265.44   58.64
   1  -7   7  738.17   66.25
  -7  -1   7  612.03   98.74
  -1  -7  -8  500.05   89.59
  -7  -1   8  549.07   93.12
  -1  -7  -9   39.25   28.36
  -7  -1   9   62.27   41.44
  -1  -7 -10   69.39   34.80
  -7  -1  10   25.54   19.79
  -1  -7 -11  122.10   49.78
  -7  -1  11  182.72   65.57
  -7  -1  12  207.60   70.14
  -1  -7 -12  240.03   74.69
  -1  -7 -13  213.13   66.07
  -1  -7 -14  102.33   49.84
   1   7 -15  157.35   40.96
  -1  -7 -15  206.49   74.65
   1   7 -16   62.10   27.07
  -1  -7 -16   98.45   57.92
   1   7 -17   42.57   27.88
  -1  -7 -17  -11.57   18.65
   1   7 -18   26.05   19.72
  -1  -7 -18   47.51   39.57
   1   7 -19   50.77   20.27
  -1  -7 -19   49.95   28.05
   1   7 -20   33.04   20.00
  -1  -7 -20   16.49   47.93
   7  -1 -21   29.88   38.12
   1   7 -21  -16.17   31.75
  -1  -7 -21   -0.53   23.83
   7  -1 -22   67.74   50.22
  -1  -7 -22   80.57   48.57
   1   7 -22    5.35   21.91
   7  -1 -23   66.54   57.18
   1   7 -23    4.27   15.67
  -1  -7 -23   29.95   39.39
   7  -1 -24   86.03   59.61
  -1  -7 -24  120.73   83.40
   7  -1 -25   56.68   46.58
  -1  -7 -25  100.50   82.64
   7  -1 -26   74.99   68.67
   7  -1 -27  -13.18   37.47
   7  -1 -28    4.52   58.35
   7  -1 -29   66.46   71.34
   7  -1 -30   58.21   53.86
   7  -1 -31  -13.92   49.09
   7  -1 -32    3.61   49.83
   7  -1 -33  -41.10   56.44
   7   2 -34  -56.54   50.98
   7   2 -33   30.63   40.01
   7   2 -32   15.86   25.32
   7   2 -31   -5.87   58.34
   2  -7 -31  -75.26   43.81
   7   2 -30   -8.09   50.39
   2  -7 -30   97.67   68.11
   7   2 -29   -3.69   33.65
   2  -7 -29   70.66   60.82
   7   2 -28   70.34   54.43
   2  -7 -28   85.92   92.41
   7   2 -27   -5.32   41.19
   2  -7 -27    7.53   34.27
   7   2 -26   94.99   64.35
   2  -7 -26    4.34   48.61
   7   2 -25   20.36   36.39
   2  -7 -25  -16.38   48.07
   7   2 -24   18.97   26.97
   2  -7 -24   17.48   47.92
   2  -7 -23   25.56   60.75
   2  -7 -22  102.09   64.70
   2  -7 -21   70.40   57.89
   2  -7 -20  109.48   73.78
   2  -7 -19   67.75   42.38
  -2   7 -19   19.89   19.81
   2  -7 -18   13.77   30.11
  -2   7 -18   31.68   17.81
   2  -7 -17   46.56   28.18
  -2   7 -17   20.46    8.92
   2  -7 -16   94.08   55.04
  -2   7 -16   88.05   28.94
   2  -7 -15  -15.17   28.15
  -2   7 -15   55.62   18.54
   2  -7 -14   83.41   41.25
  -2   7 -14   50.26   22.18
   2  -7 -13   40.78   34.20
  -2   7 -13   32.12   13.50
   2  -7 -12  133.17   55.08
  -2   7 -12  103.04   28.95
   2  -7 -11  396.42   81.84
  -2   7 -11  266.95   47.62
   2  -7 -10  315.22   73.57
  -7   2  10  289.64   87.02
  -2   7 -10  271.01   47.17
   2  -7  -9  114.52   45.97
  -7   2   9  128.44   56.35
  -2   7  -9   87.11   32.73
   2  -7  -8  368.61   76.21
  -2   7  -8  210.44   46.80
  -7   2   8  255.37   76.82
   2  -7  -7  133.35   44.16
  -2   7  -7  150.77   43.61
  -7   2   7  117.79   52.28
   2  -7  -6   52.27   31.36
  -7   2   6   38.85   23.34
   2  -7  -5  645.99   87.82
  -7   2   5  632.08  111.77
   2  -7  -4  312.57   58.45
  -7   2   4  359.58   84.56
  -7   2   3   65.51   39.01
   2  -7  -3   67.58   27.54
  -7   2   2  279.33   66.61
   2  -7  -2  290.41   49.79
   2  -7  -1   73.06   43.34
   2  -7  -1   97.27   29.89
  -7   2   1   97.72   43.20
   2  -7   0  369.14   50.05
  -7   2   0  261.11   63.83
   2  -7   0  382.78   79.57
   2  -7   1   49.40   16.97
  -7   2  -1  122.08   48.72
   2  -7   1   53.65   29.99
   2  -7   2  284.21   35.92
  -7   2  -2  219.24   59.23
   2  -7   2  291.87   65.17
   2  -7   3   63.07   28.47
  -7  -2   4  313.01   62.61
   2  -7   4  419.51   68.55
  -7  -2   5  620.87   88.98
   2  -7   5  622.62   75.37
   2  -7   6   60.01   24.87
  -7  -2   6   28.13   28.12
  -7  -2   7  130.27   42.87
  -7  -2   8  383.46   73.73
  -7  -2   9   95.05   45.73
  -7  -2  10  281.23   63.97
  -7  -2  11  242.57   56.64
  -7  -2  12   75.03   41.42
   2   7 -17   58.02   32.47
   2   7 -18   59.13   23.75
   2   7 -19   25.76   26.83
   7  -2 -20   18.07   21.25
   2   7 -20  106.22   51.56
   2   7 -21   59.42   36.05
   7  -2 -21   89.58   63.34
   7  -2 -22  -32.81   42.67
   2   7 -22   51.06   33.66
   7  -2 -23   89.37   54.87
   2   7 -23   48.13   30.01
   7  -2 -24   89.10   52.04
   2   7 -24   21.58   33.15
   7  -2 -25   96.00   78.04
   7  -2 -26    9.50   22.94
   7  -2 -27   98.62   73.95
   7  -2 -28   79.33   75.16
   7  -2 -29   39.56   34.25
   7  -2 -30   20.34   25.73
   7  -2 -31    9.90   44.90
   7  -2 -32   11.46   61.61
   7   3 -33   -6.64   53.36
   7   3 -32  -12.78   25.12
   7   3 -31   11.75   66.54
   3  -7 -31   23.13   33.02
   7   3 -30   18.33   36.66
   3  -7 -30  -21.66   46.95
   7   3 -29   22.47   30.72
   3  -7 -29  173.03  105.13
   7   3 -28   -5.45   23.90
   3  -7 -28   47.61   60.46
   7   3 -27   30.72   32.12
   3  -7 -27   65.70   52.27
   7   3 -26   48.23   48.41
   3  -7 -26  -16.15   54.71
   7   3 -25   63.18   32.41
   3  -7 -25   67.68   72.23
   7   3 -24   19.56   40.99
   3  -7 -24   25.99   25.15
   3  -7 -23   33.67   46.35
   3  -7 -22    2.35   24.79
   3  -7 -21   13.66   33.40
   3  -7 -20  154.97   68.13
   3  -7 -19  154.64   76.85
  -3   7 -19   79.68   30.49
   3  -7 -18   88.04   43.19
  -3   7 -18   59.49   27.82
   3  -7 -17  175.62   72.65
  -3   7 -17   76.14   31.94
   3  -7 -16   22.30   27.61
  -3   7 -16    5.10   12.12
   3  -7 -15  152.56   64.96
  -3   7 -15   96.74   34.63
   3  -7 -14  126.82   59.17
  -3   7 -14   97.65   29.48
   3  -7 -13   22.15   17.38
  -3   7 -13   67.55   26.15
   3  -7 -12  119.29   52.42
  -3   7 -12   65.77   23.31
   3  -7 -11  263.87   71.20
  -3   7 -11  251.61   50.99
   3  -7 -10  166.54   52.20
  -3   7 -10  178.14   44.01
   3  -7  -9  779.04  113.27
  -7   3   9  821.38  147.67
  -3   7  -9  806.09   98.16
   3  -7  -8  229.34   60.59
  -7   3   8   84.81   45.33
  -3   7  -8  152.64   48.57
   3  -7  -7 1020.25  121.33
  -3   7  -7  979.16  115.24
  -7   3   7 1093.98  163.08
   3  -7  -6  137.31   44.71
  -3   7  -6  200.58   53.11
  -7   3   6  112.40   57.89
   3  -7  -5  544.34   81.99
  -3   7  -5  538.27   90.18
  -7   3   5  591.68  113.00
  -3   7  -4  219.99   59.61
   3  -7  -4  351.49   61.94
  -7   3   4  423.86   94.61
  -3   7  -3  131.47   44.71
   3  -7  -3  209.80   48.24
  -7   3   3  275.14   71.78
   3  -7  -2   33.01   20.28
  -7   3   2   77.18   46.25
   3  -7  -1  423.43   58.80
  -7   3   1  423.57   87.35
   3  -7   0  109.26   28.52
  -7   3   0  112.20   44.54
   3  -7   1  455.28   52.74
  -7   3  -1  401.17   80.24
   3  -7   1  403.69   78.88
   3  -7   2   25.18   14.84
  -7   3  -2   74.95   42.02
   3  -7   2    4.66   28.84
   3  -7   3  197.44   28.31
  -7   3  -3  173.86   54.18
   3  -7   3  179.45   45.43
   3  -7   4  294.06   26.35
   3  -7   4  350.47   60.57
  -7   3  -4  336.62   71.18
   3  -7   5  626.60   78.58
  -7  -3   6  137.65   35.40
   3  -7   6  126.51   36.41
  -7  -3   7  944.84  108.19
  -7  -3   8  118.80   36.66
  -7  -3   9  676.17   97.37
  -7  -3  10  205.61   55.98
  -7  -3  11  220.77   59.01
  -7  -3  12  109.99   39.52
  -7  -3  13   47.61   27.13
   3   7 -19   53.00   32.41
   7  -3 -19   93.12   54.06
   3   7 -20   60.68   39.02
   7  -3 -20   33.89   41.92
   7  -3 -21   65.37   47.25
   3   7 -21   62.70   32.76
   7  -3 -22  -16.65   46.86
   3   7 -22   20.28   25.63
   3   7 -23   37.88   26.58
   7  -3 -23  233.53   90.79
   3   7 -24  -13.22   22.93
   7  -3 -24   27.84   47.62
   7  -3 -25   70.92   43.03
   7  -3 -26   38.25   68.65
   7  -3 -27   46.70   56.52
   7  -3 -28   38.36   54.71
   7  -3 -29  -12.14   44.82
   7  -3 -30  -68.81   49.55
   7  -3 -31  100.89   55.02
   7  -3 -32  -89.79   78.89
   7   4 -31   26.73   42.51
   4  -7 -31   38.44   40.51
   7   4 -30   -7.24   35.92
   4  -7 -30  117.43  106.77
   7   4 -29  -50.37   40.44
   4  -7 -29  -37.10   54.20
   7   4 -28   -1.62   37.75
   4  -7 -28  119.62   63.86
   7   4 -27  -16.51   25.19
   4  -7 -27   96.10   91.92
   7   4 -26   82.45   50.83
   4  -7 -26   51.02   59.90
   7   4 -25  -70.63   18.52
   4  -7 -25  147.87   75.90
   4  -7 -24  -32.80   46.10
   4  -7 -23  -41.34   62.98
   4  -7 -22   32.85   26.13
   4  -7 -21   65.45   50.02
   4  -7 -20  -74.21   50.73
  -4   7 -19  123.13   45.97
   4  -7 -19  138.47   71.78
  -4   7 -18  160.40   48.57
   4  -7 -18  214.22   81.24
  -4   7 -17   54.78   32.77
   4  -7 -17   55.17   49.53
   4  -7 -16   72.34   51.61
  -4   7 -16   94.51   38.10
   4  -7 -15    9.87   32.67
  -4   7 -15   56.57   25.39
   4  -7 -14  129.89   54.16
  -4   7 -14  176.83   47.13
   4  -7 -13   46.61   33.36
  -4   7 -13  -15.67   19.09
   4  -7 -12  364.08   88.18
  -4   7 -12  347.40   63.41
   4  -7 -11   11.01   14.77
  -4   7 -11   19.89   20.69
   4  -7 -10  445.57   87.63
  -4   7 -10  386.77   72.81
  -7   4   9  498.38  119.64
   4  -7  -9  583.23   99.11
  -4   7  -9  530.93   86.26
  -7   4   8  -14.05   27.17
   4  -7  -8   15.93   18.92
  -4   7  -8   50.69   32.73
   4  -7  -7  352.79   71.62
  -7   4   7  469.49  115.18
  -4   7  -7  330.00   69.94
   4  -7  -6  130.00   43.85
  -4   7  -6   89.83   41.88
  -7   4   6   13.02   26.21
   4  -7  -5   18.29   13.98
  -7   4   5   75.29   56.14
  -4   7  -5   23.95   20.30
   4  -7  -4   15.49   13.83
  -4   7  -4   23.48   24.66
  -7   4   4   49.32   38.42
   4  -7  -3  628.22   81.55
  -7   4   3  658.20  112.45
  -4   7  -3  548.80   99.85
   4  -7  -2  469.43   69.44
  -4   7  -2  481.49   96.00
  -7   4   2  425.41   94.04
  -4   7  -1  138.08   46.45
   4  -7  -1  182.83   41.50
  -7   4   1  136.59   54.73
   4  -7   0  651.14   69.02
  -4   7   0  634.25  119.91
  -7   4   0  633.58  107.11
   4  -7   1  184.12   34.76
  -7   4  -1  126.08   51.49
   4  -7   2  459.93   49.96
  -7   4  -2  528.99   96.28
   4  -7   3  679.40   55.61
   4  -7   3  602.93   90.25
  -7   4  -3  627.30  103.78
   4  -7   4   88.96   17.80
  -7   4  -4   63.13   28.78
   4  -7   4   72.40   20.12
   4  -7   5   49.32   11.52
   4  -7   5   61.13   30.00
  -7   4  -5   88.22   35.36
  -7   4  -6   60.93   29.17
  -7  -4   7  377.45   68.48
  -7   4  -7  340.98   76.50
  -7  -4   8   34.74   26.47
  -7  -4   9  545.47   83.63
  -7  -4  10  391.90   74.61
  -7  -4  11   49.50   34.70
  -7  -4  12  221.53   60.08
  -7  -4  13   46.57   19.60
   7  -4 -18  133.23   59.85
   7  -4 -19   62.58   38.28
   7  -4 -20   57.47   25.55
   7  -4 -21   49.30   39.45
   4   7 -21   76.07   41.93
   7  -4 -22   53.39   47.63
   4   7 -22   54.84   29.83
   7  -4 -23   70.18   64.37
   4   7 -23   48.13   41.81
   7  -4 -24   77.72   57.67
   4   7 -24   93.29   53.88
   4   7 -25   59.71   29.18
   7  -4 -25   42.51   60.98
   7  -4 -26    0.76   40.53
   7  -4 -27    7.87   31.06
   7  -4 -28   49.27   59.45
   7  -4 -29  136.65   84.46
   7  -4 -30  -36.19   62.96
   7  -4 -31  -20.58   76.42
   7   5 -30  -52.03   55.38
   5  -7 -30   62.40   69.83
   7   5 -29   23.30   33.55
   5  -7 -29  148.59   90.35
   7   5 -28    2.11   21.95
   5  -7 -28   97.87   65.02
   7   5 -27   -5.60   26.07
   5  -7 -27   26.73   43.53
   7   5 -26  -48.95   29.68
   5  -7 -26  -36.15   46.70
   7   5 -25  -36.45   29.43
   5  -7 -25   57.90   62.00
   5  -7 -24   10.40   39.29
   5  -7 -23   28.74   44.31
   5  -7 -22   53.63   57.28
   5  -7 -21   28.72   26.69
  -5   7 -20   86.74   41.45
   5  -7 -20  105.67   63.29
   5  -7 -19  118.24   62.24
  -5   7 -19   38.36   22.65
   5  -7 -18  128.88   66.48
  -5   7 -18  159.81   51.05
   5  -7 -17  185.48   72.69
  -5   7 -17  110.01   50.03
   5  -7 -16   14.23   23.11
  -5   7 -16   44.67   33.99
   5  -7 -15  102.17   54.61
  -5   7 -15  165.28   47.08
   5  -7 -14   56.97   38.49
  -5   7 -14   20.65   30.58
   7  -5  14   23.46   15.84
   5  -7 -13  290.86   76.71
  -5   7 -13  282.63   64.92
   7  -5  13  383.62   60.42
   5  -7 -12   27.19   22.37
  -5   7 -12   23.28   15.58
   7  -5  12   49.19   23.36
   5  -7 -11  426.18   91.06
  -5   7 -11  367.09   75.36
  -5  -7  11  405.76   43.83
   5  -7 -10  312.71   75.86
  -5   7 -10  297.48   67.57
  -5  -7  10  308.40   39.38
   5  -7  -9  192.59   57.43
  -5   7  -9  242.11   62.36
  -7   5   8   49.77   32.50
   5  -7  -8   93.08   38.06
  -5   7  -8   20.44   24.09
  -7   5   7  112.68   57.25
   5  -7  -7  103.31   41.20
  -5   7  -7  122.21   52.93
   5  -7  -6  235.61   57.53
  -7   5   6  129.35   60.62
  -5   7  -6  301.24   71.93
   5  -7  -5   36.02   27.15
  -5   7  -5  102.97   50.61
  -7   5   5   62.94   37.35
  -7   5   4   30.57   32.72
  -5   7  -4   51.31   35.83
  -7   5   3  256.21   81.11
  -5   7  -3  316.93   72.78
  -5   7  -2  550.31  108.89
  -7   5   2  787.04  137.20
  -5   7  -1 1003.12  144.96
  -7   5   1  769.43  134.57
  -7   5   0   38.86   35.24
  -5   7   0    1.88   22.75
  -5   7   1  801.93  135.14
  -7   5  -1  835.59  131.08
  -5   7   2  514.99  114.46
  -7   5  -2  693.92  114.16
  -7   5  -3  243.36   66.67
  -7   5  -4  105.96   55.93
  -7   5  -5   72.03   37.90
  -7   5  -6  166.69   55.27
  -7   5  -7  152.47   53.79
  -7  -5   8  105.18   32.28
  -7   5  -8   64.08   34.16
  -7  -5   9  242.19   56.79
  -7   5  -9  268.54   69.85
   5  -7  10  309.43   25.89
  -7   5 -10  365.78   81.47
  -7  -5  10  417.91   68.87
  -7  -5  11  475.76   80.91
  -7  -5  12   28.97   20.45
  -7  -5  13  254.02   55.75
   7  -5 -16   40.45   43.63
   7  -5 -17  138.36   62.46
   7  -5 -18   66.86   45.62
   7  -5 -19   62.78   47.66
   7  -5 -20   47.61   41.32
   7  -5 -21   76.63   50.92
   7  -5 -22   -7.06   32.75
   5   7 -23   20.44   21.94
   7  -5 -23   66.73   44.06
   5   7 -24    1.57   26.85
   7  -5 -24  -45.54   40.65
   5   7 -25   64.88   50.71
   7  -5 -25   33.87   47.39
   7  -5 -26  102.09   73.85
   7  -5 -27  -20.48   25.07
   7  -5 -28  -88.73   77.88
   7  -5 -29   92.34   59.91
   7  -5 -30  -27.66   49.11
   7  -5 -31   -3.50   83.38
   6  -7 -30   80.36   74.39
   6  -7 -29  -69.64   77.01
   7   6 -28  151.55   81.76
   6  -7 -28  -31.48   55.13
   7   6 -27  -47.80   26.47
   6  -7 -27   45.75   57.91
   7   6 -26   -3.00   35.75
   6  -7 -26   54.36   59.52
   7   6 -25   20.99   32.70
   6  -7 -25  136.44  101.22
   6  -7 -24  -17.08   29.96
   6  -7 -23  -43.90   38.60
   6  -7 -22    6.77   21.33
   6  -7 -21  -16.61   31.60
   6  -7 -20  -40.73   34.50
  -6   7 -20   27.72   31.79
   6  -7 -19   40.41   36.35
  -6   7 -19   63.57   44.16
   6  -7 -18   50.01   34.38
  -6   7 -18   27.25   30.42
   6  -7 -17  116.75   48.04
  -6   7 -17  144.87   49.10
   6  -7 -16   18.71   40.48
  -6   7 -16   87.10   43.44
   7  -6  15   53.91   20.99
   6  -7 -15   40.09   50.29
  -6   7 -15  107.13   44.69
   6  -7 -14    1.81   23.34
  -6   7 -14   95.47   43.54
   7  -6  14   69.78   23.15
   6  -7 -13  106.64   43.32
   7  -6  13  104.71   29.91
  -6   7 -13  176.88   54.60
   6  -7 -12  153.02   63.07
   7  -6  12  126.75   31.75
  -6   7 -12  174.11   62.18
  -6  -7  12  109.84   27.45
   6  -7 -11  615.82  109.62
  -6  -7  11  583.90   67.91
  -6   7 -11  634.14  106.14
   6  -7 -10  182.86   57.20
  -6   7 -10  248.20   67.99
  -6  -7  10  141.19   33.55
   6  -7  -9   15.97   15.67
  -6   7  -9   47.50   34.86
  -6   7  -8   -7.03   25.03
  -6   7  -7   20.74   23.23
  -7   6   6  102.76   54.15
  -6   7  -6  150.06   59.44
  -7   6   5   20.15   41.16
  -6   7  -5   -1.69   20.00
  -6   7  -4  100.83   45.97
  -7   6   4  142.31   62.11
  -6   7  -3  100.56   51.57
  -7   6   3   38.06   44.41
  -6   7  -2  624.01  121.02
  -7   6   2  545.76  119.49
  -6   7  -1  899.74  146.86
  -7   6   1 1015.65  158.69
  -6   7   0  527.92  115.51
  -7   6   0  361.36   97.88
  -7   6  -1 1032.06  157.36
  -6   7   1  933.14  154.39
  -6   7   2  610.33  123.40
  -7   6  -2  519.14  110.06
  -6   7   3   80.88   60.77
  -7   6  -3   36.62   26.86
  -6   7   4   46.45   46.60
  -7   6  -4  179.49   66.44
  -7   6  -5   19.08   20.23
  -7   6  -6  231.75   64.09
  -7   6  -7   47.60   33.74
  -7   6  -8  -46.52   30.17
  -7   6  -9   16.84   17.77
  -7  -6   9   77.95   34.43
  -7   6 -10  267.51   71.57
  -7  -6  10  203.48   47.30
   6  -7  10  163.16   25.46
   6  -7  11  559.03   49.61
  -7  -6  11  630.86   82.13
  -7   6 -11  540.77   98.05
   6  -7  12   93.93   21.54
  -7   6 -12  117.44   45.80
  -7  -6  12   83.52   29.28
   6  -7  13  107.68   27.14
  -7   6 -13   86.45   40.54
  -7  -6  13   95.83   32.59
   7  -6 -14  102.11   49.14
   6  -7  14  115.51   26.85
  -7   6 -14  102.00   41.94
   7  -6 -15  107.87   59.16
   7  -6 -16   68.12   52.79
   7  -6 -17  123.69   60.67
   7  -6 -18   51.08   45.30
   7  -6 -19   97.99   56.13
   7  -6 -20   26.75   32.81
   7  -6 -21   42.87   48.75
   7  -6 -22  -35.18   44.80
   7  -6 -23   91.81   47.43
   7  -6 -24   77.33   52.54
   6   7 -24   62.15   40.19
   7  -6 -25    5.87   56.03
   6   7 -25   11.75   18.90
   7  -6 -26   44.39   63.74
   6   7 -26  -15.72   27.71
   7  -6 -27  -10.57   41.05
   7  -6 -28  -25.32   58.85
   7  -6 -29  -22.60   31.75
   7  -6 -30   32.46   41.58
  -7   7   0   23.15   30.69
  -7   7   1  772.44  148.19
  -7   7  -1  705.81  128.36
  -7   7  -2  486.97  111.43
  -7   7   2  336.64  100.58
  -7   7   3  -37.79   43.89
  -7   7  -3   28.28   44.87
  -7   7   4  162.65   75.53
  -7   7  -4   59.58   50.04
  -7   7   5   99.49   55.75
  -7   7  -5    8.39   28.27
  -7   7  -6   95.83   54.54
  -7   7  -7   49.64   32.31
  -7   7  -8   99.29   40.65
  -7   7  -9   90.76   47.92
  -7  -7   9   78.63   37.01
  -7   7 -10  263.71   75.98
  -7  -7  10  312.32   56.28
  -7   7 -11  317.64   83.02
  -7  -7  11  278.47   53.55
   7  -7 -12   81.22   45.28
   7  -7  12   69.29   17.36
  -7   7 -12   55.40   36.14
  -7  -7  12   45.94   23.08
   7  -7 -13  171.52   66.99
   7  -7  13  185.34   34.65
  -7   7 -13  215.80   68.17
  -7  -7  13  215.76   47.20
   7  -7  14   -7.31   10.11
   7  -7 -14  -17.08   34.60
  -7   7 -14  -12.25   26.15
   7  -7 -15  159.41   58.44
  -7   7 -15  260.22   71.74
   7  -7 -16   59.23   43.78
  -7   7 -16   25.08   28.64
   7  -7 -17    6.89   19.54
  -7   7 -17    6.46   28.89
   7  -7 -18   94.97   48.30
  -7   7 -18   62.35   41.44
   7  -7 -19   11.64   26.96
  -7   7 -19   49.45   38.02
   7  -7 -20   37.96   40.26
  -7   7 -20   25.15   21.87
   7  -7 -21   51.27   56.23
   7  -7 -22   40.51   30.16
   7  -7 -23   26.06   36.74
   7  -7 -24   -8.58   24.04
   7  -7 -25  264.16  112.86
   7   7 -26  -42.38   43.30
   7  -7 -26   16.20   28.60
   7  -7 -27    9.37   38.58
   7  -7 -28  -92.32   80.98
   7  -7 -29   89.15   57.70
   0   8   0 1123.82   90.44
  -8   0   1  338.35   72.58
   0   8   1  225.48   43.87
   0   8  -1  282.59   44.01
  -8   0   2  101.40   39.48
   0   8  -2  160.24   32.89
   0   8   2  153.80   40.03
   0   8  -3 1295.46   83.59
  -8   0   3 1129.08  135.06
   0  -8   4   21.15   22.18
   0   8  -4   37.13   18.38
  -8   0   4   60.15   35.04
   0  -8  -5    6.87   19.99
  -8   0   5   -6.39   28.11
   0  -8   5  -29.12   22.76
   0  -8  -6 1193.61  130.69
  -8   0   6 1228.37  147.47
   0  -8   6 1058.09   96.58
   0  -8  -7   88.62   36.65
   0  -8   7   59.43   19.89
  -8   0   7   23.78   33.07
   0  -8  -8   65.46   37.82
   0  -8   8   86.22   22.83
  -8   0   8   63.25   55.76
   0  -8  -9   19.80   26.57
  -8   0   9   31.52   42.66
   0  -8 -10  108.69   51.13
  -8   0  10   59.03   47.67
   0  -8 -11  157.44   58.15
  -8   0  11   94.23   48.85
   0  -8 -12  155.45   60.38
  -8   0  12  184.41   62.09
   0   8 -12  149.62   28.27
   0  -8 -13   59.46   42.21
   0   8 -13   20.96   11.94
  -8   0  13   -6.24   23.26
   0  -8 -14  140.08   60.36
   0   8 -14  157.10   33.46
   0  -8 -15   -8.00   33.22
   0   8 -15   24.55   14.62
   0  -8 -16   98.94   49.62
   0   8 -16   71.59   28.58
   0   8 -17  -12.88   19.97
   0  -8 -17   45.89   27.87
   0  -8 -18   -3.58   25.55
   0   8 -18   24.86   24.74
   0  -8 -19   19.77   51.58
   0   8 -19   51.40   30.07
   0  -8 -20   31.81   41.26
   0   8 -20   16.36   27.63
   0  -8 -21   31.75   37.79
   0  -8 -22  -50.87   50.30
   0  -8 -23   64.20   29.01
   8   0 -23  -16.39   28.16
   0  -8 -24   46.34   41.64
   8   0 -24   61.53   58.24
   0  -8 -25   35.32   39.95
   8   0 -25   17.91   41.33
   0  -8 -26  -25.61   44.11
   8   0 -26   17.22   23.87
   0  -8 -27  100.08   82.15
   8   0 -27   47.17   26.37
   0  -8 -28   47.77   64.28
   8   0 -28   94.48   65.20
   0  -8 -29   42.70   74.92
   8   0 -29   29.67   29.21
   8   0 -30  -38.20   62.24
   8   0 -31  -61.65   77.86
   8   0 -32   44.18   65.12
   8   1 -33  -25.89   48.21
   8   1 -32  -69.20   62.98
   1  -8 -31   40.95   78.79
   8   1 -31  -80.31   67.06
   1  -8 -30  137.05  116.63
   8   1 -30   47.64   42.18
   1  -8 -29  130.58   99.16
   8   1 -29   90.81   37.48
   1  -8 -28  -27.40   36.65
   8   1 -28   69.86   50.24
   1  -8 -27    1.77   44.70
   8   1 -27   89.79   67.41
   1  -8 -26  -12.53   27.75
   8   1 -26   12.29   23.67
   1  -8 -25   42.56   45.89
   8   1 -25  -13.92   42.74
   1  -8 -24  102.93   87.72
   8   1 -24   73.61   52.67
   1  -8 -23  109.80   79.20
   1  -8 -22  123.74   87.92
   1  -8 -21  -71.76   52.70
   1  -8 -20  -12.01   31.82
   1  -8 -19  -29.61   33.60
  -1   8 -19   44.34   28.00
  -1   8 -18   32.06   25.11
   1  -8 -18   56.61   53.81
   1  -8 -17   33.69   46.71
  -1   8 -17   55.84   30.51
  -1   8 -16   38.25   14.50
   1  -8 -16  122.90   61.57
  -1   8 -15   59.35   23.65
   1  -8 -15   69.87   58.73
  -1   8 -14  111.22   25.61
   1  -8 -14  106.97   62.58
   1  -8 -13   66.75   40.39
  -1   8 -13    0.68    6.26
   1  -8 -12  136.97   57.20
  -1   8 -12   87.52   15.08
  -8   1  12   68.91   39.33
   1  -8 -11  324.43   83.86
  -8   1  11  321.94   90.40
   1  -8 -10  379.69   85.26
  -8   1  10  442.45  106.08
   1  -8  -9   48.62   33.40
  -8   1   9   34.66   38.95
   1  -8  -8  138.25   45.72
  -1  -8   8  160.08   27.88
  -8   1   8  233.29   67.64
   1  -8  -7   72.50   39.64
  -8   1   7  192.66   72.32
  -1  -8   7   57.57   21.90
   1  -8  -6   17.35   20.20
  -8   1   6  -17.44   31.61
  -1  -8   6   55.16   25.10
  -1   8  -5  449.23   34.61
  -8   1   5  303.86   74.63
   1  -8  -5  489.69   80.43
  -1   8  -4  403.60   38.73
  -8   1   4  397.99   83.80
   1  -8  -4  409.05   69.25
  -1   8  -3  632.93   53.47
   1  -8  -3  660.47   83.57
  -8   1   3  760.88  117.25
  -1   8  -2  416.22   47.51
  -8   1   2  354.48   75.90
   1  -8  -2  295.69   54.38
   1   8   2  316.27   57.80
  -1   8  -1  390.70   48.17
  -8   1   1  408.23   79.82
   1   8   1  382.10   58.62
  -1   8   0  361.02   51.58
  -8   1   0  340.69   73.91
   1   8   0  326.42   52.30
   1   8  -1  369.88   52.90
   1  -8   1  436.01   85.48
  -1   8   1  416.57   58.76
   1  -8   2  367.81   75.04
  -1   8   2  336.10   54.98
  -1   8   3  684.13   81.86
  -8  -1   3  604.29   96.35
   1  -8   3  546.68   84.05
  -8  -1   4  408.25   80.15
   1  -8   4  416.69   69.90
  -8  -1   5  396.62   80.94
   1  -8   5  426.30   68.84
  -8  -1   6   19.53   28.08
   1  -8   6   17.16   18.25
  -8  -1   7  159.54   58.81
   1  -8   7   80.84   26.61
   1  -8   8  164.40   30.60
  -8  -1   8  165.24   53.98
  -8  -1   9    0.48   22.94
  -1  -8 -10  372.66   86.78
  -8  -1  10  399.54   90.70
  -1  -8 -11  333.79   85.89
  -8  -1  11  256.11   78.58
  -1  -8 -12  128.07   58.34
  -8  -1  12  144.97   61.54
  -1  -8 -13   73.49   51.05
  -8  -1  13   78.19   25.74
  -1  -8 -14  184.66   72.30
  -1  -8 -15   47.38   40.89
   1   8 -15   28.24   13.46
  -1  -8 -16  119.74   63.94
   1   8 -16   42.87   30.24
  -1  -8 -17    2.96   33.78
   1   8 -17   45.23   32.29
  -1  -8 -18   25.97   18.87
   1   8 -18    3.12   11.63
  -1  -8 -19   95.54   69.26
   1   8 -19  -12.25   14.90
  -1  -8 -20   71.40   72.50
   1   8 -20   -2.55   21.19
   1   8 -21   18.29   25.60
  -1  -8 -21   12.37   30.90
  -1  -8 -22  140.00   87.69
  -1  -8 -23  199.81   99.86
   8  -1 -23   86.20   59.69
   8  -1 -24   28.16   35.09
   8  -1 -25  -27.88   25.92
   8  -1 -26   40.99   57.10
   8  -1 -27   40.49   45.68
   8  -1 -28   78.66   57.35
   8  -1 -29  -16.66   52.79
   8  -1 -30  -63.41   65.92
   8  -1 -31   72.48   42.52
   8  -1 -32   22.21   25.08
   8   2 -33   12.97   32.51
   8   2 -32   26.73   59.32
   2  -8 -31  -48.26   40.64
   8   2 -31   25.28   26.17
   2  -8 -30   18.60   59.13
   8   2 -30   10.11   23.32
   2  -8 -29    6.22   44.87
   8   2 -29   63.58   72.11
   2  -8 -28    7.92   27.75
   8   2 -28   87.12   56.21
   2  -8 -27  -75.11   70.11
   8   2 -27   40.76   35.27
   2  -8 -26   44.91   76.73
   8   2 -26   54.52   41.92
   2  -8 -25   73.82   53.58
   8   2 -25    7.66   40.91
   2  -8 -24  -34.96   45.16
   2  -8 -23   -8.19   37.87
   2  -8 -22  240.13   96.11
   2  -8 -21   27.53   46.89
   2  -8 -20  -31.21   33.29
   2  -8 -19   56.92   40.27
   2  -8 -18   70.19   61.76
   2  -8 -17   95.52   56.90
  -2   8 -17    4.23   14.72
   2  -8 -16   58.96   54.42
  -2   8 -16    5.02   16.40
   2  -8 -15  151.33   69.10
  -2   8 -15   37.36   16.81
   2  -8 -14   44.05   38.71
  -2   8 -14   27.01   17.97
   2  -8 -13   71.49   47.92
  -2   8 -13   64.77   27.51
   2  -8 -12   97.90   47.77
  -2   8 -12   62.66   31.61
   2  -8 -11  152.05   58.54
  -8   2  11  151.04   61.62
  -2   8 -11  171.46   44.36
   2  -8 -10  642.00  110.35
  -8   2  10  627.32  131.67
   2  -8  -9  333.90   74.90
  -8   2   9  225.60   81.10
   2  -8  -8   73.74   36.92
  -8   2   8   -3.55   25.90
  -2  -8   8   33.00   14.24
   2  -8  -7  524.27   89.48
  -8   2   7  517.84  117.84
   2  -8  -6 1118.90  125.27
  -8   2   6 1026.64  150.58
   2  -8  -5  376.07   71.06
  -8   2   5  226.58   71.15
   2  -8  -4    4.33   17.12
  -8   2   4  -18.93   17.81
   2  -8  -3 1126.32  110.08
  -8   2   3 1011.82  139.99
   2  -8  -2   65.23   28.05
  -8   2   2   71.98   42.70
   2  -8  -1  144.45   35.33
  -8   2   1  187.97   58.35
   2  -8   0   28.38   16.64
  -8   2   0   46.71   31.69
   2  -8   1  197.72   35.17
  -8   2  -1  155.59   51.98
   2  -8   1  158.82   46.28
  -8   2  -2   86.09   47.14
   2  -8   2   53.68   20.26
   2  -8   3 1100.57  120.95
  -8  -2   4   21.23   30.16
   2  -8   4   28.76   24.95
  -8  -2   5  327.50   74.23
   2  -8   5  424.67   67.08
  -8  -2   6 1057.96  126.92
   2  -8   6 1085.54  101.74
   2  -8   7  508.37   67.29
  -8  -2   7  488.16   87.76
  -8  -2   8   59.94   29.06
  -8  -2   9  473.85   94.76
  -8  -2  10  533.10  100.88
  -8  -2  11  109.86   61.48
  -8  -2  12   51.15   33.24
  -8  -2  13   94.14   49.15
   2   8 -18   30.73   25.73
   2   8 -19   59.10   27.75
   2   8 -20    2.72   21.89
   2   8 -21   92.53   41.66
   2   8 -22   99.27   43.91
   8  -2 -22  177.28   77.94
   8  -2 -23   23.50   49.28
   8  -2 -24  -64.50   40.46
   8  -2 -25   18.47   54.30
   8  -2 -26   -7.61   42.37
   8  -2 -27   36.28   66.21
   8  -2 -28   12.60   30.00
   8  -2 -29    2.27   34.09
   8  -2 -30   37.53   73.92
   8  -2 -31  -61.57   66.87
   8  -2 -32  106.72   46.04
   8   3 -33  -64.91   52.59
   8   3 -32   49.46   57.20
   8   3 -31  -23.08   27.85
   8   3 -30   -4.96   30.52
   3  -8 -30   46.00   46.95
   8   3 -29   62.26   52.33
   3  -8 -29   -2.60   31.04
   8   3 -28   67.67   63.87
   3  -8 -28   94.69   75.56
   8   3 -27  -31.04   32.16
   3  -8 -27   62.56   77.84
   8   3 -26   13.01   48.18
   3  -8 -26   -0.91   68.07
   8   3 -25   20.11   41.98
   3  -8 -25  -30.39   34.35
   3  -8 -24   41.47   44.88
   3  -8 -23  149.69   83.54
   3  -8 -22   50.39   56.40
   3  -8 -21  -12.58   32.77
   3  -8 -20   79.53   61.61
   3  -8 -19   24.21   35.17
   3  -8 -18   76.41   41.50
  -3   8 -18   50.50   30.61
   3  -8 -17  105.36   66.98
  -3   8 -17   16.22   17.57
   3  -8 -16   44.51   38.25
  -3   8 -16   82.88   37.16
   3  -8 -15    8.94   27.17
  -3   8 -15   78.08   31.19
   3  -8 -14   -7.75   18.57
  -3   8 -14   -2.97   16.29
   3  -8 -13   80.25   48.03
  -3   8 -13   18.01   17.92
   3  -8 -12   60.82   21.64
  -3   8 -12   61.66   29.07
   3  -8 -11   -3.10   16.72
  -8   3  11   -7.44   34.90
  -3   8 -11  -13.38   20.65
   3  -8 -10  299.85   75.47
  -8   3  10  311.39   88.85
  -3   8 -10  417.99   74.31
   3  -8  -9   58.05   31.90
  -8   3   9   67.36   60.27
  -3   8  -9   62.99   34.94
   3  -8  -8  455.90   87.12
  -3   8  -8  493.30   85.36
  -8   3   8  444.47  106.94
   3  -8  -7  508.30   90.35
  -3   8  -7  529.57   93.79
  -8   3   7  607.57  124.40
  -3   8  -6  597.28   97.88
   3  -8  -6  590.39   94.54
  -8   3   6  810.43  141.19
   3  -8  -5   54.54   29.78
  -8   3   5   47.17   41.54
   3  -8  -4  464.95   74.48
  -8   3   4  556.81  114.38
   3  -8  -3  119.91   39.56
  -8   3   3  108.17   58.95
   3  -8  -2  522.32   71.45
  -8   3   2  477.78   96.19
  -8   3   1  340.08   84.44
   3  -8  -1  387.16   61.06
  -8   3   0   20.61   26.53
   3  -8   0   30.71   21.11
  -8   3  -1  328.40   80.17
   3  -8   1  336.71   47.37
   3  -8   2  521.53   55.09
  -8   3  -2  481.56   93.79
   3  -8   3   90.41   22.14
  -8   3  -3  133.12   53.28
   3  -8   3  138.76   47.49
  -8   3  -4  417.29   84.80
   3  -8   4  525.81   81.15
  -8  -3   5   -5.42   17.32
  -8   3  -5  109.73   47.51
   3  -8   5   25.98   23.39
  -8  -3   6  725.66   99.86
   3  -8   6  703.36   85.73
  -8  -3   7  583.04   90.35
   3  -8   7  576.31   74.18
  -8  -3   8  405.96   79.99
  -8  -3   9   34.85   14.71
  -8  -3  10  300.08   75.19
  -8  -3  11   -5.14   18.37
  -8  -3  12   37.25   40.32
  -8  -3  13   21.80   29.28
  -8  -3  14   53.07   40.05
   3   8 -20   67.48   35.53
   8  -3 -20  110.45   55.47
   3   8 -21   24.38   31.25
   8  -3 -21    2.33   41.40
   8  -3 -22   81.05   51.17
   3   8 -22   95.39   46.74
   8  -3 -23    8.39   30.43
   8  -3 -24   66.02   73.24
   8  -3 -25   -8.42   32.95
   8  -3 -26   24.72   33.57
   8  -3 -27   79.83   66.39
   8  -3 -28   48.96   54.72
   8  -3 -29  -29.22   56.42
   8  -3 -30  106.78   84.86
   8  -3 -31   -3.27   43.97
   8   4 -31  -45.79   41.36
   8   4 -30   65.64   61.75
   4  -8 -30   48.75   42.31
   8   4 -29  153.31   79.21
   4  -8 -29    8.13   65.06
   8   4 -28  -34.95   49.43
   4  -8 -28  -10.37   43.28
   8   4 -27   -5.66   40.59
   4  -8 -27  163.12   88.35
   8   4 -26   69.69   49.79
   4  -8 -26  147.96  108.80
   4  -8 -25   47.56   55.57
   4  -8 -24  -38.14   44.62
   4  -8 -23  -33.94   73.97
   4  -8 -22  -78.29   70.05
   4  -8 -21   36.83   47.43
   4  -8 -20  116.15   83.61
   4  -8 -19   10.72   27.59
   4  -8 -18   32.67   41.30
  -4   8 -18   15.37   20.56
   4  -8 -17   82.60   53.65
  -4   8 -17    9.81   18.20
   4  -8 -16  147.27   65.39
  -4   8 -16  128.46   51.33
   4  -8 -15    8.60   29.24
  -4   8 -15   28.29   25.10
   4  -8 -14   45.75   47.00
  -4   8 -14   79.21   37.37
   4  -8 -13    0.26   32.91
  -4   8 -13   18.56   15.39
   4  -8 -12  182.92   62.09
  -4   8 -12  157.10   48.42
   4  -8 -11   99.67   45.62
  -4   8 -11   85.10   40.01
  -8   4  10  102.17   53.14
   4  -8 -10   27.86   24.90
  -4  -8  10   38.24   12.02
  -4   8 -10   14.98   19.15
   4  -8  -9  148.47   54.16
  -8   4   9  230.67   87.61
  -4   8  -9  208.03   59.07
   4  -8  -8  883.64  122.25
  -4   8  -8  764.18  113.17
  -8   4   8  902.55  164.63
   4  -8  -7   30.10   25.94
  -8   4   7   42.80   43.16
  -4   8  -7   70.13   42.32
   4  -8  -6   61.34   29.69
  -4   8  -6   44.99   30.94
  -8   4   6   51.10   35.74
   4  -8  -5  194.96   52.11
  -8   4   5  168.16   70.86
  -4   8  -5  216.09   68.00
  -4   8  -4  278.93   75.92
   4  -8  -4  323.09   66.30
  -8   4   4  313.84   93.80
  -4   8  -3  276.98   78.25
   4  -8  -3  234.65   53.21
  -8   4   3  264.33   78.07
   4  -8  -2  102.24   34.11
  -8   4   2   48.78   39.26
   4  -8  -1  287.04   52.04
  -8   4   1  310.24   86.98
   4  -8   0   94.88   30.24
  -8   4   0   41.35   29.74
   4  -8   1  254.87   43.09
  -8   4  -1  253.39   73.02
   4  -8   2  104.65   26.53
  -8   4  -2   90.44   41.95
   4  -8   3  237.29   35.55
  -8   4  -3  154.08   55.30
   4  -8   4  360.72   37.29
  -8   4  -4  372.07   81.42
   4  -8   5  184.62   21.14
  -8   4  -5  263.76   67.61
   4  -8   6   85.96   34.65
  -8   4  -6   91.52   38.05
  -8   4  -7   43.04   27.76
  -8  -4   7   61.79   33.62
  -8  -4   8  978.12  116.72
  -8  -4   9  216.32   58.66
  -8  -4  10   53.48   22.76
  -8  -4  11   90.58   42.52
  -8  -4  12  141.34   51.73
  -8  -4  13   35.68   33.31
  -8  -4  14   63.38   32.86
   8  -4 -19   37.35   37.58
   8  -4 -20  203.65   81.34
   8  -4 -21   62.31   51.47
   8  -4 -22  -51.50   51.04
   4   8 -22  -22.13   17.86
   4   8 -23   26.32   35.33
   8  -4 -23  101.34   63.25
   8  -4 -24  122.83   77.53
   8  -4 -25   34.12   43.95
   8  -4 -26    0.25   42.45
   8  -4 -27  100.05   51.91
   8  -4 -28    3.63   60.50
   8  -4 -29  121.01   64.82
   8  -4 -30   33.66   62.46
   8  -4 -31  -13.88   42.16
   8   5 -30   17.68   28.10
   5  -8 -30  222.75  101.25
   8   5 -29  102.61   73.37
   5  -8 -29   -5.31   77.47
   8   5 -28    9.99   23.19
   5  -8 -28   10.54   40.60
   8   5 -27  -22.17   29.40
   5  -8 -27  -27.92   62.11
   8   5 -26   60.92   47.06
   5  -8 -26  -49.39   62.69
   5  -8 -25  -16.24   38.15
   5  -8 -24   -9.56   27.71
   5  -8 -23   64.51   63.86
   5  -8 -22   44.78   25.28
   5  -8 -21  174.75   73.03
   5  -8 -20  -10.99   29.41
  -5   8 -19   50.44   34.59
   5  -8 -19   74.22   42.30
  -5   8 -18   54.85   35.62
   5  -8 -18   90.30   55.85
   5  -8 -17   17.78   51.92
  -5   8 -17   48.32   27.32
   5  -8 -16  122.89   49.12
  -5   8 -16   72.03   31.21
   5  -8 -15   38.98   28.02
  -5   8 -15   59.91   41.14
   5  -8 -14  128.00   48.11
  -5   8 -14  199.26   55.38
   5  -8 -13   31.35   34.04
  -5   8 -13   30.13   25.86
   5  -8 -12   41.47   41.77
  -5   8 -12   17.55   21.87
   5  -8 -11  -14.55   28.61
  -5  -8  11   26.91   11.17
  -5   8 -11    9.58   18.79
   5  -8 -10   44.47   32.68
  -5  -8  10   29.02   19.42
  -5   8 -10   29.23   27.61
   5  -8  -9  551.05  101.56
  -8   5   9  390.30  112.55
  -5   8  -9  461.87   89.60
  -8   5   8   64.41   42.24
   5  -8  -8  108.12   51.37
  -5   8  -8  142.91   51.56
   5  -8  -7  307.64   67.97
  -5   8  -7  274.21   68.93
  -8   5   7  324.49  103.03
   5  -8  -6   29.43   17.47
  -5   8  -6   24.23   30.57
  -8   5   6   53.17   30.80
   5  -8  -5   19.55   22.76
  -8   5   5   -8.50   32.60
  -5   8  -5   43.72   24.59
   5  -8  -4   40.81   23.37
  -8   5   4   31.95   36.34
  -5   8  -4   39.28   44.19
   5  -8  -3  420.49   72.11
  -8   5   3  377.96  106.71
  -5   8  -3  311.36   85.19
   5  -8  -2  624.25   83.57
  -8   5   2  680.08  132.08
  -5   8  -2  477.30  102.46
  -5   8  -1   87.26   52.38
   5  -8  -1   55.41   26.37
  -8   5   1   88.97   56.55
  -5   8   0  497.42  113.76
   5  -8   0  557.24   71.71
  -8   5   0  469.73  104.34
   5  -8   1   48.50   23.06
  -8   5  -1  130.92   59.41
   5  -8   2  659.31   67.89
  -8   5  -2  668.51  120.54
  -8   5  -3  317.82   81.08
  -8   5  -4   51.02   29.24
  -8   5  -5   12.85   28.76
  -8   5  -6   58.27   35.16
  -8   5  -7  243.26   69.23
  -8   5  -8   94.57   46.36
  -8  -5   8  113.71   40.24
  -8   5  -9  612.41  109.60
  -8  -5   9  528.02   89.77
  -8  -5  10   38.00   21.05
  -8   5 -10   52.94   27.51
  -8  -5  11   39.15   31.64
  -8  -5  12   50.19   35.12
  -8  -5  13    5.94   21.22
  -8  -5  14  203.56   63.15
   8  -5 -18   58.02   53.98
   8  -5 -19  117.02   65.60
   8  -5 -20   -0.07   43.16
   8  -5 -21   61.84   26.23
   8  -5 -22   81.48   64.64
   8  -5 -23  -10.90   36.32
   5   8 -23  -19.16   32.41
   8  -5 -24   39.02   46.61
   5   8 -24  -39.61   36.21
   8  -5 -25    8.26   36.55
   8  -5 -26   -8.09   38.43
   8  -5 -27   61.98   74.30
   8  -5 -28   -0.38   29.98
   8  -5 -29  -81.76   74.86
   8  -5 -30   29.10   54.51
   6  -8 -29   90.34   63.55
   8   6 -28   50.62   52.97
   6  -8 -28 -109.72   89.18
   8   6 -27   35.99   48.72
   6  -8 -27   -6.63   50.36
   6  -8 -26  -13.21   39.56
   6  -8 -25  -66.08   64.86
   6  -8 -24   10.94   28.68
   6  -8 -23  130.32   67.14
   6  -8 -22   33.06   40.83
   6  -8 -21   36.92   42.65
   6  -8 -20  -42.96   35.66
   6  -8 -19   -4.22   25.23
  -6   8 -19   11.48   32.58
   6  -8 -18   27.34   26.48
  -6   8 -18   29.87   26.80
   6  -8 -17   61.79   28.07
  -6   8 -17    9.79   21.58
   6  -8 -16   25.66   33.55
  -6   8 -16   87.83   49.43
   6  -8 -15   89.37   52.35
  -6   8 -15   14.46   17.29
   6  -8 -14  238.48   82.55
  -6   8 -14  184.20   63.73
   8  -6  14  252.97   51.21
   6  -8 -13   12.58   22.79
   8  -6  13   23.66   12.06
  -6   8 -13   50.84   33.36
   6  -8 -12   88.82   52.92
  -6   8 -12   15.40   28.77
  -6  -8  12    2.77   13.71
   6  -8 -11   32.33   23.21
  -6  -8  11   12.39   15.15
  -6   8 -11   17.38   18.09
   6  -8 -10  246.90   73.92
  -6  -8  10  171.58   36.71
  -6   8 -10  264.37   73.69
   6  -8  -9   71.57   35.24
  -6   8  -9   72.12   44.41
  -8   6   8  333.92  116.15
   6  -8  -8  386.12   82.01
  -6   8  -8  437.20   94.48
  -8   6   7  -33.97   46.48
   6  -8  -7    8.93   23.53
  -6   8  -7   28.25   23.94
  -8   6   6  141.15   73.68
   6  -8  -6  149.84   48.67
  -6   8  -6  121.24   52.80
  -6   8  -5   64.36   49.44
  -8   6   5  145.70   74.00
  -6   8  -4  111.77   52.76
  -8   6   4  196.42   88.07
  -6   8  -3  243.14   84.30
  -8   6   3  108.70   61.72
  -8   6   2 1546.65  205.87
  -6   8  -2 1735.22  207.46
  -6   8  -1   63.47   43.70
  -8   6   1   93.64   63.19
  -6   8   0  383.28  105.39
  -8   6   0  548.15  120.31
  -6   8   1  -27.44   40.32
  -8   6  -1   -8.47   29.99
  -8   6  -2 1595.22  195.39
  -6   8   2 1538.34  212.68
  -8   6  -3  169.42   71.61
  -8   6  -4   85.10   45.24
  -8   6  -5   12.00   18.73
  -8   6  -6   99.42   48.63
  -8   6  -7   56.58   42.91
  -8  -6   8  483.33   80.95
  -8   6  -8  453.94   97.64
  -8   6  -9  102.45   50.98
  -8  -6   9  101.65   39.01
  -8  -6  10  287.24   59.07
  -8   6 -10  279.04   78.24
  -8  -6  11  -15.00   24.13
  -8   6 -11   18.06   31.46
  -8   6 -12   70.90   45.35
  -8  -6  12   24.10   19.17
  -8   6 -13   32.56   36.35
  -8  -6  13   13.73   15.88
  -8   6 -14  262.43   81.28
  -8  -6  14  241.60   62.12
  -8   6 -15   63.17   43.25
   8  -6 -16   51.81   52.56
   8  -6 -17   35.74   23.73
   8  -6 -18   31.78   44.47
   8  -6 -19   -0.78   31.52
   8  -6 -20   32.01   26.66
   8  -6 -21  -53.11   42.78
   8  -6 -22   81.30   70.31
   8  -6 -23   41.67   59.04
   8  -6 -24   36.87   47.17
   8  -6 -25   -3.56   58.02
   8  -6 -26   14.09   61.06
   8  -6 -27   59.56   69.36
   8  -6 -28   47.51   55.73
   8  -6 -29  -21.54   43.54
   7  -8 -29   27.42   32.66
   7  -8 -28  135.32   98.80
   8   7 -27   -5.58   45.00
   7  -8 -27  -65.48   50.18
   7  -8 -26   26.67   49.85
   7  -8 -25   48.87   55.32
   7  -8 -24  -13.86   28.20
   7  -8 -23  -16.48   63.56
   7  -8 -22   60.27   63.26
   7  -8 -21  -52.65   40.76
   7  -8 -20   69.93   52.92
   7  -8 -19   44.98   58.03
  -7   8 -19   19.70   25.09
   7  -8 -18   61.69   51.13
  -7   8 -18   69.86   30.66
   7  -8 -17  -22.06   41.42
  -7   8 -17   21.90   25.14
   7  -8 -16   90.65   61.03
  -7   8 -16   10.58   30.89
   7  -8 -15   34.26   39.45
  -7   8 -15   81.27   45.51
   7  -8 -14  122.07   55.34
  -7   8 -14  105.76   54.60
   7  -8 -13   60.11   42.53
   8  -7  13   38.41   15.59
  -7   8 -13   -9.44   28.25
  -7  -8  13   41.28   13.25
   7  -8 -12   56.35   33.67
  -7   8 -12   54.96   28.34
  -7  -8  12  106.38   37.08
   7  -8 -11   77.86   34.73
  -7  -8  11   65.74   26.35
  -7   8 -11  -18.65   27.29
   7  -8 -10   53.82   35.68
  -7  -8  10   79.87   32.04
  -7   8 -10   63.99   33.70
   7  -8  -9  275.39   74.58
  -7   8  -9  281.13   83.73
  -7   8  -8   62.45   36.41
  -7   8  -7   85.86   57.28
  -8   7   6  -35.23   43.70
  -7   8  -6   32.25   31.51
  -8   7   5  144.77   80.16
  -7   8  -5   15.87   27.01
  -8   7   4  119.66   82.02
  -7   8  -4  136.81   65.96
  -7   8  -3  145.78   65.69
  -8   7   3  332.61  107.99
  -8   7   2  643.03  142.28
  -7   8  -2  578.86  127.14
  -8   7   1   68.68   43.73
  -7   8  -1  -21.87   33.76
  -7   8   0  418.68  116.27
  -8   7   0  468.74  109.73
  -7   8   1   35.53   27.71
  -8   7  -1   58.69   37.51
  -7   8   2  587.83  137.84
  -8   7  -2  713.94  142.66
  -7   8   3  217.41   85.38
  -8   7  -3  305.55   90.90
  -7   8   4   53.07   54.90
  -8   7  -4   93.92   66.11
  -8   7  -5   92.67   50.72
  -8   7  -6    8.66   23.52
  -8   7  -7  158.05   61.64
  -8   7  -8   28.52   40.29
  -8   7  -9  384.17   91.23
  -8  -7   9  320.72   67.36
  -8  -7  10   77.08   25.85
  -8   7 -10   38.80   30.31
  -8  -7  11   32.94   12.51
  -8   7 -11   49.25   44.24
   7  -8  11   39.64   14.61
   7  -8  12   75.53   19.37
  -8  -7  12   59.50   24.50
  -8   7 -12   58.48   39.93
   7  -8  13   77.49   19.95
  -8   7 -13   99.41   46.12
  -8  -7  13   77.25   35.66
   8  -7 -14  106.18   42.46
  -8   7 -14  130.89   57.79
  -8  -7  14  118.52   39.65
   8  -7 -15   36.24   35.35
  -8   7 -15   40.33   33.10
   8  -7 -16   81.39   51.11
  -8   7 -16   50.67   46.02
   8  -7 -17   15.79   23.32
  -8   7 -17   58.91   46.55
   8  -7 -18   92.12   58.49
  -8   7 -18  129.45   57.50
   8  -7 -19   14.24   22.60
  -8   7 -19   56.31   55.50
   8  -7 -20   36.05   48.46
  -8   7 -20  -41.79   21.45
   8  -7 -21   44.05   46.72
  -8   7 -21   39.39   49.02
   8  -7 -22  -17.89   55.36
   8  -7 -23    7.61   35.80
   8  -7 -24   39.00   43.43
   8  -7 -25  -75.28   53.40
   8  -7 -26   65.77   80.22
   8  -7 -27   83.80   85.00
   8  -7 -28  111.03   91.23
   8  -7 -29  -18.84   58.81
  -8   8   0   98.50   60.85
  -8   8   1  217.58   82.12
  -8   8  -1  234.47   85.94
  -8   8  -2   46.01   42.67
  -8   8   2   37.50   29.36
  -8   8   3  383.65  120.71
  -8   8  -3  483.32  121.02
  -8   8   4  528.98  139.51
  -8   8  -4  653.05  136.51
  -8   8   5  -19.03   45.80
  -8   8  -5  100.70   56.37
  -8   8  -6   35.58   24.61
  -8   8  -7   -4.83   29.26
  -8   8  -8  216.71   80.02
  -8   8  -9   71.56   47.38
  -8  -8  10   92.58   35.82
  -8   8 -10   26.72   19.13
  -8  -8  11   26.49   26.15
  -8   8 -11  -26.35   48.51
   8  -8 -12   10.05   20.49
  -8  -8  12   49.59   28.20
  -8   8 -12  -32.36   47.00
   8  -8 -13   15.53   26.48
  -8   8 -13   39.88   24.11
  -8  -8  13   35.21   28.21
   8  -8 -14   30.56   40.51
  -8   8 -14   75.19   46.21
  -8  -8  14   72.16   25.23
   8  -8 -15  115.77   48.35
  -8   8 -15   -2.88   18.65
   8  -8 -16    0.18   18.85
  -8   8 -16   91.64   61.08
   8  -8 -17   24.18   27.36
  -8   8 -17   11.12   35.10
   8  -8 -18  -15.81   40.88
  -8   8 -18   62.58   43.34
   8  -8 -19  -25.15   38.10
  -8   8 -19   10.93   44.69
   8  -8 -20  117.71   62.74
  -8   8 -20   77.59   49.91
   8  -8 -21    9.56   27.70
   8  -8 -22   44.64   47.48
   8  -8 -23   -5.38   44.90
   8  -8 -24  139.95   89.63
   8  -8 -25   -4.66   29.83
   8  -8 -26   -7.30   35.30
   8  -8 -27  -29.13   46.80
   8  -8 -28   65.45   69.13
   0   9   0   52.64   21.82
   0   9   1  977.35   95.39
   0   9  -1 1067.83   90.76
  -9   0   1  821.57  120.97
  -9   0   2  288.51   77.08
   0   9  -2  321.52   47.55
  -9   0   3  256.14   67.23
   0   9  -3  263.34   39.52
   0  -9   4   61.39   30.46
   0   9  -4   30.58   17.52
  -9   0   4  -22.78   22.78
   0   9  -5   93.23   23.40
  -9   0   5   77.58   44.75
   0  -9   5   67.69   34.12
  -9   0   6 1147.55  152.94
   0  -9   6 1221.24  113.01
   0  -9  -7  200.50   59.56
   0  -9   7  225.15   44.28
  -9   0   7  137.97   55.64
   0  -9  -8  244.91   68.83
   0  -9   8  164.21   32.33
  -9   0   8  222.30   71.31
   0  -9  -9  168.82   61.32
   0  -9   9  149.55   28.29
  -9   0   9  157.70   65.33
   0  -9 -10  506.54  105.34
  -9   0  10  462.22  108.80
   0  -9 -11   82.78   51.23
  -9   0  11   72.41   50.16
   0  -9 -12   43.43   35.40
   0   9 -12   25.43   13.40
  -9   0  12   59.84   39.89
   0  -9 -13  135.16   65.03
  -9   0  13  216.24   81.90
   0   9 -13  138.52   28.08
   0  -9 -14   32.69   48.37
   0   9 -14   23.40   17.32
   0  -9 -15   63.77   53.39
   0   9 -15   55.64   19.52
   0   9 -16   24.12   17.74
   0  -9 -16    9.73   25.11
   0   9 -17   52.12   20.09
   0  -9 -17   90.76   63.69
   0   9 -18   31.83   21.20
   0  -9 -18   45.84   35.92
   0  -9 -19   48.49   43.62
   0  -9 -20   29.80   41.61
   0  -9 -21   51.37   41.93
   0  -9 -22  137.17   85.24
   0  -9 -23    5.89   34.16
   0  -9 -24  -22.40   39.60
   0  -9 -25  114.51   81.84
   9   0 -25    8.74   25.08
   0  -9 -26   64.67   68.70
   9   0 -26  103.93   72.85
   0  -9 -27  -48.96   78.84
   9   0 -27  -11.68   45.34
   9   0 -28   16.67   35.93
   9   0 -29  -52.68   49.17
   9   0 -30   53.32   37.44
   9   0 -31  129.33   77.81
   9   0 -32   16.26   64.85
   9   1 -32   94.36   28.61
   9   1 -31  -40.00   32.80
   1  -9 -30   24.63   30.55
   9   1 -30   13.95   23.12
   1  -9 -29  116.41   93.34
   9   1 -29   22.08   31.03
   1  -9 -28  106.04   96.57
   9   1 -28   47.75   63.87
   1  -9 -27  -19.65   65.07
   9   1 -27   71.15   59.32
   1  -9 -26  140.46   92.67
   9   1 -26   39.95   53.97
   1  -9 -25    7.30   39.37
   9   1 -25   83.10   68.90
   1  -9 -24   92.54   74.06
   1  -9 -23   49.32   74.10
   1  -9 -22   -5.95   46.74
   1  -9 -21    1.07   47.60
   1  -9 -20   -5.26   25.85
   1  -9 -19   98.04   67.33
   1  -9 -18   -1.99   39.47
   1  -9 -17   91.04   49.93
   1  -9 -16    2.51   21.12
   1  -9 -15   51.00   32.84
   1  -9 -14   38.50   26.48
   1  -9 -13  128.68   59.12
  -9   1  13   68.47   51.05
   1  -9 -12   72.57   46.46
  -9   1  12   55.69   49.27
   1  -9 -11  109.67   54.81
  -9   1  11  276.00   93.88
   1  -9 -10  345.10   83.39
  -9   1  10  346.51   95.53
   1  -9  -9    6.44   18.04
  -1  -9   9   43.01   13.35
  -9   1   9   71.43   45.02
   1  -9  -8   95.96   44.78
  -9   1   8  114.32   56.07
   1  -9  -7  353.79   76.23
  -9   1   7  418.29  103.37
  -1  -9   7  389.69   57.65
   1  -9  -6   55.10   34.28
  -1   9  -6   12.14    8.18
  -1  -9   6   21.77   13.02
  -9   1   6  -20.59   36.68
  -1   9  -5  210.28   26.98
  -9   1   5  246.54   74.66
   1  -9  -5  219.52   53.24
  -1   9  -4  427.59   44.02
  -9   1   4  534.64  105.30
   1  -9  -4  523.02   83.60
  -1   9  -3  937.26   71.76
   1  -9  -3  963.95  105.78
  -9   1   3  777.07  123.26
  -1   9  -2   86.75   25.84
  -9   1   2   67.56   27.42
  -1   9  -1  530.79   61.38
  -9   1   1  499.84  101.59
   1   9   1  449.53   68.04
  -1   9   0   -7.38   15.84
  -9   1   0   10.96   26.87
   1   9   0    4.29   10.61
  -1   9   1  526.05   67.85
   1   9  -1  548.13   69.80
  -9   1  -1  395.44   86.36
   1  -9   2   84.95   44.57
  -1   9   2  101.22   34.06
   1   9  -2   93.95   28.47
  -9  -1   3  714.40  114.51
   1  -9   3  951.64  117.64
  -9  -1   4  435.49   86.59
   1  -9   4  453.31   80.45
  -9  -1   5  204.99   58.74
   1  -9   5  245.59   56.71
  -9  -1   6   34.15   26.70
   1  -9   6   38.46   25.45
   1  -9   7  447.72   63.76
  -9  -1   7  353.84   81.77
   1  -9   8   78.80   24.53
  -9  -1   8   52.37   38.29
  -9  -1   9  109.13   56.51
  -9  -1  10  343.58   92.60
  -9  -1  11  160.55   59.90
  -9  -1  12  -15.17   35.13
  -9  -1  13  153.15   66.74
  -1  -9 -14   22.81   35.21
  -9  -1  14   33.63   30.70
  -1  -9 -15   91.78   51.76
   1   9 -15   49.43   19.13
  -1  -9 -16   -7.90   49.79
   1   9 -16    0.46   11.40
  -1  -9 -17   68.10   52.41
   1   9 -17   56.75   26.74
  -1  -9 -18  -20.95   52.38
   1   9 -18   22.86   19.99
  -1  -9 -19   68.73   50.08
   1   9 -19   32.42   18.82
  -1  -9 -20   44.88   48.80
   9  -1 -24  -14.05   30.93
   9  -1 -25   12.23   22.21
   9  -1 -26   47.50   48.17
   9  -1 -27   10.33   23.25
   9  -1 -28   80.74   76.43
   9  -1 -29  -33.62   53.17
   9  -1 -30   17.66   44.76
   9  -1 -31   -0.19   47.24
   9   2 -32    1.99   35.72
   9   2 -31  -24.10   54.90
   2  -9 -30 -130.18  112.79
   9   2 -30  -47.57   36.57
   2  -9 -29  -88.22   84.09
   9   2 -29   97.43   49.90
   2  -9 -28   86.14   70.43
   9   2 -28   65.90   62.49
   2  -9 -27   74.03   66.11
   9   2 -27  -48.42   38.25
   2  -9 -26    3.92   76.04
   9   2 -26   23.11   36.95
   2  -9 -25   99.98   65.47
   2  -9 -24  103.33   84.73
   2  -9 -23  -20.14   39.49
   2  -9 -22   39.70   48.64
   2  -9 -21   23.99   40.96
   2  -9 -20  179.50   88.67
   2  -9 -19   51.84   38.45
   2  -9 -18   89.65   47.79
   2  -9 -17  -31.91   55.58
   2  -9 -16   -2.20   33.24
   2  -9 -15   -1.90   29.06
   2  -9 -14   16.48   26.26
   2  -9 -13   15.06   29.79
   2  -9 -12  120.48   49.94
  -9   2  12  129.21   80.11
   2  -9 -11  115.69   54.58
  -9   2  11  167.87   69.52
   2  -9 -10  320.41   78.03
  -9   2  10  344.59   97.27
   2  -9  -9  297.73   70.46
  -2  -9   9  212.83   31.54
  -9   2   9  196.16   74.47
   2  -9  -8  218.10   66.00
  -9   2   8  174.60   65.53
  -2  -9   8  166.95   38.12
   2  -9  -7  -11.64   24.92
  -9   2   7   31.09   47.32
   2  -9  -6  664.00  100.16
  -9   2   6  591.59  121.12
   2  -9  -5  420.33   79.11
  -9   2   5  465.97  107.16
   2  -9  -4  777.39  103.61
  -9   2   4  579.90  114.89
   2  -9  -3  167.43   46.53
  -9   2   3   98.34   46.74
   2  -9  -2   56.87   27.61
  -9   2   2   71.64   46.14
   2  -9  -1  147.37   39.19
  -9   2   1  196.55   67.85
   2  -9   0  176.78   40.43
  -9   2   0  169.57   63.11
  -9   2  -1  152.06   59.12
  -9   2  -2   25.06   32.00
  -9   2  -3  117.84   49.94
   2  -9   3  243.69   61.67
  -9  -2   4  696.56  105.29
   2  -9   4  810.63  107.67
  -9  -2   5  420.64   88.71
   2  -9   5  462.29   77.92
  -9  -2   6  509.67   98.23
   2  -9   6  613.56   82.73
   2  -9   7   21.40   20.01
  -9  -2   7    1.41   26.95
  -9  -2   8   87.02   38.91
   2  -9   8  195.85   41.08
  -9  -2   9  168.67   54.88
  -9  -2  10  437.11   91.96
  -9  -2  11   55.70   35.97
  -9  -2  12   81.98   52.82
  -9  -2  13  -48.84   45.13
  -9  -2  14   -4.57   35.20
   2   9 -18   51.03   33.32
   2   9 -19   34.86   18.63
   2   9 -20  130.60   48.56
   9  -2 -23   23.91   60.02
   9  -2 -24   85.73   53.98
   9  -2 -25   53.15   54.76
   9  -2 -26   -2.64   33.74
   9  -2 -27   49.35   39.32
   9  -2 -28   31.30   71.21
   9  -2 -29  -64.25   50.99
   9  -2 -30    2.68   49.14
   9  -2 -31  -37.78   75.95
   9   3 -33   33.60   37.66
   9   3 -32   16.18   46.46
   9   3 -31  -43.98   47.02
   3  -9 -30   22.36   35.94
   9   3 -30   68.57   53.60
   3  -9 -29  -47.36   60.85
   9   3 -29   35.50   54.27
   3  -9 -28  -33.04   52.24
   9   3 -28   64.77   45.28
   3  -9 -27  -54.74   73.80
   9   3 -27  -52.51   54.60
   3  -9 -26   50.00   47.14
   3  -9 -25   27.55   38.68
   3  -9 -24  -44.47   43.90
   3  -9 -23   69.13   67.49
   3  -9 -22   32.92   64.55
   3  -9 -21  198.77   93.45
   3  -9 -20   52.01   60.32
   3  -9 -19  179.22   86.27
   3  -9 -18   32.98   44.61
   3  -9 -17  184.79   73.28
   3  -9 -16   44.59   23.77
  -3   9 -16   29.91   23.87
   3  -9 -15   54.13   47.96
  -3   9 -15   14.90   14.78
   3  -9 -14   30.59   40.89
  -3   9 -14   17.41   18.99
   3  -9 -13   46.80   34.93
  -3   9 -13   33.09   25.11
   3  -9 -12  -39.40   41.53
  -9   3  12  -57.59   67.66
  -3   9 -12   13.82   24.13
   3  -9 -11   13.07   22.35
  -9   3  11   33.19   36.20
  -3   9 -11   53.40   31.90
   3  -9 -10   39.08   33.53
  -3   9 -10   28.85   16.73
  -9   3  10   24.13   45.38
   3  -9  -9  225.52   65.20
  -9   3   9  147.12   65.51
   3  -9  -8    2.28   15.48
  -9   3   8   72.98   45.40
   3  -9  -7  235.21   59.58
  -9   3   7  246.39   87.28
   3  -9  -6   43.57   29.60
  -9   3   6   78.53   37.49
   3  -9  -5  513.62   86.38
  -9   3   5  407.61  106.38
   3  -9  -4   70.42   33.23
  -9   3   4   54.67   33.60
   3  -9  -3  225.06   54.93
  -9   3   3   87.18   43.63
   3  -9  -2  112.36   38.65
  -9   3   2   14.63   38.36
   3  -9  -1  140.64   40.88
  -9   3   1  111.93   56.03
   3  -9   0   80.53   30.48
  -9   3   0   61.27   38.33
   3  -9   1  125.81   31.52
  -9   3  -1  114.30   59.55
   3  -9   2  131.52   30.90
  -9   3  -2   85.34   44.21
  -9   3  -3  197.30   60.03
  -9   3  -4   55.71   33.55
  -9  -3   5  486.05   90.33
   3  -9   5  457.49   79.20
  -9   3  -5  423.52   92.85
   3  -9   6   46.42   28.58
  -9  -3   6   -5.83   19.19
  -9  -3   7  254.27   65.28
   3  -9   7  243.52   50.29
  -9  -3   8   16.13   30.63
  -9  -3   9  260.65   69.16
  -9  -3  10   78.90   46.81
  -9  -3  11   98.41   52.40
  -9  -3  12   35.85   39.15
  -9  -3  13   29.13   32.63
  -9  -3  14   48.64   40.54
  -9  -3  15  127.20   62.30
   3   9 -20   15.52   24.19
   9  -3 -22   70.32   53.73
   9  -3 -23    1.52   28.87
   9  -3 -24   -8.49   34.55
   9  -3 -25  -34.89   28.24
   9  -3 -26   31.23   46.92
   9  -3 -27    6.47   22.95
   9  -3 -28    7.95   32.33
   9  -3 -29   60.80   60.73
   9  -3 -30 -139.81   75.84
   9   4 -32  -54.86   59.62
   9   4 -31   -4.81   32.96
   9   4 -30   49.49   57.04
   4  -9 -29   -8.20   52.82
   9   4 -29   -2.04   41.88
   4  -9 -28   52.49   57.92
   9   4 -28   26.41   37.01
   4  -9 -27  -34.66   58.32
   9   4 -27  -16.94   37.57
   4  -9 -26  -42.48   55.29
   4  -9 -25   29.53   43.66
   4  -9 -24   58.47   63.08
   4  -9 -23   32.17   26.60
   4  -9 -22   35.65   26.16
   4  -9 -21  -12.19   36.07
   4  -9 -20  135.41   81.91
   4  -9 -19   67.41   57.53
   4  -9 -18  265.33   94.42
   4  -9 -17   34.17   48.50
  -4   9 -17   46.08   27.80
   4  -9 -16   96.52   50.58
  -4   9 -16   64.64   30.89
   4  -9 -15   77.46   52.30
  -4   9 -15   98.03   48.71
   4  -9 -14  -44.73   18.33
  -4   9 -14   43.83   42.43
   4  -9 -13   24.97   18.83
  -4   9 -13    9.11   32.10
   4  -9 -12   26.49   20.11
  -4   9 -12   82.76   42.69
   4  -9 -11   59.35   25.17
  -9   4  11   87.51   37.65
  -4   9 -11   38.57   33.91
   4  -9 -10  117.51   45.00
  -9   4  10  105.26   57.01
  -4   9 -10  122.01   48.92
   4  -9  -9   40.01   26.14
  -4   9  -9   70.08   39.28
  -9   4   9   67.91   47.48
   4  -9  -8  305.60   74.58
  -9   4   8  349.08  110.82
  -4   9  -8  343.88   82.19
   4  -9  -7  125.75   45.60
  -4   9  -7  120.26   51.69
  -9   4   7  141.35   77.60
  -4   9  -6  324.53   81.19
   4  -9  -6  259.33   62.87
  -9   4   6  177.89   66.96
   4  -9  -5    8.15   23.77
  -4   9  -5   56.57   41.39
  -9   4   5   76.68   59.73
   4  -9  -4  612.82   92.32
  -9   4   4  541.42  124.89
   4  -9  -3   40.28   23.42
  -9   4   3   86.60   53.50
   4  -9  -2  166.84   44.80
  -9   4   2   26.88   32.08
   4  -9  -1   -5.86   17.18
  -9   4   1   -5.91   31.51
  -9   4   0   -9.12   36.57
   4  -9   0   57.02   25.30
  -9   4  -1   17.19   20.90
   4  -9   1   -6.39   10.53
  -9   4  -2  116.61   54.80
   4  -9   2   97.35   27.62
  -9   4  -3   40.24   32.77
   4  -9   3    9.89   12.01
   4  -9   4  660.74   54.57
  -9   4  -4  588.44  109.97
  -9   4  -5   23.92   16.67
  -9  -4   6  289.59   68.95
  -9   4  -6  218.60   64.82
  -9   4  -7  120.30   53.23
  -9  -4   7  174.61   54.20
  -9  -4   8  338.30   70.66
  -9   4  -8  291.79   80.52
  -9  -4   9   54.28   38.57
  -9  -4  10  111.77   50.64
  -9  -4  11  110.24   44.20
  -9  -4  12   44.42   32.22
  -9  -4  13   40.37   38.76
  -9  -4  14  -41.79   23.03
  -9  -4  15   71.63   44.54
   9  -4 -21   -5.18   20.04
   9  -4 -22  114.57   63.07
   9  -4 -23   15.47   34.24
   9  -4 -24  118.65   67.51
   9  -4 -25  164.30   90.28
   9  -4 -26  -13.56   43.04
   9  -4 -27   22.80   37.93
   9  -4 -28   64.86   83.29
   9  -4 -29  -61.54   60.08
   9  -4 -30  -29.97   44.58
   9   5 -30   92.80   53.28
   5  -9 -29   77.55   76.29
   9   5 -29  -14.70   48.56
   5  -9 -28  100.48   76.55
   9   5 -28  -21.06   37.14
   5  -9 -27  -64.67   37.19
   9   5 -27   64.27   50.07
   5  -9 -26  -36.05   68.82
   5  -9 -25    6.15   27.40
   5  -9 -24  -39.83   47.48
   5  -9 -23  -43.06   32.08
   5  -9 -22   32.72   36.47
   5  -9 -21  137.95   68.34
   5  -9 -20   15.20   55.93
   5  -9 -19   -4.94   44.63
   5  -9 -18    5.29   23.31
   5  -9 -17   37.18   43.80
  -5   9 -17   90.44   45.55
   5  -9 -16  101.67   62.54
  -5   9 -16   80.45   47.84
   5  -9 -15   90.78   56.37
  -5   9 -15  141.37   53.50
   5  -9 -14   66.05   50.92
  -5   9 -14  -22.92   23.49
   5  -9 -13   30.46   30.31
  -5   9 -13   51.48   43.76
   5  -9 -12  -24.49   33.40
  -5   9 -12   19.42   35.77
   5  -9 -11  103.61   44.03
  -5  -9  11   50.77   12.31
  -5   9 -11   69.60   46.82
  -9   5  10   29.44   28.55
   5  -9 -10  116.51   49.50
  -5   9 -10  157.27   57.22
  -9   5   9  203.88   88.87
   5  -9  -9  275.99   74.31
  -5   9  -9  142.22   52.07
   5  -9  -8   92.70   44.93
  -9   5   8   40.19   47.44
  -5   9  -8   81.68   45.88
   5  -9  -7  203.67   60.41
  -9   5   7   75.98   51.59
  -5   9  -7  232.30   79.06
   5  -9  -6   75.39   38.73
  -9   5   6   61.60   40.03
  -5   9  -6  119.20   56.94
   5  -9  -5  300.18   68.84
  -5   9  -5  221.82   77.30
  -9   5   5  191.50   69.39
  -5   9  -4  121.88   59.60
   5  -9  -4  126.46   42.38
  -9   5   4  183.29   75.70
  -5   9  -3   80.53   33.59
   5  -9  -3   40.80   27.72
  -9   5   3   -5.82   22.72
  -5   9  -2   66.33   54.76
   5  -9  -2  158.24   45.04
  -9   5   2  168.55   66.68
   5  -9  -1   55.38   27.56
  -9   5   1   55.24   50.71
   5  -9   0   87.65   31.01
  -9   5   0   90.73   32.11
   5  -9   1   79.10   29.12
  -9   5  -1   56.24   34.89
   5  -9   2  149.30   34.07
  -9   5  -2  134.10   55.78
   5  -9   3  105.69   29.08
  -9   5  -3   21.88   18.06
   5  -9   4  118.62   26.65
  -9   5  -4  112.21   53.14
   5  -9   5  278.58   35.41
  -9   5  -5  200.05   68.56
   5  -9   6   63.00   12.72
  -9   5  -6   21.87   19.03
  -9  -5   7  102.92   40.47
  -9   5  -7  168.17   64.27
  -9  -5   8  109.73   41.87
  -9   5  -8   62.33   44.81
  -9  -5   9  215.15   54.19
  -9   5  -9  200.91   63.64
  -9  -5  10  118.17   43.26
  -9   5 -10  159.19   62.21
  -9  -5  11   66.31   18.69
  -9   5 -11  104.23   52.11
  -9  -5  12   75.88   46.39
  -9  -5  13   42.63   31.17
  -9  -5  14   18.47   22.29
  -9  -5  15  120.73   57.47
   9  -5 -19   45.92   42.43
   9  -5 -20    4.83   31.14
   9  -5 -21   61.53   67.31
   9  -5 -22   41.31   52.24
   9  -5 -23   51.73   46.77
   9  -5 -24   26.06   25.89
   9  -5 -25   25.01   51.75
   9  -5 -26   92.93   61.93
   9  -5 -27   -8.49   45.47
   9  -5 -28 -136.19   69.52
   9  -5 -29  -19.79   53.63
   9   6 -29   13.77   49.78
   6  -9 -29  143.17   99.51
   9   6 -28   27.27   41.21
   6  -9 -28  -81.41   81.60
   6  -9 -27   13.85   47.87
   6  -9 -26  -27.41   65.94
   6  -9 -25  -42.89   53.24
   6  -9 -24   87.68   61.66
   6  -9 -23   20.90   52.50
   6  -9 -22   61.87   61.61
   6  -9 -21   28.31   22.84
   6  -9 -20   27.73   28.74
   6  -9 -19   23.11   39.55
   6  -9 -18   98.05   69.91
  -6   9 -18   12.29   27.91
   6  -9 -17   87.49   64.47
  -6   9 -17  -20.32   31.18
   6  -9 -16    3.89   35.12
  -6   9 -16   -5.73   33.64
   6  -9 -15  225.70   84.64
  -6   9 -15  186.82   68.10
   6  -9 -14   44.11   34.54
  -6   9 -14  -14.76   23.38
   6  -9 -13   56.97   50.37
  -6   9 -13   35.28   31.02
   6  -9 -12   37.96   30.73
  -6  -9  12   27.30   12.81
  -6   9 -12   70.49   49.49
   6  -9 -11  139.47   58.66
  -6  -9  11  136.80   31.56
  -6   9 -11  156.51   61.23
   6  -9 -10  104.04   51.32
  -6   9 -10   61.27   59.85
  -9   6   9  103.76   73.95
   6  -9  -9   90.44   48.95
  -6   9  -9   68.94   42.50
   6  -9  -8  139.12   54.17
  -9   6   8  191.24   89.18
  -6   9  -8  175.25   63.75
  -9   6   7   90.81   56.75
   6  -9  -7   59.27   31.20
  -6   9  -7   66.26   47.13
   6  -9  -6  161.00   52.79
  -9   6   6   94.05   41.09
  -6   9  -6  205.35   75.89
   6  -9  -5   43.58   26.90
  -6   9  -5   44.63   48.51
  -9   6   5  -44.87   54.01
   6  -9  -4  299.84   66.03
  -9   6   4  338.90  110.50
  -6   9  -4  276.57   87.95
   6  -9  -3   47.22   32.10
  -9   6   3   94.58   54.02
  -6   9  -3   59.92   48.07
  -6   9  -2   34.09   37.42
   6  -9  -2   42.89   28.26
  -9   6   2   68.74   43.01
  -6   9  -1  283.50   87.33
   6  -9  -1  389.96   68.34
  -9   6   1  290.88   93.14
  -6   9   0  -17.09   34.71
   6  -9   0   24.50   23.90
  -9   6   0   -3.26   26.16
   6  -9   1  363.03   59.18
  -9   6  -1  353.42  102.21
   6  -9   2   27.01   18.13
  -9   6  -2   80.63   52.96
  -9   6  -3    9.74   20.13
  -9   6  -4  211.41   70.87
  -9   6  -5  -21.35   31.50
  -9   6  -6  109.68   50.81
   6  -9   7   40.30   13.70
  -9   6  -7   63.69   42.31
  -9   6  -8  110.36   53.92
  -9  -6   8  121.35   45.98
  -9   6  -9   37.09   35.29
  -9  -6   9   26.42   22.53
  -9  -6  10   45.24   27.93
  -9   6 -10   37.97   22.64
  -9  -6  11   81.80   22.15
  -9   6 -11   81.06   46.51
  -9   6 -12   33.39   30.60
  -9  -6  12   51.09   34.36
  -9   6 -13   73.73   50.48
  -9  -6  13   98.34   51.76
  -9   6 -14   55.72   54.59
  -9  -6  14   26.55   33.12
  -9   6 -15  210.10   77.85
  -9  -6  15  122.69   51.58
   9  -6 -18   46.50   49.15
   9  -6 -19    4.97   33.44
   9  -6 -20  -36.28   33.51
   9  -6 -21    4.08   27.15
   9  -6 -22   55.59   39.99
   9  -6 -23   71.10   56.50
   9  -6 -24   74.62   44.00
   9  -6 -25  107.74   69.43
   9  -6 -26   85.99   71.02
   9  -6 -27   62.65   57.84
   9  -6 -28   -9.39   66.66
   9  -6 -29  116.24   98.35
   7  -9 -28   33.57   71.46
   7  -9 -27  -59.35   60.57
   7  -9 -26   15.13   38.44
   7  -9 -25   41.36   61.07
   7  -9 -24  -49.76   43.27
   7  -9 -23   48.38   68.11
   7  -9 -22   31.80   45.54
   7  -9 -21   38.64   40.36
   7  -9 -20  -11.65   24.33
   7  -9 -19   43.29   43.22
   7  -9 -18  -56.18   48.16
  -7   9 -18    5.86   24.84
   7  -9 -17   19.18   20.94
  -7   9 -17   60.05   50.45
   7  -9 -16   11.77   25.50
  -7   9 -16   94.01   50.21
   7  -9 -15   42.93   28.84
  -7   9 -15   73.83   44.32
   7  -9 -14  106.60   61.33
  -7   9 -14    4.65   31.56
  -7   9 -13  -37.16   47.77
  -7  -9  13   12.25   13.96
   7  -9 -12  -13.21   21.55
  -7  -9  12   -6.38   13.60
  -7   9 -12  -35.68   25.07
   7  -9 -11  241.53   79.52
  -7  -9  11  140.56   34.22
  -7   9 -11  111.38   63.54
   7  -9 -10   42.72   41.39
  -7   9 -10   31.30   45.57
   7  -9  -9  140.40   53.90
  -7   9  -9  278.19   90.36
  -9   7   8  152.31   93.29
   7  -9  -8   55.49   32.60
  -7   9  -8   78.65   47.18
  -9   7   7  175.57   87.73
   7  -9  -7  171.82   58.47
  -7   9  -7  273.56   87.82
   7  -9  -6   23.35   20.43
  -9   7   6  -68.66   52.50
  -7   9  -6    1.83   24.61
   7  -9  -5  181.33   54.83
  -9   7   5  256.71  103.69
  -7   9  -5  256.65   89.48
  -9   7   4    6.43   38.61
  -7   9  -4  137.86   62.76
  -7   9  -3   99.53   53.95
  -9   7   3   38.79   48.49
  -9   7   2  189.99   77.90
  -7   9  -2   70.21   57.08
  -7   9  -1  357.89  109.38
  -9   7   1  267.13   91.74
  -7   9   0  160.88   80.90
  -9   7   0  152.52   74.72
  -7   9   1  326.74  112.08
  -9   7  -1  379.32  109.84
  -7   9   2   75.48   53.36
  -9   7  -2   56.80   59.93
  -9   7  -3  114.30   56.26
  -9   7  -4   65.67   51.80
  -9   7  -5  141.17   71.50
  -9   7  -6   34.70   46.05
  -9   7  -7  291.71   86.45
  -9   7  -8   46.63   40.14
  -9  -7   9  129.91   43.31
  -9   7  -9  153.51   70.05
  -9   7 -10  -22.81   42.95
  -9  -7  10   26.72   26.96
  -9   7 -11  180.05   74.11
  -9  -7  11   92.53   36.33
  -9   7 -12   32.53   43.97
  -9  -7  12   20.28   19.11
  -9   7 -13   72.44   50.21
  -9  -7  13   -1.09   22.43
  -9   7 -14   76.19   54.44
  -9  -7  14    3.30   21.00
  -9   7 -15   84.34   48.66
  -9  -7  15   43.88   30.55
   9  -7 -16   23.72   27.56
  -9   7 -16   11.04   23.19
   9  -7 -17   -0.63   49.52
  -9   7 -17   40.79   34.12
   9  -7 -18   52.21   47.25
  -9   7 -18   53.84   54.94
   9  -7 -19   19.32   24.31
  -9   7 -19   97.46   55.85
   9  -7 -20   36.36   47.94
  -9   7 -20   91.64   56.40
   9  -7 -21  -20.61   51.38
  -9   7 -21  104.55   52.17
   9  -7 -22  -36.92   29.56
   9  -7 -23  121.12   85.64
   9  -7 -24  101.08   65.55
   9  -7 -25   82.34   28.83
   9  -7 -26  -24.66   37.86
   9  -7 -27   75.01   35.42
   9  -7 -28  -54.94   35.87
   8  -9 -27   27.70   31.61
   8  -9 -26  -30.18   44.56
   8  -9 -25   13.41   52.64
   8  -9 -24   29.11   54.22
   8  -9 -23   17.05   23.97
   8  -9 -22   62.32   41.92
   8  -9 -21  119.18   84.30
   8  -9 -20   46.67   37.45
   8  -9 -19  -35.28   36.93
   8  -9 -18   39.52   53.31
  -8   9 -18   -2.36   35.34
   8  -9 -17   34.85   41.26
  -8   9 -17  -16.05   36.54
   8  -9 -16    3.66   28.53
  -8   9 -16   46.34   43.95
   8  -9 -15    6.20   29.76
  -8   9 -15  -13.39   26.87
   8  -9 -14   24.37   25.83
  -8   9 -14   65.53   53.88
   8  -9 -13  -40.42   36.45
  -8   9 -13   41.95   46.36
  -8  -9  13   -2.50   16.33
   8  -9 -12  -15.42   30.39
  -8  -9  12   -4.39   14.67
  -8   9 -12    2.26   35.91
   8  -9 -11  104.36   52.65
  -8  -9  11   61.70   36.76
  -8   9 -11    0.06   33.35
   8  -9 -10  101.26   49.50
  -8   9 -10  167.79   73.30
   8  -9  -9  100.48   45.92
  -8   9  -9  112.53   62.81
  -8   9  -8   64.04   46.49
  -8   9  -7   58.40   50.96
  -9   8   6  204.34   87.51
  -8   9  -6  106.87   57.10
  -9   8   5   95.67   70.85
  -8   9  -5  141.58   70.28
  -9   8   4  146.65   79.03
  -8   9  -4   96.30   66.38
  -9   8   3    9.73   37.32
  -8   9  -3   26.08   23.40
  -8   9  -2   80.06   45.58
  -9   8   2  131.38   69.90
  -9   8   1    9.23   43.01
  -8   9  -1  -24.25   28.95
  -8   9   0   70.53   55.68
  -9   8   0   93.61   71.52
  -8   9   1  -23.10   36.47
  -9   8  -1   54.43   51.04
  -8   9   2   24.36   30.90
  -9   8  -2   78.34   64.70
  -8   9   3  -41.94   57.87
  -9   8  -3  -29.51   26.45
  -9   8  -4  231.34   85.09
  -9   8  -5  120.66   70.35
  -9   8  -6  241.05   92.05
  -9   8  -7   72.10   50.51
  -9   8  -8  157.43   72.46
  -9   8  -9   66.36   44.42
  -9  -8  10  130.27   42.97
  -9   8 -10   77.08   51.33
  -9   8 -11   67.34   46.01
  -9  -8  11   16.17   16.09
  -9   8 -12   17.11   36.14
  -9  -8  12    1.21   26.63
  -9   8 -13  -36.78   46.35
  -9  -8  13   17.04   18.03
   9  -8 -14   78.23   51.04
  -9   8 -14    2.79   26.21
  -9  -8  14   29.66   27.24
   9  -8 -15    3.57   22.16
  -9   8 -15   14.86   40.18
   9  -8 -16   37.05   51.90
  -9   8 -16   33.35   37.95
   9  -8 -17   43.63   42.48
  -9   8 -17   27.96   23.72
   9  -8 -18   -7.30   20.79
  -9   8 -18   66.97   45.88
   9  -8 -19   99.00   60.41
  -9   8 -19   -3.31   21.51
   9  -8 -20   63.67   45.42
  -9   8 -20   45.77   57.96
   9  -8 -21   72.49   65.47
   9  -8 -22   24.81   22.41
   9  -8 -23   71.53   66.97
   9  -8 -24    3.41   54.53
   9  -8 -25  -98.85   71.05
   9  -8 -26   16.10   44.84
   9  -8 -27  138.11   90.71
  -9   9   0   25.08   31.85
  -9   9   1   56.06   40.99
  -9   9  -1  -69.11   64.11
  -9   9  -2   16.03   26.35
  -9   9   2   31.25   40.73
  -9   9   3    7.67   61.79
  -9   9  -3   63.42   61.55
  -9   9   4  -69.89   58.47
  -9   9  -4   -6.97   52.49
  -9   9   5  195.74  100.34
  -9   9  -5  337.90  106.03
  -9   9  -6  123.59   71.54
  -9   9  -7  364.22  113.06
  -9   9  -8  113.39   75.83
  -9   9  -9  180.28   82.76
  -9  -9  10   40.95   33.53
  -9   9 -10  -34.84   49.98
   9  -9 -11   23.99   29.00
  -9  -9  11   10.52   14.48
  -9   9 -11  -60.81   47.46
   9  -9 -12   30.75   32.32
  -9  -9  12   27.96   35.87
  -9   9 -12    5.11   27.00
   9  -9 -13   48.11   37.68
  -9  -9  13   -5.90   18.36
  -9   9 -13  -24.17   37.13
   9  -9 -14   37.91   26.92
  -9   9 -14   37.29   50.69
   9  -9 -15    2.67   34.55
  -9   9 -15   35.06   36.20
   9  -9 -16    7.34   28.92
  -9   9 -16   52.62   24.17
   9  -9 -17   49.91   43.14
  -9   9 -17   -7.18   40.46
   9  -9 -18  -16.89   51.74
  -9   9 -18   36.58   41.92
   9  -9 -19   19.69   49.75
  -9   9 -19    7.02   31.97
   9  -9 -20  -28.60   50.18
   9  -9 -21   63.19   58.59
   9  -9 -22   61.27   65.89
   9  -9 -23  106.91   69.22
   9  -9 -24  -31.85   53.73
   9  -9 -25   14.00   36.47
   9  -9 -26   13.99   54.25
   9  -9 -27   -9.33   47.25
   0  10   0  470.69   65.13
 -10   0   1  193.27   64.68
   0  10  -1  176.43   36.74
   0  10  -2  564.84   66.50
 -10   0   2  495.41  101.95
 -10   0   3   80.32   49.41
   0  10  -3    7.75   14.46
   0 -10   4    2.55   19.34
   0  10  -4   38.21   16.11
 -10   0   4  -16.76   26.97
   0  10  -5   40.91   16.14
 -10   0   5    0.30   31.55
   0 -10   5   31.41   27.94
   0  10  -6  366.44   43.37
 -10   0   6  257.15   77.06
   0 -10   6  367.03   66.72
   0  10  -7   56.10   16.89
   0 -10   7   38.73   26.61
 -10   0   7   32.67   40.98
   0 -10   8  482.55   65.63
 -10   0   8  422.47  105.80
   0 -10  -9  125.20   56.13
   0 -10   9  118.41   28.51
 -10   0   9  114.06   61.04
   0 -10 -10  388.71   94.79
 -10   0  10  429.99  110.76
   0 -10 -11  251.65   79.20
 -10   0  11  199.77   75.04
   0 -10 -12  253.79   85.63
 -10   0  12  187.60   80.35
   0 -10 -13  127.22   63.99
   0  10 -13   39.69   15.21
 -10   0  13   80.51   61.01
   0 -10 -14  275.96   88.21
   0  10 -14  172.21   27.99
 -10   0  14  265.88   92.08
   0 -10 -15   21.45   31.41
   0  10 -15   11.35   10.21
   0  10 -16   21.37   11.34
   0 -10 -16   -3.32   25.13
   0 -10 -17   24.92   31.47
   0 -10 -18  116.74   73.23
   0 -10 -19  161.84   80.92
   0 -10 -20   18.11   38.02
   0 -10 -21    8.22   39.86
   0 -10 -22  138.64   87.09
   0 -10 -23   20.02   47.48
   0 -10 -24   54.00   50.54
   0 -10 -25  126.80   96.13
  10   0 -26   54.39   56.93
  10   0 -27  -22.56   34.83
  10   0 -28  -27.36   39.66
  10   0 -29   51.77   48.60
  10   0 -30  -29.60   36.25
  10   0 -31    2.35   31.61
  10   1 -31   77.17   57.90
  10   1 -30   69.34   34.11
   1 -10 -29   80.31   75.12
  10   1 -29   71.36   48.24
   1 -10 -28   82.04   82.54
  10   1 -28  -24.03   24.86
   1 -10 -27   -2.92   40.15
  10   1 -27    4.13   47.17
   1 -10 -26  122.36   80.43
  10   1 -26   52.53   53.62
   1 -10 -25   47.29   57.54
   1 -10 -24   59.40   61.37
   1 -10 -23   65.40   67.94
   1 -10 -22   41.04   30.28
   1 -10 -21   92.85   61.87
   1 -10 -20  -43.37   51.50
   1 -10 -19  136.02   74.88
   1 -10 -18   17.56   37.78
   1 -10 -17  -68.55   64.02
   1 -10 -16  137.01   66.10
   1 -10 -15  172.05   84.48
   1 -10 -14  195.41   73.81
 -10   1  14   51.54   42.36
   1 -10 -13   43.57   41.55
 -10   1  13  -30.38   27.98
   1 -10 -12  284.27   84.00
 -10   1  12  182.78   73.56
   1 -10 -11  100.68   56.02
 -10   1  11   57.43   58.21
   1 -10 -10  103.80   45.32
 -10   1  10   89.82   55.83
   1 -10  -9  532.43  105.06
  -1 -10   9  369.38   48.12
 -10   1   9  332.65  102.13
   1 -10  -8  114.49   51.85
  -1 -10   8  117.46   31.33
 -10   1   8   49.61   48.90
   1 -10  -7  473.68   94.10
  -1 -10   7  472.40   71.23
 -10   1   7  449.62  110.25
   1 -10  -6   24.78   37.49
  -1  10  -6   24.05   10.24
  -1 -10   6   -6.48   17.81
 -10   1   6   14.59   23.86
  -1  10  -5   47.70   17.78
 -10   1   5   10.46   18.13
   1 -10  -5   64.12   37.52
  -1  10  -4  197.21   33.31
 -10   1   4  192.98   70.85
  -1  10  -3  451.95   54.33
 -10   1   3  444.82   98.70
  -1  10  -2  483.90   58.90
 -10   1   2  398.04   95.87
  -1  10  -1   21.59   21.38
 -10   1   1   32.58   32.29
  -1  10   0  225.91   46.31
 -10   1   0  174.98   65.60
  -1  10   1   58.43   24.87
 -10   1  -1   78.65   45.47
   1  10  -1   22.86   19.74
   1  10  -2  499.54   66.02
 -10  -1   2  503.22   99.79
   1  10  -3  412.17   59.26
 -10  -1   3  538.22  104.55
 -10  -1   4  178.35   65.72
   1 -10   4  278.29   69.94
 -10  -1   5   56.79   31.86
   1 -10   5   48.10   26.13
 -10  -1   6   64.50   36.53
   1 -10   6   56.26   38.46
   1 -10   7  471.30   69.94
 -10  -1   7  278.17   77.00
   1 -10   8   76.69   29.28
 -10  -1   8   63.34   30.29
   1 -10   9  400.46   57.12
 -10  -1   9  428.76  104.53
 -10  -1  10   73.77   46.79
 -10  -1  11   48.19   35.71
 -10  -1  12  303.82   97.97
 -10  -1  13   23.38   32.35
 -10  -1  14  164.23   81.81
 -10  -1  15   68.42   59.83
   1  10 -15   39.49   22.99
   1  10 -16   93.12   26.80
   1  10 -17   23.16   14.80
  10  -1 -25   77.71   53.78
  10  -1 -26   88.45   57.85
  10  -1 -27   -2.73   56.24
  10  -1 -28   42.48   59.97
  10  -1 -29   83.33   82.94
  10  -1 -30  -20.28   35.60
  10   2 -31    7.78   51.33
  10   2 -30  111.65   92.85
   2 -10 -29   29.68   53.64
  10   2 -29   24.85   54.59
   2 -10 -28  -11.27   43.57
  10   2 -28  -16.40   27.02
   2 -10 -27   79.51   83.98
  10   2 -27   32.89   54.88
   2 -10 -26    7.48   37.36
   2 -10 -25   27.74   38.42
   2 -10 -24   12.47   47.25
   2 -10 -23   64.59   64.46
   2 -10 -22  -63.29   68.09
   2 -10 -21   31.76   47.47
   2 -10 -20  151.86   93.42
   2 -10 -19  -25.87   42.44
   2 -10 -18    6.62   31.98
   2 -10 -17  184.43   73.51
   2 -10 -16   47.99   41.27
   2 -10 -15   56.18   36.66
   2 -10 -14   -9.81   36.33
   2 -10 -13   57.08   33.38
 -10   2  13   32.37   47.01
   2 -10 -12    6.70   25.72
 -10   2  12 -103.60   71.13
   2 -10 -11  177.50   66.84
 -10   2  11   60.68   47.21
   2 -10 -10    0.55   27.71
  -2 -10  10    5.54    5.87
 -10   2  10   64.50   66.08
   2 -10  -9   40.12   29.96
 -10   2   9   65.68   31.81
  -2 -10   9   44.02   19.17
   2 -10  -8  556.04  109.33
  -2 -10   8  515.17   70.79
 -10   2   8  557.10  126.55
   2 -10  -7   33.16   21.13
 -10   2   7   14.73   35.40
   2 -10  -6   15.27   17.74
 -10   2   6   18.07   37.76
   2 -10  -5  188.37   57.88
 -10   2   5  163.31   64.56
   2 -10  -4  738.82  103.61
 -10   2   4  573.37  118.07
   2 -10  -3  335.90   68.77
 -10   2   3  283.23   80.97
   2 -10  -2    2.78   13.91
 -10   2   2   40.99   31.10
   2 -10  -1  142.99   42.73
 -10   2   1    8.85   18.67
 -10   2   0  255.90   78.81
 -10   2  -1   50.36   33.21
 -10   2  -2   22.21   39.99
 -10   2  -3  248.22   74.13
 -10  -2   4  676.37  116.18
 -10  -2   5  169.48   59.52
   2 -10   5  133.42   51.96
 -10  -2   6   19.27   19.61
   2 -10   6    2.61   24.69
   2 -10   7   61.90   30.71
 -10  -2   7   49.36   28.53
 -10  -2   8  520.68  107.51
   2 -10   8  619.18   79.77
 -10  -2   9   13.62   18.63
 -10  -2  10   25.99   24.97
 -10  -2  11  149.23   73.56
 -10  -2  12   64.75   46.46
 -10  -2  13   63.02   20.53
 -10  -2  14   35.24   44.06
 -10  -2  15   37.92   28.98
  10  -2 -24   19.65   22.62
  10  -2 -25   64.11   51.67
  10  -2 -26   65.42   45.10
  10  -2 -27   22.30   38.01
  10  -2 -28   42.37   45.14
  10  -2 -29   82.41   99.36
  10  -2 -30   36.22   42.04
  10   3 -32  -45.67   47.15
  10   3 -31   59.36   48.86
  10   3 -30    5.60   52.02
   3 -10 -29  182.11  108.32
  10   3 -29   14.65   52.36
   3 -10 -28  105.50  105.27
  10   3 -28   12.99   38.34
   3 -10 -27   -7.24   52.69
   3 -10 -26   79.53   91.38
   3 -10 -25   24.19   42.04
   3 -10 -24  132.67   82.42
   3 -10 -23  -51.66   58.75
   3 -10 -22   72.15   69.03
   3 -10 -21  -32.64   35.50
   3 -10 -20   79.85   72.58
   3 -10 -19   38.88   55.43
   3 -10 -18  116.42   67.80
   3 -10 -17  106.18   63.66
   3 -10 -16   28.43   31.95
   3 -10 -15   25.27   33.67
   3 -10 -14   95.17   57.60
   3 -10 -13   52.60   39.81
   3 -10 -12   24.26   22.72
 -10   3  12   -7.51   37.05
   3 -10 -11  -48.93   39.65
 -10   3  11   -1.80   43.37
   3 -10 -10  134.47   56.62
  -3 -10  10  125.47   24.12
 -10   3  10  175.06   77.20
   3 -10  -9   75.22   42.15
 -10   3   9   -0.53   36.99
   3 -10  -8  120.86   51.70
 -10   3   8  149.74   69.38
   3 -10  -7   53.94   38.32
 -10   3   7   33.17   36.26
   3 -10  -6  207.72   62.23
 -10   3   6  198.44   76.12
   3 -10  -5   95.04   42.98
 -10   3   5   36.04   47.56
   3 -10  -4  114.25   44.08
 -10   3   4   95.17   55.17
   3 -10  -3  141.63   44.68
 -10   3   3   37.87   41.90
   3 -10  -2  225.54   55.41
 -10   3   2  135.37   59.19
   3 -10  -1   98.17   37.37
 -10   3   1   75.42   50.37
   3 -10   0   34.14   25.90
 -10   3   0   35.48   36.93
   3 -10   1   70.46   29.09
 -10   3  -1   42.93   31.22
 -10   3  -2   91.70   37.12
 -10   3  -3  158.38   60.84
 -10   3  -4   68.39   40.71
 -10  -3   5   29.98   35.22
 -10   3  -5   48.10   42.02
 -10  -3   6  348.79   81.76
 -10  -3   7   42.30   37.30
   3 -10   7   77.80   31.56
   3 -10   8  240.27   52.83
 -10  -3   8  146.12   52.93
 -10  -3   9    4.14   21.95
 -10  -3  10  216.75   70.85
 -10  -3  11  -10.14   24.95
 -10  -3  12   35.62   42.23
 -10  -3  13   33.54   24.06
 -10  -3  14   27.76   39.72
 -10  -3  15    4.55   25.38
  10  -3 -23  146.17   69.43
  10  -3 -24   15.73   35.03
  10  -3 -25   31.90   58.68
  10  -3 -26   56.88   55.55
  10  -3 -27  -30.24   55.54
  10  -3 -28   64.81   79.05
  10  -3 -29 -114.55   74.72
  10   4 -32  -31.31   29.58
  10   4 -31   32.62   61.10
  10   4 -30   55.88   38.58
   4 -10 -29   40.94   49.39
  10   4 -29   72.00   50.87
   4 -10 -28  -27.57   41.95
  10   4 -28  -20.10   36.57
   4 -10 -27  -15.53   96.11
   4 -10 -26    7.04   62.42
   4 -10 -25   71.09   62.82
   4 -10 -24   86.93   55.24
   4 -10 -23   58.84   44.48
   4 -10 -22    9.75   36.72
   4 -10 -21  133.91   63.75
   4 -10 -20  -18.75   56.06
   4 -10 -19  -50.37   58.03
   4 -10 -18   13.04   24.49
   4 -10 -17   48.91   20.77
   4 -10 -16    4.17   38.19
  -4  10 -16   25.90   35.98
   4 -10 -15   16.49   42.14
  -4  10 -15  -11.80   26.76
   4 -10 -14   77.10   49.19
  -4  10 -14   18.33   16.54
   4 -10 -13    2.79   42.41
  -4  10 -13   -6.75   23.95
   4 -10 -12  -57.43   50.11
 -10   4  12    2.79   51.33
  -4  10 -12   17.22   19.55
   4 -10 -11  145.45   57.52
 -10   4  11   60.12   67.44
  -4  10 -11  104.14   49.05
   4 -10 -10   -1.74   24.70
  -4  10 -10   37.54   46.81
 -10   4  10   11.21   50.64
   4 -10  -9    3.01   24.50
 -10   4   9    6.62   34.50
   4 -10  -8  -31.10   31.62
 -10   4   8    2.21   40.17
   4 -10  -7   19.34   19.17
 -10   4   7  -23.74   47.89
   4 -10  -6  278.32   70.72
 -10   4   6  284.52   93.88
   4 -10  -5   49.99   39.58
 -10   4   5   75.38   65.29
   4 -10  -4   88.07   33.02
 -10   4   4   94.15   57.69
   4 -10  -3  389.53   76.68
 -10   4   3  293.12   93.50
   4 -10  -2   40.70   21.70
 -10   4   2   50.64   36.83
 -10   4   1   35.64   43.04
   4 -10  -1   22.83   20.74
 -10   4   0  -45.13   39.23
   4 -10   0   -0.43   12.42
 -10   4  -1   17.83   21.82
   4 -10   1   45.21   21.13
 -10   4  -2   30.13   21.68
   4 -10   2   35.31   20.83
   4 -10   3  469.82   55.17
 -10   4  -3  297.02   85.15
 -10   4  -4   45.01   42.89
 -10   4  -5   70.54   44.48
 -10  -4   6  265.34   75.91
 -10   4  -6  285.55   88.22
 -10  -4   7  118.81   53.17
 -10   4  -7   66.86   46.95
 -10  -4   8   18.39   31.91
 -10   4  -8   48.50   33.11
 -10  -4   9   17.01   24.74
 -10  -4  10   71.89   43.29
 -10  -4  11  112.88   55.38
 -10  -4  12   58.34   50.46
 -10  -4  13  -16.75   29.93
 -10  -4  14   74.61   38.38
 -10  -4  15    1.04   43.17
 -10  -4  16  -21.27   43.21
  10  -4 -22   38.54   41.33
  10  -4 -23  -16.57   30.49
  10  -4 -24   58.07   45.65
  10  -4 -25    0.91   40.52
  10  -4 -26   53.58   58.35
  10  -4 -27   55.33   67.98
  10  -4 -28   51.05   62.90
  10  -4 -29  -45.42   65.43
  10   5 -30  -29.42   40.55
  10   5 -29    1.56   29.44
   5 -10 -28  -39.58   80.01
  10   5 -28   50.14   38.07
   5 -10 -27   78.50   78.04
   5 -10 -26   12.40   39.84
   5 -10 -25   -1.73   32.63
   5 -10 -24   34.29   51.06
   5 -10 -23   42.85   54.86
   5 -10 -22   22.63   50.10
   5 -10 -21    5.25   27.18
   5 -10 -20   33.00   49.34
   5 -10 -19   20.34   31.08
   5 -10 -18    5.04   41.33
   5 -10 -17  113.79   65.32
   5 -10 -16  -54.93   43.47
  -5  10 -16   42.27   38.35
   5 -10 -15   90.67   59.77
  -5  10 -15   90.54   56.75
   5 -10 -14  143.45   60.25
  -5  10 -14   31.23   22.76
   5 -10 -13   36.37   36.97
  -5  10 -13   59.81   43.34
   5 -10 -12   27.24   34.37
  -5  10 -12   52.75   55.94
   5 -10 -11   17.80   20.53
 -10   5  11   10.78   30.51
  -5  10 -11   -9.59   19.53
   5 -10 -10   34.55   39.63
 -10   5  10   20.32   35.62
  -5  10 -10  -19.22   25.40
   5 -10  -9   19.85   36.56
  -5  10  -9   -8.04   26.87
 -10   5   9   11.75   30.85
   5 -10  -8   15.43   16.40
  -5  10  -8   -4.36   42.12
 -10   5   8  -27.03   27.98
  -5  10  -7  -19.45   31.78
   5 -10  -7   25.71   15.91
 -10   5   7   53.26   51.95
  -5  10  -6   35.75   43.83
   5 -10  -6   -6.35   17.23
 -10   5   6   63.22   55.22
  -5  10  -5  195.57   78.73
   5 -10  -5  228.88   63.28
 -10   5   5  207.26   87.69
   5 -10  -4   67.10   34.34
 -10   5   4  187.64   82.28
   5 -10  -3    0.06   18.09
 -10   5   3   72.30   64.99
   5 -10  -2  144.06   46.31
 -10   5   2   86.68   57.40
   5 -10  -1  109.07   38.11
 -10   5   1  150.01   71.82
   5 -10   0   15.22   23.49
 -10   5   0  -30.30   31.78
   5 -10   1  104.65   32.66
 -10   5  -1   27.30   24.08
   5 -10   2  207.24   43.59
 -10   5  -2  199.66   70.42
   5 -10   3   10.58   14.63
 -10   5  -3   50.53   45.44
   5 -10   4  199.31   34.61
 -10   5  -4   86.13   47.57
   5 -10   5  204.67   30.45
 -10   5  -5  208.64   77.71
 -10   5  -6   40.96   36.88
 -10  -5   7   26.04   23.91
 -10   5  -7   80.87   42.77
 -10  -5   8   -4.49   18.95
 -10   5  -8   94.20   54.29
 -10  -5   9   48.27   34.49
 -10   5  -9   88.47   52.43
 -10  -5  10   24.65   21.45
 -10   5 -10   80.15   46.75
 -10  -5  11    6.10   20.76
 -10   5 -11   74.84   49.38
 -10   5 -12   77.00   43.39
 -10  -5  12   51.46   40.17
 -10  -5  13   52.63   39.17
 -10  -5  14  158.31   60.37
 -10  -5  15   42.69   40.15
 -10  -5  16   24.95   42.08
  10  -5 -21    3.66   52.30
  10  -5 -22  -21.11   22.34
  10  -5 -23   87.77   62.10
  10  -5 -24   91.58   48.33
  10  -5 -25   83.92   64.45
  10  -5 -26  141.81   70.74
  10  -5 -27   70.67   65.83
  10  -5 -28  117.38   57.81
  10   6 -29   -1.23   37.64
   6 -10 -28   47.29   91.21
   6 -10 -27  -75.76   47.85
   6 -10 -26   50.00   82.71
   6 -10 -25   16.45   65.29
   6 -10 -24   96.59   82.28
   6 -10 -23   38.42   41.58
   6 -10 -22  -57.03   62.10
   6 -10 -21   33.77   33.63
   6 -10 -20   -3.17   43.00
   6 -10 -19  -45.41   22.68
   6 -10 -18   13.08   49.62
   6 -10 -17   32.95   51.78
  -6  10 -17    5.70   38.82
   6 -10 -16   38.40   49.49
  -6  10 -16   76.93   48.45
   6 -10 -15  -16.66   30.64
  -6  10 -15   37.78   20.97
   6 -10 -14   89.18   59.91
  -6  10 -14  117.78   65.92
   6 -10 -13  118.68   48.94
  -6  10 -13   37.73   36.90
   6 -10 -12  132.07   61.18
  -6 -10  12   69.23   16.09
  -6  10 -12  158.16   69.99
   6 -10 -11   80.04   34.39
  -6  10 -11   60.72   35.21
 -10   6  10   84.59   35.33
   6 -10 -10   60.45   41.79
  -6  10 -10   51.19   25.82
   6 -10  -9   60.28   33.94
 -10   6   9  -38.08   57.51
  -6  10  -9   30.66   43.11
   6 -10  -8   64.96   39.70
 -10   6   8   20.56   63.82
  -6  10  -8   35.48   46.36
   6 -10  -7    0.30   15.93
  -6  10  -7  -16.11   29.01
 -10   6   7   20.35   51.70
   6 -10  -6  121.13   50.19
 -10   6   6  -37.65   29.17
  -6  10  -6  225.54   79.60
   6 -10  -5   46.74   29.97
 -10   6   5  -38.31   49.40
  -6  10  -5  -17.68   47.81
  -6  10  -4   22.94   34.83
   6 -10  -4   99.20   41.83
 -10   6   4   37.37   54.07
  -6  10  -3  147.03   67.40
   6 -10  -3  159.83   52.40
 -10   6   3  119.28   68.21
   6 -10  -2  246.86   58.85
 -10   6   2   88.27   68.46
   6 -10  -1   32.36   23.01
 -10   6   1   68.08   55.42
   6 -10   0  299.92   62.15
 -10   6   0  233.67   83.66
   6 -10   1   68.81   31.22
 -10   6  -1   30.73   38.11
   6 -10   2  159.60   38.21
 -10   6  -2  159.53   70.49
   6 -10   3  129.08   32.85
 -10   6  -3  110.89   58.10
   6 -10   4   93.33   25.56
 -10   6  -4   72.97   43.43
   6 -10   5    2.41   11.51
 -10   6  -5   61.58   44.25
   6 -10   6  121.69   25.64
 -10   6  -6  103.20   53.68
 -10   6  -7  -25.24   34.36
 -10   6  -8   36.47   36.58
 -10  -6   8   52.99   36.42
 -10   6  -9  -22.60   36.47
 -10  -6   9    5.76   25.13
 -10  -6  10   12.41   29.14
 -10   6 -10   13.50   35.19
 -10  -6  11   65.33   22.42
 -10   6 -11   70.51   48.45
 -10   6 -12   59.91   42.98
 -10  -6  12  105.40   52.05
 -10   6 -13   97.98   52.20
 -10  -6  13   94.22   47.92
 -10   6 -14  177.04   75.14
 -10  -6  14  212.33   61.66
 -10   6 -15   80.15   61.45
 -10  -6  15   21.42   30.43
 -10   6 -16   82.56   52.33
 -10  -6  16  123.40   62.08
 -10   6 -17   71.71   71.91
  10  -6 -19   74.59   61.38
  10  -6 -20    8.51   18.55
  10  -6 -21   15.93   38.58
  10  -6 -22  -27.15   40.97
  10  -6 -23   91.04   66.90
  10  -6 -24   82.87   77.22
  10  -6 -25   33.32   48.55
  10  -6 -26   13.85   38.59
  10  -6 -27   -5.88   43.88
  10  -6 -28  -48.94   34.12
   7 -10 -27    4.94   32.28
   7 -10 -26   19.23   28.51
   7 -10 -25   15.95   61.81
   7 -10 -24   54.26   66.62
   7 -10 -23   43.27   33.98
   7 -10 -22    1.77   27.37
   7 -10 -21   33.37   40.95
   7 -10 -20  -35.99   36.21
   7 -10 -19   27.54   29.34
   7 -10 -18   43.73   35.11
   7 -10 -17   62.15   50.07
  -7  10 -17   24.26   19.39
   7 -10 -16   -8.30   46.09
  -7  10 -16  -53.09   42.62
   7 -10 -15   85.47   54.96
  -7  10 -15   63.49   46.58
   7 -10 -14    5.99   24.09
  -7  10 -14   58.84   52.00
   7 -10 -13   56.80   38.18
  -7  10 -13   13.79   27.09
   7 -10 -12  107.23   53.73
  -7 -10  12   83.35   23.00
  -7  10 -12   76.52   48.99
   7 -10 -11  141.96   67.67
  -7 -10  11   90.76   34.97
  -7  10 -11  144.34   66.64
   7 -10 -10   53.84   32.52
  -7  10 -10  138.22   72.28
 -10   7   9  -21.05   58.81
   7 -10  -9   24.57   37.59
  -7  10  -9   28.41   23.78
 -10   7   8  117.18   77.39
   7 -10  -8  102.67   48.85
  -7  10  -8   55.06   40.53
 -10   7   7   90.21   53.41
   7 -10  -7  108.89   49.69
  -7  10  -7  208.84   77.77
   7 -10  -6   -0.85   21.04
  -7  10  -6  -12.73   47.38
 -10   7   6  -80.93   77.47
   7 -10  -5  217.84   61.88
 -10   7   5   78.38   55.98
  -7  10  -5  133.17   54.88
   7 -10  -4  119.50   48.08
 -10   7   4   67.29   50.28
  -7  10  -4  177.11   81.37
   7 -10  -3   64.08   35.97
  -7  10  -3   80.84   54.21
 -10   7   3   31.70   31.24
  -7  10  -2   41.12   45.41
   7 -10  -2   81.62   35.71
 -10   7   2   20.51   42.16
  -7  10  -1  -81.42   73.60
   7 -10  -1   41.41   28.09
 -10   7   1   37.77   34.93
  -7  10   0   56.00   41.41
   7 -10   0   89.46   38.73
 -10   7   0  249.74   99.72
   7 -10   1   43.61   23.03
 -10   7  -1   42.07   45.66
   7 -10   2  166.28   41.72
 -10   7  -2  242.52   87.37
   7 -10   3   87.95   28.94
 -10   7  -3   70.22   47.99
   7 -10   4  118.17   34.11
 -10   7  -4   67.46   55.46
   7 -10   5  233.76   42.26
 -10   7  -5  151.34   71.09
   7 -10   6   19.44   16.35
 -10   7  -6   40.70   37.39
   7 -10   7   82.25   23.44
 -10   7  -7  116.60   56.56
   7 -10   8   48.21   14.17
 -10   7  -8   85.44   56.07
 -10  -7   9  -15.60   17.92
 -10   7  -9   87.37   53.03
 -10   7 -10   88.93   61.28
 -10  -7  10   41.52   32.11
 -10   7 -11   83.25   55.05
 -10  -7  11   70.48   37.65
 -10  -7  12   71.36   35.78
 -10   7 -12  163.35   70.81
 -10   7 -13   35.34   30.37
 -10  -7  13   36.82   39.86
 -10   7 -14   77.28   48.93
 -10  -7  14   73.09   32.46
 -10   7 -15   19.24   23.95
 -10  -7  15  -36.91   42.98
 -10   7 -16   35.48   52.66
  10  -7 -17  133.92   66.32
 -10   7 -17   74.43   60.47
  10  -7 -18   36.84   45.88
 -10   7 -18   62.10   57.72
  10  -7 -19  -34.80   36.67
 -10   7 -19   66.66   52.77
  10  -7 -20  -47.97   52.24
 -10   7 -20   63.97   40.78
  10  -7 -21   32.41   53.54
 -10   7 -21   20.36   43.60
  10  -7 -22   40.01   37.91
  10  -7 -23  121.15   77.42
  10  -7 -24  -27.64   38.67
  10  -7 -25   20.98   33.61
  10  -7 -26  -20.28   51.65
  10  -7 -27 -138.17   96.14
   8 -10 -27  -25.81   62.95
   8 -10 -26  131.53   86.69
   8 -10 -25   32.22   60.55
   8 -10 -24 -103.29   76.27
   8 -10 -23  -48.68   30.19
   8 -10 -22   -6.10   34.70
   8 -10 -21  -37.78   49.16
   8 -10 -20  -22.20   21.89
   8 -10 -19  102.03   82.82
   8 -10 -18   71.90   54.28
   8 -10 -17   -4.10   19.79
  -8  10 -17   22.72   35.41
   8 -10 -16  -38.41   39.68
  -8  10 -16   24.31   41.75
   8 -10 -15   57.67   44.71
  -8  10 -15   57.92   54.02
   8 -10 -14    9.21   26.93
  -8  10 -14   54.72   51.63
   8 -10 -13   52.26   44.25
  -8  10 -13   -1.48   22.31
   8 -10 -12   -0.11   21.40
  -8 -10  12   55.25   28.47
  -8  10 -12   81.00   46.99
   8 -10 -11  102.48   55.14
  -8 -10  11  142.94   44.15
  -8  10 -11  125.52   74.57
   8 -10 -10  120.67   57.96
  -8  10 -10  146.98   66.65
   8 -10  -9   54.00   40.52
  -8  10  -9   60.11   46.08
   8 -10  -8   78.61   44.03
  -8  10  -8   71.68   61.31
 -10   8   7   10.06   35.90
   8 -10  -7   85.44   52.77
  -8  10  -7   76.51   45.73
 -10   8   6  152.73   80.54
   8 -10  -6  186.02   66.54
  -8  10  -6  286.31   98.78
 -10   8   5   35.12   58.74
   8 -10  -5   55.01   38.86
  -8  10  -5   50.92   44.46
  -8  10  -4  -14.91   28.35
 -10   8   4    3.57   47.45
  -8  10  -3  187.28   84.54
 -10   8   3  211.87  104.45
 -10   8   2   -6.76   29.07
  -8  10  -2   11.27   29.15
  -8  10  -1   19.03   24.98
 -10   8   1  -23.45   54.23
  -8  10   0  -36.07   47.94
 -10   8   0  -93.04   83.11
  -8  10   1   50.75   48.66
 -10   8  -1    9.59   26.32
 -10   8  -2   47.57   54.07
 -10   8  -3  133.32   70.56
 -10   8  -4   40.56   53.26
 -10   8  -5   20.15   45.12
 -10   8  -6  252.57   97.58
 -10   8  -7   90.35   68.38
 -10   8  -8   -7.40   44.70
 -10   8  -9  133.35   69.04
 -10  -8  10  136.70   52.36
 -10   8 -10  113.24   53.72
 -10  -8  11   21.63   28.60
 -10   8 -11   22.19   28.49
 -10  -8  12   49.69   41.09
 -10   8 -12   14.06   30.93
 -10  -8  13  -25.74   26.51
 -10   8 -13    8.03   24.45
 -10   8 -14   60.50   29.06
 -10  -8  14   21.76   37.70
  10  -8 -15  196.65   72.24
 -10   8 -15   39.59   29.37
  10  -8 -16    0.06   26.47
 -10   8 -16   -9.71   31.14
  10  -8 -17   -7.03   22.10
 -10   8 -17   84.48   60.11
  10  -8 -18   53.63   45.72
 -10   8 -18   44.64   30.97
  10  -8 -19   34.04   33.42
 -10   8 -19  -23.06   33.90
  10  -8 -20   -0.30   32.07
 -10   8 -20    2.33   30.73
  10  -8 -21  104.24   57.17
  10  -8 -22   66.58   61.88
  10  -8 -23  -10.71   46.69
  10  -8 -24   84.95   62.74
  10  -8 -25  -76.22   80.31
  10  -8 -26  -15.33   49.94
  10  -8 -27  144.54   83.16
   9 -10 -26   65.87   70.89
   9 -10 -25  -65.08   63.24
   9 -10 -24  -41.50   34.44
   9 -10 -23   11.87   39.62
   9 -10 -22   43.98   71.06
   9 -10 -21  -15.34   40.51
   9 -10 -20   47.62   51.42
   9 -10 -19   86.45   63.71
   9 -10 -18   21.05   30.66
   9 -10 -17  -27.84   44.51
  -9  10 -17  -61.15   42.33
   9 -10 -16   10.41   45.89
  -9  10 -16  -21.04   27.90
   9 -10 -15    5.73   42.28
  -9  10 -15   43.52   40.85
   9 -10 -14   41.75   48.02
  -9  10 -14   32.75   49.94
   9 -10 -13   -8.28   40.73
  -9  10 -13   -9.04   27.66
   9 -10 -12   -4.95   32.87
  -9 -10  12   19.77   23.63
  -9  10 -12   -3.80   41.50
   9 -10 -11   39.56   38.37
  -9 -10  11    8.60   26.01
  -9  10 -11   76.63   50.69
   9 -10 -10   60.94   47.08
  -9  10 -10   43.86   44.45
   9 -10  -9   52.72   36.96
  -9  10  -9  125.75   77.99
   9 -10  -8   55.72   42.60
  -9  10  -8   52.86   64.84
  -9  10  -7   91.73   58.43
 -10   9   6   73.17   72.00
  -9  10  -6  181.85   87.00
 -10   9   5  -24.18   33.14
  -9  10  -5  190.22   84.51
 -10   9   4   85.30   58.39
  -9  10  -4  154.72   79.02
 -10   9   3  -10.92   33.83
  -9  10  -3 -107.73   77.39
  -9  10  -2   71.48   55.26
 -10   9   2    1.73   48.12
 -10   9   1  -17.28   54.75
  -9  10  -1   39.60   47.38
 -10   9   0   61.71   52.73
  -9  10   0  165.72   85.01
  -9  10   1 -110.96   83.34
 -10   9  -1  -58.25   62.29
  -9  10   2   60.78   58.79
 -10   9  -2   31.49   36.44
  -9  10   3  -74.33   67.63
 -10   9  -3   64.43   62.16
 -10   9  -4   39.36   42.27
 -10   9  -5  159.61   77.39
 -10   9  -6  140.09   75.84
 -10   9  -7   42.04   50.83
 -10   9  -8   52.51   51.77
 -10   9  -9   67.17   59.72
 -10  -9  10   -7.66   25.78
 -10   9 -10    4.81   31.84
 -10  -9  11  -10.97   14.74
 -10   9 -11  -18.56   38.49
 -10   9 -12   11.06   31.53
 -10  -9  12   38.80   20.61
  10  -9 -13  -31.37   40.67
 -10  -9  13   -3.78   29.90
 -10   9 -13  -16.49   38.29
  10  -9 -14   -7.98   27.24
 -10   9 -14   64.77   37.41
  10  -9 -15   17.28   25.16
 -10   9 -15  -26.30   52.20
  10  -9 -16    2.57   33.55
 -10   9 -16  -27.26   34.65
  10  -9 -17   -2.70   33.52
 -10   9 -17  -26.07   56.52
  10  -9 -18   39.11   23.46
 -10   9 -18   29.22   38.65
  10  -9 -19   38.32   52.55
 -10   9 -19   57.57   50.84
  10  -9 -20  123.41   66.58
  10  -9 -21   -4.19   52.37
  10  -9 -22  118.62   70.82
  10  -9 -23   88.08   68.80
  10  -9 -24  236.91   97.27
  10  -9 -25  -28.76   53.11
  10  -9 -26   51.15   66.61
 -10  10   0   20.74   58.81
 -10  10  -1   32.12   70.21
 -10  10   1   76.71   62.80
 -10  10   2  164.72   83.26
 -10  10  -2    5.03   58.59
 -10  10   3   99.24   68.86
 -10  10  -3  109.83   69.21
 -10  10   4   82.73   88.86
 -10  10  -4  199.68  109.22
 -10  10  -5  103.88   66.87
 -10  10  -6  120.10   75.30
 -10  10  -7    2.57   32.76
 -10  10  -8   59.91   35.34
 -10  10  -9   74.63   55.59
  10 -10 -10   15.61   42.15
 -10  10 -10   28.97   55.94
  10 -10 -11  -14.64   34.49
 -10 -10  11   19.33   36.30
 -10  10 -11   71.05   47.80
  10 -10 -12   -2.89   23.32
 -10  10 -12  -72.54   62.02
  10 -10 -13    8.29   26.89
 -10  10 -13   75.11   69.62
  10 -10 -14   11.13   24.68
 -10  10 -14   73.58   67.47
  10 -10 -15  -28.48   26.87
 -10  10 -15  119.14   64.50
  10 -10 -16   69.23   46.79
 -10  10 -16   62.36   37.63
  10 -10 -17   21.52   43.42
 -10  10 -17   92.71   48.34
  10 -10 -18   -0.30   25.91
 -10  10 -18   57.48   32.14
  10 -10 -19  105.35   75.62
  10 -10 -20   73.89   64.09
  10 -10 -21   49.83   55.73
  10 -10 -22   77.81   57.79
  10 -10 -23  140.20   85.64
  10 -10 -24  -12.25   43.34
  10 -10 -25   99.69   72.48
 -11   0   0  359.39   90.69
   0  11  -1  377.05   59.93
 -11   0   1  314.77   85.77
   0  11  -2   72.50   26.24
 -11   0   2   46.22   40.06
   0  11  -3   72.88   27.15
 -11   0   3  139.05   62.10
   0  11  -4   55.33   22.02
 -11   0   4   53.42   21.49
   0  11  -5   30.04   17.72
 -11   0   5    8.28   32.43
   0 -11   5   24.10   27.59
   0  11  -6   15.66    9.98
 -11   0   6   -9.10   26.72
   0 -11   6   25.92   25.36
   0  11  -7   42.97   15.73
 -11   0   7   27.44   34.87
   0 -11   7   57.21   38.37
   0  11  -8   57.44   15.49
   0 -11   8   68.71   27.25
 -11   0   8   26.46   29.68
   0  11  -9   73.64   16.40
   0 -11   9   80.63   26.68
 -11   0   9   56.21   53.90
   0  11 -10   26.83   11.16
   0 -11  10   16.00   15.98
 -11   0  10   42.14   56.67
 -11   0  11  764.01  157.31
   0 -11 -12  165.37   68.18
 -11   0  12  135.51   63.48
   0 -11 -13  232.46   78.09
 -11   0  13  155.26   72.41
   0 -11 -14   71.38   54.62
 -11   0  14   25.50   64.47
   0 -11 -15  106.64   64.61
 -11   0  15  113.00   63.12
   0 -11 -16  360.33  123.08
   0 -11 -17  138.30   80.96
   0 -11 -18  -78.65   62.97
   0 -11 -19   98.54   68.29
   0 -11 -20   78.76   80.63
   0 -11 -21    3.27   33.81
   0 -11 -22   99.90   89.05
  11   0 -27   79.37   83.32
  11   0 -28  -14.76   31.33
  11   0 -29  -57.94   63.40
  11   0 -30   -4.05   43.49
  11   1 -30  141.70   92.46
  11   1 -29   -0.43   31.09
  11   1 -28    4.56   39.25
   1 -11 -27  197.66  118.50
  11   1 -27   59.62   32.00
   1 -11 -26   67.13   70.01
   1 -11 -25  -32.97   73.13
   1 -11 -24   98.41   52.96
   1 -11 -23  145.20   89.25
   1 -11 -22   28.20   25.01
   1 -11 -21  -23.38   26.37
   1 -11 -20   90.52   71.93
   1 -11 -19  -49.59   55.23
   1 -11 -18   45.24   54.71
   1 -11 -17   67.19   56.93
   1 -11 -16   86.35   62.78
   1 -11 -15  192.81   80.86
 -11   1  15   85.07   56.29
   1 -11 -14   46.23   35.36
 -11   1  14   10.01   45.26
   1 -11 -13  168.93   71.90
 -11   1  13  336.45  114.11
   1 -11 -12   53.12   54.69
 -11   1  12  -51.07   59.31
   1 -11 -11  299.11   93.91
 -11   1  11  169.02   74.86
   1 -11 -10  600.29  119.02
  -1 -11  10  413.12   49.34
 -11   1  10  563.88  133.84
   1 -11  -9   91.36   53.26
  -1 -11   9   78.23   23.99
 -11   1   9   80.74   60.11
   1 -11  -8   50.92   43.44
 -11   1   8   15.79   42.94
  -1 -11   8   65.53   27.91
   1 -11  -7  103.84   47.66
 -11   1   7    9.01   43.32
  -1 -11   7   77.92   34.77
   1 -11  -6   63.66   43.59
  -1 -11   6   36.97   30.19
 -11   1   6   13.76   26.80
  -1  11  -5   24.36   18.72
 -11   1   5   -0.12   27.01
  -1  11  -4    6.19   11.11
 -11   1   4  -53.40   44.09
  -1  11  -3  283.76   45.25
 -11   1   3  218.87   68.32
  -1  11  -2  258.68   47.79
 -11   1   2  148.09   63.23
  -1  11  -1  752.73   85.00
 -11   1   1  594.99  122.02
 -11   1   0   23.45   35.43
 -11   1  -1  563.12  114.79
   1  11  -2  269.13   52.74
 -11   1  -2  194.70   79.53
 -11  -1   2  261.29   79.48
   1  11  -3  330.29   56.27
 -11  -1   3  265.45   86.06
   1  11  -4   20.39   17.81
 -11  -1   4  -37.66   32.57
   1  11  -5   58.76   25.18
 -11  -1   5  -21.05   34.70
 -11  -1   6   42.45   23.23
   1 -11   6   35.07   32.41
 -11  -1   7   54.54   30.95
   1 -11   7   67.44   35.09
   1 -11   8   15.73   14.50
 -11  -1   8    4.50   27.82
   1 -11   9   88.40   30.69
 -11  -1   9  195.21   84.94
 -11  -1  10  415.28  117.65
 -11  -1  11  177.42   78.76
 -11  -1  12    9.28   27.74
 -11  -1  13  123.12   80.34
 -11  -1  14   84.91   50.60
 -11  -1  15  139.85   72.64
  11  -1 -26  -37.64   46.28
  11  -1 -27   -8.93   39.79
  11  -1 -28   25.82   51.44
  11  -1 -29   66.07   80.27
  11   2 -30  -51.24   60.10
  11   2 -29   87.21   71.28
   2 -11 -28  -59.82   56.98
  11   2 -28    8.71   27.38
   2 -11 -27   15.39   42.58
   2 -11 -26  -55.95   79.93
   2 -11 -25   56.06   84.03
   2 -11 -24   14.19   49.46
   2 -11 -23    9.78   47.84
   2 -11 -22  119.57   76.01
   2 -11 -21  139.96  104.35
   2 -11 -20  -53.63   64.44
   2 -11 -19  123.38   65.93
   2 -11 -18  210.97   92.02
   2 -11 -17   23.65   39.87
   2 -11 -16  193.12   82.24
   2 -11 -15   32.10   38.26
   2 -11 -14   89.45   52.57
 -11   2  14  101.07   69.20
   2 -11 -13  113.12   69.02
 -11   2  13   75.37   70.76
   2 -11 -12  188.33   71.72
 -11   2  12  118.10   72.89
   2 -11 -11   17.30   27.53
 -11   2  11  -23.46   55.41
   2 -11 -10  166.73   68.86
  -2 -11  10   41.97   11.47
 -11   2  10   48.99   30.22
   2 -11  -9  380.75   94.19
 -11   2   9  280.56  101.73
  -2 -11   9  270.88   47.86
   2 -11  -8  121.74   55.49
  -2 -11   8  151.61   38.27
 -11   2   8   71.97   55.28
   2 -11  -7  115.96   51.91
 -11   2   7  134.16   69.01
   2 -11  -6   62.60   32.26
 -11   2   6   30.31   39.05
   2 -11  -5    3.84   28.30
 -11   2   5  -56.59   74.16
   2 -11  -4  100.31   42.71
 -11   2   4   19.51   36.48
   2 -11  -3  311.96   70.02
 -11   2   3  218.89   75.63
 -11   2   2   77.93   47.72
 -11   2   1   80.55   46.23
 -11   2   0  290.81   89.35
 -11   2  -1   77.34   53.98
 -11   2  -2  116.05   54.10
 -11  -2   3  411.53   94.75
 -11   2  -3  178.24   72.58
 -11   2  -4  131.23   62.06
 -11  -2   4  123.52   56.71
 -11  -2   5    7.58   21.47
 -11  -2   6   15.18   23.93
   2 -11   7   77.55   38.58
 -11  -2   7   98.32   50.06
   2 -11   8  138.12   41.50
 -11  -2   8  109.88   52.42
   2 -11   9  331.56   59.86
 -11  -2   9  330.57   95.32
 -11  -2  10   78.20   52.89
 -11  -2  11  -23.30   31.66
 -11  -2  12   48.46   37.91
 -11  -2  13  148.40   76.33
 -11  -2  14   19.59   37.27
 -11  -2  15   23.70   48.54
 -11  -2  16  101.76   69.90
  11  -2 -25  -31.84   22.70
  11  -2 -26   56.00   67.98
  11  -2 -27   34.70   53.64
  11  -2 -28  -35.41   35.90
  11  -2 -29   63.88   60.00
  11   3 -31  100.25   75.33
  11   3 -30  -96.26   50.74
  11   3 -29   44.95   40.03
   3 -11 -28   33.89   66.55
  11   3 -28   42.03   53.37
   3 -11 -27   38.94   62.43
   3 -11 -26  168.52  101.46
   3 -11 -25   61.55   61.07
   3 -11 -24  -35.72   57.14
   3 -11 -23    3.63   44.16
   3 -11 -22  -49.58   49.79
   3 -11 -21   38.76   51.24
   3 -11 -20   88.50   59.78
   3 -11 -19  -19.91   45.55
   3 -11 -18   49.52   69.89
   3 -11 -17  -33.51   47.42
   3 -11 -16   42.61   25.15
   3 -11 -15  332.89  116.12
   3 -11 -14  133.15   68.38
   3 -11 -13   11.30   33.62
 -11   3  13  -30.21   32.08
   3 -11 -12   -8.80   39.03
 -11   3  12  134.84   93.54
   3 -11 -11   31.40   40.07
 -11   3  11  -11.23   49.19
   3 -11 -10   50.36   41.19
 -11   3  10    6.49   32.53
  -3 -11  10   40.46   21.93
   3 -11  -9  210.34   71.10
 -11   3   9  176.67   75.09
   3 -11  -8   93.92   46.03
 -11   3   8  -13.05   53.21
   3 -11  -7  161.54   62.70
 -11   3   7  175.85   68.16
   3 -11  -6   70.10   45.31
 -11   3   6  120.15   77.67
   3 -11  -5  179.32   56.42
 -11   3   5   76.79   43.29
   3 -11  -4   14.63   16.98
 -11   3   4  -45.38   68.12
   3 -11  -3   33.51   27.23
 -11   3   3  -34.43   50.29
   3 -11  -2  145.32   43.27
 -11   3   2  143.60   67.29
   3 -11  -1  274.78   59.60
 -11   3   1  204.85   73.35
   3 -11   0    7.81   14.87
 -11   3   0   12.88   28.98
 -11   3  -1  213.83   75.25
 -11   3  -2   54.30   43.12
 -11   3  -3   19.49   32.71
 -11  -3   4   13.39   17.40
 -11   3  -4   34.23   26.68
 -11  -3   5  147.59   55.41
 -11   3  -5  187.17   66.72
 -11   3  -6   39.95   27.16
 -11  -3   6   38.03   39.83
 -11  -3   7  130.25   50.42
 -11  -3   8   -4.03   37.16
 -11  -3   9  287.98   85.30
 -11  -3  10  104.11   53.96
 -11  -3  11   46.45   43.43
 -11  -3  12   20.43   32.21
 -11  -3  13   77.61   53.83
 -11  -3  14  121.38   49.72
 -11  -3  15  339.54  111.44
 -11  -3  16  102.04   60.27
  11  -3 -24    0.40   35.26
  11  -3 -25   -4.69   44.64
  11  -3 -26  -11.12   25.64
  11  -3 -27   88.05   94.46
  11  -3 -28  -24.25   34.51
  11  -3 -29  -28.25   57.17
  11   4 -31   78.41   57.14
  11   4 -30  125.86   39.80
  11   4 -29   55.79   45.44
   4 -11 -28   47.32   75.69
   4 -11 -27  -67.69   50.71
   4 -11 -26  -58.92   46.88
   4 -11 -25  -46.26   62.61
   4 -11 -24  109.71   89.77
   4 -11 -23   13.91   52.91
   4 -11 -22   65.16   71.85
   4 -11 -21  -28.11   41.16
   4 -11 -20   48.00   61.78
   4 -11 -19   56.44   41.44
   4 -11 -18  -16.18   26.25
   4 -11 -17   42.52   55.04
   4 -11 -16   14.22   28.20
   4 -11 -15    4.34   27.34
   4 -11 -14   68.09   56.56
   4 -11 -13   13.35   34.19
   4 -11 -12   47.96   36.16
 -11   4  12  -49.42   73.52
   4 -11 -11  104.34   53.53
 -11   4  11  124.28   65.31
  -4 -11  11   45.87   15.91
   4 -11 -10  172.90   63.78
 -11   4  10   53.29   50.81
   4 -11  -9   65.58   44.46
 -11   4   9  -31.22   63.22
   4 -11  -8  -11.19   23.87
 -11   4   8   46.38   58.31
   4 -11  -7   95.67   45.93
 -11   4   7   45.12   52.22
   4 -11  -6   30.49   32.49
 -11   4   6   25.43   51.42
   4 -11  -5   83.44   39.98
 -11   4   5  115.01   52.03
   4 -11  -4  171.80   51.01
 -11   4   4  136.65   72.29
   4 -11  -3   78.43   36.01
 -11   4   3  -15.36   31.88
   4 -11  -2  223.06   61.34
 -11   4   2   45.89   54.13
   4 -11  -1   98.46   37.17
 -11   4   1    6.67   22.70
   4 -11   0  158.01   47.75
 -11   4   0   72.86   51.19
   4 -11   1   47.28   23.11
 -11   4  -1   70.91   47.36
   4 -11   2  170.08   39.96
 -11   4  -2  222.61   84.06
 -11   4  -3   58.98   51.48
 -11   4  -4   50.10   47.16
 -11   4  -5   80.12   48.93
 -11   4  -6   16.47   25.83
 -11  -4   6  -14.17   23.76
 -11  -4   7   92.71   59.67
 -11   4  -7   24.60   42.03
 -11  -4   8  142.73   52.85
 -11   4  -8   49.89   33.90
 -11   4  -9   48.80   46.48
 -11  -4   9   17.25   39.10
 -11  -4  10  128.36   65.96
 -11  -4  11   87.12   54.76
 -11  -4  12   20.04   35.62
 -11  -4  13   20.93   34.96
 -11  -4  14   96.93   51.30
 -11  -4  15    3.08   37.91
 -11  -4  16  112.20   43.32
  11  -4 -23   94.69   70.27
  11  -4 -24  -13.22   44.48
  11  -4 -25  -19.59   48.72
  11  -4 -26  -47.24   26.85
  11  -4 -27  162.69   94.61
  11  -4 -28   77.86   67.38
  11   5 -31  -54.96   47.00
  11   5 -30   21.00   29.80
  11   5 -29  113.98   74.34
   5 -11 -27  -29.92   59.19
   5 -11 -26   17.97   49.26
   5 -11 -25   63.06   61.28
   5 -11 -24  -68.38   91.20
   5 -11 -23  -15.87   44.68
   5 -11 -22  -15.04   37.21
   5 -11 -21    6.87   62.98
   5 -11 -20   35.26   52.42
   5 -11 -19  -30.63   54.59
   5 -11 -18  -11.27   30.32
   5 -11 -17  103.94   66.96
   5 -11 -16  231.00   92.93
   5 -11 -15  122.87   61.81
  -5  11 -15   26.77   39.64
   5 -11 -14   47.75   45.64
  -5  11 -14  140.91   59.61
   5 -11 -13  110.44   50.83
  -5  11 -13   15.13   44.54
   5 -11 -12   43.89   35.87
  -5  11 -12   39.11   34.13
 -11   5  12   38.63   51.95
   5 -11 -11  -74.49   41.33
 -11   5  11   -4.02   45.03
  -5  11 -11  -21.61   41.94
   5 -11 -10    8.33   34.51
  -5  11 -10  -15.69   33.39
 -11   5  10   42.66   51.44
   5 -11  -9   47.02   36.54
 -11   5   9  104.78   77.43
   5 -11  -8   48.57   35.37
 -11   5   8   25.93   38.00
   5 -11  -7  -28.55   34.11
 -11   5   7  -26.28   29.04
   5 -11  -6   14.73   29.91
 -11   5   6   36.84   57.51
   5 -11  -5   -0.49   17.14
 -11   5   5  -53.79   50.68
   5 -11  -4  266.75   67.32
 -11   5   4  315.25  113.93
   5 -11  -3   33.29   23.47
 -11   5   3   -6.35   23.89
   5 -11  -2   85.28   38.82
 -11   5   2   65.06   48.14
   5 -11  -1  279.62   65.21
 -11   5   1  302.85   94.65
   5 -11   0   35.49   26.66
 -11   5   0   32.12   42.65
   5 -11   1  338.56   61.17
 -11   5  -1  100.86   61.44
   5 -11   2   44.52   18.79
 -11   5  -2   45.92   32.32
   5 -11   3   35.21   19.19
 -11   5  -3   13.30   26.55
   5 -11   4  269.27   42.61
 -11   5  -4  208.14   83.25
 -11   5  -5   31.14   41.50
 -11   5  -6   10.03   28.88
 -11  -5   7    1.44   33.31
 -11   5  -7  -23.46   27.53
 -11   5  -8   82.07   53.94
 -11  -5   8   54.14   43.01
 -11  -5   9    5.19   25.75
 -11   5  -9   44.68   30.85
 -11   5 -10   74.92   77.24
 -11  -5  10   19.32   20.13
 -11   5 -11   15.81   21.77
 -11  -5  11  -32.90   36.54
 -11   5 -12  100.16   61.07
 -11  -5  12   40.39   35.16
 -11   5 -13  151.48   71.62
 -11  -5  13  118.84   68.76
 -11  -5  14   76.88   63.73
 -11  -5  15   87.84   41.37
 -11  -5  16  196.63   75.38
 -11  -5  17  140.21   67.29
  11  -5 -22   48.71   56.56
  11  -5 -23   -2.80   38.90
  11  -5 -24   45.42   43.33
  11  -5 -25  -33.89   31.69
  11  -5 -26    4.17   49.16
  11  -5 -27   37.67   49.12
  11  -5 -28  -52.80   49.15
   6 -11 -27  -29.39   48.89
   6 -11 -26  -56.44   65.14
   6 -11 -25  -23.27   66.74
   6 -11 -24  -11.93   30.49
   6 -11 -23  147.41   85.89
   6 -11 -22   -9.69   41.65
   6 -11 -21   37.84   44.89
   6 -11 -20   60.65   40.81
   6 -11 -19  -29.58   26.99
   6 -11 -18    3.51   30.52
   6 -11 -17   46.95   38.93
   6 -11 -16  233.04   97.68
   6 -11 -15  177.36   72.45
  -6  11 -15  161.76   75.21
   6 -11 -14   -0.85   44.48
  -6  11 -14    7.00   28.22
   6 -11 -13  107.10   48.98
  -6  11 -13  107.31   61.90
   6 -11 -12   28.21   40.03
  -6  11 -12   32.39   44.94
 -11   6  11  -48.52   69.94
   6 -11 -11   -7.47   30.57
  -6  11 -11   27.03   22.73
 -11   6  10   49.55   40.77
   6 -11 -10   28.02   27.83
  -6  11 -10    2.79   22.69
 -11   6   9   76.46   93.97
   6 -11  -9  -40.24   34.20
  -6  11  -9   55.45   50.54
   6 -11  -8    2.80   24.28
  -6  11  -8    9.27   36.53
 -11   6   8   -1.08   49.72
  -6  11  -7   17.73   22.25
   6 -11  -7   97.40   48.32
 -11   6   7   23.95   49.47
  -6  11  -6  -27.54   35.36
   6 -11  -6   -1.95   17.14
 -11   6   6  -52.86   51.25
   6 -11  -5  120.06   54.68
 -11   6   5   90.58   64.92
   6 -11  -4   26.12   23.27
 -11   6   4   24.85   30.14
   6 -11  -3  113.67   43.23
 -11   6   3  111.13   72.23
   6 -11  -2   20.36   22.62
 -11   6   2   27.76   52.19
   6 -11  -1  224.97   57.56
 -11   6   1  200.03   91.74
   6 -11   0   -0.26   11.38
 -11   6   0  109.72   64.49
   6 -11   1  305.46   61.48
 -11   6  -1  150.35   61.92
   6 -11   2   47.28   23.35
 -11   6  -2   26.08   40.91
   6 -11   3  153.77   39.12
 -11   6  -3   84.42   55.99
   6 -11   4   -3.13    9.82
 -11   6  -4  -16.95   32.71
   6 -11   5   53.43   18.93
 -11   6  -5   79.20   52.21
 -11   6  -6  -41.72   43.00
 -11   6  -7   15.88   20.48
 -11  -6   8   -3.60   22.41
 -11   6  -8  -22.72   31.52
 -11   6  -9  -16.85   26.43
 -11  -6   9   32.50   23.27
 -11  -6  10   38.56   39.24
 -11   6 -10   -5.92   30.57
 -11   6 -11   60.52   46.88
 -11  -6  11  -34.67   17.53
 -11  -6  12   66.80   42.77
 -11   6 -12   15.40   35.59
 -11   6 -13   67.71   37.87
 -11  -6  13   91.07   55.76
 -11   6 -14   59.04   45.63
 -11  -6  14   60.37   52.49
 -11   6 -15  173.73   80.73
 -11  -6  15  120.15   57.02
 -11   6 -16  131.60   80.53
 -11  -6  16   74.21   38.03
 -11   6 -17  149.76   72.31
 -11   6 -18   55.82   45.35
  11  -6 -20   30.53   50.23
  11  -6 -21   -3.25   31.21
  11  -6 -22   26.95   20.14
  11  -6 -23   51.26   52.07
  11  -6 -24   75.76   67.87
  11  -6 -25   22.63   45.27
  11  -6 -26   35.13   66.30
  11  -6 -27   -3.99   38.44
   7 -11 -26  147.98   94.99
   7 -11 -25   59.71   56.12
   7 -11 -24   18.49   50.24
   7 -11 -23   54.87   61.95
   7 -11 -22    3.43   32.00
   7 -11 -21   37.06   52.11
   7 -11 -20   31.61   43.57
   7 -11 -19   36.89   56.70
   7 -11 -18  -41.53   30.77
   7 -11 -17   32.07   21.79
   7 -11 -16   78.41   58.62
  -7  11 -16   93.25   54.20
   7 -11 -15   33.90   40.28
  -7  11 -15  -25.72   36.35
   7 -11 -14   64.44   43.29
  -7  11 -14   64.67   35.58
   7 -11 -13  137.44   80.67
  -7  11 -13  -15.20   24.10
   7 -11 -12   -8.56   37.77
  -7  11 -12   -6.73   33.71
   7 -11 -11   44.40   43.64
  -7  11 -11   29.76   44.18
   7 -11 -10  114.29   54.17
  -7  11 -10    6.82   33.69
 -11   7   9   29.30   41.11
   7 -11  -9    1.59   20.22
  -7  11  -9   19.12   32.49
 -11   7   8   73.35   85.72
   7 -11  -8   22.65   28.26
  -7  11  -8   37.89   42.97
   7 -11  -7    9.58   18.57
  -7  11  -7  -29.76   46.90
 -11   7   7   32.54   46.64
   7 -11  -6  -27.74   19.46
 -11   7   6   -9.60   49.34
  -7  11  -6   -7.92   29.87
  -7  11  -5  -46.50   39.46
   7 -11  -5   82.53   41.72
 -11   7   5  -32.29   44.11
  -7  11  -4   71.94   44.68
   7 -11  -4  223.75   63.40
 -11   7   4  312.53  116.69
  -7  11  -3  -24.62   48.51
   7 -11  -3   69.13   30.25
 -11   7   3   41.37   45.67
   7 -11  -2   -4.23   16.21
 -11   7   2   66.03   59.99
   7 -11  -1  178.25   51.47
 -11   7   1  201.28   84.78
   7 -11   0  -23.41   26.13
 -11   7   0   13.13   51.67
   7 -11   1  219.59   56.73
 -11   7  -1  359.08  118.23
   7 -11   2   47.10   30.75
 -11   7  -2   34.66   47.10
   7 -11   3   53.57   18.11
 -11   7  -3   41.01   51.14
   7 -11   4  199.95   44.77
 -11   7  -4  214.72   86.37
   7 -11   5   13.60   12.29
 -11   7  -5   35.31   30.55
   7 -11   6    4.84   13.83
 -11   7  -6   -0.28   33.37
   7 -11   7    4.04    8.40
 -11   7  -7  -67.14   57.24
 -11   7  -8  -27.28   45.65
 -11  -7   8    3.48   28.89
 -11  -7   9    1.64   24.31
 -11   7  -9   53.08   50.57
 -11  -7  10   27.06   25.58
 -11   7 -10  -55.36   46.32
 -11   7 -11   63.94   54.14
 -11  -7  11  -30.44   27.84
 -11   7 -12   35.00   35.77
 -11  -7  12  -19.06   23.41
 -11   7 -13   36.30   50.03
 -11  -7  13   41.31   34.92
 -11   7 -14  -27.66   50.03
 -11  -7  14   45.54   42.49
 -11   7 -15   41.77   38.79
 -11  -7  15  -36.43   36.33
 -11   7 -16   60.28   55.45
 -11   7 -17   77.62   64.53
 -11   7 -18   92.07   68.25
  11  -7 -19  -33.82   34.29
 -11   7 -19    6.96   46.17
  11  -7 -20  -21.79   49.47
 -11   7 -20  -52.72   34.25
  11  -7 -21   36.67   42.37
 -11   7 -21   -4.31   41.64
  11  -7 -22   -6.44   26.08
  11  -7 -23   -5.78   30.54
  11  -7 -24   62.87   68.55
  11  -7 -25  117.75   84.01
  11  -7 -26   -4.92   46.11
   8 -11 -26   18.11   88.86
   8 -11 -25  -18.81   43.68
   8 -11 -24  -10.70   35.87
   8 -11 -23  -49.92   68.79
   8 -11 -22   -4.27   24.76
   8 -11 -21  -59.72   32.25
   8 -11 -20   95.37   75.16
   8 -11 -19  -13.06   38.38
   8 -11 -18    3.65   27.67
   8 -11 -17  -15.97   36.23
   8 -11 -16   44.01   62.25
  -8  11 -16  113.80   73.88
   8 -11 -15   48.19   28.77
  -8  11 -15   62.07   52.05
   8 -11 -14   60.35   44.58
  -8  11 -14   32.83   48.91
   8 -11 -13  -19.04   32.90
  -8  11 -13  -13.92   30.73
   8 -11 -12   94.99   57.00
  -8  11 -12  132.86   72.42
   8 -11 -11   55.67   35.76
  -8  11 -11   -2.46   37.95
   8 -11 -10   67.51   44.03
  -8  11 -10   89.84   54.49
   8 -11  -9   19.07   28.35
  -8  11  -9   46.25   64.93
 -11   8   8  -37.85   76.06
   8 -11  -8   75.46   52.61
  -8  11  -8  -38.18   24.69
 -11   8   7  107.90   76.82
   8 -11  -7   26.31   28.00
  -8  11  -7   81.36   70.00
 -11   8   6   24.25   54.98
   8 -11  -6   32.04   31.49
  -8  11  -6   15.94   39.87
   8 -11  -5   76.41   46.85
  -8  11  -5   91.30   63.07
 -11   8   5  143.59   71.19
   8 -11  -4   70.12   42.21
 -11   8   4   86.65   70.37
  -8  11  -4  139.55   83.34
   8 -11  -3   49.15   35.17
  -8  11  -3  -17.55   33.16
 -11   8   3  -12.06   35.99
   8 -11  -2   53.69   27.31
  -8  11  -2   31.52   32.92
 -11   8   2   74.85   69.93
  -8  11  -1   34.84   45.76
   8 -11  -1   -1.18   17.43
 -11   8   1  -16.04   40.77
   8 -11   0   61.76   36.98
 -11   8   0   84.38   54.83
   8 -11   1   23.45   22.82
 -11   8  -1   39.14   38.05
   8 -11   2   62.97   37.73
 -11   8  -2   34.09   49.34
   8 -11   3   15.24   11.60
 -11   8  -3  -27.31   29.19
   8 -11   4   69.94   26.23
 -11   8  -4   77.86   64.42
   8 -11   5   77.57   26.62
 -11   8  -5   53.11   67.58
   8 -11   6   13.61   20.70
 -11   8  -6   42.55   41.96
   8 -11   7   40.25   19.73
 -11   8  -7  -16.16   24.96
   8 -11   8   -7.27    9.93
 -11   8  -8   23.32   46.99
 -11  -8   9   97.85   49.23
 -11   8  -9    3.31   31.17
 -11  -8  10   27.86   32.90
 -11   8 -10   -9.37   47.41
 -11  -8  11    8.28   32.18
 -11   8 -11   25.90   36.90
 -11  -8  12   38.25   23.46
 -11   8 -12   69.76   55.51
 -11  -8  13   42.46   33.48
 -11   8 -13  -43.68   41.88
 -11   8 -14   51.99   31.15
 -11  -8  14   15.06   32.70
 -11   8 -15   40.72   46.75
 -11   8 -16   20.97   44.74
  11  -8 -17   41.10   41.69
 -11   8 -17  -47.39   45.89
  11  -8 -18   -3.19   25.98
 -11   8 -18   74.54   48.99
  11  -8 -19   16.26   23.50
 -11   8 -19  -54.21   54.37
  11  -8 -20   82.52   56.51
 -11   8 -20  -23.92   33.08
  11  -8 -21   -3.54   33.11
  11  -8 -22  -17.20   39.86
  11  -8 -23   67.10   67.08
  11  -8 -24  -36.41   50.34
  11  -8 -25    3.24   38.46
  11  -8 -26  -28.91   60.09
   9 -11 -25   98.93   92.91
   9 -11 -24  -65.02   74.44
   9 -11 -23  -28.08   55.74
   9 -11 -22   87.81   62.85
   9 -11 -21   30.27   49.19
   9 -11 -20    4.17   32.36
   9 -11 -19   70.17   58.68
   9 -11 -18   77.17   52.78
   9 -11 -17   75.02   56.79
   9 -11 -16   91.01   60.16
  -9  11 -16   72.62   56.96
   9 -11 -15   24.00   43.15
  -9  11 -15   69.57   56.07
   9 -11 -14    8.47   38.08
  -9  11 -14   84.02   51.02
   9 -11 -13  -22.46   28.70
  -9  11 -13  -42.18   45.70
   9 -11 -12   48.34   32.50
  -9  11 -12   17.41   65.04
   9 -11 -11   40.22   43.53
  -9  11 -11  171.23   88.97
   9 -11 -10   -5.02   29.79
  -9  11 -10   21.48   54.05
   9 -11  -9   90.38   52.35
  -9  11  -9   -6.99   27.78
   9 -11  -8    1.96   30.16
  -9  11  -8   -0.74   24.67
   9 -11  -7   50.48   46.19
 -11   9   7   65.99   46.36
  -9  11  -7   83.36   58.94
 -11   9   6   -3.76   41.13
   9 -11  -6    9.71   22.88
 -11   9   5   42.70   68.92
   9 -11  -5   84.37   52.40
  -9  11  -5   72.77   58.37
   9 -11  -4   23.86   32.23
  -9  11  -4  141.34   74.17
 -11   9   4   32.37   52.63
   9 -11  -3   75.21   38.20
  -9  11  -3   47.60   63.82
 -11   9   3   11.57   49.55
  -9  11  -2   16.09   35.05
 -11   9   2  -20.06   53.88
  -9  11  -1   65.09   60.86
 -11   9   1   83.48   62.32
  -9  11   0   24.64   43.09
 -11   9   0  -42.33   64.95
  -9  11   1   86.43   68.34
 -11   9  -1   62.45   50.44
 -11   9  -2  105.54   67.78
 -11   9  -3  128.73   76.48
 -11   9  -4   46.87   55.17
 -11   9  -5    5.13   46.09
 -11   9  -6    3.11   42.53
 -11   9  -7  113.18   80.98
 -11   9  -8  102.84   66.96
 -11   9  -9   56.28   56.02
 -11  -9  10   37.89   41.86
 -11   9 -10   36.91   39.24
 -11   9 -11   86.45   53.32
 -11  -9  11   42.69   33.45
 -11   9 -12   57.78   42.81
 -11  -9  12   46.56   33.80
 -11   9 -13  -49.04   58.18
 -11   9 -14  -24.99   33.53
  11  -9 -15   29.96   28.00
 -11   9 -15    1.09   44.09
  11  -9 -16  -11.59   19.42
 -11   9 -16  -43.12   29.49
  11  -9 -17   39.44   39.33
 -11   9 -17  114.23   67.71
  11  -9 -18  -28.46   32.77
 -11   9 -18   26.25   44.74
  11  -9 -19   79.98   63.67
 -11   9 -19  129.15   77.67
  11  -9 -20   24.91   23.65
  11  -9 -21  -52.80   52.64
  11  -9 -22  115.05   54.27
  11  -9 -23   30.67   31.20
  11  -9 -24  -16.47   29.47
  11  -9 -25   85.47   59.15
  10 -11 -24  144.25  102.58
  10 -11 -23  -59.68   75.81
  10 -11 -22   11.34   33.62
  10 -11 -21   55.72   56.57
  10 -11 -20  156.18   84.71
  10 -11 -19  -48.11   45.31
  10 -11 -18  -11.67   43.36
  10 -11 -17   50.05   46.56
  10 -11 -16   51.08   56.01
 -10  11 -16   48.43   54.35
  10 -11 -15   67.28   42.05
 -10  11 -15  110.31   75.10
  10 -11 -14  -34.94   34.39
 -10  11 -14   38.32   66.73
  10 -11 -13   36.89   42.59
 -10  11 -13    3.70   53.03
  10 -11 -12   -4.64   18.55
 -10  11 -12  -31.89   46.85
  10 -11 -11   35.04   45.51
 -10  11 -11   42.37   52.72
  10 -11 -10   39.67   40.30
 -10  11 -10  176.02   82.03
  10 -11  -9   88.55   47.49
 -10  11  -9   92.61   57.73
  10 -11  -8    3.74   30.88
 -10  11  -8   38.41   29.09
  10 -11  -7   80.28   52.00
 -10  11  -7   29.80   49.07
 -10  11  -6  113.47   78.37
 -11  10   5  -35.15   56.34
 -10  11  -5   17.54   55.91
 -11  10   4    3.83   44.62
 -10  11  -4  -13.44   44.62
 -11  10   3   48.71   92.87
 -10  11  -3   82.76   59.72
 -10  11  -2  159.39  100.40
 -11  10   2   44.70   65.38
 -10  11  -1  -30.27   32.87
 -11  10   1    9.24   67.79
 -10  11   0  237.50  111.41
 -11  10   0  124.45   85.34
 -10  11   1  -73.84   73.62
 -11  10  -1   57.37   62.10
 -10  11   2  176.41   70.48
 -11  10  -2   46.85   44.44
 -11  10  -3  100.83   66.46
 -11  10  -4  -39.50   58.88
 -11  10  -5  137.28   88.48
 -11  10  -6    9.44   65.67
 -11  10  -7   94.17   74.04
 -11  10  -8   58.63   53.11
 -11  10  -9  115.16   72.33
 -11 -10  10  117.71   56.16
 -11  10 -10  177.01   91.71
 -11 -10  11   35.20   16.30
 -11  10 -11   11.28   26.43
  11 -10 -12   43.72   32.26
 -11  10 -12    7.51   36.63
  11 -10 -13   55.94   40.58
 -11  10 -13   25.82   54.75
  11 -10 -14  -15.69   37.35
 -11  10 -14   92.10   75.27
  11 -10 -15   -6.17   27.58
 -11  10 -15   28.00   49.05
  11 -10 -16   -6.16   21.60
 -11  10 -16   46.44   30.97
  11 -10 -17   -7.16   39.30
 -11  10 -17   53.52   37.53
  11 -10 -18   60.47   55.18
 -11  10 -18  -33.62   57.05
  11 -10 -19  166.72   89.50
  11 -10 -20   98.25   66.20
  11 -10 -21   56.19   62.24
  11 -10 -22   94.99   61.07
  11 -10 -23   63.14   68.25
  11 -10 -24  -40.53   54.95
 -11  11   0    0.45   42.49
 -11  11   1   32.22   63.96
 -11  11  -1  196.33  108.17
 -11  11   2   -8.04   49.01
 -11  11  -2   10.47   51.39
 -11  11   3   70.08  106.87
 -11  11  -3   32.53   41.79
 -11  11  -4  -28.07   61.21
 -11  11  -5   43.45   52.02
 -11  11  -6   98.93   80.74
 -11  11  -7    1.26   51.18
 -11  11  -8   12.51   57.94
  11 -11  -9   68.93   40.94
 -11  11  -9    1.04   28.96
  11 -11 -10   13.59   35.34
 -11  11 -10  141.91   82.22
  11 -11 -11   86.21   59.91
 -11  11 -11   48.99   56.75
  11 -11 -12    4.84   22.59
 -11  11 -12   33.93   37.48
  11 -11 -13   44.69   42.89
 -11  11 -13   43.68   63.21
  11 -11 -14   80.53   60.66
 -11  11 -14  116.64   85.87
  11 -11 -15   97.04   72.45
 -11  11 -15   15.45   53.10
  11 -11 -16    3.73   35.63
 -11  11 -16   -5.37   27.94
  11 -11 -17  -35.83   39.17
 -11  11 -17   65.63   64.90
  11 -11 -18   36.97   45.00
  11 -11 -19   13.25   38.29
  11 -11 -20    1.47   39.13
  11 -11 -21  -25.18   28.97
  11 -11 -22    7.24   55.58
  11 -11 -23   85.97   63.39
  11 -11 -24  -62.73   66.52
 -12   0   0  853.85  145.10
 -12   0   1   73.34   45.66
   0  12  -2   14.21   18.05
 -12   0   2  -19.65   19.88
   0  12  -3   15.23    9.25
 -12   0   3   -3.94   27.54
   0  12  -4  229.91   43.31
 -12   0   4  316.72   97.47
   0  12  -5   18.15   15.10
 -12   0   5   18.00   38.42
   0  12  -6   -5.87   12.75
 -12   0   6   18.51   29.85
   0  12  -7   14.12   13.89
 -12   0   7    3.67   36.60
   0 -12   7   44.33   37.15
   0  12  -8   50.26   16.77
 -12   0   8   23.89   39.70
   0 -12   8   55.46   35.51
   0  12  -9    7.44    7.64
   0 -12   9   68.69   33.35
 -12   0   9   27.76   44.29
   0  12 -10   74.95   14.25
   0 -12  10   74.23   28.94
 -12   0  10  182.15   82.07
 -12   0  11   54.17   59.50
 -12   0  12  491.15  127.87
 -12   0  13    4.92   42.67
 -12   0  14  -24.28   47.46
 -12   0  15  -59.98   41.99
 -12   0  16  188.77  105.00
  12   0 -27    5.09   44.60
  12   0 -28   64.97   68.61
  12   0 -29   29.71   26.94
  12   1 -29  -26.94   25.58
  12   1 -28  115.90   61.41
   1 -12 -25  -16.16   54.08
   1 -12 -24   61.23   66.68
   1 -12 -23  105.78   80.43
   1 -12 -22   44.91   52.17
   1 -12 -21  -11.54   31.15
   1 -12 -20  -18.97   39.89
   1 -12 -19    8.65   38.62
   1 -12 -18   58.15   57.59
   1 -12 -17   53.39   51.82
   1 -12 -16  -20.63   39.71
   1 -12 -15   84.29   47.15
 -12   1  15    0.09   50.83
   1 -12 -14  138.55   79.25
 -12   1  14  127.76   87.08
   1 -12 -13  178.87   75.38
 -12   1  13   68.36   66.63
   1 -12 -12  141.14   66.61
 -12   1  12  251.66  102.34
   1 -12 -11  237.13   84.39
 -12   1  11   69.51   43.59
   1 -12 -10  176.87   70.27
  -1 -12  10  112.58   28.43
 -12   1  10   69.51   67.10
   1 -12  -9  186.26   72.96
  -1 -12   9   83.56   33.02
 -12   1   9   43.40   36.37
  -1 -12   8   13.12   26.09
 -12   1   8   61.97   61.55
 -12   1   7   49.92   47.24
  -1 -12   7   -4.24   27.06
 -12   1   6   -2.20   30.04
  -1 -12   6   46.18   31.21
  -1  12  -5   87.11   23.20
 -12   1   5   -9.65   47.97
  -1  12  -4  135.82   32.78
 -12   1   4  171.61   74.34
  -1  12  -3   -8.31   18.08
 -12   1   3   41.14   40.87
  -1  12  -2  168.73   42.65
 -12   1   2  110.25   61.27
 -12   1   1  455.12  113.13
 -12   1   0   60.52   46.60
 -12   1  -1  357.14  100.46
 -12  -1   1  382.24   96.94
 -12  -1   2  216.71   74.09
 -12   1  -2  122.13   66.62
   1  12  -3   31.88   17.19
 -12  -1   3   10.76   26.70
   1  12  -4  135.94   38.15
 -12  -1   4  126.87   57.84
   1  12  -5   52.93   24.73
 -12  -1   5   91.76   48.67
   1  12  -6   20.92   16.70
 -12  -1   6   23.34   28.08
   1  12  -7   26.29   15.46
 -12  -1   7   15.57   20.13
 -12  -1   8   14.60   41.83
   1 -12   8  -66.18   38.12
   1 -12   9   52.76   32.31
 -12  -1   9   21.03   40.82
   1 -12  10  114.54   35.39
 -12  -1  10  165.33   84.68
 -12  -1  11  210.62   84.51
 -12  -1  12  154.37   76.73
 -12  -1  13  111.70   49.22
 -12  -1  14    7.29   32.66
 -12  -1  15   93.59   79.01
 -12  -1  16   38.47   45.11
  12  -1 -27 -120.74   66.86
  12  -1 -28  167.74   88.91
  12   2 -29   46.87   40.46
   2 -12 -27   57.29   73.73
   2 -12 -26   39.29   40.60
   2 -12 -25  266.69  123.66
   2 -12 -24   28.31   64.89
   2 -12 -23  -62.49   63.67
   2 -12 -22  111.26   81.70
   2 -12 -21    1.59   34.36
   2 -12 -20   18.72   40.53
   2 -12 -19   10.95   27.28
   2 -12 -18   46.54   80.87
   2 -12 -17   25.66   51.43
   2 -12 -16  -31.77   43.49
   2 -12 -15  -65.11   40.08
 -12   2  15   34.45   51.25
   2 -12 -14  141.77   62.43
 -12   2  14  167.28   85.18
   2 -12 -13   60.47   57.44
 -12   2  13   78.39   47.46
   2 -12 -12   18.37   30.38
 -12   2  12   56.41   49.44
   2 -12 -11  113.92   60.18
 -12   2  11  -22.57   43.59
   2 -12 -10  117.78   61.68
  -2 -12  10   92.54   30.92
 -12   2  10  208.36   96.62
   2 -12  -9   84.56   52.90
 -12   2   9   90.50   65.23
  -2 -12   9   43.05   22.81
   2 -12  -8  113.19   58.33
  -2 -12   8   17.10   28.57
 -12   2   8   61.83   52.01
   2 -12  -7   38.91   36.00
  -2 -12   7   68.95   35.50
 -12   2   7   50.23   45.73
   2 -12  -6  240.29   72.38
 -12   2   6  103.35   67.99
   2 -12  -5  119.83   54.98
 -12   2   5   48.05   48.99
 -12   2   4   18.75   47.24
 -12   2   3   26.71   29.21
 -12   2   2  279.07   93.47
 -12   2   1   97.95   56.31
 -12   2   0  146.85   77.12
 -12   2  -1    3.48   37.33
 -12   2  -2  231.78   78.92
 -12   2  -3   16.95   44.68
 -12  -2   3  129.14   65.07
 -12  -2   4   64.40   47.91
 -12   2  -4   55.22   38.21
 -12  -2   5    4.86   31.49
 -12  -2   6  182.10   69.66
 -12  -2   7   16.65   29.17
 -12  -2   8  116.61   65.15
 -12  -2   9   85.71   52.70
   2 -12   9   65.76   29.01
 -12  -2  10   -5.78   39.40
 -12  -2  11  123.55   63.64
 -12  -2  12   34.33   54.66
 -12  -2  13  -19.88   46.75
 -12  -2  14  104.95   59.26
 -12  -2  15   10.21   42.53
 -12  -2  16  -23.79   32.18
  12  -2 -26   64.10   59.22
  12  -2 -27   18.36   55.96
  12  -2 -28  -12.85   51.94
  12   3 -29   32.03   44.76
   3 -12 -27   15.89   69.86
   3 -12 -26   -7.00   91.98
   3 -12 -25   32.25   47.09
   3 -12 -24   60.76   71.14
   3 -12 -23   -1.53   41.47
   3 -12 -22   22.43   34.79
   3 -12 -21  -32.13   35.69
   3 -12 -20  -74.23   57.72
   3 -12 -19   95.13   73.60
   3 -12 -18   58.49   65.77
   3 -12 -17  -23.19   43.68
   3 -12 -16   35.46   47.83
   3 -12 -15  116.38   67.87
   3 -12 -14  174.67   77.41
 -12   3  14  133.26   75.25
   3 -12 -13  208.11   84.40
 -12   3  13   45.05   75.30
   3 -12 -12  127.41   63.88
 -12   3  12  -58.30   83.44
   3 -12 -11   13.35   27.60
 -12   3  11  -15.40   49.08
   3 -12 -10   84.60   55.81
 -12   3  10   76.48   88.00
   3 -12  -9    7.41   31.12
 -12   3   9  -64.07   65.75
  -3 -12   9  106.08   44.00
   3 -12  -8  160.08   59.53
 -12   3   8  226.69   96.49
   3 -12  -7   27.09   34.98
 -12   3   7  -32.43   32.28
   3 -12  -6   84.31   43.31
 -12   3   6   46.94   48.74
   3 -12  -5   53.87   35.75
 -12   3   5  -60.38   50.49
   3 -12  -4   93.98   41.83
 -12   3   4  201.19   85.94
   3 -12  -3    6.66   21.45
 -12   3   3   -2.92   52.40
   3 -12  -2   50.63   31.48
 -12   3   2   24.74   30.48
 -12   3   1  121.77   56.23
 -12   3   0   58.55   50.77
 -12   3  -1  163.12   70.42
 -12   3  -2  -24.79   30.61
 -12   3  -3  131.50   70.50
 -12  -3   4  112.68   59.99
 -12   3  -4  106.08   61.96
 -12   3  -5   -6.97   25.36
 -12  -3   5   62.04   43.48
 -12   3  -6  117.97   60.94
 -12  -3   6  115.43   55.99
 -12   3  -7  -10.64   26.37
 -12  -3   7  -31.42   34.93
 -12  -3   8   46.04   22.40
 -12  -3   9   14.20   31.09
 -12  -3  10   11.45   37.28
 -12  -3  11   47.73   42.31
 -12  -3  12   28.54   31.61
 -12  -3  13  146.76   86.03
 -12  -3  14  -15.18   25.32
 -12  -3  15  219.38   97.47
 -12  -3  16   25.52   47.14
 -12  -3  17   19.50   33.21
  12  -3 -25  144.81   77.61
  12  -3 -26  -25.34   42.53
  12  -3 -27  109.14   83.47
  12  -3 -28   -7.88   29.36
  12   4 -30   35.83   30.41
   4 -12 -27    6.80   72.17
   4 -12 -26  -86.82   71.98
   4 -12 -25    0.55   50.92
   4 -12 -24  -28.68   62.30
   4 -12 -23  131.63   82.02
   4 -12 -22   77.17   78.41
   4 -12 -21   -7.73   29.06
   4 -12 -20   40.58   27.20
   4 -12 -19    3.75   30.30
   4 -12 -18   34.40   44.81
   4 -12 -17   53.81   56.18
   4 -12 -16   31.11   59.75
   4 -12 -15   73.86   57.23
   4 -12 -14   29.95   38.71
   4 -12 -13   83.67   60.29
 -12   4  13  -32.00   56.27
   4 -12 -12  140.11   62.31
 -12   4  12  100.82   80.13
   4 -12 -11  -12.84   21.67
 -12   4  11  -24.92   59.18
   4 -12 -10   40.46   35.19
 -12   4  10   66.79   56.66
   4 -12  -9    4.96   32.00
 -12   4   9  -10.07   29.76
   4 -12  -8   27.07   20.91
 -12   4   8   60.08   56.52
   4 -12  -7    2.71   16.35
 -12   4   7   34.92   49.57
   4 -12  -6   18.54   34.62
 -12   4   6   -9.03   42.73
   4 -12  -5    0.57   19.10
 -12   4   5   16.48   45.80
   4 -12  -4   80.42   41.20
 -12   4   4  183.67   82.98
   4 -12  -3  104.86   39.02
 -12   4   3   -0.69   25.07
   4 -12  -2   25.39   24.17
 -12   4   2   33.48   42.13
   4 -12  -1  -29.08   26.09
 -12   4   1   42.02   49.10
   4 -12   0   73.10   33.66
 -12   4   0   -0.76   47.74
   4 -12   1   -4.92   17.13
 -12   4  -1   43.11   31.83
 -12   4  -2   59.63   43.35
 -12   4  -3   32.31   41.48
 -12   4  -4   79.29   59.11
 -12  -4   5   65.75   39.51
 -12   4  -5   11.10   28.09
 -12  -4   6   35.41   40.22
 -12   4  -6   27.32   42.31
 -12   4  -7   88.73   55.63
 -12  -4   7   35.47   37.94
 -12   4  -8  -41.00   18.85
 -12  -4   8   13.60   29.66
 -12   4  -9   97.54   48.29
 -12  -4   9   36.18   27.27
 -12   4 -10   33.88   43.58
 -12  -4  10   35.25   20.80
 -12  -4  11  -57.19   61.31
 -12  -4  12   79.32   60.56
 -12  -4  13  -19.89   35.35
 -12  -4  14   83.03   56.49
 -12  -4  15   17.09   30.83
 -12  -4  16   16.00   39.47
 -12  -4  17  101.78   39.87
  12  -4 -24  101.49   54.05
  12  -4 -25  -53.29   25.50
  12  -4 -26   99.69   84.13
  12  -4 -27    7.79   35.81
  12   5 -30  143.06   81.82
   5 -12 -27  -43.54   70.69
   5 -12 -26   -3.92   33.94
   5 -12 -25   61.86   77.72
   5 -12 -24    2.91   56.69
   5 -12 -23    1.34   40.00
   5 -12 -22   -1.18   30.66
   5 -12 -21    2.07   46.01
   5 -12 -20   31.44   41.67
   5 -12 -19  114.50   76.77
   5 -12 -18   20.41   62.03
   5 -12 -17  -20.05   43.74
   5 -12 -16  -36.32   55.50
   5 -12 -15   75.45   56.96
   5 -12 -14  135.37   63.11
   5 -12 -13  149.47   60.05
   5 -12 -12  106.26   63.73
 -12   5  12  124.09   66.30
   5 -12 -11   13.39   23.02
 -12   5  11    6.88   55.84
   5 -12 -10   42.76   30.62
 -12   5  10   45.32   57.60
   5 -12  -9    4.85   27.59
 -12   5   9  -28.09   44.13
   5 -12  -8   57.96   41.43
 -12   5   8    5.69   36.67
   5 -12  -7   38.41   23.65
 -12   5   7    1.12   46.13
   5 -12  -6   44.37   33.26
 -12   5   6  -43.14   26.94
   5 -12  -5   37.32   33.56
 -12   5   5   22.91   29.87
   5 -12  -4   24.94   29.02
 -12   5   4   46.23   29.34
   5 -12  -3  209.14   59.98
 -12   5   3  138.34   64.12
   5 -12  -2   85.58   40.56
 -12   5   2  170.59   94.49
   5 -12  -1   46.03   27.00
 -12   5   1  -14.06   49.80
   5 -12   0   91.21   42.55
 -12   5   0  125.54   72.75
   5 -12   1   90.35   33.26
 -12   5  -1  -46.95   55.49
   5 -12   2   83.66   31.27
 -12   5  -2   47.19   32.10
   5 -12   3  136.64   38.28
 -12   5  -3  125.06   62.68
 -12   5  -4   37.12   43.91
 -12   5  -5   38.74   45.32
 -12   5  -6   -2.85   24.45
 -12  -5   6   31.55   34.50
 -12   5  -7   64.86   47.19
 -12  -5   7   -7.82   49.83
 -12   5  -8   16.44   41.19
 -12  -5   8    4.15   34.46
 -12  -5   9   15.98   40.41
 -12   5  -9  -37.60   27.57
 -12  -5  10  -29.56   43.12
 -12   5 -10    8.43   24.73
 -12  -5  11   62.30   44.88
 -12   5 -11   33.07   45.43
 -12   5 -12  132.45   84.71
 -12  -5  12  144.70   65.02
 -12   5 -13  110.43   72.07
 -12  -5  13   66.02   57.19
 -12   5 -14  205.37   94.44
 -12  -5  14   47.07   59.67
 -12  -5  15   81.44   45.00
 -12  -5  16   52.21   56.44
 -12  -5  17    1.90   56.92
  12  -5 -23   11.74   54.57
  12  -5 -24  -77.13   67.11
  12  -5 -25  -39.01   45.09
  12  -5 -26  -53.99   37.09
  12  -5 -27  108.95   63.91
   6 -12 -26  172.48  108.59
   6 -12 -25  159.52   86.31
   6 -12 -24   59.99   52.13
   6 -12 -23   24.06   70.70
   6 -12 -22  -29.12   49.26
   6 -12 -21   71.22   61.55
   6 -12 -20  -10.43   30.75
   6 -12 -19  -71.12   48.03
   6 -12 -18   38.17   42.55
   6 -12 -17   32.38   79.30
   6 -12 -16   66.66   59.63
   6 -12 -15   29.84   56.29
   6 -12 -14  357.50  103.99
  -6  12 -14  170.83   67.69
   6 -12 -13  -26.56   41.02
  -6  12 -13  -70.83   46.57
   6 -12 -12   34.63   22.54
  -6  12 -12   35.58   24.17
   6 -12 -11   16.60   29.17
  -6  12 -11   99.01   50.20
 -12   6  11  -45.34   71.18
   6 -12 -10   21.41   24.39
 -12   6  10    0.11   36.79
   6 -12  -9   70.94   51.41
 -12   6   9   57.37   49.30
   6 -12  -8    4.02   24.21
 -12   6   8  -12.90   57.30
   6 -12  -7    5.76   20.93
 -12   6   7   -0.51   53.67
   6 -12  -6   12.72   23.81
 -12   6   6   18.86   43.07
   6 -12  -5  -47.17   32.82
 -12   6   5   33.29   49.97
   6 -12  -4   23.99   25.39
 -12   6   4   -3.02   27.67
   6 -12  -3   16.41   24.41
 -12   6   3   -1.77   50.28
   6 -12  -2  302.82   71.92
 -12   6   2  290.85  119.79
   6 -12  -1   24.30   18.22
 -12   6   1   74.58   57.30
   6 -12   0   33.33   24.30
 -12   6   0   19.19   30.75
   6 -12   1   19.06   30.00
 -12   6  -1   15.80   23.49
   6 -12   2  223.70   49.42
 -12   6  -2  287.27  104.25
   6 -12   3   38.16   26.97
 -12   6  -3  -65.53   56.69
   6 -12   4   39.65   20.95
 -12   6  -4  -41.66   41.59
 -12   6  -5   55.92   57.00
 -12   6  -6  131.73   68.72
 -12  -6   7   48.04   44.64
 -12   6  -7  -38.81   44.90
 -12  -6   8   46.74   39.38
 -12   6  -8  -31.79   31.19
 -12   6  -9   98.90   59.74
 -12  -6   9   60.50   52.61
 -12   6 -10   79.16   57.08
 -12  -6  10  -18.72   30.56
 -12  -6  11    1.05   26.01
 -12   6 -11   -6.72   28.43
 -12   6 -12   40.16   37.72
 -12  -6  12    0.38   28.59
 -12   6 -13  -35.96   40.15
 -12  -6  13   -6.89   36.15
 -12   6 -14  149.29   80.37
 -12  -6  14  275.60   88.28
 -12   6 -15   71.44   58.70
 -12  -6  15   39.12   45.02
 -12   6 -16  102.20   57.02
 -12  -6  16   22.95   44.51
 -12   6 -17   38.83   72.75
 -12   6 -18   41.55   51.20
 -12   6 -19   94.54   47.38
 -12   6 -20  174.26   97.02
  12  -6 -21  -42.72   23.72
 -12   6 -21   -0.33   31.94
  12  -6 -22  -15.18   25.05
 -12   6 -22  122.70   83.56
  12  -6 -23  -14.26   43.87
  12  -6 -24  -22.46   37.22
  12  -6 -25   54.69   32.91
  12  -6 -26   75.85   58.96
   7 -12 -26   63.82   71.15
   7 -12 -25   59.92   68.10
   7 -12 -24   21.90   72.88
   7 -12 -23   68.88   57.58
   7 -12 -22    5.11   37.15
   7 -12 -21  -23.66   43.24
   7 -12 -20   46.86   63.93
   7 -12 -19  -23.22   31.20
   7 -12 -18    6.74   29.74
   7 -12 -17   42.83   36.21
   7 -12 -16   48.03   28.78
   7 -12 -15   86.23   56.40
   7 -12 -14   35.86   29.65
  -7  12 -14   46.31   50.37
   7 -12 -13   57.23   33.88
  -7  12 -13  175.43   78.15
   7 -12 -12   51.98   56.00
  -7  12 -12   82.72   65.09
   7 -12 -11   57.78   43.25
  -7  12 -11   81.04   53.06
  -7  12 -10   36.35   26.42
   7 -12 -10   11.62   29.49
 -12   7  10   79.95   53.57
  -7  12  -9   92.34   36.76
 -12   7   9   64.07   49.22
   7 -12  -9  -42.49   39.04
   7 -12  -8   -1.53   25.64
  -7  12  -8  -25.03   50.61
  -7  12  -7  -46.83   51.42
   7 -12  -7   -1.71   32.86
 -12   7   7   -9.39   59.76
   7 -12  -6   54.76   43.11
 -12   7   6   -3.38   58.67
   7 -12  -5  131.38   52.46
 -12   7   5   35.46   62.52
   7 -12  -4   50.84   41.17
 -12   7   4    8.07   54.98
   7 -12  -3  117.89   48.70
 -12   7   3  170.91   95.67
   7 -12  -2   53.53   30.94
 -12   7   2   41.39   60.67
   7 -12  -1  152.02   50.53
 -12   7   1  132.41   83.60
   7 -12   0   20.79   13.16
 -12   7   0  103.95   60.07
   7 -12   1  100.35   38.20
 -12   7  -1   11.94   55.03
   7 -12   2  114.80   38.96
 -12   7  -2   41.04   39.53
   7 -12   3  145.47   43.50
 -12   7  -3  132.85   62.14
   7 -12   4   11.45   13.29
 -12   7  -4  -58.48   53.81
   7 -12   5   66.75   29.38
 -12   7  -5   86.79   57.93
   7 -12   6   38.76   15.10
 -12   7  -6   -3.09   30.83
 -12   7  -7   24.17   25.85
 -12   7  -8   30.16   37.00
 -12  -7   8  -16.49   27.01
 -12  -7   9   17.15   30.12
 -12   7  -9   62.48   45.93
 -12  -7  10   11.98   23.55
 -12   7 -10  101.26   61.54
 -12  -7  11   21.06   19.36
 -12   7 -11    2.31   38.30
 -12   7 -12   35.26   24.20
 -12  -7  12  103.21   44.35
 -12   7 -13   25.39   35.90
 -12  -7  13  -12.69   39.95
 -12   7 -14   80.24   49.08
 -12  -7  14   45.57   48.10
 -12   7 -15   97.40   62.87
 -12   7 -16  -21.01   29.30
 -12   7 -17  141.54   64.93
 -12   7 -18   37.47   43.34
 -12   7 -19   20.33   32.63
  12  -7 -20  112.26   79.07
 -12   7 -20   83.89   52.46
  12  -7 -21   70.25   72.05
 -12   7 -21   68.09   61.79
  12  -7 -22  -54.34   54.62
  12  -7 -23  -19.44   46.42
  12  -7 -24   37.69   35.87
  12  -7 -25   84.47   49.55
   8 -12 -25  -76.93   50.95
   8 -12 -24  166.79   88.02
   8 -12 -23   89.21   44.13
   8 -12 -22  -71.62   82.18
   8 -12 -21   57.06   54.32
   8 -12 -20   14.71   28.04
   8 -12 -19   93.47   62.86
   8 -12 -18   84.48   50.31
   8 -12 -17  -31.20   40.39
   8 -12 -16  103.90   68.18
   8 -12 -15  -23.91   28.83
  -8  12 -15   17.03   40.46
   8 -12 -14    9.40   21.22
  -8  12 -14   12.20   26.46
   8 -12 -13   42.19   39.66
  -8  12 -13  -91.06   61.72
   8 -12 -12   67.24   56.62
  -8  12 -12   51.15   59.13
   8 -12 -11  112.13   55.29
  -8  12 -11   13.23   43.27
   8 -12 -10   14.98   21.00
  -8  12 -10   66.02   78.35
 -12   8   9   16.17   51.72
   8 -12  -9   46.62   34.92
  -8  12  -9  -19.93   32.78
 -12   8   8   86.25   60.65
   8 -12  -8  -53.56   52.18
  -8  12  -8   -6.58   33.74
  -8  12  -7  -87.18   55.92
 -12   8   7   57.87   67.15
   8 -12  -7    1.11   19.99
   8 -12  -6  127.63   52.75
  -8  12  -6   41.14   39.59
 -12   8   6  -27.69   86.09
   8 -12  -5  105.63   54.06
  -8  12  -5   -4.30   35.63
 -12   8   5   -1.32   42.37
  -8  12  -4  -77.97   68.97
   8 -12  -4   39.95   34.69
 -12   8   4   -9.17   53.20
   8 -12  -3   53.96   33.68
 -12   8   3   95.43   84.58
   8 -12  -2   40.83   31.75
 -12   8   2  -25.87   44.58
   8 -12  -1   46.02   31.86
 -12   8   1   22.31   31.65
   8 -12   0   30.59   27.21
 -12   8   0  183.05   88.88
   8 -12   1    4.06   13.57
 -12   8  -1   72.41   68.80
   8 -12   2   79.97   33.77
 -12   8  -2   70.36   63.43
   8 -12   3   57.85   31.93
 -12   8  -3   52.56   65.31
   8 -12   4   88.54   37.53
 -12   8  -4   51.69   57.56
   8 -12   5   46.43   28.67
 -12   8  -5   48.62   31.55
   8 -12   6   51.29   24.45
 -12   8  -6   63.82   62.51
 -12   8  -7   50.14   47.43
 -12   8  -8  -44.95   48.64
 -12   8  -9  -58.14   70.86
 -12  -8   9  -30.93   19.38
 -12   8 -10   64.73   46.56
 -12  -8  10   72.65   49.81
 -12  -8  11   41.72   32.65
 -12   8 -11   45.68   48.85
 -12  -8  12   41.53   20.68
 -12   8 -12   71.24   45.08
 -12  -8  13   -6.59   26.87
 -12   8 -13   20.16   56.70
 -12   8 -14  118.53   70.51
 -12   8 -15   46.82   40.93
 -12   8 -16   89.51   60.17
 -12   8 -17  -46.77   48.74
  12  -8 -18   75.68   40.87
 -12   8 -18  -29.08   62.61
  12  -8 -19    0.91   21.96
 -12   8 -19    9.45   33.57
  12  -8 -20  -30.91   52.49
 -12   8 -20   49.12   63.96
  12  -8 -21   13.88   34.08
  12  -8 -22   39.09   26.15
  12  -8 -23   36.53   29.90
  12  -8 -24  -14.54   50.15
  12  -8 -25  -13.37   37.75
   9 -12 -24   43.98   60.60
   9 -12 -23   26.30   45.66
   9 -12 -22   27.07   55.54
   9 -12 -21   31.97   39.06
   9 -12 -20   54.75   50.60
   9 -12 -19 -120.56   70.92
   9 -12 -18    4.68   27.63
   9 -12 -17   52.23   68.80
   9 -12 -16   11.95   28.88
   9 -12 -15   28.10   23.93
  -9  12 -15  121.56   70.45
   9 -12 -14  -10.59   22.77
  -9  12 -14   32.52   41.63
   9 -12 -13  107.35   64.05
  -9  12 -13  116.93   68.93
   9 -12 -12  -54.80   52.05
  -9  12 -12   53.49   38.30
   9 -12 -11  -26.56   33.50
  -9  12 -11   30.64   42.28
   9 -12 -10  134.81   63.47
  -9  12 -10   82.91   49.17
   9 -12  -9   -1.45   28.50
  -9  12  -9  123.92   72.57
 -12   9   8  -17.77   64.90
   9 -12  -8   62.72   43.41
  -9  12  -8   75.02   67.63
 -12   9   7  -62.04   79.18
   9 -12  -7    5.90   28.22
  -9  12  -7  -15.06   43.84
 -12   9   6  111.65   86.46
   9 -12  -6   33.16   32.87
  -9  12  -6    2.84   35.81
  -9  12  -5   91.96   62.57
   9 -12  -5  -29.79   20.57
 -12   9   5   27.88   58.64
  -9  12  -4   37.97   40.49
   9 -12  -4  -25.99   35.22
 -12   9   4   56.04   62.03
   9 -12  -3   14.90   25.02
  -9  12  -3   43.10   53.10
 -12   9   3   63.38   60.86
   9 -12  -2   11.35   21.86
  -9  12  -2  103.78   76.22
 -12   9   2   57.26   32.34
   9 -12  -1   50.51   37.03
 -12   9   1  -33.91   42.86
   9 -12   0   20.26   29.54
 -12   9   0   16.20   44.89
   9 -12   1   84.00   34.68
 -12   9  -1  169.55  103.46
   9 -12   2   75.92   31.39
 -12   9  -2   67.52   42.59
   9 -12   3   82.56   39.96
 -12   9  -3   38.83   62.49
   9 -12   4   33.62   28.48
 -12   9  -4   50.62   75.70
   9 -12   5   15.91   24.78
 -12   9  -5   28.23   50.80
 -12   9  -6  111.78   79.19
 -12   9  -7    1.43   30.74
 -12   9  -8   94.99   63.05
 -12  -9   9   75.33   51.53
 -12   9  -9  -70.95   68.45
 -12  -9  10   -2.50   50.96
 -12   9 -10    3.11   32.65
 -12   9 -11  -44.99   55.44
 -12  -9  11   40.64   27.43
 -12   9 -12  -20.50   46.56
 -12  -9  12   18.30   35.25
 -12   9 -13  -69.95   53.83
 -12   9 -14  -81.56   56.62
 -12   9 -15  -13.35   56.31
  12  -9 -16   39.16   43.87
 -12   9 -16   59.40   49.05
  12  -9 -17   19.87   38.17
 -12   9 -17   25.67   43.44
  12  -9 -18   29.54   24.47
 -12   9 -18   53.92   56.05
  12  -9 -19  -22.78   29.59
 -12   9 -19  -38.45   38.26
  12  -9 -20   -4.31   49.76
  12  -9 -21  -23.40   44.03
  12  -9 -22   21.25   36.29
  12  -9 -23   85.43   77.95
  12  -9 -24   25.33   52.50
  10 -12 -24  -15.18   39.95
  10 -12 -23  -56.39   68.33
  10 -12 -22  -51.47   57.15
  10 -12 -21   33.00   46.64
  10 -12 -20   45.18   52.04
  10 -12 -19  -43.71   46.01
  10 -12 -18   99.73   87.50
  10 -12 -17   36.24   65.72
  10 -12 -16   18.66   34.08
  10 -12 -15  -17.52   22.64
 -10  12 -15  -20.75   45.15
  10 -12 -14   47.28   35.36
 -10  12 -14   67.41   54.41
  10 -12 -13   87.36   58.77
 -10  12 -13   46.99   50.85
  10 -12 -12   21.06   24.08
 -10  12 -12   68.28   57.78
  10 -12 -11    3.33   44.74
 -10  12 -11   64.34   40.67
  10 -12 -10   58.30   43.63
 -10  12 -10  133.76   72.89
  10 -12  -9   39.56   41.97
 -10  12  -9   79.81   82.03
  10 -12  -8   20.35   20.54
 -10  12  -8  115.37   68.05
  10 -12  -7   29.17   46.79
 -10  12  -7  -22.22   35.64
  10 -12  -6  -18.69   28.91
 -12  10   6  -53.41   79.10
 -10  12  -6   12.78   56.21
 -12  10   5  -32.67   56.89
  10 -12  -5   72.60   37.21
 -10  12  -5   34.34   36.70
 -12  10   4   -9.84   49.43
  10 -12  -4   28.94   30.63
 -10  12  -4   74.31   52.68
 -10  12  -3  115.42   66.07
  10 -12  -3   40.03   31.35
 -12  10   3  -19.97   43.16
 -10  12  -2   36.81   73.55
  10 -12  -2   69.39   38.05
 -12  10   2  148.25   94.70
 -10  12  -1   53.97   65.62
  10 -12  -1  -18.51   24.89
 -12  10   1  -92.90   83.05
 -10  12   0  -37.37   32.49
  10 -12   0   92.51   39.56
 -12  10   0  172.37  101.73
 -12  10  -1  143.33  107.50
 -12  10  -2   87.06   69.72
 -12  10  -3  -34.65   49.61
 -12  10  -4  -15.37   29.69
 -12  10  -5   36.77   52.67
 -12  10  -6  -54.93   69.33
 -12  10  -7   42.48   36.37
 -12  10  -8   28.04   43.33
 -12  10  -9  -11.06   38.48
 -12 -10  10   71.44   56.87
 -12  10 -10   66.34   73.51
 -12 -10  11   27.97   34.68
 -12  10 -11   53.01   70.29
 -12  10 -12   94.53   85.24
 -12  10 -13   -5.86   62.49
  12 -10 -14   34.27   35.01
 -12  10 -14    6.43   35.91
  12 -10 -15  -24.29   33.06
 -12  10 -15  -97.80   63.10
  12 -10 -16   58.35   46.52
 -12  10 -16   18.44   26.97
  12 -10 -17   48.41   46.82
 -12  10 -17  -26.71   53.33
  12 -10 -18   77.67   45.71
 -12  10 -18   -2.31   28.08
  12 -10 -19   40.01   45.06
  12 -10 -20   77.27   73.78
  12 -10 -21   41.91   42.60
  12 -10 -22   -4.83   23.43
  12 -10 -23   27.13   51.33
  11 -12 -23   63.34   42.05
  11 -12 -22   -4.30   37.77
  11 -12 -21    0.38   46.01
  11 -12 -20  -24.73   36.11
  11 -12 -19   75.29   56.29
  11 -12 -18   12.20   34.67
  11 -12 -17   50.47   34.32
  11 -12 -16  -43.36   30.33
  11 -12 -15  -14.09   32.25
 -11  12 -15   34.19   58.48
  11 -12 -14   -7.22   26.03
 -11  12 -14   75.62   79.52
  11 -12 -13   85.93   64.25
 -11  12 -13  -70.16   55.93
  11 -12 -12   26.88   32.56
 -11  12 -12   37.07   37.69
  11 -12 -11   96.53   63.93
 -11  12 -11  175.34   86.34
  11 -12 -10   55.82   47.26
 -11  12 -10   41.27   46.92
  11 -12  -9   38.18   35.11
 -11  12  -9    6.77   38.30
  11 -12  -8   16.97   34.24
 -11  12  -8  145.15   98.79
  11 -12  -7    2.40   35.80
 -11  12  -7   -4.25   50.25
  11 -12  -6   29.86   25.07
 -11  12  -6   46.30   40.38
  11 -12  -5  115.76   55.91
 -11  12  -5   -0.11   70.02
 -12  11   4  183.47   98.92
 -11  12  -4   -7.61   45.52
 -12  11   3   17.42   57.83
 -11  12  -3  -27.56   45.51
 -11  12  -2  -17.51   44.98
 -12  11   2  -15.56   42.90
 -11  12  -1  122.46   87.30
 -12  11   1  245.07  126.61
 -11  12   0  144.64  117.84
 -12  11   0   37.74   64.10
 -11  12   1  285.92  128.23
 -12  11  -1  114.01   85.49
 -12  11  -2  -12.87   55.68
 -12  11  -3  -92.44   76.12
 -12  11  -4  208.12  102.02
 -12  11  -5   34.40   55.65
 -12  11  -6  223.34  100.09
 -12  11  -7   10.71   47.94
 -12  11  -8   23.76   54.28
 -12  11  -9  -48.80   75.60
 -12  11 -10   90.82   73.49
  12 -11 -11   68.13   50.21
 -12  11 -11   37.66   58.46
  12 -11 -12  -39.69   34.13
 -12  11 -12    7.05   45.81
  12 -11 -13   74.48   52.88
 -12  11 -13  101.38   76.25
  12 -11 -14   -8.56   49.71
 -12  11 -14    0.59   32.48
  12 -11 -15  -52.15   49.83
 -12  11 -15   26.10   39.50
  12 -11 -16  -10.70   37.82
 -12  11 -16   10.72   45.01
  12 -11 -17   55.46   54.53
 -12  11 -17   41.44   69.23
  12 -11 -18  -28.47   52.40
  12 -11 -19  -46.93   43.03
  12 -11 -20  -42.52   53.70
  12 -11 -21    6.16   26.24
  12 -11 -22   13.03   49.15
  12 -11 -23  -82.89   82.68
 -12  12   0  335.50  142.73
 -12  12  -1 -131.65  100.12
 -12  12   1   25.33   35.33
 -12  12   2   37.01   37.36
 -12  12  -2   53.66   60.77
 -12  12  -3   93.35   69.08
 -12  12  -4  158.87  106.05
 -12  12  -5  -17.48   58.68
 -12  12  -6   57.01   62.28
  12 -12  -7   44.17   38.32
 -12  12  -7   81.36   37.25
  12 -12  -8   14.92   32.88
 -12  12  -8  -15.41   47.69
  12 -12  -9  -18.34   25.38
 -12  12  -9  165.88   93.15
  12 -12 -10   -5.09   21.23
 -12  12 -10   95.95   84.14
  12 -12 -11   26.48   43.85
 -12  12 -11  -50.91   35.62
  12 -12 -12  119.83   72.72
 -12  12 -12  276.41  122.81
  12 -12 -13   45.80   48.57
 -12  12 -13  138.21   91.18
  12 -12 -14   11.43   29.70
 -12  12 -14  -98.97   88.16
  12 -12 -15   13.66   32.81
 -12  12 -15   69.28   55.39
  12 -12 -16  105.56   68.65
  12 -12 -17  -19.31   25.08
  12 -12 -18  153.91   76.18
  12 -12 -19  -16.26   57.76
  12 -12 -20  -14.04   32.06
  12 -12 -21   -1.13   34.82
  12 -12 -22  110.89   79.87
 -13   0   0  132.89   73.42
 -13   0  -1  401.18  114.65
 -13   0   1  266.74   97.66
 -13   0   2   98.92   63.22
   0  13  -3   42.79   14.12
 -13   0   3   92.60   54.31
   0  13  -4   69.79   24.86
 -13   0   4   23.97   51.04
   0  13  -5   28.84   19.24
 -13   0   5   -2.05   36.73
   0  13  -6   44.20   21.35
 -13   0   6   65.24   45.90
   0  13  -7   36.06   19.05
 -13   0   7  108.17   59.77
 -13   0   8   -6.49   53.41
   0 -13   8   82.98   32.61
 -13   0   9   78.70   63.51
 -13   0  10   42.24   60.95
 -13   0  11  244.88  100.90
 -13   0  12  103.79   56.05
 -13   0  13  184.33   97.96
 -13   0  14   27.26   29.61
 -13   0  15   55.50   49.15
 -13   0  16   65.29   80.82
   1 -13 -21   58.69   74.62
   1 -13 -20  159.53   77.56
   1 -13 -19   59.56   55.63
   1 -13 -18   78.12   77.95
   1 -13 -17   53.84   47.04
   1 -13 -16   38.76   33.72
 -13   1  16  104.15   85.08
   1 -13 -15  114.88   60.20
 -13   1  15  -51.79   39.04
   1 -13 -14   72.98   66.37
 -13   1  14  -33.70   55.43
   1 -13 -13  173.88   80.92
 -13   1  13   -8.73   53.31
 -13   1  12   90.93   78.79
 -13   1  11   96.87   83.51
 -13   1  10  117.45   67.15
 -13   1   9  -12.20   26.50
 -13   1   8   24.77   49.00
 -13   1   7   76.63   53.94
 -13   1   6  -55.45   60.24
 -13   1   5  -59.19   63.63
  -1  13  -4    9.62   11.68
 -13   1   4   36.13   35.66
  -1  13  -3  145.50   35.74
 -13   1   3  148.56   61.40
 -13   1   2   -4.40   22.05
 -13   1   1  238.90   83.79
 -13   1   0   39.44   37.88
 -13  -1   1  242.18   84.98
 -13   1  -1  165.22   71.70
 -13   1  -2   59.65   44.56
 -13  -1   2   47.17   34.95
 -13   1  -3  227.45   87.75
 -13  -1   3  301.53   98.30
 -13  -1   4   37.47   29.13
   1  13  -5   40.48   17.83
 -13  -1   5   34.98   47.16
   1  13  -6   58.49   27.53
 -13  -1   6    9.90   31.00
   1  13  -7  -26.68   15.55
 -13  -1   7   -1.37   31.83
 -13  -1   8  -39.21   58.31
 -13  -1   9   32.60   49.48
 -13  -1  10   71.55   56.88
 -13  -1  11  163.76   89.25
 -13  -1  12   37.79   42.58
 -13  -1  13  173.12   99.20
 -13  -1  14   32.16   29.55
 -13  -1  15   -6.22   35.87
 -13  -1  16   82.94   44.73
 -13  -1  17   23.91   37.12
   2 -13 -26   24.66   40.96
   2 -13 -25   -3.25   31.36
   2 -13 -24 -112.13   33.89
   2 -13 -23   80.11   76.13
   2 -13 -22   46.57   51.80
   2 -13 -21   15.16   44.91
   2 -13 -20   46.20   59.65
   2 -13 -19   20.58   41.56
   2 -13 -18   60.67   71.44
   2 -13 -17  -54.56   55.66
   2 -13 -16   61.57   66.94
   2 -13 -15   62.68   53.82
 -13   2  15   54.85   72.91
   2 -13 -14  100.43   71.73
 -13   2  14   94.39   89.53
   2 -13 -13   -4.82   22.94
 -13   2  13   47.46   55.58
   2 -13 -12  187.00   77.59
 -13   2  12  116.01   78.29
   2 -13 -11   28.75   38.09
 -13   2  11  -14.08   66.67
   2 -13 -10  117.93   66.85
 -13   2  10   32.67   28.30
   2 -13  -9  169.37   76.94
 -13   2   9   93.70   66.03
   2 -13  -8   -6.08   19.14
 -13   2   8    8.93   39.97
   2 -13  -7   82.48   56.34
  -2 -13   7  127.35   59.40
 -13   2   7  151.36   92.05
 -13   2   6   12.32   28.49
 -13   2   5   29.92   29.25
 -13   2   4    9.38   37.66
 -13   2   3  110.36   58.84
 -13   2   2   25.71   41.57
 -13   2   1   60.04   39.57
 -13   2   0   41.53   32.00
 -13   2  -1    7.31   21.20
 -13  -2   2  105.30   64.04
 -13   2  -2  149.33   65.18
 -13  -2   3  205.99   83.45
 -13   2  -3  175.61   77.90
 -13   2  -4   46.74   37.19
 -13  -2   4    2.29   32.97
 -13  -2   5  -12.48   33.25
 -13   2  -5  -16.71   44.75
 -13  -2   6    0.64   22.88
 -13  -2   7  156.40   80.77
 -13  -2   8  -28.32   56.16
 -13  -2   9  176.90   82.04
 -13  -2  10   73.20   59.30
 -13  -2  11   18.03   57.39
 -13  -2  12   97.72   70.38
 -13  -2  13  110.63   64.04
 -13  -2  14   81.02   55.97
 -13  -2  15  111.93   79.94
 -13  -2  16    5.64   28.02
 -13  -2  17   65.27   59.64
  13  -2 -27   45.20   64.51
   3 -13 -26  146.31  102.28
   3 -13 -25   10.92   51.51
   3 -13 -24  -70.37   53.99
   3 -13 -23   31.22   65.04
   3 -13 -22  -44.45   38.07
   3 -13 -21    5.59   66.82
   3 -13 -20   81.32   65.37
   3 -13 -19   38.53   65.47
   3 -13 -18   38.45   62.28
   3 -13 -17    8.09   37.58
   3 -13 -16  -21.22   39.20
   3 -13 -15   36.13   38.32
 -13   3  15   46.66   86.53
   3 -13 -14   47.44   46.59
 -13   3  14   84.35   95.18
   3 -13 -13   86.39   65.65
 -13   3  13   39.80   70.81
   3 -13 -12   47.92   22.13
 -13   3  12   27.67   81.55
   3 -13 -11  182.44   83.00
 -13   3  11   51.11   59.64
   3 -13 -10   54.10   38.63
 -13   3  10   88.91   78.96
   3 -13  -9   32.79   43.40
 -13   3   9    7.27   48.79
   3 -13  -8  -23.10   33.81
 -13   3   8   58.82   69.80
   3 -13  -7  138.13   63.16
 -13   3   7   49.00   48.08
   3 -13  -6  -12.47   25.41
 -13   3   6   46.68   71.39
   3 -13  -5  102.47   42.61
 -13   3   5  -30.25   29.17
   3 -13  -4   64.95   39.62
 -13   3   4  -14.60   56.77
 -13   3   3   70.63   42.73
 -13   3   2   39.41   38.04
 -13   3   1   14.15   42.97
 -13   3   0   26.92   37.85
 -13   3  -1   61.08   46.75
 -13   3  -2  -28.16   44.54
 -13  -3   3   70.55   51.05
 -13   3  -3  -11.70   29.28
 -13  -3   4   43.47   40.82
 -13   3  -4   72.21   61.07
 -13   3  -5   39.48   45.64
 -13  -3   5  150.28   72.08
 -13   3  -6   31.68   35.94
 -13  -3   6   54.64   58.05
 -13   3  -7  108.12   50.49
 -13  -3   7   48.88   30.89
 -13   3  -8   58.16   46.85
 -13  -3   8   -1.98   39.35
 -13  -3   9   70.69   56.61
 -13  -3  10   60.28   48.25
 -13  -3  11  173.65   95.44
 -13  -3  12   62.39   62.58
 -13  -3  13   60.55   57.20
 -13  -3  14   26.99   34.70
 -13  -3  15   71.45   58.77
 -13  -3  16  111.03   55.36
 -13  -3  17  -13.65   34.24
  13  -3 -26  -18.32   33.54
   4 -13 -26    4.52   66.51
   4 -13 -25  131.31  103.40
   4 -13 -24   17.34   54.40
   4 -13 -23   45.18   61.42
   4 -13 -22  132.06   83.36
   4 -13 -21  -28.44   46.36
   4 -13 -20   39.53   33.71
   4 -13 -19   28.75   65.20
   4 -13 -18  -44.61   61.86
   4 -13 -17   12.11   23.90
   4 -13 -16   32.22   40.06
   4 -13 -15  -38.79   24.51
   4 -13 -14   96.60   73.04
 -13   4  14   41.77   59.51
   4 -13 -13   47.65   61.70
 -13   4  13  -18.62   34.86
   4 -13 -12   73.25   54.66
 -13   4  12   57.01   62.57
   4 -13 -11   48.74   53.08
 -13   4  11   34.25   45.39
   4 -13 -10  110.92   59.70
 -13   4  10   44.77   78.31
   4 -13  -9    7.63   22.91
 -13   4   9   12.09   50.44
   4 -13  -8   46.61   25.15
 -13   4   8   26.59   47.94
   4 -13  -7  -42.11   36.11
 -13   4   7   30.13   53.89
   4 -13  -6   61.48   41.30
 -13   4   6   39.22   51.91
   4 -13  -5  112.44   53.23
 -13   4   5  127.40   75.83
   4 -13  -4   30.17   28.81
 -13   4   4  172.66   85.63
   4 -13  -3   52.51   40.27
 -13   4   3  131.25   76.48
   4 -13  -2  101.08   47.24
 -13   4   2   42.75   51.75
   4 -13  -1   43.14   19.90
 -13   4   1   78.88   48.48
 -13   4   0   -6.98   28.87
 -13   4  -1  120.79   62.46
 -13   4  -2  -25.88   56.25
 -13   4  -3  139.13   77.19
 -13   4  -4   39.03   49.11
 -13   4  -5  109.73   66.00
 -13  -4   5  131.49   64.59
 -13  -4   6   17.50   38.21
 -13   4  -6  -56.28   38.02
 -13   4  -7   -2.83   33.15
 -13  -4   7    4.06   22.99
 -13   4  -8  108.45   66.90
 -13  -4   8   37.25   29.44
 -13   4  -9   13.25   39.20
 -13  -4   9  -57.83   60.39
 -13  -4  10   52.49   47.22
 -13   4 -10  136.97   76.54
 -13   4 -11   33.27   46.54
 -13  -4  11  -13.38   38.01
 -13  -4  12   13.56   39.92
 -13  -4  13   14.25   52.91
 -13  -4  14  -25.88   24.86
 -13  -4  15   12.58   34.88
 -13  -4  16   16.21   34.16
 -13  -4  17   28.87   27.97
 -13  -4  18  -21.46   35.19
  13  -4 -25    7.30   23.29
  13  -4 -26  107.46   69.11
   5 -13 -26   61.16   70.19
   5 -13 -25  -73.80   54.51
   5 -13 -24   -7.29   45.35
   5 -13 -23  -37.60   69.59
   5 -13 -22  -22.12   39.60
   5 -13 -21   48.05   53.82
   5 -13 -20   79.70   56.76
   5 -13 -19  -17.80   46.77
   5 -13 -18  -40.17   36.69
   5 -13 -17   11.01   41.67
   5 -13 -16   60.96   61.14
   5 -13 -15  169.11   90.76
   5 -13 -14   -1.92   41.85
   5 -13 -13  104.11   64.70
 -13   5  13   65.96   54.29
   5 -13 -12    4.67   29.46
 -13   5  12   41.26   67.91
   5 -13 -11  -17.60   40.97
 -13   5  11   21.76   34.94
   5 -13 -10   -0.86   40.68
 -13   5  10   25.19   48.46
   5 -13  -9   28.52   24.73
 -13   5   9   84.08   73.67
   5 -13  -8   45.46   51.50
 -13   5   8   61.68   68.40
   5 -13  -7   76.19   48.20
 -13   5   7   29.53   30.31
   5 -13  -6   81.72   45.78
 -13   5   6   12.76   45.49
   5 -13  -5   41.86   43.57
 -13   5   5  -12.00   33.60
   5 -13  -4  187.15   63.07
 -13   5   4  129.80   77.17
   5 -13  -3    4.98   24.51
 -13   5   3  189.99   86.29
   5 -13  -2   50.72   33.84
 -13   5   2  -58.64   64.69
   5 -13  -1  143.56   46.22
 -13   5   1   24.09   52.86
   5 -13   0   74.55   38.63
 -13   5   0  -86.62   65.72
   5 -13   1  145.25   46.53
 -13   5  -1   35.63   25.72
 -13   5  -2   -5.28   34.50
 -13   5  -3   33.99   29.79
 -13   5  -4  194.93   85.15
 -13   5  -5   -0.37   24.59
 -13   5  -6   -5.65   30.68
 -13  -5   6   85.02   53.41
 -13   5  -7   13.71   36.20
 -13  -5   7   59.55   55.90
 -13  -5   8   45.13   50.33
 -13   5  -8  -20.83   36.50
 -13  -5   9   -9.22   31.49
 -13   5  -9  -16.21   27.77
 -13  -5  10   20.54   20.35
 -13   5 -10   49.27   43.17
 -13  -5  11   71.19   50.35
 -13   5 -11   48.04   63.20
 -13   5 -12   48.18   55.05
 -13  -5  12   11.01   44.44
 -13   5 -13   37.12   64.92
 -13  -5  13  111.95   68.19
 -13   5 -14   72.33   47.22
 -13  -5  14   44.55   24.69
 -13   5 -15   83.78   70.50
 -13  -5  15  -38.14   46.34
 -13   5 -16   51.19   57.10
 -13  -5  16   54.92   41.59
  13  -5 -24    7.36   60.73
  13  -5 -25   30.16   42.68
   6 -13 -25 -120.00  106.29
   6 -13 -24   31.64   56.91
   6 -13 -23    6.97   31.42
   6 -13 -22   -2.36   51.13
   6 -13 -21   30.98   48.56
   6 -13 -20   -2.92   39.51
   6 -13 -19    6.40   41.71
   6 -13 -18   58.97   44.12
   6 -13 -17   -2.90   35.87
   6 -13 -16   -7.09   34.52
   6 -13 -15   72.86   62.71
   6 -13 -14  120.71   76.53
   6 -13 -13  119.17   66.50
   6 -13 -12  -16.37   35.78
 -13   6  12   70.47   84.67
   6 -13 -11   -6.46   34.39
 -13   6  11   19.06   55.89
   6 -13 -10   69.04   38.94
 -13   6  10   69.69   66.36
   6 -13  -9   41.31   40.62
 -13   6   9  -32.84   61.17
   6 -13  -8   -0.23   20.09
 -13   6   8  -16.57   52.84
   6 -13  -7   57.97   42.04
 -13   6   7   11.39   50.33
   6 -13  -6    7.92   18.92
 -13   6   6   36.78   40.84
   6 -13  -5   -7.71   29.37
 -13   6   5   15.25   34.31
   6 -13  -4   53.44   46.70
 -13   6   4  -23.94   37.74
   6 -13  -3   20.19   36.09
 -13   6   3   96.26   74.92
   6 -13  -2   14.99   23.82
 -13   6   2   -0.65   30.04
   6 -13  -1   92.45   48.35
 -13   6   1   14.48   53.67
   6 -13   0   45.02   26.92
 -13   6   0   72.53   60.74
   6 -13   1  117.33   44.23
 -13   6  -1   34.36   37.48
   6 -13   2   -3.82   17.03
 -13   6  -2  -22.89   41.03
   6 -13   3   -9.08   14.10
 -13   6  -3   -7.87   39.33
 -13   6  -4   -9.23   29.08
 -13   6  -5   74.07   42.89
 -13   6  -6   29.06   43.00
 -13  -6   7   85.04   55.77
 -13   6  -7  -54.82   42.45
 -13   6  -8   26.49   42.91
 -13  -6   8   64.19   45.99
 -13  -6   9   39.57   44.50
 -13   6  -9   34.24   46.75
 -13   6 -10   75.08   56.77
 -13  -6  10   55.55   38.22
 -13  -6  11  -11.76   26.60
 -13   6 -11  -37.34   39.42
 -13  -6  12  150.86   57.46
 -13   6 -12   71.61   45.84
 -13   6 -13  159.76   77.85
 -13  -6  13  106.27   60.95
 -13   6 -14   27.12   43.50
 -13  -6  14   97.12   56.99
 -13   6 -15  105.02   59.59
 -13  -6  15  102.46   61.78
 -13   6 -16   58.88   53.38
 -13   6 -17  114.42   75.54
 -13   6 -18  263.02  107.73
 -13   6 -19   92.55   90.24
 -13   6 -20   29.13   24.59
 -13   6 -21   21.64   41.60
  13  -6 -22   54.76   58.56
 -13   6 -22    4.82   46.43
  13  -6 -23   13.62   42.26
 -13   6 -23  -43.76   70.62
  13  -6 -24  -66.37   55.95
  13  -6 -25   34.26   71.05
   7 -13 -25  -22.97   46.04
   7 -13 -24   55.70   32.13
   7 -13 -23   44.46   53.44
   7 -13 -22  190.90  133.61
   7 -13 -21   54.47   47.56
   7 -13 -20  -10.01   49.29
   7 -13 -19  106.07   76.29
   7 -13 -18   55.47   50.61
   7 -13 -17   56.55   35.03
   7 -13 -16   47.94   40.32
   7 -13 -15   95.62   54.15
   7 -13 -14  112.02   65.22
   7 -13 -13   -9.41   36.32
  -7  13 -13   31.37   27.64
   7 -13 -12   34.66   40.30
   7 -13 -11   10.52   34.27
 -13   7  11   83.40   58.37
   7 -13 -10  -11.27   28.03
 -13   7  10 -109.42   84.57
   7 -13  -9  -17.06   25.14
 -13   7   9  164.66   99.75
   7 -13  -8   21.79   22.74
 -13   7   8 -101.70   76.31
   7 -13  -7   15.89   20.98
 -13   7   7    5.24   39.43
   7 -13  -6   16.85   29.45
 -13   7   6  -29.99   52.57
   7 -13  -5   -0.49   25.89
 -13   7   5   55.49   83.52
   7 -13  -4   25.53   32.06
 -13   7   4   57.42   35.46
   7 -13  -3   90.63   43.30
 -13   7   3   44.51   44.25
   7 -13  -2   -2.29   21.18
 -13   7   2   41.20   69.19
   7 -13  -1   46.10   42.80
 -13   7   1   69.88   55.50
   7 -13   0   87.43   43.58
 -13   7   0   72.75   70.53
   7 -13   1   45.73   34.57
 -13   7  -1  120.98   65.68
   7 -13   2   76.04   36.70
 -13   7  -2  -12.65   61.73
   7 -13   3  109.73   42.28
 -13   7  -3   40.22   49.04
   7 -13   4   91.64   38.84
 -13   7  -4   28.50   50.22
 -13   7  -5  -47.46   56.39
 -13   7  -6  -49.13   60.73
 -13  -7   7   25.55   49.66
 -13   7  -7   38.77   45.40
 -13   7  -8  -42.64   56.27
 -13  -7   8   17.09   26.20
 -13  -7   9   94.40   52.48
 -13   7  -9  -31.25   38.70
 -13  -7  10  -48.38   40.51
 -13   7 -10   14.24   50.42
 -13   7 -11   33.05   51.77
 -13  -7  11   42.44   50.08
 -13   7 -12  131.61   76.94
 -13  -7  12   17.73   30.63
 -13   7 -13  -17.67   63.21
 -13  -7  13   60.56   43.65
 -13   7 -14   86.58   60.03
 -13  -7  14   31.27   37.57
 -13   7 -15  -40.69   46.24
 -13   7 -16   48.26   33.48
 -13   7 -17  -49.34   35.97
 -13   7 -18  160.54   88.42
 -13   7 -19  -48.04   71.94
 -13   7 -20   90.40   66.58
  13  -7 -21  -95.27   54.66
 -13   7 -21   53.18   77.23
  13  -7 -22  105.44   43.42
  13  -7 -23   63.63   59.31
  13  -7 -24  -70.86   57.49
   8 -13 -24   41.94   56.65
   8 -13 -23   91.07   76.42
   8 -13 -22  -81.69   41.51
   8 -13 -21   66.55   46.97
   8 -13 -20   73.98   74.13
   8 -13 -19   -9.91   35.06
   8 -13 -18    1.13   37.68
   8 -13 -17  -33.54   25.85
   8 -13 -16   -6.16   29.69
   8 -13 -15   53.35   51.84
   8 -13 -14  -20.49   30.43
   8 -13 -13   15.98   23.80
  -8  13 -13   56.48   80.39
   8 -13 -12  -25.12   30.79
  -8  13 -12   33.79   49.73
   8 -13 -11   37.94   50.66
  -8  13 -11   14.56   52.14
  -8  13 -10   31.67   52.06
   8 -13 -10   80.75   58.25
 -13   8  10   37.40   58.28
  -8  13  -9  -36.71   81.75
 -13   8   9  -17.64   64.77
   8 -13  -9   28.53   29.50
 -13   8   8  -10.71   36.72
  -8  13  -8    8.89   67.49
   8 -13  -8   31.70   19.76
   8 -13  -7   83.21   48.86
 -13   8   7   87.55   80.60
   8 -13  -6  -43.43   41.33
 -13   8   6   12.35   52.15
   8 -13  -5    8.04   22.47
 -13   8   5   31.20   51.92
   8 -13  -4  -10.90   29.36
 -13   8   4   43.65   74.37
   8 -13  -3   93.56   48.48
 -13   8   3  -12.27   58.61
   8 -13  -2    2.65   18.20
 -13   8   2  -20.33   35.59
   8 -13  -1   50.96   34.78
 -13   8   1   68.23   68.87
   8 -13   0   -2.91   22.64
 -13   8   0   99.19   90.35
   8 -13   1   38.02   29.71
 -13   8  -1   55.00   85.68
   8 -13   2   45.23   31.19
 -13   8  -2   90.58   76.09
   8 -13   3   27.14   32.32
 -13   8  -3   61.20   81.91
   8 -13   4   -4.77   24.54
 -13   8  -4   51.10   62.79
 -13   8  -5   -2.59   34.69
 -13   8  -6   78.01   49.25
 -13   8  -7   53.14   51.97
 -13  -8   8   61.09   50.90
 -13   8  -8   73.65   69.87
 -13   8  -9  -53.75   52.03
 -13  -8   9   79.00   49.65
 -13   8 -10  -51.14   73.34
 -13  -8  10   29.79   43.55
 -13  -8  11   29.50   36.93
 -13   8 -11  -54.20   53.92
 -13   8 -12   49.31   34.47
 -13  -8  12  -30.03   24.40
 -13  -8  13  -14.61   27.51
 -13   8 -13   -0.69   41.81
 -13   8 -14   57.72   51.28
 -13   8 -15   -7.29   54.79
 -13   8 -16   16.37   44.67
 -13   8 -17   -1.88   49.85
 -13   8 -18   90.73   88.74
  13  -8 -19   56.53   62.09
 -13   8 -19  -49.08   48.03
  13  -8 -20   43.22   58.66
 -13   8 -20  -27.76   38.76
  13  -8 -21    2.42   23.10
  13  -8 -22  -87.38   67.40
  13  -8 -23   -0.55   35.12
  13  -8 -24  -28.65   66.54
   9 -13 -24   42.20   52.26
   9 -13 -23  -48.48   48.29
   9 -13 -22    6.58   50.82
   9 -13 -21  -29.63   51.06
   9 -13 -20  -67.88   55.05
   9 -13 -19  -37.18   69.32
   9 -13 -18    7.53   27.43
   9 -13 -17  -25.75   31.81
   9 -13 -16   36.16   30.73
   9 -13 -15  -41.62   45.86
   9 -13 -14   65.30   40.56
  -9  13 -14   16.82   51.29
   9 -13 -13  -15.80   29.44
  -9  13 -13   71.23   51.21
   9 -13 -12   27.97   37.94
  -9  13 -12  108.33   82.58
   9 -13 -11   88.06   50.99
  -9  13 -11   77.13   51.74
   9 -13 -10   33.62   43.21
  -9  13 -10   11.61   40.36
  -9  13  -9   95.86   76.56
   9 -13  -9   20.88   25.19
  -9  13  -8   -2.07   38.45
 -13   9   8   58.42   88.82
   9 -13  -8    2.19   26.30
  -9  13  -7  172.50   81.42
 -13   9   7  161.40  121.17
   9 -13  -7  126.71   67.95
 -13   9   6   19.30   73.08
  -9  13  -6  -45.29   57.86
   9 -13  -6   58.94   48.64
   9 -13  -5   47.55   25.20
  -9  13  -5  -10.45   46.49
   9 -13  -4   36.53   21.07
 -13   9   4    7.21   43.05
   9 -13  -3   13.07   26.80
 -13   9   3   71.70   62.53
   9 -13  -2   58.11   36.18
 -13   9   2   22.11   46.80
   9 -13  -1    2.20   27.69
 -13   9   1  109.25   77.17
   9 -13   0   11.55   17.98
 -13   9   0   17.82   36.32
   9 -13   1   19.22   21.08
 -13   9  -1   56.37   61.41
   9 -13   2    4.32   16.44
 -13   9  -2   51.08   46.45
   9 -13   3   12.96   27.09
 -13   9  -3  -47.73   46.14
 -13   9  -4  123.88   69.83
 -13   9  -5  104.23   81.08
 -13   9  -6   33.75   38.56
 -13   9  -7  152.65   89.23
 -13   9  -8   17.30   31.25
 -13  -9   9   29.24   44.31
 -13   9  -9   91.01   74.18
 -13  -9  10  -22.64   30.67
 -13   9 -10  -41.75   76.30
 -13  -9  11   -4.95   33.10
 -13   9 -11  -22.60   45.12
 -13   9 -12   46.50   34.60
 -13  -9  12   32.95   30.70
 -13   9 -13  -34.17   50.68
 -13   9 -14    3.77   44.16
 -13   9 -15    7.89   31.69
 -13   9 -16  -21.71   49.06
  13  -9 -17   79.98   65.60
 -13   9 -17   -3.38   43.55
  13  -9 -18  -10.41   31.99
 -13   9 -18  122.69   86.25
  13  -9 -19  -28.14   26.11
 -13   9 -19  -17.49   69.81
  13  -9 -20    4.55   34.36
  13  -9 -21   21.52   43.19
  13  -9 -22  -18.54   54.97
  13  -9 -23    6.36   63.14
  10 -13 -23  -25.12   62.06
  10 -13 -22   84.78   61.04
  10 -13 -21   -2.55   53.86
  10 -13 -20   20.57   65.56
  10 -13 -19    6.48   33.06
  10 -13 -18   22.76   39.97
  10 -13 -17  -64.93   43.96
  10 -13 -16   -7.46   40.30
  10 -13 -15   51.40   34.75
  10 -13 -14   11.70   31.62
 -10  13 -14   91.19   97.87
  10 -13 -13  -11.29   24.49
 -10  13 -13   27.27   68.01
  10 -13 -12   22.71   44.63
 -10  13 -12  118.85   47.62
  10 -13 -11   10.75   20.43
 -10  13 -11  -55.27   60.55
  10 -13 -10    7.84   31.20
 -10  13 -10    4.52   30.45
  10 -13  -9   25.96   29.28
 -10  13  -9   74.43   73.21
  10 -13  -8   35.92   41.96
 -10  13  -8   13.66   36.04
 -10  13  -7   67.74   64.62
 -13  10   7   97.89   96.13
  10 -13  -7  169.32   70.38
 -10  13  -6   47.61   62.47
 -13  10   6  116.81  115.10
  10 -13  -6  -57.96   42.05
 -13  10   5   21.26   42.52
 -10  13  -5   -0.33   58.55
  10 -13  -5   -3.50   23.06
 -10  13  -4   81.34   82.24
  10 -13  -4   34.94   30.56
 -13  10   4  138.61   99.38
  10 -13  -3   22.88   30.09
 -13  10   3  119.30   92.79
  10 -13  -2   20.24   25.30
 -13  10   2  -52.57   78.89
  10 -13  -1  -21.98   25.78
 -13  10   1   26.90   45.17
  10 -13   0   74.28   38.82
 -13  10   0   40.34   77.60
  10 -13   1  -40.72   31.63
 -13  10  -1  100.23   58.70
  10 -13   2   50.45   32.68
 -13  10  -2  -28.05   54.51
 -13  10  -3  -13.20   30.32
 -13  10  -4   77.72   74.24
 -13  10  -5  -23.06   34.94
 -13  10  -6   55.39   79.67
 -13  10  -7   79.62   75.76
 -13  10  -8   67.36   49.61
 -13  10  -9  -26.61   45.07
 -13 -10  10   53.11   55.18
 -13  10 -10   14.75   62.93
 -13  10 -11    7.27   37.27
 -13  10 -12  117.33   78.82
 -13  10 -13  -48.11   63.46
 -13  10 -14   -6.26   36.48
  13 -10 -15   25.02   25.76
 -13  10 -15   68.18   43.95
  13 -10 -16   52.46   35.68
 -13  10 -16   -3.10   61.63
  13 -10 -17  -26.60   41.90
 -13  10 -17   -0.50   49.24
  13 -10 -18   -8.91   49.70
 -13  10 -18   57.82   71.43
  13 -10 -19  -23.22   26.99
  13 -10 -20  -60.61   37.38
  13 -10 -21  130.46   76.26
  13 -10 -22  -15.47   31.15
  11 -13 -22   37.39   51.97
  11 -13 -21  -41.42   63.47
  11 -13 -20    7.15   39.72
  11 -13 -19   65.00   65.88
  11 -13 -18 -126.59   80.68
  11 -13 -17   43.98   50.58
  11 -13 -16  -61.74   48.80
  11 -13 -15   28.50   50.45
  11 -13 -14   62.93   37.91
 -11  13 -14    5.51   60.58
  11 -13 -13   16.88   29.45
 -11  13 -13  275.97  115.79
  11 -13 -12   35.23   39.65
 -11  13 -12   95.82   86.76
  11 -13 -11   18.64   21.72
 -11  13 -11  -49.95   57.63
  11 -13 -10  116.38   64.81
 -11  13 -10   -4.62   86.50
  11 -13  -9   39.77   46.20
 -11  13  -9  181.17   95.63
  11 -13  -8   38.78   43.37
 -11  13  -8  128.35   85.41
  11 -13  -7   37.22   35.67
 -11  13  -7  -20.12   66.63
  11 -13  -6  -35.32   29.03
 -11  13  -6   96.49   78.42
 -11  13  -5  108.65  105.51
  11 -13  -5   16.93   40.90
 -13  11   5   50.09   67.41
  11 -13  -4   42.07   43.94
 -11  13  -4   50.44   75.65
 -13  11   4  -50.00   75.91
  11 -13  -3    5.19   19.35
 -13  11   3  108.75   68.43
 -11  13  -3   33.33   86.64
 -11  13  -2   85.65   56.74
  11 -13  -2  -21.84   23.02
 -13  11   2  101.71   98.61
 -11  13  -1   91.21  100.10
  11 -13  -1   37.93   35.33
 -13  11   1    4.96   47.30
  11 -13   0   36.21   28.74
 -13  11   0  -87.78   84.67
  11 -13   1   99.42   44.86
 -13  11  -1   93.55   42.13
  11 -13   2  -15.28   21.70
 -13  11  -2   61.54   61.76
 -13  11  -3   27.98   56.68
 -13  11  -4   14.46   59.50
 -13  11  -5   92.52   64.59
 -13  11  -6   59.01   50.29
 -13  11  -7  154.98   94.31
 -13  11  -8  -25.59   42.59
 -13  11  -9 -137.25   89.15
 -13  11 -10   -6.93   56.29
 -13  11 -11   53.45   67.80
 -13  11 -12   86.74   55.93
  13 -11 -13  105.45   72.04
 -13  11 -13   71.74   84.94
  13 -11 -14   69.32   69.16
 -13  11 -14  -67.20   69.06
  13 -11 -15   13.33   33.13
 -13  11 -15  -14.21   40.45
  13 -11 -16   -3.18   30.59
 -13  11 -16  123.39  101.89
  13 -11 -17  111.07   56.28
 -13  11 -17   28.49   33.31
  13 -11 -18   42.39   54.90
  13 -11 -19  -47.26   34.18
  13 -11 -20  -26.11   28.83
  13 -11 -21   36.19   51.29
  13 -11 -22   35.60   80.34
  12 -13 -21   58.11   52.11
  12 -13 -20  -44.03   47.01
  12 -13 -19  -51.31   70.12
  12 -13 -18   45.12   56.73
  12 -13 -17   40.42   48.23
  12 -13 -16   20.12   31.25
  12 -13 -15   21.09   28.34
  12 -13 -14   50.67   48.27
 -12  13 -14   63.03   79.62
  12 -13 -13   84.97   54.96
 -12  13 -13   33.49   51.92
  12 -13 -12   39.10   44.76
 -12  13 -12   68.87   73.89
  12 -13 -11  101.28   50.95
 -12  13 -11    6.89   43.78
  12 -13 -10   -3.06   42.57
 -12  13 -10  -19.27   60.01
  12 -13  -9  -25.75   28.07
 -12  13  -9    9.22   45.38
  12 -13  -8    9.22   19.99
 -12  13  -8   82.99   66.85
  12 -13  -7   43.54   43.13
 -12  13  -7   39.05   64.47
  12 -13  -6   65.18   47.42
 -12  13  -6   72.56   73.40
  12 -13  -5   19.84   32.10
 -12  13  -5   13.74   50.00
 -12  13  -4   57.00   56.62
  12 -13  -4   20.54   33.59
 -12  13  -3   37.25   70.74
 -13  12   3   33.53   50.95
  12 -13  -3   46.27   42.76
 -12  13  -2  -13.11   73.24
 -13  12   2  174.55  120.15
  12 -13  -2  114.94   56.67
 -13  12   1  172.13  107.27
 -12  13  -1  -70.62   76.50
  12 -13  -1   88.42   34.03
 -13  12   0   20.32   68.42
 -12  13   0   29.17   70.12
 -13  12  -1  136.66   89.20
 -13  12  -2   -0.79   81.19
 -13  12  -3    1.55   65.01
 -13  12  -4   43.19   71.70
 -13  12  -5   30.75   59.71
 -13  12  -6  168.14   99.28
 -13  12  -7   11.00   36.63
 -13  12  -8   30.65   46.65
  13 -12  -9   19.85   33.85
 -13  12  -9   51.81   69.85
  13 -12 -10  -69.17   49.13
 -13  12 -10 -108.02  114.57
  13 -12 -11   15.27   21.05
 -13  12 -11  -26.02   53.29
  13 -12 -12    1.01   27.26
 -13  12 -12   50.35   55.06
  13 -12 -13   54.80   40.89
 -13  12 -13   89.38   63.13
  13 -12 -14   14.58   31.83
 -13  12 -14  -74.30   69.03
  13 -12 -15  -38.58   41.73
 -13  12 -15  119.83   44.57
  13 -12 -16  -48.36   59.31
  13 -12 -17   65.56   62.73
  13 -12 -18   77.17   76.73
  13 -12 -19   16.07   67.52
  13 -12 -20   38.24   55.56
  13 -12 -21   80.52   77.12
 -13  13   0  -67.42   68.98
 -13  13  -1  140.78  108.60
 -13  13   1   63.03   92.13
 -13  13  -2  109.24   96.06
 -13  13  -3   48.05   43.03
 -13  13  -4  -39.79   42.11
  13 -13  -5   22.59   39.98
 -13  13  -5   48.64   57.44
  13 -13  -6  -53.68   48.83
 -13  13  -6   51.53   33.93
  13 -13  -7  117.43   53.84
 -13  13  -7 -132.67   74.59
  13 -13  -8  -68.85   49.15
 -13  13  -8  115.24   98.07
  13 -13  -9   93.98   56.77
 -13  13  -9  158.02  129.46
  13 -13 -10   42.03   38.18
 -13  13 -10  156.46  104.29
  13 -13 -11   17.25   39.23
 -13  13 -11  105.34   95.95
  13 -13 -12  -15.12   22.63
 -13  13 -12  -44.57   71.26
  13 -13 -13   94.19   62.80
 -13  13 -13  -39.57   66.80
  13 -13 -14   -8.63   48.86
 -13  13 -14  171.43  121.57
  13 -13 -15   69.99   48.18
  13 -13 -16    7.25   23.83
  13 -13 -17   43.58   64.34
  13 -13 -18    1.94   25.56
  13 -13 -19  -36.35   60.85
  13 -13 -20  -43.02   29.05
 -14   0   0  213.42   90.55
 -14   0  -1   35.55   47.33
 -14   0   1  -13.44   33.65
 -14   0   2  153.98   74.33
 -14   0  -2  175.98   74.67
 -14   0   3  -33.36   50.31
 -14   0   4  -18.04   27.04
 -14   0   5   23.56   44.18
 -14   0   6   35.85   28.81
 -14   0   7   27.68   51.34
 -14   0   8   -9.93   59.68
 -14   0   9   -5.12   30.82
 -14   0  10  167.69   84.97
 -14   0  11   68.83   72.85
 -14   0  12  191.53   86.95
 -14   0  13    1.25   32.40
 -14   0  14   92.22  107.55
 -14   0  15   46.06   73.39
 -14   0  16  -55.83   67.21
 -14   0  17  -91.85   72.76
 -14   1  16  206.71  108.67
 -14   1  15  101.76   78.61
 -14   1  14   59.46   55.81
 -14   1  13   59.18   52.73
 -14   1  12   96.84   69.94
 -14   1  11  -68.69   41.09
 -14   1  10  158.71  103.44
 -14   1   9  224.39  109.65
 -14   1   8   49.43   66.31
 -14   1   7  174.35   91.27
 -14   1   6   33.85   45.49
 -14   1   5  -24.50   32.25
 -14   1   4   67.57   52.26
 -14   1   3    3.17   26.97
 -14   1   2    8.48   41.72
 -14   1   1   28.38   40.67
 -14  -1   0   82.94   53.67
 -14   1   0  129.34   69.33
 -14  -1   1    9.69   36.70
 -14   1  -1    8.20   33.32
 -14   1  -2  185.25   84.93
 -14  -1   2  114.14   74.00
 -14   1  -3   69.82   64.46
 -14  -1   3   53.40   53.21
 -14  -1   4   75.95   37.42
 -14   1  -4    7.61   50.72
 -14  -1   5    0.29   26.87
 -14  -1   6   87.93   49.17
 -14  -1   7   95.54   65.06
 -14  -1   8  -37.72   63.92
 -14  -1   9  235.68  103.63
 -14  -1  10  145.78   97.30
 -14  -1  11  -38.70   30.04
 -14  -1  12   47.19   48.13
 -14  -1  13  -22.29   33.74
 -14  -1  14   69.53   78.63
 -14  -1  15   -9.74   45.11
 -14  -1  16   15.03   53.66
 -14  -1  17   38.15   50.15
   2 -14 -24   38.52   49.44
   2 -14 -23  167.91  104.30
   2 -14 -22  -88.80   74.88
   2 -14 -21   88.35   88.97
   2 -14 -20   48.25   72.21
   2 -14 -19    8.72   32.34
   2 -14 -18   23.56   67.98
   2 -14 -17   -3.62   40.09
   2 -14 -16  -12.30   47.32
 -14   2  16   34.07   60.68
   2 -14 -15  -25.78   42.96
 -14   2  15   57.92   76.21
   2 -14 -14   58.63   58.18
 -14   2  14  -13.50   61.11
   2 -14 -13   -9.71   32.26
 -14   2  13   21.57   45.44
   2 -14 -12   71.45   59.87
 -14   2  12   70.08   84.25
   2 -14 -11  155.62   70.56
 -14   2  11   37.02   49.40
   2 -14 -10   43.81   37.76
 -14   2  10   49.00   50.05
 -14   2   9  122.01   78.21
 -14   2   8  313.66  119.97
 -14   2   7  -23.06   53.88
 -14   2   6  114.49   71.86
 -14   2   5  163.09   81.90
 -14   2   4   90.64   72.30
 -14   2   3  -24.39   35.62
 -14   2   2  -45.97   44.81
 -14   2   1   39.07   58.41
 -14   2   0   -4.22   27.35
 -14   2  -1  -14.49   33.07
 -14  -2   1   60.01   41.85
 -14  -2   2   65.33   49.91
 -14   2  -2   -7.27   26.80
 -14  -2   3   61.38   68.20
 -14   2  -3   62.40   60.79
 -14   2  -4  130.16   72.35
 -14  -2   4  240.66   91.53
 -14  -2   5  118.56   66.60
 -14   2  -5   79.95   61.81
 -14   2  -6   50.79   50.56
 -14  -2   6    6.51   33.01
 -14  -2   7  -24.73   50.58
 -14  -2   8  309.67   99.53
 -14  -2   9  183.12   93.09
 -14  -2  10   -1.10   40.49
 -14  -2  11   86.42   43.09
 -14  -2  12    6.81   39.84
 -14  -2  13  141.11   59.38
 -14  -2  14  -31.73   37.49
 -14  -2  15  126.07   86.15
 -14  -2  16  -25.22   37.72
 -14  -2  17   41.28   57.37
 -14  -2  18  -61.45   60.95
   3 -14 -25  123.53   83.18
   3 -14 -24   91.92   91.82
   3 -14 -23   43.57   72.04
   3 -14 -22   89.74   86.61
   3 -14 -21  -68.12   49.00
   3 -14 -20  -22.85   53.80
   3 -14 -19   35.29   31.38
   3 -14 -18   50.28   57.09
   3 -14 -17   60.43   66.43
   3 -14 -16   93.72   70.42
   3 -14 -15   17.44   41.30
 -14   3  15   -3.03   60.12
   3 -14 -14   43.72   33.05
 -14   3  14  -13.85   48.31
   3 -14 -13  -20.40   48.55
 -14   3  13  -36.71   87.20
   3 -14 -12  -17.75   36.65
 -14   3  12  -10.24   36.58
   3 -14 -11    0.48   24.28
 -14   3  11   40.03   52.89
   3 -14 -10   13.68   45.67
 -14   3  10   68.24   72.48
   3 -14  -9   25.72   47.07
 -14   3   9  217.37  118.75
   3 -14  -8   62.50   47.93
 -14   3   8  -24.80   45.78
   3 -14  -7   88.49   56.21
 -14   3   7   59.69   73.68
   3 -14  -6  115.74   59.31
 -14   3   6  114.85   84.55
 -14   3   5  116.07   69.79
 -14   3   4  158.94   88.07
 -14   3   3  -26.41   45.33
 -14   3   2   18.27   41.00
 -14   3   1  -20.51   30.57
 -14   3   0   -9.27   29.82
 -14   3  -1  -40.10   52.06
 -14   3  -2   11.51   33.87
 -14   3  -3   -8.50   25.58
 -14  -3   3   83.10   54.08
 -14  -3   4  102.94   63.94
 -14   3  -4  153.03   80.06
 -14   3  -5   46.36   48.69
 -14  -3   5   11.57   32.17
 -14  -3   6  -12.27   26.92
 -14   3  -6   19.05   54.52
 -14   3  -7   62.90   54.97
 -14  -3   7   51.25   47.97
 -14  -3   8    1.06   46.33
 -14   3  -8   -1.35   28.93
 -14   3  -9  204.29   87.21
 -14  -3   9   48.07   41.03
 -14  -3  10   46.86   31.69
 -14  -3  11   73.54   49.34
 -14  -3  12   50.60   33.37
 -14  -3  13   23.15   58.77
 -14  -3  14  -30.99   61.82
 -14  -3  15   12.72   57.48
 -14  -3  16   -6.16   63.36
 -14  -3  17   51.52   56.40
 -14  -3  18   -9.40   54.57
   4 -14 -25   70.20   67.51
   4 -14 -24   48.57   55.86
   4 -14 -23   71.10   52.27
   4 -14 -22  -32.95   42.72
   4 -14 -21  -33.33   53.47
   4 -14 -20  -75.94   68.77
   4 -14 -19   16.21   26.81
   4 -14 -18   33.75   39.72
   4 -14 -17   15.79   70.50
   4 -14 -16  -58.32   48.02
   4 -14 -15   45.11   36.47
   4 -14 -14   14.33   46.63
 -14   4  14    9.51   38.05
   4 -14 -13   37.26   31.97
 -14   4  13  190.37  117.03
   4 -14 -12   -0.50   36.23
 -14   4  12  -29.22   70.04
   4 -14 -11   17.41   38.79
 -14   4  11  -49.73   67.22
   4 -14 -10   55.62   47.37
 -14   4  10   37.47   31.84
   4 -14  -9   -4.27   44.37
 -14   4   9   95.67   58.20
   4 -14  -8   45.94   42.78
 -14   4   8  -22.36   63.67
   4 -14  -7  115.26   48.55
 -14   4   7   90.44   81.98
   4 -14  -6  101.28   58.12
 -14   4   6    7.51   65.92
   4 -14  -5    1.47   17.62
 -14   4   5   -2.02   49.96
   4 -14  -4   41.94   38.03
 -14   4   4   42.27   34.12
   4 -14  -3   86.53   46.90
 -14   4   3   32.19   42.23
 -14   4   2   29.37   28.18
 -14   4   1   49.06   40.77
 -14   4   0  -42.94   57.65
 -14   4  -1   71.90   62.85
 -14   4  -2   13.69   34.70
 -14   4  -3   30.00   41.15
 -14   4  -4   52.29   57.98
 -14  -4   4   -3.65   42.78
 -14   4  -5  -70.23   48.21
 -14  -4   5  -17.53   29.25
 -14  -4   6  128.53   65.33
 -14   4  -6   61.53   51.91
 -14  -4   7    2.49   37.58
 -14   4  -7   97.97   64.53
 -14  -4   8   60.28   52.68
 -14   4  -8  102.27   59.71
 -14  -4   9   57.86   33.00
 -14   4  -9   71.83   74.98
 -14  -4  10   -4.27   41.68
 -14   4 -10  120.20   65.04
 -14   4 -11   73.34   75.88
 -14  -4  11   83.84   63.98
 -14   4 -12   49.57   38.40
 -14  -4  12   -8.41   35.41
 -14  -4  13   44.90   52.56
 -14  -4  14   88.12   65.30
 -14  -4  15  -65.70   55.14
 -14  -4  16   79.86   75.95
 -14  -4  17  219.26   86.37
   5 -14 -25   81.01   67.71
   5 -14 -24   97.24   83.38
   5 -14 -23   23.82   46.70
   5 -14 -22  -81.46   71.86
   5 -14 -21   38.62   65.49
   5 -14 -20  131.93   93.51
   5 -14 -19   43.56   48.58
   5 -14 -18   14.59   42.19
   5 -14 -17   -7.63   28.22
   5 -14 -16   44.92   74.39
   5 -14 -15  108.16   68.15
   5 -14 -14   31.85   24.70
 -14   5  14   67.77   51.30
   5 -14 -13   13.18   36.14
 -14   5  13  104.76   90.23
   5 -14 -12   26.40   48.61
 -14   5  12   51.34   76.17
   5 -14 -11    8.97   24.18
 -14   5  11  171.33  109.42
   5 -14 -10   41.76   46.00
 -14   5  10  -53.19   54.19
   5 -14  -9  -13.44   25.52
 -14   5   9    1.74   61.55
   5 -14  -8  211.49   82.40
 -14   5   8   27.58   40.51
   5 -14  -7  185.62   72.72
 -14   5   7  118.92   88.86
   5 -14  -6  -10.60   27.76
 -14   5   6   34.31   60.03
   5 -14  -5   37.29   35.33
 -14   5   5   89.81   86.72
   5 -14  -4   -1.08   31.45
 -14   5   4   27.86   53.78
   5 -14  -3   18.92   26.19
 -14   5   3  134.75   74.90
   5 -14  -2   52.99   38.68
 -14   5   2  -14.18   30.42
   5 -14  -1   43.50   37.36
 -14   5   1   62.77   57.61
   5 -14   0   73.83   44.18
 -14   5   0   55.34   41.56
 -14   5  -1   17.21   31.70
 -14   5  -2   35.86   39.53
 -14   5  -3  111.38   81.79
 -14   5  -4  175.26   83.33
 -14  -5   5   14.41   22.69
 -14   5  -5   -4.32   25.24
 -14   5  -6  -54.55   37.78
 -14  -5   6  -11.98   34.67
 -14   5  -7   76.09   52.64
 -14  -5   7   84.32   53.03
 -14   5  -8   20.95   43.15
 -14  -5   8  -13.02   25.26
 -14  -5   9  -15.29   55.27
 -14   5  -9   -7.43   34.49
 -14   5 -10    2.35   22.93
 -14  -5  10  -37.52   37.84
 -14  -5  11 -112.30   73.48
 -14   5 -11   66.24   75.92
 -14   5 -12   67.89   53.08
 -14  -5  12    9.39   28.99
 -14   5 -13   49.31   57.42
 -14  -5  13   35.53   23.34
 -14   5 -14   67.02   55.00
 -14  -5  14    9.28   48.64
 -14   5 -15   95.47   79.95
 -14  -5  15   50.10   34.02
 -14   5 -16  117.46   81.14
 -14  -5  16   98.83   88.00
 -14   5 -17   19.77   68.89
 -14   5 -18   92.54   72.17
  14  -5 -24   33.15   42.20
   6 -14 -24  203.93  118.58
   6 -14 -23  -20.04   50.65
   6 -14 -22   30.91   84.29
   6 -14 -21  -17.88   44.31
   6 -14 -20  108.75   77.05
   6 -14 -19   72.18   69.25
   6 -14 -18   47.78   63.46
   6 -14 -17   20.70   40.08
   6 -14 -16   35.48   58.54
   6 -14 -15  -38.56   48.36
   6 -14 -14   28.93   36.73
   6 -14 -13    3.08   33.33
 -14   6  13   66.49   45.20
   6 -14 -12  139.77   69.75
 -14   6  12  136.21  134.49
   6 -14 -11   61.10   59.79
 -14   6  11  -72.54   91.73
   6 -14 -10    5.39   31.87
 -14   6  10  -40.99   45.94
   6 -14  -9   50.72   49.08
 -14   6   9    4.20   50.10
   6 -14  -8   74.78   38.96
 -14   6   8   62.42   51.34
   6 -14  -7   -1.52   28.76
 -14   6   7   58.41   63.10
   6 -14  -6  101.44   54.65
 -14   6   6  186.21   99.89
   6 -14  -5   16.97   29.59
 -14   6   5   13.17   56.96
   6 -14  -4  -15.17   21.50
 -14   6   4  108.75   90.75
   6 -14  -3  -17.63   26.43
 -14   6   3  150.23  103.54
   6 -14  -2   70.99   49.73
 -14   6   2   31.75   70.50
   6 -14  -1   51.06   36.87
 -14   6   1   59.23   48.69
   6 -14   0    1.92   16.23
 -14   6   0   17.30   29.55
   6 -14   1   66.91   36.15
 -14   6  -1  -62.45   65.54
   6 -14   2   62.08   34.72
 -14   6  -2   22.38   33.46
 -14   6  -3   15.40   27.53
 -14   6  -4  -15.19   26.86
 -14   6  -5  -18.47   54.90
 -14   6  -6   26.36   55.22
 -14  -6   6   48.87   42.17
 -14  -6   7   21.19   40.07
 -14   6  -7    9.66   49.15
 -14  -6   8   71.18   47.34
 -14   6  -8  131.08   64.32
 -14  -6   9   47.60   25.62
 -14   6  -9    2.37   33.56
 -14   6 -10  -34.55   55.48
 -14  -6  10  -24.69   21.78
 -14   6 -11   -3.58   44.31
 -14  -6  11  -25.02   47.62
 -14  -6  12  101.71   65.19
 -14   6 -12    2.49   25.88
 -14   6 -13   94.17   73.89
 -14  -6  13   -8.08   31.58
 -14   6 -14   96.33   71.54
 -14  -6  14   84.55   53.54
 -14   6 -15   56.33   57.81
 -14  -6  15   59.60   79.12
 -14   6 -16   91.77   54.05
 -14   6 -17   91.96   70.10
 -14   6 -18  125.94   76.15
 -14   6 -19  201.22  112.49
 -14   6 -20  -30.24   46.40
 -14   6 -21   77.62   64.70
 -14   6 -22  134.93   99.73
  14  -6 -23   31.25   45.54
 -14   6 -23   93.79   80.63
  14  -6 -24   59.38   57.90
   7 -14 -24  -56.93   92.18
   7 -14 -23  103.37   60.46
   7 -14 -22   33.73   46.07
   7 -14 -21  -74.92   58.95
   7 -14 -20  103.80   48.70
   7 -14 -19   49.67   59.07
   7 -14 -18   -3.93   36.49
   7 -14 -17  -10.07   37.83
   7 -14 -16  -15.95   32.96
   7 -14 -15  -42.74   65.20
   7 -14 -14   44.21   56.59
   7 -14 -13   62.61   53.81
   7 -14 -12   36.46   35.18
 -14   7  12   19.69   66.43
   7 -14 -11   99.34   59.18
 -14   7  11  117.64  102.14
   7 -14 -10   18.01   40.49
 -14   7  10  -24.62   59.59
   7 -14  -9   55.25   52.53
 -14   7   9   -5.39   54.30
   7 -14  -8   19.64   31.30
 -14   7   8    8.06   43.75
   7 -14  -7   86.02   50.19
 -14   7   7  180.74  108.65
   7 -14  -6   43.63   36.83
 -14   7   6    6.85   57.77
   7 -14  -5  125.35   61.38
 -14   7   5   17.75   34.10
   7 -14  -4   66.51   53.72
 -14   7   4   15.27   44.43
   7 -14  -3   59.72   47.05
 -14   7   3    6.27   44.27
   7 -14  -2    1.77   29.28
 -14   7   2  -39.86   41.30
   7 -14  -1   80.47   47.48
 -14   7   1   68.90   64.88
   7 -14   0  -36.94   35.57
 -14   7   0  100.19   85.30
   7 -14   1  -45.34   28.46
 -14   7  -1    4.23   36.96
   7 -14   2   32.00   33.40
 -14   7  -2   86.94   85.43
   7 -14   3   56.80   24.02
 -14   7  -3   91.35   65.60
 -14   7  -4   31.37   64.57
 -14   7  -5   75.40   82.74
 -14   7  -6    5.02   28.65
 -14  -7   7   93.14   58.98
 -14   7  -7   17.00   43.53
 -14   7  -8  -23.94   44.11
 -14  -7   8  -42.83   44.99
 -14   7  -9  -22.73   47.03
 -14  -7   9   45.30   35.16
 -14  -7  10   83.50   48.35
 -14   7 -10   35.71   42.37
 -14   7 -11   18.27   36.33
 -14  -7  11   22.44   27.35
 -14  -7  12   98.62   55.72
 -14   7 -12  106.32   79.02
 -14   7 -13  110.42   73.69
 -14  -7  13   15.07   46.91
 -14   7 -14  128.59   68.43
 -14  -7  14   90.34   72.42
 -14   7 -15   10.38   41.80
 -14   7 -16  -22.73   49.93
 -14   7 -17  -44.74   36.25
 -14   7 -18 -146.27   72.70
 -14   7 -19  -27.79   28.37
 -14   7 -20   25.54   36.10
 -14   7 -21   21.00   49.18
  14  -7 -22   -5.07   30.27
  14  -7 -23    9.69   33.72
   8 -14 -23  -12.14   69.95
   8 -14 -22   13.99   69.98
   8 -14 -21   -1.42   61.55
   8 -14 -20  167.88   83.03
   8 -14 -19    2.45   42.81
   8 -14 -18   19.01   48.78
   8 -14 -17   55.62   65.55
   8 -14 -16   21.75   33.19
   8 -14 -15  -18.17   36.97
   8 -14 -14   60.89   53.34
   8 -14 -13   -9.82   29.36
   8 -14 -12  -21.03   33.83
   8 -14 -11   23.44   34.64
   8 -14 -10  110.29   60.77
 -14   8  10   29.33   74.76
   8 -14  -9  -12.26   19.70
 -14   8   9   23.67   54.62
   8 -14  -8  -43.16   45.18
 -14   8   8   18.71   51.37
   8 -14  -7   27.60   35.72
 -14   8   7  -40.76   81.63
   8 -14  -6  135.53   69.87
 -14   8   6  138.05  102.50
   8 -14  -5   54.61   43.82
 -14   8   5   31.72   60.06
   8 -14  -4   65.96   54.34
 -14   8   4  100.02   78.76
   8 -14  -3   22.53   31.60
 -14   8   3   -9.54   61.15
   8 -14  -2   11.71   19.02
 -14   8   2   36.85   62.32
   8 -14  -1   72.52   41.90
 -14   8   1  110.88   69.50
   8 -14   0    4.53   25.26
 -14   8   0  122.28   90.48
   8 -14   1   41.34   28.42
 -14   8  -1    0.86   41.34
   8 -14   2   58.71   34.14
 -14   8  -2  -22.74   44.80
 -14   8  -3   63.71   44.18
 -14   8  -4  111.70   88.49
 -14   8  -5   16.09   40.94
 -14   8  -6   34.61   37.67
 -14   8  -7   10.26   46.21
 -14  -8   8    2.60   49.71
 -14   8  -8   49.97   38.34
 -14   8  -9   52.93   33.46
 -14  -8   9   20.87   19.93
 -14  -8  10    0.19   24.95
 -14   8 -10   72.76   49.67
 -14  -8  11  -16.31   49.75
 -14   8 -11   -4.41   28.64
 -14  -8  12   37.23   34.39
 -14   8 -12  -46.96   42.82
 -14   8 -13   10.37   60.44
 -14   8 -14  -19.69   54.46
 -14   8 -15  -26.87   31.69
 -14   8 -16  -12.62   59.35
 -14   8 -17  -16.31   30.70
 -14   8 -18  -15.56   50.78
 -14   8 -19  -21.35   43.16
  14  -8 -20  -12.95   36.23
 -14   8 -20   67.25   67.15
  14  -8 -21   34.25   47.34
  14  -8 -22  198.91   88.79
  14  -8 -23   -2.14   33.02
   9 -14 -23   47.77   37.09
   9 -14 -22    2.42   45.11
   9 -14 -21  -33.39   48.32
   9 -14 -20  -31.83   65.94
   9 -14 -19  -47.36   53.55
   9 -14 -18   71.08   61.88
   9 -14 -17   -5.55   50.72
   9 -14 -16   29.97   49.39
   9 -14 -15  -92.83   75.10
   9 -14 -14   54.49   57.79
   9 -14 -13   -0.98   29.98
   9 -14 -12   69.26   53.64
  -9  14 -12   80.48   68.72
   9 -14 -11  -32.56   38.47
  -9  14 -11   65.79   58.96
   9 -14 -10   63.25   49.42
  -9  14 -10   28.90   46.75
 -14   9   9  -53.26   98.14
   9 -14  -9   58.50   53.34
 -14   9   8    6.05   71.21
   9 -14  -8   65.89   52.40
   9 -14  -7   70.13   36.68
 -14   9   7  -20.80   74.39
   9 -14  -6   55.91   51.65
 -14   9   6  124.51   96.02
   9 -14  -5   -1.43   37.44
 -14   9   5   37.59   85.75
   9 -14  -4   21.98   26.09
 -14   9   4   68.54   52.63
   9 -14  -3  -32.70   34.07
 -14   9   3  132.46   92.31
   9 -14  -2   81.13   50.88
 -14   9   2   17.06   41.48
   9 -14  -1    6.93   26.99
 -14   9   1  -33.23   35.02
   9 -14   0   -4.15   20.51
 -14   9   0  115.97   82.50
   9 -14   1   46.93   35.06
 -14   9  -1  -17.39   57.31
 -14   9  -2   25.85   49.74
 -14   9  -3  -38.80   57.38
 -14   9  -4   55.31   61.33
 -14   9  -5    3.64   68.40
 -14   9  -6   83.71   50.54
 -14   9  -7   79.42   63.83
 -14  -9   8   86.19   62.72
 -14   9  -8  115.20   81.34
 -14  -9   9   23.43   48.96
 -14   9  -9   61.10   67.18
 -14  -9  10   91.94   67.43
 -14   9 -10   61.93   55.89
 -14   9 -11  -48.52   74.28
 -14  -9  11   32.15   43.58
 -14   9 -12  -17.67   47.93
 -14   9 -13  -75.24   51.16
 -14   9 -14  -52.03   52.60
 -14   9 -15  -59.84   78.55
 -14   9 -16   51.29   59.04
 -14   9 -17   -8.92   35.26
  14  -9 -18   57.37   47.07
 -14   9 -18   76.87   83.29
  14  -9 -19  109.26   89.19
 -14   9 -19  -16.23   37.39
  14  -9 -20   67.14   27.51
  14  -9 -21  -17.78   37.71
  14  -9 -22  120.47   81.40
  10 -14 -22   86.30   75.20
  10 -14 -21  -93.71   43.46
  10 -14 -20   28.11   34.88
  10 -14 -19    2.94   46.00
  10 -14 -18   19.62   30.65
  10 -14 -17  -72.99   70.88
  10 -14 -16   41.63   46.58
  10 -14 -15   17.38   39.39
  10 -14 -14    5.50   29.65
  10 -14 -13  -29.45   49.49
 -10  14 -13   -0.43   54.01
 -10  14 -12  -72.49   85.45
  10 -14 -12  -12.26   36.17
 -10  14 -11  -54.61   76.96
  10 -14 -11   82.66   53.30
 -10  14 -10    1.10   37.84
  10 -14 -10  114.34   76.14
  10 -14  -9   -5.50   27.17
 -10  14  -9   12.07   38.98
 -10  14  -8  305.63  124.93
 -14  10   8   70.93   68.49
  10 -14  -8  128.95   58.65
 -14  10   7  -57.73   64.90
 -10  14  -7   50.12   62.26
  10 -14  -7   72.91   55.47
 -14  10   6  -98.26  110.26
  10 -14  -6   42.06   35.15
 -14  10   5  177.45  115.17
  10 -14  -5   78.37   48.95
  10 -14  -4  175.72   70.67
 -14  10   4   77.73   80.92
  10 -14  -3   79.08   48.54
 -14  10   3   85.83   39.01
  10 -14  -2   56.46   33.92
 -14  10   2   60.52  109.80
  10 -14  -1   63.62   41.73
 -14  10   1   91.08   83.65
  10 -14   0   56.53   40.29
 -14  10   0  -24.70   57.44
 -14  10  -1   59.67   77.47
 -14  10  -2  -19.74   43.91
 -14  10  -3   17.14   42.46
 -14  10  -4   39.25   36.29
 -14  10  -5 -130.51   95.08
 -14  10  -6   71.06   49.40
 -14  10  -7 -104.81   94.36
 -14  10  -8   83.10   56.02
 -14 -10   9   50.55   48.29
 -14  10  -9  160.70  102.76
 -14 -10  10   52.01   46.10
 -14  10 -10  174.51   97.51
 -14  10 -11  120.17   84.52
 -14  10 -12   26.27   72.33
 -14  10 -13  110.05   90.44
 -14  10 -14   55.64   53.95
 -14  10 -15  -61.56   62.97
  14 -10 -16  -11.35   22.51
 -14  10 -16   60.36   66.33
  14 -10 -17   46.10   54.92
 -14  10 -17   34.35   42.73
  14 -10 -18  -11.29   39.09
 -14  10 -18    8.69   46.39
  14 -10 -19   39.48   51.42
  14 -10 -20   54.46   34.19
  14 -10 -21  -17.93   33.38
  11 -14 -21   62.91   43.31
  11 -14 -20  -45.51   58.41
  11 -14 -19   55.45   68.14
  11 -14 -18   45.18   65.98
  11 -14 -17    0.53   38.90
  11 -14 -16  -14.06   38.57
  11 -14 -15  -30.61   49.27
  11 -14 -14    6.65   26.15
  11 -14 -13   86.30   72.96
 -11  14 -13   83.82   81.27
  11 -14 -12   24.73   37.03
 -11  14 -12    7.42   66.41
  11 -14 -11  -19.28   25.19
 -11  14 -11  158.81  112.85
  11 -14 -10   45.06   32.20
 -11  14 -10  -43.71   45.80
 -11  14  -9  159.32   85.46
  11 -14  -9   25.26   41.93
  11 -14  -8  108.19   68.04
 -11  14  -8   66.26   91.06
  11 -14  -7   68.97   25.86
 -11  14  -7   50.47  102.53
 -11  14  -6   44.52   36.09
 -14  11   6   75.50   44.27
  11 -14  -6   34.47   35.53
 -14  11   5  128.99  118.16
 -11  14  -5   80.42   68.06
  11 -14  -5   48.77   43.21
 -14  11   4   50.89   92.57
  11 -14  -4  102.29   61.92
 -14  11   3  105.64  110.04
  11 -14  -3   62.02   43.38
  11 -14  -2  111.29   62.18
 -14  11   2   44.97   78.82
  11 -14  -1   41.30   32.58
 -14  11   1   91.74   64.54
 -14  11   0   94.14   84.01
 -14  11  -1  118.04   76.61
 -14  11  -2  158.25  107.72
 -14  11  -3   32.72   39.18
 -14  11  -4 -143.37   92.44
 -14  11  -5   -0.12   39.48
 -14  11  -6  -15.16   85.68
 -14  11  -7 -114.75   47.84
 -14  11  -8  115.68   86.22
 -14  11  -9   20.60   32.08
 -14  11 -10  131.03  105.99
 -14  11 -11  310.49  145.35
 -14  11 -12  -62.81   71.52
 -14  11 -13    0.12   29.04
  14 -11 -14    1.15   41.89
 -14  11 -14    6.04   84.43
  14 -11 -15  -21.86   38.69
 -14  11 -15    8.41   65.63
  14 -11 -16   51.66   65.00
 -14  11 -16   91.69   53.95
  14 -11 -17  -82.59   31.01
 -14  11 -17   14.43   37.42
  14 -11 -18   35.21   25.63
  14 -11 -19  101.45   67.93
  14 -11 -20   66.59   52.59
  14 -11 -21  -17.44   29.44
  12 -14 -20  -18.20   38.28
  12 -14 -19   19.07   42.27
  12 -14 -18   11.21   33.59
  12 -14 -17   70.08   63.69
  12 -14 -16  -48.66   45.89
  12 -14 -15   33.63   23.81
  12 -14 -14   72.49   57.81
  12 -14 -13  -57.80   33.61
 -12  14 -13   52.73   91.67
  12 -14 -12   35.29   53.75
 -12  14 -12  132.83   91.93
  12 -14 -11   17.04   42.03
 -12  14 -11    0.50   67.42
  12 -14 -10  -13.67   34.73
 -12  14 -10   44.82   74.03
  12 -14  -9   46.86   59.16
 -12  14  -9   48.48   60.04
 -12  14  -8  -52.36   81.07
  12 -14  -8   18.97   39.71
 -12  14  -7   45.05   77.54
  12 -14  -7   56.52   47.32
 -12  14  -6   10.41   77.99
  12 -14  -6   21.87   28.97
 -12  14  -5  -13.25   55.02
  12 -14  -5   42.30   26.99
 -12  14  -4 -103.82  106.38
  12 -14  -4   16.27   21.97
 -14  12   4  -54.92   78.03
  12 -14  -3    4.03   30.69
 -14  12   3  -74.54  110.93
 -12  14  -3  137.14  101.01
 -14  12   2   47.20   79.28
  12 -14  -2   49.21   40.42
 -14  12   1  -63.39   77.66
  12 -14  -1  -16.02   24.67
 -14  12   0  357.47  155.61
 -14  12  -1  -23.89   89.16
 -14  12  -2   40.25   69.67
 -14  12  -3   38.97   82.51
 -14  12  -4  111.93   88.56
 -14  12  -5  188.26  105.35
 -14  12  -6   17.11   36.82
 -14  12  -7  155.83  102.48
 -14  12  -8 -111.50   62.06
 -14  12  -9   63.22   92.16
 -14  12 -10  110.85   77.75
  14 -12 -11    7.98   27.44
 -14  12 -11  -46.01   34.95
  14 -12 -12   34.69   25.01
 -14  12 -12  114.97   95.04
  14 -12 -13   28.98   37.85
 -14  12 -13   39.07   45.80
  14 -12 -14  -30.08   28.55
 -14  12 -14  -10.87   66.38
  14 -12 -15    2.09   33.65
 -14  12 -15   67.16  109.83
  14 -12 -16  -65.98   45.87
  14 -12 -17  146.26   74.87
  14 -12 -18  -48.31   27.10
  14 -12 -19   13.27   48.04
  14 -12 -20   55.06   61.86
  13 -14 -19   84.42   80.16
  13 -14 -18   14.50   33.01
  13 -14 -17   15.94   65.66
  13 -14 -16   19.89   58.86
  13 -14 -15   71.92   57.12
  13 -14 -14   47.26   41.24
  13 -14 -13  118.36   68.75
 -13  14 -13  415.80  154.31
  13 -14 -12   11.42   37.47
 -13  14 -12   10.22   68.02
  13 -14 -11   46.74   48.85
 -13  14 -11 -121.17   75.03
  13 -14 -10   47.36   44.36
 -13  14 -10  -34.68   90.31
  13 -14  -9  -67.18   54.55
 -13  14  -9   54.08   82.57
  13 -14  -8  -25.93   29.88
 -13  14  -8   23.17   37.07
  13 -14  -7   23.43   50.11
 -13  14  -7   45.38   87.07
 -13  14  -6    4.98   73.38
  13 -14  -6   31.44   32.89
  13 -14  -5  -33.66   33.86
 -13  14  -5   64.75   60.21
  13 -14  -4   -3.48   38.77
 -13  14  -4   36.98   80.06
  13 -14  -3    5.85   29.92
 -13  14  -3  150.29   81.66
 -13  14  -2    1.05   78.81
 -14  13   2   37.46   51.70
 -14  13   1  -59.21   91.20
 -14  13   0  -38.10   51.26
 -14  13  -1   74.82   71.61
 -14  13  -2    1.49   58.44
 -14  13  -3 -140.78  102.15
 -14  13  -4   43.47   73.49
 -14  13  -5 -123.71   82.62
 -14  13  -6   39.25   41.62
  14 -13  -7   48.29   55.65
 -14  13  -7  -60.12   47.63
  14 -13  -8   33.00   38.71
 -14  13  -8  112.72   91.78
  14 -13  -9   19.72   37.26
 -14  13  -9  267.30  132.60
  14 -13 -10   14.15   22.89
 -14  13 -10   30.31   48.95
  14 -13 -11    8.80   33.41
 -14  13 -11   81.19  123.45
  14 -13 -12  -85.61   51.41
 -14  13 -12   41.68   61.42
  14 -13 -13  134.38   61.56
 -14  13 -13   50.59   98.66
  14 -13 -14   29.06   48.21
 -14  13 -14  -24.57   60.80
  14 -13 -15   60.27   54.04
  14 -13 -16   28.41   49.67
  14 -13 -17   54.75   76.42
  14 -13 -18   11.02   48.77
  14 -13 -19   58.65   60.15
 -14  14  -1  -78.34  104.04
 -14  14  -2   81.60   66.20
 -14  14  -3  107.36  106.45
 -14  14  -4   98.50   99.92
  14 -14  -4   10.81   33.25
 -14  14  -5   -8.43   46.84
  14 -14  -5   75.05   53.99
  14 -14  -6  -37.38   21.57
 -14  14  -6    8.48   48.72
  14 -14  -7   16.02   35.73
 -14  14  -7 -150.58  102.62
  14 -14  -8   13.45   33.15
 -14  14  -8   51.79   79.13
  14 -14  -9   19.24   45.87
 -14  14  -9   77.32   98.98
  14 -14 -10   24.42   33.17
 -14  14 -10 -175.41  134.10
  14 -14 -11   -5.96   25.99
 -14  14 -11   19.32   70.24
  14 -14 -12   28.54   42.42
 -14  14 -12   22.01   69.89
  14 -14 -13   28.28   30.21
 -14  14 -13  -89.11   60.77
  14 -14 -14   -2.29   47.52
  14 -14 -15  -19.87   44.80
  14 -14 -16   38.70   52.75
  14 -14 -17   53.53   67.40
  14 -14 -18   31.96   70.49
 -15   0   0    9.19   33.10
 -15   0  -1   90.07   67.17
 -15   0   1   79.02   59.32
 -15   0   2   46.43   60.91
 -15   0  -2   23.72   38.46
 -15   0  -3   66.56   62.04
 -15   0   3   77.09   71.64
 -15   0   4    3.40   26.35
 -15   0   5    9.84   29.98
 -15   0   6   75.38   59.32
 -15   0   7   88.81   62.08
 -15   0   8  249.60   99.78
 -15   0   9   43.72   58.76
 -15   0  10   40.80   48.30
 -15   0  11  130.56   71.88
 -15   0  12   71.23   36.59
 -15   0  13   -0.62   48.87
 -15   0  14  -15.57   50.65
 -15   0  15    0.66   37.31
 -15   0  16  -18.37   39.11
 -15   0  17  -55.10   92.99
 -15   1  17  -11.74   81.95
 -15   1  16  -42.23   75.63
 -15   1  15  -11.05   59.30
 -15   1  14   27.57   32.53
 -15   1  13  -40.35   41.02
 -15   1  12   12.51   78.47
 -15   1  11  -36.11   33.47
 -15   1  10  122.45   96.56
 -15   1   9  165.76   95.64
 -15   1   8   90.38   71.27
 -15   1   7   84.11   65.52
 -15   1   6   46.75   59.23
 -15   1   5   47.90   50.42
 -15   1   4   13.73   30.17
 -15   1   3  -15.70   26.84
 -15   1   2   74.37   61.64
 -15   1   1  -16.74   55.21
 -15  -1  -1   32.80   46.67
 -15   1   0   26.13   41.13
 -15  -1   0  -50.00   41.94
 -15  -1   1   72.40   61.53
 -15   1  -1   72.93   47.81
 -15   1  -2   22.72   33.18
 -15  -1   2    8.64   47.32
 -15  -1   3    6.86   24.50
 -15   1  -3   75.02   64.10
 -15  -1   4   24.63   26.36
 -15   1  -4   31.69   59.77
 -15   1  -5   32.49   51.51
 -15  -1   5  121.58   59.84
 -15  -1   6   24.15   64.09
 -15  -1   7  178.03   86.61
 -15  -1   8    9.31   61.00
 -15  -1   9   81.48   59.23
 -15  -1  10   28.94   51.70
 -15  -1  11    2.43   33.05
 -15  -1  12  -16.19   47.56
 -15  -1  13  138.46   73.59
 -15  -1  14   59.14   59.73
 -15  -1  15   28.56   48.88
 -15  -1  16  -66.39   57.58
 -15  -1  17   -3.70   32.19
 -15  -1  18    1.22   52.21
 -15   2  16  -36.24   73.55
 -15   2  15   70.59   42.94
 -15   2  14  -68.30   89.85
 -15   2  13   60.63   88.44
 -15   2  12   38.56   44.82
 -15   2  11   11.68   46.41
 -15   2  10  -61.82   50.98
 -15   2   9   96.45   86.88
 -15   2   8   18.90   58.31
 -15   2   7   -3.16   53.52
 -15   2   6  140.71  102.19
 -15   2   5   67.31   41.56
 -15   2   4    4.78   41.15
 -15   2   3   27.79   40.15
 -15   2   2   -9.88   28.07
 -15   2   1  -67.84   64.79
 -15  -2   0   68.13   37.96
 -15   2   0   22.59   52.71
 -15   2  -1   15.15   24.79
 -15  -2   1   15.16   40.36
 -15  -2   2   51.83   29.65
 -15   2  -2   27.62   38.63
 -15  -2   3   74.33   47.34
 -15   2  -3   43.62   51.95
 -15   2  -4   68.54   60.46
 -15  -2   4  133.56   77.30
 -15   2  -5    0.79   33.25
 -15  -2   5   -1.00   55.25
 -15   2  -6   10.30   47.46
 -15  -2   6  154.94   81.27
 -15  -2   7  -10.89   37.53
 -15   2  -7  100.54   64.90
 -15  -2   8   99.76   78.56
 -15  -2   9  -57.69   72.95
 -15  -2  10    8.95   40.72
 -15  -2  11  -71.47   41.22
 -15  -2  12   42.24   39.33
 -15  -2  13  106.59   70.34
 -15  -2  14   15.12   41.47
 -15  -2  15  -59.64   49.68
 -15  -2  16  -76.11   76.23
 -15  -2  17  -68.34   61.78
 -15  -2  18  -44.24   54.99
   3 -15 -24   44.50   80.42
   3 -15 -23   57.19   50.86
   3 -15 -22   55.80   54.08
   3 -15 -21  170.21  107.79
   3 -15 -20   20.21   32.62
   3 -15 -19   92.53   84.19
   3 -15 -18   21.84   40.44
   3 -15 -17    0.74   43.28
   3 -15 -16   11.46   27.15
 -15   3  16   29.71   61.65
   3 -15 -15   46.22   59.60
 -15   3  15    6.50   48.14
   3 -15 -14   60.31   51.91
 -15   3  14   50.08   51.38
   3 -15 -13   11.20   26.22
 -15   3  13  -20.44   82.23
   3 -15 -12    5.56   24.11
 -15   3  12  109.20  104.35
   3 -15 -11   44.02   51.64
 -15   3  11  -20.86   44.08
   3 -15 -10  111.46   75.26
 -15   3  10  -25.73   50.25
   3 -15  -9   66.30   51.49
 -15   3   9  122.57   86.18
 -15   3   8  114.21  100.73
 -15   3   7  131.25   93.82
 -15   3   6  -33.37   44.70
 -15   3   5  194.97  105.83
 -15   3   4   85.55  107.06
 -15   3   3  114.08   74.14
 -15   3   2  130.71   81.00
 -15   3   1   45.93   69.97
 -15   3   0  108.93   68.24
 -15   3  -1   18.58   27.74
 -15  -3   2   17.29   27.19
 -15   3  -2  -19.46   49.02
 -15   3  -3  -59.25   46.57
 -15  -3   3   68.80   59.88
 -15  -3   4   61.74   59.05
 -15   3  -4   36.83   56.00
 -15   3  -5   44.82   70.37
 -15  -3   5   71.70   49.36
 -15  -3   6  -42.72   46.62
 -15   3  -6   27.31   33.72
 -15   3  -7   97.92   66.22
 -15  -3   7   63.95   35.17
 -15  -3   8   26.41   33.17
 -15   3  -8  -10.60   39.06
 -15  -3   9   36.69   51.63
 -15   3  -9  141.87   85.85
 -15   3 -10  162.88  104.37
 -15  -3  10   77.67   36.44
 -15  -3  11  -33.49   31.40
 -15  -3  12   87.31   65.33
 -15  -3  13   64.31   54.85
 -15  -3  14   37.72   30.33
 -15  -3  15   41.19   36.13
 -15  -3  16   56.58   50.53
 -15  -3  17   34.55   32.60
 -15  -3  18  -23.25   68.90
   4 -15 -24  100.33  102.38
   4 -15 -23  -48.85   55.37
   4 -15 -22  -22.11   52.67
   4 -15 -21   76.71   76.63
   4 -15 -20   -9.44   52.51
   4 -15 -19   29.39   56.03
   4 -15 -18   86.73   54.31
   4 -15 -17   44.70   61.21
   4 -15 -16   45.19   35.61
   4 -15 -15    6.03   42.22
 -15   4  15   75.72   92.14
   4 -15 -14  -19.14   29.62
 -15   4  14   92.31   91.21
   4 -15 -13   70.63   63.45
 -15   4  13  -68.86   42.69
   4 -15 -12    0.23   34.91
 -15   4  12  164.93   87.15
   4 -15 -11   62.07   58.70
 -15   4  11   23.96   54.86
   4 -15 -10   73.35   54.50
 -15   4  10  -11.09   38.10
   4 -15  -9   13.56   21.37
 -15   4   9  135.26   81.40
   4 -15  -8  118.67   57.92
 -15   4   8   78.76   58.14
   4 -15  -7   56.33   47.82
 -15   4   7   22.18   78.31
   4 -15  -6   97.36   63.05
 -15   4   6  174.34  106.38
   4 -15  -5   96.15   55.78
 -15   4   5  -18.76   65.23
 -15   4   4   88.06   81.84
 -15   4   3   61.49   69.26
 -15   4   2  -15.27   36.34
 -15   4   1   -8.89   38.02
 -15   4   0  -13.30   39.29
 -15   4  -1  -35.57   37.14
 -15   4  -2   85.28   55.48
 -15   4  -3  -15.09   30.10
 -15  -4   3   62.27   51.62
 -15   4  -4  -27.48   58.47
 -15  -4   4   22.07   41.74
 -15   4  -5   14.28   32.86
 -15  -4   5  115.08   72.88
 -15   4  -6   39.88   35.09
 -15  -4   6  109.62   56.95
 -15  -4   7  -31.68   49.54
 -15   4  -7    9.48   43.29
 -15  -4   8   89.75   57.04
 -15   4  -8   -1.19   37.55
 -15  -4   9  -39.59   66.74
 -15   4  -9   77.50   48.43
 -15  -4  10   11.76   44.69
 -15   4 -10   31.45   72.95
 -15   4 -11  119.76   72.56
 -15  -4  11   50.71   47.87
 -15   4 -12   46.33   53.50
 -15  -4  12   20.95   32.61
 -15   4 -13  -32.94   60.12
 -15  -4  13   63.90   70.75
 -15   4 -14   82.19   50.48
 -15  -4  14  -40.80   35.23
 -15  -4  15   32.93   38.91
 -15  -4  16  141.54   76.00
 -15  -4  17   -5.64   55.53
   5 -15 -24   66.24   71.02
   5 -15 -23   46.74   63.62
   5 -15 -22   93.51   52.67
   5 -15 -21   25.52   43.25
   5 -15 -20   -2.81   40.80
   5 -15 -19   21.15   62.10
   5 -15 -18  -58.97   56.42
   5 -15 -17   22.37   39.30
   5 -15 -16   93.74   62.18
   5 -15 -15   49.57   67.47
   5 -15 -14   67.26   44.38
 -15   5  14  -59.49  100.15
   5 -15 -13   74.51   63.65
 -15   5  13   80.35   78.77
   5 -15 -12   81.99   69.17
 -15   5  12   -5.53   47.43
   5 -15 -11  -22.92   27.44
 -15   5  11   68.30   51.82
   5 -15 -10   21.49   32.02
 -15   5  10   49.07   67.76
   5 -15  -9   82.75   46.64
 -15   5   9  -18.60   63.73
   5 -15  -8   50.17   53.72
 -15   5   8    6.11   61.13
   5 -15  -7   26.24   25.62
 -15   5   7  133.76  110.87
   5 -15  -6   26.08   31.38
 -15   5   6  103.65   69.42
   5 -15  -5   94.56   56.12
 -15   5   5   40.92   48.52
   5 -15  -4   26.51   34.80
 -15   5   4   59.67   80.91
   5 -15  -3   80.70   47.84
 -15   5   3  -65.47   39.60
   5 -15  -2  115.67   57.03
 -15   5   2  141.13  104.00
 -15   5   1  103.00   83.31
 -15   5   0   32.09   54.21
 -15   5  -1   81.97   64.58
 -15   5  -2   -7.75   34.84
 -15   5  -3   50.46   49.86
 -15   5  -4   65.13   64.35
 -15  -5   4   45.02   46.63
 -15  -5   5   77.75   52.66
 -15   5  -5   50.12   71.73
 -15   5  -6   -3.18   29.85
 -15  -5   6   32.92   48.13
 -15   5  -7  143.66   72.87
 -15  -5   7   80.03   64.02
 -15   5  -8  -47.97   65.02
 -15  -5   8   -2.12   30.94
 -15   5  -9  -69.03   71.36
 -15  -5   9   14.82   34.96
 -15  -5  10  -80.61   49.29
 -15   5 -10   -6.82   37.57
 -15   5 -11  133.52   74.13
 -15  -5  11   47.59   47.07
 -15   5 -12   72.12   76.90
 -15  -5  12  -76.34   66.60
 -15   5 -13   12.99   40.68
 -15  -5  13   22.17   55.02
 -15   5 -14  -57.98   42.83
 -15  -5  14   -5.55   32.99
 -15   5 -15   98.07   70.62
 -15  -5  15   42.79   57.14
 -15   5 -16  -26.01   44.45
 -15   5 -17   25.73   52.50
 -15   5 -18  209.67  100.17
 -15   5 -19    2.22   64.85
 -15   5 -20   78.38   68.81
 -15   5 -21  -15.86   39.11
 -15   5 -22   51.34   72.49
 -15   5 -23   73.35   82.55
 -15   5 -24   42.98   40.17
   6 -15 -23   61.89   72.19
   6 -15 -22   50.92   64.44
   6 -15 -21  -23.29   47.11
   6 -15 -20  -71.20   71.98
   6 -15 -19   26.34   31.48
   6 -15 -18   72.21   36.65
   6 -15 -17    1.23   51.66
   6 -15 -16  -10.35   37.98
   6 -15 -15  -53.94   53.38
   6 -15 -14  -12.01   25.19
   6 -15 -13  172.52   89.70
 -15   6  13  186.20  127.30
   6 -15 -12  -10.35   34.17
 -15   6  12   10.98   73.34
   6 -15 -11  114.05   73.14
 -15   6  11    9.18   54.35
   6 -15 -10   28.27   30.62
 -15   6  10   27.23  125.91
   6 -15  -9   41.32   40.43
 -15   6   9  -79.26   83.16
   6 -15  -8  100.05   61.26
 -15   6   8   26.58   66.00
   6 -15  -7   64.31   49.20
 -15   6   7  -61.05   66.85
   6 -15  -6   93.13   46.63
 -15   6   6  141.34   95.83
   6 -15  -5   39.74   41.93
 -15   6   5  170.21  119.50
   6 -15  -4   63.50   35.81
 -15   6   4   39.36   48.10
   6 -15  -3   23.53   25.59
 -15   6   3   91.83   59.36
   6 -15  -2   19.26   24.41
 -15   6   2   24.40   66.33
   6 -15  -1  247.21   79.37
 -15   6   1  315.91  132.83
   6 -15   0   89.52   54.66
 -15   6   0   84.34   81.39
 -15   6  -1  132.96   81.89
 -15   6  -2   65.31   68.97
 -15   6  -3   45.68   47.35
 -15   6  -4  -66.37   70.84
 -15  -6   5   69.11   62.31
 -15   6  -5  -52.00   66.32
 -15   6  -6   21.30   33.46
 -15  -6   6   97.02   62.62
 -15  -6   7   36.46   61.27
 -15   6  -7   -8.15   42.52
 -15   6  -8   99.03   68.61
 -15  -6   8   57.05   46.45
 -15  -6   9   -1.01   21.92
 -15   6  -9 -124.96   83.80
 -15   6 -10   80.26   70.01
 -15  -6  10  -32.59   52.74
 -15   6 -11  -18.32   38.00
 -15  -6  11  -65.80   52.77
 -15   6 -12   34.73   31.72
 -15  -6  12  -10.60   28.59
 -15   6 -13   97.48   82.42
 -15  -6  13   57.66   44.41
 -15   6 -14  106.89   73.63
 -15  -6  14   73.98   61.07
 -15   6 -15   45.75   63.30
 -15   6 -16  -40.04   48.93
 -15   6 -17  141.83   57.69
 -15   6 -18   24.37   42.87
 -15   6 -19  135.91   88.23
 -15   6 -20  100.03   88.90
 -15   6 -21  126.23   89.44
 -15   6 -22    5.92   48.53
 -15   6 -23   54.85   68.43
   7 -15 -23  -18.23   44.11
   7 -15 -22   53.38   70.91
   7 -15 -21   47.84   54.51
   7 -15 -20    8.93   60.68
   7 -15 -19  -59.07   68.79
   7 -15 -18  -21.49   44.79
   7 -15 -17  107.89   76.08
   7 -15 -16   13.40   36.82
   7 -15 -15   14.50   50.91
   7 -15 -14   48.33   66.40
   7 -15 -13   38.53   27.78
   7 -15 -12   61.02   70.43
 -15   7  12  -61.77  103.47
   7 -15 -11   -5.59   28.53
 -15   7  11  -50.07   55.91
   7 -15 -10    8.62   28.85
 -15   7  10  148.28   86.95
   7 -15  -9   17.12   36.01
 -15   7   9  161.32  125.57
   7 -15  -8    9.41   31.39
 -15   7   8   -7.50   45.35
   7 -15  -7   87.43   63.88
 -15   7   7   91.53  105.23
   7 -15  -6   13.98   34.89
 -15   7   6   -3.61   68.60
   7 -15  -5   21.54   29.84
 -15   7   5  171.24   96.08
   7 -15  -4  -20.40   19.75
 -15   7   4   42.21   92.75
   7 -15  -3  -22.62   25.77
 -15   7   3  159.71  114.41
   7 -15  -2   30.23   38.82
 -15   7   2   77.65   61.35
   7 -15  -1   89.96   44.14
 -15   7   1  164.59   99.91
   7 -15   0   23.99   28.53
 -15   7   0   23.95   37.21
 -15   7  -1   10.64   55.89
 -15   7  -2   16.27   45.99
 -15   7  -3  -10.27   66.84
 -15   7  -4   -7.57   43.31
 -15   7  -5   15.45   46.88
 -15  -7   6    2.77   55.60
 -15   7  -6   -0.69   65.00
 -15  -7   7  139.75   67.54
 -15   7  -7   42.43   48.39
 -15   7  -8  -17.26   67.33
 -15  -7   8   75.22   70.24
 -15  -7   9  127.23   64.36
 -15   7  -9    8.90   33.06
 -15  -7  10   23.79   45.06
 -15   7 -10  -10.54   42.24
 -15  -7  11  -27.52   62.61
 -15   7 -11   83.30   69.87
 -15  -7  12  -13.44   49.52
 -15   7 -12  104.60   87.78
 -15   7 -13   67.50   51.77
 -15  -7  13    6.76   49.21
 -15   7 -14  -33.67   80.99
 -15   7 -15   55.94   81.14
 -15   7 -16  -26.33   34.33
 -15   7 -17  -13.78   52.41
 -15   7 -18   86.77   79.22
 -15   7 -19  -65.49   35.24
 -15   7 -20  -65.96   73.27
 -15   7 -21  104.46   69.41
   8 -15 -22  120.96  103.42
   8 -15 -21  -28.23   59.63
   8 -15 -20  -24.79   52.03
   8 -15 -19   40.20   64.22
   8 -15 -18   35.46   65.63
   8 -15 -17   25.70   45.30
   8 -15 -16  128.37   68.87
   8 -15 -15   25.13   54.83
   8 -15 -14   85.80   61.83
   8 -15 -13  -76.59   59.84
   8 -15 -12   46.60   43.83
   8 -15 -11   72.50   67.67
 -15   8  11   80.74   77.19
   8 -15 -10    3.31   39.44
 -15   8  10   61.84   73.83
   8 -15  -9  -15.45   21.06
 -15   8   9  185.70  160.69
   8 -15  -8   48.67   42.83
 -15   8   8   18.01   69.78
   8 -15  -7   11.27   38.39
 -15   8   7   98.89   97.48
   8 -15  -6   58.44   37.24
 -15   8   6   43.39   64.53
   8 -15  -5    9.17   23.05
 -15   8   5   39.57   82.56
   8 -15  -4   38.01   34.20
 -15   8   4   57.15   45.64
   8 -15  -3   44.70   54.89
 -15   8   3   74.17   95.72
   8 -15  -2   61.31   46.99
 -15   8   2   60.13   54.07
   8 -15  -1   83.67   49.07
 -15   8   1   48.02   38.29
   8 -15   0   36.90   33.26
 -15   8   0   -6.56   43.18
 -15   8  -1   80.15   58.01
 -15   8  -2  -26.42   30.61
 -15   8  -3   -0.56   73.80
 -15   8  -4  144.19  102.91
 -15   8  -5   51.36   51.99
 -15   8  -6  -51.26   67.09
 -15  -8   7   64.74   76.70
 -15   8  -7  -41.89   57.60
 -15   8  -8  146.58   78.30
 -15  -8   8  119.02   63.28
 -15   8  -9   17.50   45.23
 -15  -8   9  -22.27   26.16
 -15   8 -10  -78.04   56.59
 -15  -8  10   43.95   68.73
 -15  -8  11  -17.08   48.93
 -15   8 -11  -36.52   44.46
 -15   8 -12    5.73   34.37
 -15  -8  12  -14.38   28.86
 -15   8 -13    4.00   53.09
 -15   8 -14   43.25   60.88
 -15   8 -15  -23.27   61.79
 -15   8 -16  147.65   86.22
 -15   8 -17   47.19   84.44
 -15   8 -18   11.95   35.12
 -15   8 -19   58.04   71.07
 -15   8 -20   24.24   41.11
  15  -8 -21  -39.52   53.19
   9 -15 -22  150.38   99.20
   9 -15 -21   95.00   76.04
   9 -15 -20  -70.82   79.31
   9 -15 -19  -40.72   52.72
   9 -15 -18   60.11   41.94
   9 -15 -17  -33.92   28.72
   9 -15 -16   12.90   55.27
   9 -15 -15   -0.26   35.73
   9 -15 -14  -48.34   52.77
   9 -15 -13  -25.71   53.93
   9 -15 -12   51.74   48.90
   9 -15 -11  -44.41   66.99
   9 -15 -10   73.34   66.77
 -15   9  10   90.28   57.52
   9 -15  -9   27.14   45.34
 -15   9   9   97.81   79.34
   9 -15  -8   61.59   52.00
 -15   9   8   44.39   69.93
   9 -15  -7  105.14   55.00
 -15   9   7  247.28  122.66
   9 -15  -6  148.48   72.89
 -15   9   6  -69.46   81.87
   9 -15  -5   42.23   46.38
 -15   9   5   58.83   80.52
   9 -15  -4   51.82   40.78
 -15   9   4  -44.69   51.60
   9 -15  -3   55.53   47.23
 -15   9   3   -4.58   51.40
   9 -15  -2  -46.11   42.76
 -15   9   2  -42.58   93.72
   9 -15  -1   -6.43   24.98
 -15   9   1 -126.38  114.75
 -15   9   0  -66.69   74.54
 -15   9  -1  199.85  121.53
 -15   9  -2  114.72   88.50
 -15   9  -3   56.38   49.54
 -15   9  -4   38.63   59.47
 -15   9  -5   61.49   93.13
 -15   9  -6   56.32   56.98
 -15   9  -7   98.23   79.78
 -15  -9   8   65.59   58.38
 -15   9  -8  123.39   85.42
 -15  -9   9  138.94   65.76
 -15   9  -9  183.60  103.64
 -15  -9  10   -3.77   25.48
 -15   9 -10  -64.01   92.45
 -15  -9  11  -58.94   58.82
 -15   9 -11   62.04   38.15
 -15   9 -12   45.25   65.48
 -15   9 -13  -34.66   33.46
 -15   9 -14   55.78   37.43
 -15   9 -15  -59.97   43.84
 -15   9 -16  -69.10   73.67
 -15   9 -17   15.80   31.00
 -15   9 -18   36.61   79.33
  15  -9 -19  -54.31   47.18
 -15   9 -19   11.71   59.73
  15  -9 -20    7.65   57.98
  15  -9 -21   72.45   71.91
  10 -15 -21   17.90   48.64
  10 -15 -20   61.00   76.39
  10 -15 -19  -45.28   51.98
  10 -15 -18   26.98   39.61
  10 -15 -17  -81.33   57.80
  10 -15 -16   59.96   62.10
  10 -15 -15  -41.91   33.10
  10 -15 -14   78.79   52.28
  10 -15 -13   78.51   58.95
  10 -15 -12  -22.10   25.97
  10 -15 -11   54.98   60.82
  10 -15 -10   56.75   41.48
  10 -15  -9   41.47   43.74
  10 -15  -8   76.73   47.88
 -15  10   8  133.59  118.37
  10 -15  -7    0.13   27.97
 -15  10   7  -34.45   60.38
  10 -15  -6   19.70   56.31
 -15  10   6  -14.67   71.27
  10 -15  -5   46.11   52.52
 -15  10   5  -40.68   79.21
  10 -15  -4   39.00   47.50
 -15  10   4  124.69  123.00
  10 -15  -3   64.04   43.31
 -15  10   3   -7.36   53.35
  10 -15  -2   24.14   43.24
 -15  10   2  134.12   98.54
 -15  10   1   97.64   86.40
 -15  10   0  127.83   97.46
 -15  10  -1  -25.11   34.67
 -15  10  -2  -82.30   92.42
 -15  10  -3  -94.50   80.10
 -15  10  -4   43.01   40.80
 -15  10  -5   89.44   73.41
 -15  10  -6    2.06   46.31
 -15  10  -7   84.07   68.47
 -15 -10   8   21.60   48.81
 -15  10  -8  -61.83   57.84
 -15 -10   9   33.76   61.15
 -15  10  -9   11.27   62.19
 -15  10 -10  -18.96   71.99
 -15  10 -11  -14.87   51.28
 -15  10 -12  -63.35   59.83
 -15  10 -13  -85.38  100.32
 -15  10 -14    0.70   34.12
 -15  10 -15   33.27   37.35
 -15  10 -16  107.96   63.96
  15 -10 -17  -16.76   25.04
 -15  10 -17  183.73  112.34
  15 -10 -18    0.08   48.20
 -15  10 -18    6.01   68.79
  15 -10 -19   16.04   35.67
  15 -10 -20   59.68   51.99
  11 -15 -20   17.83   49.00
  11 -15 -19   -0.10   36.88
  11 -15 -18   18.91   52.31
  11 -15 -17   31.50   28.44
  11 -15 -16  -15.48   54.04
  11 -15 -15    2.61   51.52
  11 -15 -14    4.52   32.02
  11 -15 -13  -10.79   42.66
  11 -15 -12  -31.95   46.05
  11 -15 -11  159.05   83.16
 -11  15 -11   81.18   77.71
 -11  15 -10   10.83   66.97
  11 -15 -10  -18.71   32.72
  11 -15  -9    0.71   30.32
  11 -15  -8   -7.19   22.27
 -15  11   7   -6.64   46.09
  11 -15  -7   -2.51   29.35
  11 -15  -6   45.53   39.62
 -15  11   6  139.19   78.06
  11 -15  -5   14.71   19.36
 -15  11   5  -70.18   82.58
  11 -15  -4   59.14   42.63
 -15  11   4  100.37  130.63
  11 -15  -3  148.25   68.68
 -15  11   3  147.74  115.49
 -15  11   2   23.41   78.06
 -15  11   1  250.94  122.80
 -15  11   0   54.65   94.79
 -15  11  -1  157.97   93.38
 -15  11  -2   93.27   51.52
 -15  11  -3  -33.38   51.71
 -15  11  -4  -23.66   44.23
 -15  11  -5  136.53   88.33
 -15  11  -6   99.99   85.51
 -15  11  -7    7.30   58.70
 -15  11  -8  -15.86   34.11
 -15  11  -9    5.83   64.23
 -15  11 -10  147.91  101.08
 -15  11 -11   47.42   76.63
 -15  11 -12  -15.26   57.40
 -15  11 -13  -17.95   48.44
 -15  11 -14  171.13  111.97
  15 -11 -15  -35.17   21.70
 -15  11 -15   21.85   61.35
  15 -11 -16  -26.50   49.89
 -15  11 -16  139.99   84.63
  15 -11 -17   28.43   35.24
 -15  11 -17   56.55   61.58
  15 -11 -18   52.55   59.06
  15 -11 -19  -33.46   63.60
  12 -15 -19   40.95   35.11
  12 -15 -18  -27.05   56.40
  12 -15 -17   65.46   45.93
  12 -15 -16   24.14   54.24
  12 -15 -15   13.18   52.84
  12 -15 -14  -49.71   61.68
  12 -15 -13   37.17   26.65
  12 -15 -12  -47.05   56.78
 -12  15 -11   -2.55   58.10
  12 -15 -11    4.36   30.94
 -12  15 -10   12.09   35.18
  12 -15 -10  -74.70   64.28
 -12  15  -9   42.58   97.51
  12 -15  -9    4.22   30.94
 -12  15  -8  100.77  109.67
  12 -15  -8   68.19   54.95
 -12  15  -7  176.78  124.51
  12 -15  -7   18.06   46.49
  12 -15  -6   15.75   44.44
  12 -15  -5   60.63   49.56
 -15  12   5  -16.01   54.69
  12 -15  -4  -22.38   32.37
 -15  12   4   26.79   51.79
 -15  12   3  133.83  117.45
 -15  12   2  -16.77   92.68
 -15  12   1   55.99  102.81
 -15  12   0   13.10   61.10
 -15  12  -1   67.92   78.69
 -15  12  -2   14.06   72.28
 -15  12  -3   50.51   51.38
 -15  12  -4  -27.51   78.57
 -15  12  -5   72.05   59.64
 -15  12  -6  141.26  116.34
 -15  12  -7 -174.90  100.04
 -15  12  -8 -117.58  106.51
 -15  12  -9   51.56   40.24
 -15  12 -10   96.88   93.64
 -15  12 -11   -6.44   59.00
  15 -12 -12   85.14   60.28
 -15  12 -12  -35.76   66.81
  15 -12 -13   36.06   51.85
 -15  12 -13   73.11   97.79
  15 -12 -14  -14.39   47.65
 -15  12 -14  -77.74   78.05
  15 -12 -15   -0.32   35.87
 -15  12 -15   67.90   78.32
  15 -12 -16    0.66   29.82
  15 -12 -17   27.96   32.80
  15 -12 -18   88.96   81.95
  13 -15 -18   36.48   54.22
  13 -15 -17   -7.34   28.27
  13 -15 -16  -64.52   68.39
  13 -15 -15   60.91   54.67
  13 -15 -14   23.96   33.66
  13 -15 -13   35.15   35.71
  13 -15 -12   12.94   29.73
 -13  15 -11   45.46   45.88
  13 -15 -11    2.85   36.59
 -13  15 -10 -114.16   90.08
  13 -15 -10   15.16   43.33
  13 -15  -9  145.87   66.15
 -13  15  -9  122.09  113.88
  13 -15  -8   20.07   44.12
 -13  15  -8  -71.13   66.87
 -13  15  -7  -91.53  107.49
  13 -15  -7   46.02   50.10
 -13  15  -6   26.41   61.96
  13 -15  -6   41.23   33.61
 -13  15  -5  -18.77   51.51
  13 -15  -5   10.94   42.81
 -15  13   3   77.71  104.41
 -15  13   2    2.53   85.65
 -15  13   1  -97.71   92.22
 -15  13   0  -95.88   85.45
 -15  13  -1   17.67   71.80
 -15  13  -2  -50.13   85.99
 -15  13  -3  -47.24   90.97
 -15  13  -4    5.10   53.60
 -15  13  -5 -121.44  113.09
 -15  13  -6   74.60   92.66
 -15  13  -7   66.27   82.62
 -15  13  -8   41.57   50.44
  15 -13  -9   44.04   42.81
 -15  13  -9   31.44   59.80
  15 -13 -10    8.02   36.86
 -15  13 -10   77.50  123.40
  15 -13 -11  -84.31   58.63
 -15  13 -11   28.94   64.02
  15 -13 -12  -22.79   39.07
 -15  13 -12  110.60  103.81
  15 -13 -13  -53.97   41.23
 -15  13 -13   12.80  114.75
  15 -13 -14 -106.26   51.96
 -15  13 -14   48.57   76.93
  15 -13 -15    7.13   25.26
  15 -13 -16  -17.06   25.27
  15 -13 -17    0.97   61.62
  15 -13 -18  -29.85   54.28
  14 -15 -17   19.52   49.44
  14 -15 -16   20.05   34.23
  14 -15 -15   25.14   36.26
  14 -15 -14   34.16   30.87
  14 -15 -13   21.29   48.90
  14 -15 -12  -29.31   22.24
  14 -15 -11  -68.03   47.58
 -14  15 -11 -107.57   94.76
 -14  15 -10  -76.27   48.61
  14 -15 -10   48.31   44.12
 -14  15  -9 -153.35  143.10
  14 -15  -9   33.64   27.22
 -14  15  -8   11.71   51.07
  14 -15  -8  -20.56   43.96
 -14  15  -7 -200.42  141.81
  14 -15  -7   67.12   61.93
 -14  15  -6    6.59   71.44
  14 -15  -6   63.87   49.72
 -14  15  -5  138.69  115.01
 -14  15  -4  208.90  133.77
 -15  14   0   81.73  147.31
 -15  14  -1  -13.13   50.29
 -15  14  -2  -68.86   60.45
 -15  14  -3 -116.61   69.57
 -15  14  -4   84.34   72.65
  15 -14  -5   24.94   35.08
 -15  14  -5  -47.97   58.30
  15 -14  -6   43.92   28.25
 -15  14  -6  -30.20   57.06
  15 -14  -7   29.52   32.66
 -15  14  -7   82.21   87.59
  15 -14  -8   30.18   41.67
 -15  14  -8  152.62  106.75
  15 -14  -9  -84.47   57.50
 -15  14  -9  -39.97   44.82
  15 -14 -10  -21.11   29.84
 -15  14 -10   49.31   75.85
  15 -14 -11   32.94   34.78
 -15  14 -11  -13.46   77.79
  15 -14 -12  -60.15   32.99
 -15  14 -12  151.51  117.82
  15 -14 -13   49.49   70.44
 -15  14 -13   52.31  117.01
  15 -14 -14   92.21   48.25
  15 -14 -15   61.36   66.22
  15 -14 -16  -16.29   53.04
  15 -14 -17   51.93   37.52
 -15  15  -3  118.59   84.22
 -15  15  -4  -90.43   83.74
 -15  15  -5  229.63  136.23
 -15  15  -6  -34.35   62.57
 -15  15  -7   52.10   47.63
 -15  15  -8  112.42   92.59
  15 -15  -8   54.66   41.20
  15 -15  -9   88.21   51.68
 -15  15  -9  190.31  118.85
  15 -15 -10   17.27   50.09
 -15  15 -10  -17.27   81.79
  15 -15 -11  111.12   59.57
 -15  15 -11  -39.34   67.77
  15 -15 -12   13.87   34.60
  15 -15 -13  139.21   90.04
  15 -15 -14   43.25   61.40
  15 -15 -15   13.28   52.65
  15 -15 -16  -38.51   47.78
 -16   0   0  155.53   80.31
 -16   0   1  -12.17   44.70
 -16   0  -1  -23.59   36.34
 -16   0   2   82.23   70.88
 -16   0  -2   56.23   67.67
 -16   0  -3  104.15   84.06
 -16   0   3  -50.18   63.34
 -16   0  -4  -24.48   37.44
 -16   0   4    2.58   42.85
 -16   0   5  -31.43   38.00
 -16   0   6   36.86   57.69
 -16   0   7  -45.41   66.16
 -16   0   8  -26.88   52.05
 -16   0   9  -38.35   72.94
 -16   0  10   79.88   74.44
 -16   0  11  102.46   81.85
 -16   0  12   83.83   77.63
 -16   0  13  147.28  101.29
 -16   0  14   41.49   65.83
 -16   0  15 -109.21   61.72
 -16   0  16    6.06   37.89
 -16   0  17  238.60  135.91
 -16   0  18   47.23   62.78
 -16   1  17  196.34  122.24
 -16   1  16    7.82   49.28
 -16   1  15   51.66   45.94
 -16   1  14   96.56  101.62
 -16   1  13   77.79   90.64
 -16   1  12  -34.12   67.74
 -16   1  11   -1.68   41.18
 -16   1  10  152.33   98.25
 -16   1   9  -42.48   52.99
 -16   1   8  -20.82   51.13
 -16   1   7  -35.91   29.35
 -16   1   6  -54.49   58.19
 -16   1   5   56.82   36.09
 -16   1   4    9.05   41.23
 -16   1   3  -22.91   34.19
 -16  -1  -2  -12.74   35.25
 -16   1   2  106.61   77.63
 -16  -1  -1   -3.90   34.91
 -16   1   1   50.15   43.80
 -16   1   0  210.82  103.77
 -16  -1   0   39.51   59.43
 -16  -1   1   44.52   56.17
 -16   1  -1  110.56   67.83
 -16   1  -2   58.37   36.02
 -16  -1   2  144.21   86.39
 -16  -1   3   -3.55   44.91
 -16   1  -3  -10.92   28.56
 -16  -1   4  -33.42   32.87
 -16   1  -4   58.78   78.98
 -16   1  -5   85.91   73.92
 -16  -1   5   55.95   41.56
 -16   1  -6   94.31   66.07
 -16  -1   6  -13.87   35.83
 -16  -1   7  -40.73   46.77
 -16  -1   8  -45.99   71.40
 -16  -1   9  -46.23   40.38
 -16  -1  10    5.09   43.27
 -16  -1  11   90.36   87.55
 -16  -1  12    3.23   40.85
 -16  -1  13  -10.10   49.65
 -16  -1  14  140.79   68.51
 -16  -1  15  -18.22   41.22
 -16  -1  16  -29.44   65.06
 -16  -1  17  -44.22   41.97
 -16  -1  18  -58.94   60.99
 -16   2  17   -7.25   37.13
 -16   2  16   62.18   71.06
 -16   2  15   69.71   71.85
 -16   2  14 -113.92   91.98
 -16   2  13  149.45  105.55
 -16   2  12  -55.08   68.87
 -16   2  11  181.47  117.95
 -16   2  10  194.37   87.97
 -16   2   9   43.30   69.32
 -16   2   8   37.03   37.39
 -16   2   7 -100.49   62.42
 -16   2   6  198.99  105.99
 -16   2   5   32.73   46.76
 -16   2   4   42.16   43.04
 -16   2   3  -72.49   76.00
 -16   2   2  -36.73   53.02
 -16   2   1   85.05   70.41
 -16  -2   0  116.48   72.78
 -16   2   0    0.54   29.67
 -16   2  -1   14.95   26.03
 -16  -2   1  177.37   83.26
 -16   2  -2   22.07   38.01
 -16  -2   2   43.91   59.99
 -16  -2   3   79.12   40.59
 -16   2  -3   54.69   25.24
 -16  -2   4   47.39   68.48
 -16   2  -4   76.16   77.32
 -16  -2   5  -31.96   41.42
 -16   2  -5   67.95   57.27
 -16   2  -6  181.74   93.01
 -16  -2   6  113.27   76.13
 -16  -2   7    2.70   41.31
 -16   2  -7  111.33   89.96
 -16  -2   8  -97.93   55.18
 -16   2  -8  -20.56   59.39
 -16   2  -9   41.94   74.82
 -16  -2   9   73.48   68.25
 -16  -2  10   63.24   33.42
 -16  -2  11   52.08   54.35
 -16  -2  12  -18.19   61.27
 -16  -2  13   62.24   81.64
 -16  -2  14   18.56   30.33
 -16  -2  15   92.70   62.36
 -16  -2  16  -80.09   75.59
 -16  -2  17   60.28   71.31
 -16  -2  18  117.33   67.43
   3 -16 -19   -5.75   75.05
   3 -16 -18  -77.41   46.29
   3 -16 -17  -63.66   56.95
   3 -16 -16  -14.41   67.23
 -16   3  16  113.61   79.15
   3 -16 -15   34.76   55.68
 -16   3  15  113.36  113.26
 -16   3  14  222.99  121.47
 -16   3  13   18.94   71.14
 -16   3  12   76.62   90.79
 -16   3  11   66.14   78.02
 -16   3  10  -21.96   32.73
 -16   3   9  -81.61   69.80
 -16   3   8   64.60   79.28
 -16   3   7   53.50   67.65
 -16   3   6   -2.52   64.10
 -16   3   5   41.38   62.18
 -16   3   4   16.07   36.88
 -16   3   3   27.97   60.71
 -16   3   2   23.54   55.65
 -16   3   1  -52.87   65.67
 -16   3   0   29.30   66.68
 -16  -3   1   12.02   40.59
 -16   3  -1  -65.54   64.13
 -16   3  -2   17.07   35.64
 -16  -3   2  -15.02   37.98
 -16   3  -3  -15.60   46.66
 -16  -3   3   98.30   65.80
 -16   3  -4   61.70   80.89
 -16  -3   4   26.21   29.65
 -16  -3   5  102.97   62.12
 -16   3  -5  -28.33   55.89
 -16  -3   6   96.76   66.89
 -16   3  -6  -22.21   53.16
 -16   3  -7   48.72   65.07
 -16  -3   7  -35.03   31.88
 -16  -3   8  -18.52   31.88
 -16   3  -8  165.28   94.20
 -16  -3   9  -43.09   45.14
 -16   3  -9  117.14   82.50
 -16   3 -10   42.76   54.75
 -16  -3  10  -66.47   56.62
 -16   3 -11   15.44   53.46
 -16  -3  11  139.80   86.40
 -16   3 -12  -34.76   50.11
 -16  -3  12   48.40   58.86
 -16  -3  13  139.27   79.10
 -16  -3  14   59.57   79.50
 -16  -3  15   49.99   63.44
 -16  -3  16   -6.63   56.64
 -16  -3  17   25.75   43.26
   4 -16 -23   -1.82   66.51
   4 -16 -22   -0.94   50.25
   4 -16 -21   -5.43   37.03
   4 -16 -20   42.51   30.80
   4 -16 -19   31.66   61.20
   4 -16 -18   28.31   61.81
   4 -16 -17  -19.85   47.55
   4 -16 -16   66.56   59.25
   4 -16 -15   36.94   74.42
 -16   4  15   41.98   57.27
   4 -16 -14   94.46   74.10
 -16   4  14   98.22  116.23
   4 -16 -13  138.33   80.48
 -16   4  13  139.13  122.48
   4 -16 -12  -16.99   38.02
 -16   4  12  149.90  110.27
   4 -16 -11   24.50   54.14
 -16   4  11   90.74  107.01
   4 -16 -10   -0.75   51.57
 -16   4  10   21.96   77.75
   4 -16  -9  164.95   79.15
 -16   4   9  121.39   89.04
   4 -16  -8   33.72   50.36
 -16   4   8   91.12   91.23
 -16   4   7  -32.83   48.98
 -16   4   6  159.89   92.23
 -16   4   5  -45.04   50.29
 -16   4   4   35.95   31.12
 -16   4   3   81.09   69.40
 -16   4   2  -64.82   48.56
 -16   4   1  -46.65   73.54
 -16   4   0 -152.80   90.52
 -16   4  -1   -6.00   35.25
 -16   4  -2  -31.44   49.77
 -16  -4   2   52.20   51.76
 -16  -4   3   98.86   70.37
 -16   4  -3   38.79   56.07
 -16   4  -4   85.22   67.72
 -16  -4   4   78.02   55.19
 -16   4  -5    4.00   49.88
 -16  -4   5   68.75   57.14
 -16  -4   6   37.41   61.83
 -16   4  -6   58.34   56.88
 -16   4  -7  -79.78   60.84
 -16  -4   7  -49.31   39.55
 -16  -4   8   37.48   47.25
 -16   4  -8   90.26   59.59
 -16  -4   9    9.67   51.97
 -16   4  -9  261.33   99.88
 -16   4 -10 -113.40   66.42
 -16  -4  10  -38.97   34.90
 -16   4 -11  -23.54   55.60
 -16  -4  11   22.52   71.88
 -16   4 -12  -40.80   46.26
 -16  -4  12   55.32   65.90
 -16   4 -13  -43.57   36.99
 -16  -4  13   41.76   60.45
 -16   4 -14   57.24   59.06
 -16  -4  14  325.61  122.67
 -16   4 -15  -18.60   50.74
 -16  -4  15   74.12   67.02
 -16   4 -16   16.82   48.98
 -16  -4  16   35.68   70.10
 -16   4 -17  -49.55   43.89
   5 -16 -23   33.78   56.43
   5 -16 -22   74.82   84.49
   5 -16 -21   64.53   64.02
   5 -16 -20  -11.32   59.65
   5 -16 -19  187.55  101.93
   5 -16 -18   37.74   59.75
   5 -16 -17   47.35   50.81
   5 -16 -16    8.63   39.73
   5 -16 -15   11.53   50.87
   5 -16 -14  113.56   85.01
 -16   5  14  -80.87   81.57
   5 -16 -13  -37.71   43.82
 -16   5  13   45.75   84.87
   5 -16 -12  -17.63   36.09
 -16   5  12  -10.65   71.89
   5 -16 -11   91.16   74.03
 -16   5  11   32.99   44.17
   5 -16 -10   73.97   63.28
 -16   5  10   83.03   86.69
   5 -16  -9   25.88   39.14
 -16   5   9  119.95   88.00
   5 -16  -8   -5.15   36.09
 -16   5   8  -17.90   45.37
   5 -16  -7   -6.33   24.45
 -16   5   7  -61.00   86.60
   5 -16  -6  -36.29   31.64
 -16   5   6   37.54   61.47
   5 -16  -5   24.45   35.16
 -16   5   5  100.62   72.81
 -16   5   4   53.59   43.38
 -16   5   3  165.72  105.59
 -16   5   2  -19.01   31.94
 -16   5   1   56.23   50.28
 -16   5   0   31.26   44.41
 -16   5  -1   -5.15   37.46
 -16   5  -2  -15.80   37.59
 -16  -5   3  152.05   77.55
 -16   5  -3  -22.22   35.51
 -16   5  -4  128.15   87.67
 -16  -5   4   22.20   37.70
 -16  -5   5  -18.22   23.73
 -16   5  -5  -10.05   35.00
 -16   5  -6  105.59   76.66
 -16  -5   6   36.68   68.30
 -16  -5   7  -12.61   32.63
 -16   5  -7    9.33   49.52
 -16   5  -8   60.33   44.14
 -16  -5   8   57.20   78.54
 -16   5  -9   42.81   45.82
 -16  -5   9   53.41   38.95
 -16   5 -10  -28.65   46.98
 -16  -5  10   54.60   43.49
 -16  -5  11   41.57   49.58
 -16   5 -11  -55.42   53.61
 -16   5 -12   16.53   58.85
 -16  -5  12  -80.39   86.24
 -16   5 -13   30.39   33.78
 -16  -5  13   37.60   48.14
 -16   5 -14   56.76   68.63
 -16  -5  14   22.43   58.33
 -16   5 -15   83.58   64.39
 -16  -5  15  -55.04   73.13
 -16   5 -16   44.89   78.43
 -16   5 -17  130.85   79.80
 -16   5 -18  237.55  111.34
 -16   5 -19  -29.95   39.88
 -16   5 -20  166.91  105.12
 -16   5 -21    6.40   45.69
 -16   5 -22  151.34  116.30
 -16   5 -23   92.20   47.59
 -16   5 -24  186.96  138.33
   6 -16 -22  -47.79   33.82
   6 -16 -21   60.53   76.24
   6 -16 -20  -10.80   47.72
   6 -16 -19  -30.17   48.29
   6 -16 -18  -18.25   66.67
   6 -16 -17   73.34   29.42
   6 -16 -16   27.76   57.37
   6 -16 -15  -33.81   50.15
   6 -16 -14   64.95   27.46
 -16   6  14 -121.01   87.61
   6 -16 -13  -40.79   33.10
 -16   6  13  143.37  112.54
   6 -16 -12   83.73   56.95
 -16   6  12  -24.76   57.78
   6 -16 -11  -27.85   57.40
 -16   6  11  -95.73   55.93
   6 -16 -10   28.58   27.49
 -16   6  10  -31.49   44.29
   6 -16  -9  120.25   67.76
 -16   6   9   21.42   84.00
   6 -16  -8  -24.98   48.73
 -16   6   8   37.48   66.45
   6 -16  -7  -14.29   26.04
 -16   6   7   10.44   90.39
   6 -16  -6    5.49   22.24
 -16   6   6   17.55   41.70
   6 -16  -5  112.59   62.48
 -16   6   5   95.33   40.59
   6 -16  -4   69.62   51.57
 -16   6   4   46.12   52.25
   6 -16  -3   38.10   40.38
 -16   6   3   -7.17   63.31
   6 -16  -2  163.28   71.89
 -16   6   2   81.57   69.94
 -16   6   1  -47.66   44.48
 -16   6   0  127.19   83.61
 -16   6  -1  -19.80   38.48
 -16   6  -2   54.35   52.75
 -16   6  -3  -50.26   51.91
 -16  -6   4  160.95   68.22
 -16   6  -4   53.35   52.40
 -16  -6   5  -13.61   29.15
 -16   6  -5 -119.40   86.80
 -16   6  -6  133.46   79.98
 -16  -6   6   35.88   45.48
 -16   6  -7   -8.43   41.68
 -16  -6   7  -12.38   32.53
 -16  -6   8    1.97   39.85
 -16   6  -8  -82.49   63.43
 -16  -6   9   -0.63   32.75
 -16   6  -9   45.94   80.04
 -16  -6  10  -65.99   70.59
 -16   6 -10  116.59   76.60
 -16  -6  11  -60.38   41.02
 -16   6 -11    3.73   42.17
 -16   6 -12   28.31   45.71
 -16  -6  12    8.25   54.07
 -16   6 -13  -49.91   65.07
 -16  -6  13   60.73   44.94
 -16   6 -14   -5.50   65.47
 -16  -6  14  138.07   76.95
 -16   6 -15   27.55   43.23
 -16   6 -16   41.63   58.29
 -16   6 -17   65.40   42.80
 -16   6 -18  -35.55   35.41
 -16   6 -19  101.44   95.25
 -16   6 -20   73.20   72.62
 -16   6 -21  -13.50   57.58
 -16   6 -22   15.10   48.59
   7 -16 -22   31.27   45.16
   7 -16 -21  -56.55   62.43
   7 -16 -20  130.90   81.71
   7 -16 -19   77.81   57.62
   7 -16 -18   39.43   64.03
   7 -16 -17  -60.32   61.07
   7 -16 -16   50.95   84.68
   7 -16 -15   93.28   65.22
   7 -16 -14  -38.04   44.65
   7 -16 -13   31.44   44.43
 -16   7  13  -55.16   75.83
   7 -16 -12  -24.81   27.14
 -16   7  12   56.05   63.93
   7 -16 -11   20.70   53.06
 -16   7  11   67.61  122.94
   7 -16 -10  -20.19   32.44
 -16   7  10  -14.38   70.16
   7 -16  -9    5.08   28.72
 -16   7   9  197.54  117.24
   7 -16  -8   53.67   37.39
 -16   7   8    0.14   62.68
   7 -16  -7  -43.04   38.22
 -16   7   7 -109.78   51.07
   7 -16  -6   13.39   31.01
 -16   7   6 -221.73  116.20
   7 -16  -5  -60.10   57.22
 -16   7   5   11.89   40.20
   7 -16  -4   50.26   56.82
 -16   7   4  -20.84   72.99
   7 -16  -3   89.26   59.04
 -16   7   3  166.80  105.38
   7 -16  -2   27.74   52.71
 -16   7   2   10.39   43.65
 -16   7   1   64.05   78.69
 -16   7   0   16.87   86.34
 -16   7  -1  213.16  116.99
 -16   7  -2  106.51   99.02
 -16   7  -3  131.65   75.14
 -16   7  -4 -107.89   76.79
 -16  -7   5   96.27   63.84
 -16   7  -5   27.96   62.28
 -16   7  -6   -4.60   45.93
 -16  -7   6  -30.61   44.60
 -16   7  -7  -21.11   44.09
 -16  -7   7   -4.90   55.48
 -16   7  -8   45.15   50.13
 -16  -7   8   -8.06   41.13
 -16  -7   9   60.70   68.05
 -16   7  -9  -25.46   58.81
 -16   7 -10   46.59   78.37
 -16  -7  10  -60.02   63.38
 -16  -7  11   42.07   58.09
 -16   7 -11  -46.05   45.06
 -16   7 -12   19.33   37.43
 -16  -7  12  -16.73   34.16
 -16   7 -13  -45.75   33.88
 -16  -7  13   47.46   62.93
 -16   7 -14  162.56  102.42
 -16   7 -15   84.36   78.51
 -16   7 -16   46.98   64.52
 -16   7 -17  -92.28   71.93
 -16   7 -18 -104.03   89.77
 -16   7 -19  -59.50   69.06
 -16   7 -20  -68.12   78.19
 -16   7 -21   41.78   86.73
   8 -16 -21   36.22   38.55
   8 -16 -20  152.39   95.73
   8 -16 -19  -94.26   67.09
   8 -16 -18    3.59   39.13
   8 -16 -17    5.66   76.79
   8 -16 -16   59.85   32.07
   8 -16 -15  -23.06   52.30
   8 -16 -14  -21.24   27.77
   8 -16 -13   47.83   62.94
   8 -16 -12   -9.27   30.65
   8 -16 -11  152.96   79.80
 -16   8  11   66.16   53.19
   8 -16 -10  -31.94   52.24
 -16   8  10   10.80   87.82
   8 -16  -9   78.77   63.56
 -16   8   9   47.01   85.77
   8 -16  -8   29.69   30.63
 -16   8   8   31.70   59.78
   8 -16  -7   85.75   57.57
 -16   8   7  -49.90   49.59
   8 -16  -6   33.30   22.85
 -16   8   6   29.56   67.98
   8 -16  -5   88.65   50.29
 -16   8   5    9.80   50.34
   8 -16  -4   35.84   38.95
 -16   8   4   55.25   39.94
   8 -16  -3   24.08   30.67
 -16   8   3  -21.08   37.03
 -16   8   2   66.98   55.58
 -16   8   1   22.95   73.33
 -16   8   0   64.69   92.41
 -16   8  -1   78.47   39.32
 -16   8  -2   44.93   75.36
 -16   8  -3   90.97   71.42
 -16   8  -4  138.23  110.09
 -16   8  -5 -136.81  113.24
 -16  -8   6   22.98   45.95
 -16   8  -6  103.22   96.41
 -16  -8   7   -2.79   31.96
 -16   8  -7   37.42   43.11
 -16   8  -8   32.31   39.25
 -16  -8   8  101.65   74.27
 -16   8  -9  -13.47   53.47
 -16  -8   9   12.22   39.54
 -16  -8  10   38.05   49.66
 -16   8 -10  -37.26   86.49
 -16  -8  11  -17.04   57.52
 -16   8 -11   76.81   79.38
 -16   8 -12 -101.22   79.34
 -16   8 -13   45.23   34.89
 -16   8 -14  -46.00   72.18
 -16   8 -15  129.41   96.01
 -16   8 -16   47.71   68.09
 -16   8 -17   -1.85   37.18
 -16   8 -18   39.69   39.40
 -16   8 -19   68.21   38.73
 -16   8 -20  -21.06   53.35
   9 -16 -21   93.18   72.89
   9 -16 -20   35.80   65.06
   9 -16 -19   87.18   53.79
   9 -16 -18   -8.33   30.98
   9 -16 -17   78.31   79.46
   9 -16 -16   59.56   71.65
   9 -16 -15  -30.54   53.12
   9 -16 -14    0.80   29.44
   9 -16 -13  -14.62   32.83
   9 -16 -12    9.04   45.49
   9 -16 -11  -67.88   59.13
   9 -16 -10   19.71   34.30
 -16   9  10  181.51  146.99
   9 -16  -9   89.85   67.76
 -16   9   9   33.23   73.61
   9 -16  -8   23.89   43.84
 -16   9   8 -164.70  124.98
   9 -16  -7   94.95   70.11
 -16   9   7  230.29  112.53
   9 -16  -6  129.90   77.43
 -16   9   6 -100.11   69.53
   9 -16  -5   11.02   34.16
 -16   9   5   28.22  106.60
   9 -16  -4   76.02   60.30
 -16   9   4    7.95   56.96
   9 -16  -3    1.13   41.10
 -16   9   3  189.63  120.33
 -16   9   2  148.95  118.63
 -16   9   1   15.16   55.48
 -16   9   0 -102.90   92.79
 -16   9  -1  205.46  103.21
 -16   9  -2  -49.58   75.87
 -16   9  -3   74.63   69.45
 -16   9  -4   49.30   44.19
 -16   9  -5   71.35   57.04
 -16   9  -6  102.06  102.85
 -16  -9   7   26.95   57.05
 -16   9  -7    0.73   39.64
 -16  -9   8   59.05   66.00
 -16   9  -8  100.62   81.05
 -16  -9   9   42.77   47.16
 -16   9  -9   -7.40   35.65
 -16  -9  10   50.90   49.12
 -16   9 -10   -2.61   82.10
 -16   9 -11   -1.30   34.03
 -16   9 -12   53.66   73.82
 -16   9 -13  -61.10   80.54
 -16   9 -14  -39.66   45.77
 -16   9 -15    2.76   37.82
 -16   9 -16  -47.62   41.26
 -16   9 -17  -94.07   80.03
 -16   9 -18   63.54   42.39
 -16   9 -19   18.79   47.32
  10 -16 -20  127.43  109.12
  10 -16 -19  -32.44   48.39
  10 -16 -18  142.51   98.63
  10 -16 -17  -19.48   31.94
  10 -16 -16   -2.75   50.35
  10 -16 -15  -30.72   37.48
  10 -16 -14   77.56   47.53
  10 -16 -13  -93.76   64.83
  10 -16 -12   26.51   46.56
  10 -16 -11  -15.80   24.24
  10 -16 -10  121.94   56.13
  10 -16  -9    9.72   34.91
 -16  10   9   93.20  133.67
  10 -16  -8  -12.64   23.65
 -16  10   8   35.01   56.26
  10 -16  -7   -1.70   33.33
 -16  10   7   -1.84   56.40
  10 -16  -6   84.28   65.01
 -16  10   6  115.80   80.83
  10 -16  -5  112.48   59.81
 -16  10   5   50.62   82.41
  10 -16  -4   -2.16   39.94
 -16  10   4  151.94  116.25
 -16  10   3  140.39  117.50
 -16  10   2   -6.44   38.65
 -16  10   1  -21.56   80.89
 -16  10   0   50.33   58.80
 -16  10  -1   53.85   71.45
 -16  10  -2   90.71   56.41
 -16  10  -3  117.07   98.52
 -16  10  -4  -43.32   79.32
 -16  10  -5   24.23   68.40
 -16  10  -6  117.38   98.60
 -16  10  -7   17.58   60.91
 -16 -10   8  125.43   70.97
 -16  10  -8    3.08   75.76
 -16 -10   9   36.19   47.34
 -16  10  -9  190.73  118.25
 -16  10 -10  -37.68   75.48
 -16  10 -11  116.74  109.20
 -16  10 -12  117.42   96.80
 -16  10 -13   91.26   93.43
 -16  10 -14 -130.83   86.92
 -16  10 -15   61.73   48.22
 -16  10 -16  -69.47   76.36
 -16  10 -17   60.74   69.26
  16 -10 -18   80.11   56.36
 -16  10 -18   48.26   57.53
  16 -10 -19   82.03   63.64
  11 -16 -19   87.73  103.37
  11 -16 -18   53.76   61.23
  11 -16 -17  -37.30   28.91
  11 -16 -16   60.15   53.77
  11 -16 -15  -60.98   40.20
  11 -16 -14  -12.19   33.85
  11 -16 -13  -36.36   45.90
  11 -16 -12  110.26   59.82
  11 -16 -11  -10.18   41.71
  11 -16 -10   14.22   46.74
  11 -16  -9    4.11   38.26
  11 -16  -8   19.48   57.92
  11 -16  -7    8.43   58.55
 -16  11   7  -37.32  102.85
  11 -16  -6    1.80   24.31
 -16  11   6 -135.11  107.73
 -16  11   5   36.38   85.79
 -16  11   4  -52.27   89.46
 -16  11   3   42.80   64.90
 -16  11   2   58.18   46.49
 -16  11   1   76.72   96.86
 -16  11   0  109.53  118.27
 -16  11  -1   62.86   96.14
 -16  11  -2   92.73   88.26
 -16  11  -3  -53.75   97.65
 -16  11  -4 -138.51   97.32
 -16  11  -5  143.12  118.19
 -16  11  -6   51.08   59.16
 -16  11  -7  122.69   83.37
 -16 -11   8   17.68   46.47
 -16  11  -8  156.78  113.24
 -16  11  -9  -75.77   85.46
 -16  11 -10  150.49   96.16
 -16  11 -11   80.44   67.89
 -16  11 -12  -68.70   82.31
 -16  11 -13  -38.28   63.43
 -16  11 -14   44.81   39.61
 -16  11 -15   79.71   95.34
  16 -11 -16  -11.33   41.06
 -16  11 -16   91.09   36.53
  16 -11 -17   72.81   70.23
 -16  11 -17  165.70  103.76
  16 -11 -18   59.60   26.61
  12 -16 -18   73.86   73.88
  12 -16 -17  -77.74   51.20
  12 -16 -16   81.99   73.53
  12 -16 -15   54.44   44.05
  12 -16 -14  -46.09   53.61
  12 -16 -13  -79.07   64.34
  12 -16 -12   -5.88   37.57
  12 -16 -11   79.39   74.67
  12 -16 -10   92.29   54.67
  12 -16  -9   66.14   50.53
  12 -16  -8   48.59   59.00
  12 -16  -7  -58.95   48.77
 -16  12   5  -46.42   84.75
 -16  12   4 -167.73  115.43
 -16  12   3   82.25   81.40
 -16  12   2    5.91   54.82
 -16  12   1 -166.25  113.37
 -16  12   0   -8.65   52.29
 -16  12  -1   53.79   73.66
 -16  12  -2    8.68   65.64
 -16  12  -3  -18.01   56.50
 -16  12  -4 -105.42   46.43
 -16  12  -5   83.62   67.82
 -16  12  -6  136.65  111.81
 -16  12  -7  -13.19   46.24
 -16  12  -8  169.66  115.37
 -16  12  -9   65.71   57.12
 -16  12 -10   34.41   53.29
 -16  12 -11   88.91   70.40
 -16  12 -12   71.30   76.18
  16 -12 -13  -52.05   39.41
 -16  12 -13  -11.44   64.38
  16 -12 -14  -22.67   37.91
 -16  12 -14   41.21   81.12
  16 -12 -15  -65.22   57.26
 -16  12 -15  -47.78   56.29
  16 -12 -16  -74.69   51.03
  16 -12 -17  -52.94   36.49
  13 -16 -17   23.75   47.91
  13 -16 -16   75.77   64.14
  13 -16 -15  -40.15   35.35
  13 -16 -14   10.00   33.59
  13 -16 -13   60.91   47.09
  13 -16 -12  137.93   68.82
  13 -16 -11   13.05   34.00
  13 -16 -10  126.31   77.07
  13 -16  -9  -43.84   57.28
  13 -16  -8   71.02   49.94
 -16  13   3   46.12   88.78
 -16  13   2   97.49   91.74
 -16  13   1   98.36  124.54
 -16  13   0    9.20   62.46
 -16  13  -1  164.02  121.43
 -16  13  -2  167.27  122.87
 -16  13  -3 -114.91  142.48
 -16  13  -4   -7.04   98.60
 -16  13  -5   62.81   74.68
 -16  13  -6   55.34  127.26
 -16  13  -7  185.12  113.27
 -16  13  -8   -3.93   41.43
 -16  13  -9   50.71   66.32
  16 -13 -10   -3.14   39.73
 -16  13 -10  102.80   76.60
  16 -13 -11   13.35   27.26
 -16  13 -11   38.72  100.20
  16 -13 -12    4.47   30.99
 -16  13 -12  -41.79   63.06
  16 -13 -13  -19.51   37.31
 -16  13 -13 -153.57   89.26
  16 -13 -14   60.30   59.98
 -16  13 -14  -25.69   60.94
  16 -13 -15  -61.26   50.92
  16 -13 -16   34.61   25.69
  14 -16 -16   34.17   43.80
  14 -16 -15  -59.91   59.96
  14 -16 -14  -27.28   37.89
  14 -16 -13   79.96   75.85
  14 -16 -12   51.21   48.45
  14 -16 -11  -20.47   49.96
 -14  16 -10  261.78  144.19
  14 -16 -10   14.74   39.75
 -14  16  -9  -32.22   58.67
  14 -16  -9   62.38   53.91
 -16  14   1   96.37  109.10
 -16  14   0   31.35   71.87
 -16  14  -1 -136.87  137.57
 -16  14  -2  113.22  118.37
 -16  14  -3   42.92   45.49
 -16  14  -4   98.68   96.61
 -16  14  -5  170.32  126.48
  16 -14  -6  128.04   66.58
 -16  14  -6  -27.10   60.17
  16 -14  -7   35.07   45.78
 -16  14  -7  -52.08   94.12
  16 -14  -8    1.54   21.72
 -16  14  -8  -16.63   91.67
  16 -14  -9   49.50   34.93
 -16  14  -9 -168.06   77.76
  16 -14 -10   28.90   34.16
 -16  14 -10  133.24  142.29
  16 -14 -11   -5.74   22.19
 -16  14 -11  101.90  104.85
  16 -14 -12   -4.51   37.15
 -16  14 -12   22.06   81.76
  16 -14 -13  -25.41   37.20
 -16  14 -13  -21.42   65.90
  16 -14 -14   18.53   49.78
  16 -14 -15   46.62   50.17
  15 -16 -15  -51.14   57.19
  15 -16 -14  -18.44   48.02
  15 -16 -13   67.06   56.11
  15 -16 -12  -20.24   65.15
  15 -16 -11   -6.19   42.55
 -15  16 -10   81.89  112.93
 -15  16  -9  118.51   46.73
 -15  16  -8   28.05   62.71
 -15  16  -7 -100.19  108.65
 -16  15  -2 -219.54  137.15
 -16  15  -3   33.95   45.17
 -16  15  -4   -9.97   64.61
 -16  15  -5  221.01  153.43
 -16  15  -6  134.76  127.79
 -16  15  -7  250.70  130.74
 -16  15  -8  -10.18   92.01
  16 -15  -9   80.94   52.80
 -16  15  -9 -140.20  137.23
  16 -15 -10  -10.53   31.05
 -16  15 -10  142.22  108.46
  16 -15 -11  -13.02   25.85
 -16  15 -11  -55.47   53.45
  16 -15 -12  -59.35   42.86
  16 -15 -13   13.37   61.15
  16 -15 -14   46.82   39.35
  16 -15 -15   63.60   30.06
 -16  16  -6  123.41   90.74
 -16  16  -7   42.95   54.75
 -16  16  -8  -48.30  114.90
 -16  16  -9 -117.83   79.70
 -16  16 -10   43.32   49.56
  16 -16 -13  -26.18   47.71
  16 -16 -14   65.57   44.73
 -17   0   0   77.88   70.46
 -17   0   1  -19.53   41.51
 -17   0  -1  -40.85   46.12
 -17   0   2    5.27   34.98
 -17   0  -2   20.30   37.00
 -17   0  -3   48.08   67.81
 -17   0   3   46.60   45.52
 -17   0   4    7.18   32.16
 -17   0  -4   -3.24   33.08
 -17   0  -5  -44.84   60.19
 -17   0   5  -35.47   73.88
 -17   0   6  -16.28   64.06
 -17   0   7   29.71   45.68
 -17   0   8   75.22   60.78
 -17   0   9  169.07   97.13
 -17   0  10  -48.49   55.52
 -17   0  11  144.97  107.53
 -17   0  12   47.75   78.70
 -17   0  13  148.05   59.58
 -17   0  14   96.92   89.84
 -17   0  15   94.02   91.95
 -17   0  16  -99.94   95.75
 -17   0  17  -84.30   69.01
 -17   0  18   50.12   60.03
 -17   1  17   45.10   82.39
 -17   1  16    8.93   49.79
 -17   1  15  -43.18   57.59
 -17   1  14  -13.33   55.77
 -17   1  13   -8.93   71.14
 -17   1  12   74.15  107.16
 -17   1  11   67.46   69.93
 -17   1  10   24.52   35.50
 -17   1   9   16.69   38.40
 -17   1   8   97.87   88.29
 -17   1   7   15.19   29.77
 -17   1   6   -7.92   37.67
 -17   1   5   96.26   49.29
 -17   1   4  123.27   83.36
 -17  -1  -3   65.28   74.17
 -17   1   3   39.52   54.93
 -17  -1  -2  -21.06   36.43
 -17   1   2  -10.23   63.23
 -17  -1  -1   62.02   67.96
 -17   1   1   68.43   43.71
 -17   1   0   88.50   74.97
 -17  -1   0  -58.95   44.10
 -17   1  -1  163.44   84.05
 -17  -1   1   71.81   48.49
 -17  -1   2  151.05   92.01
 -17   1  -2   65.98   71.23
 -17  -1   3  159.20  101.58
 -17   1  -3   17.11   56.11
 -17   1  -4  128.20   78.94
 -17  -1   4   99.17   82.72
 -17  -1   5   -5.52   34.19
 -17   1  -5   39.16   63.91
 -17   1  -6  -12.55   30.40
 -17  -1   6  -63.16   37.94
 -17   1  -7   59.88   66.22
 -17  -1   7   58.00   57.07
 -17   1  -8   26.02   65.68
 -17  -1   8  -79.84   75.44
 -17  -1   9    4.86   46.21
 -17  -1  10  137.12   85.96
 -17  -1  11  -15.70   59.93
 -17  -1  12   77.50   88.20
 -17  -1  13   52.74   84.23
 -17  -1  14   74.26   71.06
 -17  -1  15   92.38   79.62
 -17  -1  16  -15.66   46.36
 -17  -1  17  -37.42   59.09
 -17  -1  18 -126.96   79.43
 -17   2  17 -196.46  107.06
 -17   2  16 -159.60  110.43
 -17   2  15    4.83   57.06
 -17   2  14  -89.99   83.59
 -17   2  13  -35.24   51.36
 -17   2  12   17.97   58.60
 -17   2  11   28.57   77.72
 -17   2  10   85.82   91.71
 -17   2   9  -78.57   83.09
 -17   2   8  -64.57   84.80
 -17   2   7   71.11   81.14
 -17   2   6  -63.48   72.75
 -17   2   5  155.30   88.29
 -17   2   4   93.14   80.36
 -17   2   3  -50.60   76.22
 -17  -2  -2   89.50   79.86
 -17   2   2  -24.58   82.94
 -17   2   1  -27.03   48.52
 -17  -2  -1   48.96   63.55
 -17  -2   0   52.91   56.68
 -17   2   0  -61.95   35.63
 -17   2  -1   17.16   31.50
 -17  -2   1   -6.00   44.87
 -17   2  -2    6.64   46.86
 -17  -2   2   90.34   72.52
 -17  -2   3   39.89   38.30
 -17   2  -3   90.97   65.98
 -17  -2   4   18.96   44.40
 -17   2  -4   35.72   52.38
 -17  -2   5  119.51   74.48
 -17   2  -5  126.38   82.66
 -17   2  -6    5.02   32.26
 -17  -2   6   74.47   27.32
 -17   2  -7  104.56   91.26
 -17  -2   7    7.53   74.38
 -17   2  -8   -5.04   32.70
 -17  -2   8  -99.03   75.52
 -17   2  -9  111.31   83.18
 -17  -2   9   91.27   69.53
 -17   2 -10  -68.74   30.62
 -17  -2  10  -40.24   66.49
 -17   2 -11  103.12   88.31
 -17  -2  11   36.99   74.46
 -17  -2  12   98.77   91.58
 -17  -2  13  -66.39   79.21
 -17  -2  14   89.98   64.90
 -17  -2  15  -17.95   64.17
 -17  -2  16   95.37  102.19
 -17  -2  17   57.16   37.71
 -17  -2  18   46.26   67.33
 -17   3  16  -88.87  104.13
 -17   3  15  137.28  133.04
 -17   3  14   38.77   66.43
 -17   3  13  -54.32   70.91
 -17   3  12   84.68   58.24
 -17   3  11   17.64   74.23
 -17   3  10   92.44   58.92
 -17   3   9   16.43   42.94
 -17   3   8    3.60   40.96
 -17   3   7   28.34   45.00
 -17   3   6  -55.25   54.83
 -17   3   5   -0.93   31.19
 -17   3   4    3.93   47.59
 -17   3   3    5.79   32.23
 -17   3   2  -19.31   62.61
 -17   3   1  -35.83   49.30
 -17  -3   0  142.45   68.76
 -17   3   0  -25.57   47.27
 -17   3  -1   65.76   59.75
 -17  -3   1    1.64   52.19
 -17  -3   2   56.29   41.15
 -17   3  -2   95.57   83.40
 -17   3  -3   10.76   41.37
 -17  -3   3  157.52   93.67
 -17   3  -4  105.80   71.00
 -17  -3   4   21.43   59.98
 -17   3  -5  -26.15   28.06
 -17  -3   5   21.76   46.05
 -17  -3   6  -42.89   37.07
 -17   3  -6   -0.29   38.66
 -17   3  -7   37.05   57.76
 -17  -3   7   31.72   52.69
 -17  -3   8  -56.08   60.76
 -17   3  -8   78.81   55.64
 -17   3  -9   15.61   35.19
 -17  -3   9   17.05   66.88
 -17   3 -10  133.78   84.57
 -17  -3  10  -71.66   74.48
 -17   3 -11   74.39   75.97
 -17  -3  11   81.95   66.55
 -17   3 -12   21.52   43.26
 -17  -3  12    8.09   59.57
 -17   3 -13   64.42   38.44
 -17  -3  13   54.00   68.15
 -17   3 -14   59.57   65.02
 -17  -3  14   94.87   72.09
 -17  -3  15   88.71  101.47
 -17  -3  16  -45.92   64.92
 -17  -3  17   93.35   80.06
   4 -17 -21  120.33  100.65
   4 -17 -20  -53.58   68.40
   4 -17 -19   39.96   61.40
   4 -17 -18  316.89  140.92
   4 -17 -17   60.40   63.12
   4 -17 -16   59.09   81.13
 -17   4  16  -45.06  109.08
   4 -17 -15  109.78   81.46
 -17   4  15   65.98   83.92
   4 -17 -14  -48.71   59.19
 -17   4  14  133.87  115.93
   4 -17 -13  -29.42   59.54
 -17   4  13  -88.08   76.39
 -17   4  12   97.63   97.62
 -17   4  11  -68.56  107.14
 -17   4  10   44.19   60.63
 -17   4   9  230.41  135.15
 -17   4   8    4.95   66.46
 -17   4   7  112.48   88.00
 -17   4   6  127.85   70.28
 -17   4   5   30.74   65.73
 -17   4   4  116.55   72.09
 -17   4   3  -59.72   49.30
 -17   4   2   -0.34   45.17
 -17   4   1    1.11   36.85
 -17   4   0   14.64   31.09
 -17  -4   1   38.35   59.95
 -17   4  -1  -36.98   72.84
 -17   4  -2   -2.38   44.60
 -17  -4   2   99.81   82.13
 -17   4  -3   51.11   47.15
 -17  -4   3  131.11   80.04
 -17   4  -4   -6.61   42.73
 -17  -4   4   79.58   30.52
 -17   4  -5    6.47   33.80
 -17  -4   5   59.12   62.91
 -17  -4   6    8.25   28.39
 -17   4  -6  -44.30   55.88
 -17   4  -7  -31.97   36.87
 -17  -4   7  137.45   85.52
 -17   4  -8  -13.23   32.50
 -17  -4   8  -50.08   69.50
 -17  -4   9  -37.89   60.92
 -17   4  -9    3.53   42.82
 -17  -4  10    0.28   36.34
 -17   4 -10   -6.39   48.50
 -17   4 -11  172.31  112.97
 -17  -4  11   -1.75   42.52
 -17   4 -12  188.69  104.86
 -17  -4  12   80.01   91.16
 -17   4 -13  -55.31   55.09
 -17  -4  13   41.99   38.20
 -17   4 -14   69.32   53.43
 -17  -4  14    2.06   52.16
 -17   4 -15  -32.49   54.61
 -17  -4  15  157.90   86.12
 -17   4 -16  103.29   79.34
 -17  -4  16    1.38   62.20
 -17   4 -17   74.91   75.11
 -17   4 -18  183.02   96.09
 -17   4 -19   97.74   71.97
 -17   4 -20  -54.38   43.36
 -17   4 -21  105.85   83.33
 -17   4 -22   -1.63   43.56
 -17   4 -23  182.52  108.58
 -17   4 -24   91.48   97.96
   5 -17 -22  146.49  122.59
   5 -17 -21  -91.00   68.12
   5 -17 -20    0.57   39.88
   5 -17 -19   57.95   53.47
   5 -17 -18  -86.17   75.35
   5 -17 -17   53.75   60.02
   5 -17 -16   13.37   60.05
   5 -17 -15    6.03   70.66
 -17   5  15 -154.08  106.06
   5 -17 -14   71.52   65.80
 -17   5  14  -59.13   92.83
   5 -17 -13   15.89   40.01
 -17   5  13  179.50  138.82
   5 -17 -12   59.14   34.65
 -17   5  12  -12.49   86.72
   5 -17 -11   62.35   41.89
 -17   5  11  -32.66   81.20
   5 -17 -10   49.87   56.52
 -17   5  10   57.32   96.75
   5 -17  -9  142.45   77.46
 -17   5   9   68.51   67.04
   5 -17  -8  -21.81   39.08
 -17   5   8  -79.68   74.96
 -17   5   7 -148.72  120.66
 -17   5   6  111.59   67.28
 -17   5   5  -41.21   55.64
 -17   5   4   29.61   76.09
 -17   5   3   60.20   88.97
 -17   5   2   27.15   38.87
 -17   5   1   19.03   50.76
 -17   5   0   14.02   69.82
 -17   5  -1   24.18   32.06
 -17  -5   2   78.67   69.49
 -17   5  -2   10.19   34.00
 -17  -5   3   50.90   57.28
 -17   5  -3   13.65   38.95
 -17   5  -4   10.91   50.00
 -17  -5   4   27.62   52.13
 -17   5  -5   50.93   82.16
 -17  -5   5  -28.56   26.08
 -17   5  -6   28.76   51.55
 -17  -5   6  -40.80   46.78
 -17  -5   7   17.77   51.03
 -17   5  -7  -50.22   31.81
 -17   5  -8   21.84   32.81
 -17  -5   8  -68.20   56.22
 -17  -5   9  -71.37   32.25
 -17   5  -9   13.10   34.42
 -17  -5  10   70.72   46.75
 -17   5 -10   82.72   52.94
 -17   5 -11  -13.97   35.14
 -17  -5  11   31.93   45.83
 -17   5 -12    9.09   31.57
 -17  -5  12   30.66   32.99
 -17   5 -13   71.76   76.88
 -17  -5  13  107.68   89.41
 -17   5 -14   86.48   84.72
 -17  -5  14   44.02   48.69
 -17   5 -15   31.15   66.97
 -17   5 -16  -17.39   53.01
 -17   5 -17  -12.57   69.29
 -17   5 -18  109.64   95.60
 -17   5 -19  -23.14   35.31
 -17   5 -20  148.73   80.06
 -17   5 -21  207.46  115.08
 -17   5 -22  169.54  122.01
 -17   5 -23   -4.27   77.47
   6 -17 -21   17.69   84.19
   6 -17 -20  156.39   91.28
   6 -17 -19    1.66   32.57
   6 -17 -18   18.89   33.79
   6 -17 -17  -41.26   46.62
   6 -17 -16  -54.33   57.76
   6 -17 -15   -2.24   31.42
   6 -17 -14    4.71   64.27
 -17   6  14  -43.94   91.40
   6 -17 -13   37.53   69.44
 -17   6  13   35.31   48.54
   6 -17 -12  110.99   54.69
 -17   6  12  -75.84   73.82
   6 -17 -11  166.97   86.50
 -17   6  11   73.33   80.62
   6 -17 -10  -53.26   37.86
 -17   6  10  111.66  106.10
   6 -17  -9   18.04   44.36
 -17   6   9 -113.98  105.51
   6 -17  -8   60.26   41.05
 -17   6   8   30.35   57.46
   6 -17  -7  -16.48   26.07
 -17   6   7  126.70  110.78
   6 -17  -6  167.92   72.27
 -17   6   6  -19.25   61.47
   6 -17  -5  -25.84   43.58
 -17   6   5   12.93   47.89
 -17   6   4  -54.95   58.22
 -17   6   3  155.87  105.96
 -17   6   2  247.77  124.73
 -17   6   1  144.71   93.37
 -17   6   0  120.37   92.41
 -17   6  -1   77.87   69.16
 -17   6  -2  -67.50   75.57
 -17   6  -3    5.62   64.74
 -17  -6   4  -47.05   46.85
 -17   6  -4  -46.43   56.80
 -17   6  -5  -17.10   31.75
 -17  -6   5   63.11   45.21
 -17   6  -6   26.28   48.41
 -17  -6   6   75.87   57.84
 -17   6  -7  -63.87   81.39
 -17  -6   7    6.26   43.29
 -17   6  -8   41.66   48.73
 -17  -6   8   24.12   35.85
 -17  -6   9  -21.11   53.83
 -17   6  -9   52.78   43.08
 -17  -6  10   94.98   48.26
 -17   6 -10  -18.15   42.76
 -17   6 -11   42.83   63.10
 -17  -6  11  -35.38   54.91
 -17   6 -12   20.22   39.07
 -17  -6  12  -20.02   45.59
 -17   6 -13  -67.55   61.21
 -17  -6  13  116.14   96.65
 -17   6 -14   -9.01   40.38
 -17   6 -15  158.12   92.58
 -17   6 -16   -2.89   43.62
 -17   6 -17    1.18   53.90
 -17   6 -18   34.63   55.73
 -17   6 -19  217.04  116.98
 -17   6 -20   56.39   59.18
 -17   6 -21   64.58   71.05
 -17   6 -22   39.97   86.20
   7 -17 -21  149.07  109.60
   7 -17 -20 -112.57   92.92
   7 -17 -19  137.95   84.59
   7 -17 -18    1.08   39.33
   7 -17 -17    5.63   51.48
   7 -17 -16    8.70   51.77
   7 -17 -15   26.85   35.86
   7 -17 -14  -24.77   49.85
   7 -17 -13   52.91   45.22
 -17   7  13  -55.58   82.76
   7 -17 -12   70.74   58.31
 -17   7  12 -106.99  104.67
   7 -17 -11  -58.00   55.67
 -17   7  11   92.06  124.12
   7 -17 -10   51.28   30.94
 -17   7  10 -110.03   51.37
   7 -17  -9  -73.19   60.55
 -17   7   9   86.69   39.93
   7 -17  -8   10.23   57.01
 -17   7   8   28.94   92.00
   7 -17  -7  -91.95   66.50
 -17   7   7   59.52   67.51
   7 -17  -6  141.52   63.12
 -17   7   6  165.66  122.95
   7 -17  -5   22.31   23.32
 -17   7   5  175.05  111.13
   7 -17  -4   -4.48   26.47
 -17   7   4   -5.41   40.17
 -17   7   3    2.71   67.71
 -17   7   2   54.31   98.36
 -17   7   1   95.72   75.14
 -17   7   0   33.60   92.11
 -17   7  -1   11.96   79.05
 -17   7  -2   20.67   42.09
 -17   7  -3  181.43   99.08
 -17   7  -4   50.84   70.15
 -17  -7   5   65.77   67.68
 -17   7  -5  140.32  102.99
 -17  -7   6   79.84   64.41
 -17   7  -6  -50.61   48.65
 -17   7  -7   92.93   40.35
 -17  -7   7   24.92   58.80
 -17   7  -8   32.85   48.42
 -17  -7   8   26.79   44.60
 -17  -7   9  -41.23   29.39
 -17   7  -9  -12.17   43.93
 -17   7 -10  -14.44   51.51
 -17  -7  10   10.01   29.31
 -17   7 -11  100.07   53.82
 -17  -7  11  -72.61   40.35
 -17  -7  12    9.65   43.37
 -17   7 -12    4.59   50.78
 -17   7 -13   19.95   39.19
 -17   7 -14  -61.07   70.00
 -17   7 -15   83.46   85.34
 -17   7 -16   36.97   54.67
 -17   7 -17  -51.82   53.20
 -17   7 -18    1.60   46.69
 -17   7 -19  -32.36   86.06
 -17   7 -20  121.49   60.46
 -17   7 -21   51.32   59.37
   8 -17 -20   76.44   81.33
   8 -17 -19   57.84   83.06
   8 -17 -18   68.66   76.16
   8 -17 -17 -128.65  100.58
   8 -17 -16   47.85   45.03
   8 -17 -15  -33.62   64.19
   8 -17 -14   -0.39   39.13
   8 -17 -13  -31.96   28.25
   8 -17 -12    8.81   40.52
 -17   8  12  100.72   90.12
   8 -17 -11 -112.85   82.69
 -17   8  11   29.39   58.29
   8 -17 -10  -24.48   36.12
 -17   8  10  140.35  129.01
   8 -17  -9   87.73   69.08
 -17   8   9   -7.21   62.59
   8 -17  -8  -37.65   33.00
 -17   8   8   52.47   71.73
   8 -17  -7   -3.48   26.46
 -17   8   7   47.53   63.56
   8 -17  -6    0.87   39.00
 -17   8   6  -48.77   50.24
   8 -17  -5   13.84   26.20
 -17   8   5   35.85   73.80
 -17   8   4   -0.73   46.66
 -17   8   3   82.06   80.45
 -17   8   2   74.85   96.13
 -17   8   1   47.69   80.15
 -17   8   0  101.95  107.29
 -17   8  -1   60.73   70.54
 -17   8  -2  168.03  115.71
 -17   8  -3   83.11   55.68
 -17   8  -4    9.40   46.17
 -17  -8   5  101.28   67.81
 -17   8  -5  -13.28   64.10
 -17  -8   6   24.96   51.16
 -17   8  -6   45.76   62.52
 -17  -8   7   70.10   78.83
 -17   8  -7  -40.46   68.67
 -17  -8   8   36.19   72.66
 -17   8  -8  -47.88   82.12
 -17  -8   9   38.95   55.41
 -17   8  -9    4.36   62.49
 -17  -8  10   32.23   59.27
 -17   8 -10    5.30   67.80
 -17  -8  11   -7.80   58.56
 -17   8 -11 -104.31   91.13
 -17   8 -12  -38.49   34.74
 -17   8 -13   52.10   49.22
 -17   8 -14   69.53   74.92
 -17   8 -15   56.39   73.92
 -17   8 -16   35.74   66.14
 -17   8 -17   -8.52   38.95
 -17   8 -18    8.65   55.29
 -17   8 -19  122.11  107.51
 -17   8 -20   50.69   43.30
   9 -17 -20 -116.87  104.92
   9 -17 -19    0.79   52.24
   9 -17 -18  102.83   96.58
   9 -17 -17   85.52   83.14
   9 -17 -16   33.09   39.22
   9 -17 -15   -1.58   44.21
   9 -17 -14  -31.73   37.87
   9 -17 -13   39.33   60.99
   9 -17 -12  -10.47   54.90
   9 -17 -11   49.61   50.07
 -17   9  11  182.29  121.94
   9 -17 -10  -26.72   31.09
 -17   9  10  -18.18   71.64
   9 -17  -9  114.93   67.84
 -17   9   9   26.28  103.08
   9 -17  -8  112.39   59.70
 -17   9   8  165.39  117.25
   9 -17  -7   59.22   49.17
 -17   9   7   -8.26   63.61
   9 -17  -6  -41.87   39.52
 -17   9   6  -12.89   76.27
 -17   9   5  120.27  105.42
 -17   9   4  -83.47  119.34
 -17   9   3  211.22  109.60
 -17   9   2  -42.78   84.97
 -17   9   1   -6.13   55.71
 -17   9   0  -10.31   47.73
 -17   9  -1  -22.01   36.29
 -17   9  -2  -37.27   73.33
 -17   9  -3   57.46   50.25
 -17   9  -4  -20.87   65.84
 -17   9  -5  111.30  113.19
 -17  -9   6   15.80   37.98
 -17   9  -6  -24.45   43.10
 -17  -9   7   62.85   50.91
 -17   9  -7    7.72   60.95
 -17  -9   8  -93.95   55.45
 -17   9  -8   73.71   84.76
 -17  -9   9   65.14   67.87
 -17   9  -9   17.86   44.73
 -17  -9  10   -5.83   45.98
 -17   9 -10  162.03  108.36
 -17   9 -11  -35.95   39.72
 -17   9 -12  -76.60  103.98
 -17   9 -13  -33.60   86.28
 -17   9 -14  -68.54   78.64
 -17   9 -15 -120.34   80.99
 -17   9 -16  -90.53   83.26
 -17   9 -17   21.44   57.13
 -17   9 -18   74.97   95.00
 -17   9 -19  -98.96   85.31
  10 -17 -19   17.31   56.77
  10 -17 -18   12.16   60.41
  10 -17 -17   18.91   49.87
  10 -17 -16   -4.14   33.18
  10 -17 -15  -62.23   56.33
  10 -17 -14   71.86   64.28
  10 -17 -13  -10.75   38.49
  10 -17 -12  -16.94   44.51
  10 -17 -11   34.53   42.42
  10 -17 -10  -91.53   60.97
  10 -17  -9   -2.04   46.19
 -17  10   9 -167.17  121.08
  10 -17  -8   88.33   65.77
 -17  10   8  -27.41  104.64
  10 -17  -7    9.39   28.31
 -17  10   7   31.26   79.08
 -17  10   6  -61.79  126.19
 -17  10   5  272.91  152.02
 -17  10   4  -68.72  113.43
 -17  10   3 -102.10  129.77
 -17  10   2   27.94   73.64
 -17  10   1  188.20  141.21
 -17  10   0   -6.84   64.81
 -17  10  -1   51.74   86.01
 -17  10  -2    7.03   41.30
 -17  10  -3   50.50   82.87
 -17  10  -4   62.82   89.35
 -17  10  -5  -75.36  106.36
 -17  10  -6    8.66   63.70
 -17 -10   7  102.16   76.31
 -17  10  -7  278.33  163.15
 -17 -10   8   21.75   62.11
 -17  10  -8   -9.51   59.32
 -17  10  -9   78.26   89.42
 -17  10 -10  -28.88   47.85
 -17  10 -11  -61.17   97.32
 -17  10 -12 -101.89  109.54
 -17  10 -13   -1.51   50.47
 -17  10 -14   30.36   88.88
 -17  10 -15   25.79   75.09
 -17  10 -16  118.75   81.24
 -17  10 -17   56.71   52.31
 -17  10 -18  -38.47   57.88
  11 -17 -18  -31.40   48.69
  11 -17 -17  167.60   83.01
  11 -17 -16  102.87   73.48
  11 -17 -15   77.60   61.84
  11 -17 -14  -29.41   46.42
  11 -17 -13  -17.71   32.50
  11 -17 -12   28.58   36.69
  11 -17 -11   18.98   42.15
  11 -17 -10   95.99   58.20
  11 -17  -9  138.21   79.64
  11 -17  -8  -22.31   41.14
 -17  11   8  -73.72   58.85
 -17  11   7  -67.46   96.49
 -17  11   6 -125.32  100.29
 -17  11   5  243.00  160.26
 -17  11   4   -2.12   56.02
 -17  11   3  190.26  144.77
 -17  11   2   94.88   77.82
 -17  11   1 -133.79  102.03
 -17  11   0   40.22   77.08
 -17  11  -1   46.08   77.65
 -17  11  -2 -107.75  128.76
 -17  11  -3   22.68   80.93
 -17  11  -4  -32.38   47.10
 -17  11  -5  -24.14   77.27
 -17  11  -6   -0.89   93.62
 -17 -11   7  177.65   88.19
 -17  11  -7   52.24   68.52
 -17  11  -8   57.82   63.10
 -17  11  -9  -89.46  118.16
 -17  11 -10  -79.31   67.71
 -17  11 -11  -33.49   38.74
 -17  11 -12  222.23  119.37
 -17  11 -13   97.46  111.36
 -17  11 -14   42.68   78.03
 -17  11 -15  -53.84   44.72
 -17  11 -16  -16.86   74.55
 -17  11 -17   93.66   45.63
  12 -17 -17   21.83   37.77
  12 -17 -16  100.89   63.12
  12 -17 -15  -77.87   62.24
  12 -17 -14   59.01   52.21
  12 -17 -13   57.78   58.46
  12 -17 -12    6.94   43.71
  12 -17 -11   -3.86   38.31
  12 -17 -10   -5.20   31.68
 -17  12   6  -80.42   98.46
 -17  12   5  -40.62   83.52
 -17  12   4   73.42   98.11
 -17  12   3   67.60   53.05
 -17  12   2   29.43   87.68
 -17  12   1  -39.86   68.72
 -17  12   0  -29.35   77.88
 -17  12  -1    9.57   49.56
 -17  12  -2   51.58   83.89
 -17  12  -3  225.30  129.39
 -17  12  -4 -133.51  104.72
 -17  12  -5   -5.14   63.76
 -17  12  -6   75.77   75.07
 -17  12  -7  125.35   81.52
 -17  12  -8   71.66   73.15
 -17  12  -9 -152.79  108.72
 -17  12 -10    0.62   61.50
 -17  12 -11  102.40  103.13
 -17  12 -12   13.39   54.95
 -17  12 -13  -56.82   74.50
  17 -12 -14    8.06   37.09
 -17  12 -14  -92.88  102.88
  17 -12 -15   49.44   46.50
 -17  12 -15  105.84   63.74
  17 -12 -16  -48.42   58.77
  13 -17 -16  -29.31   52.69
  13 -17 -15   35.47   76.20
  13 -17 -14   82.72   59.93
  13 -17 -13   52.10   60.62
  13 -17 -12  102.09   64.95
  13 -17 -11   47.08   68.90
 -17  13   4  108.58  109.26
 -17  13   3   84.30   88.30
 -17  13   2  -63.00   78.60
 -17  13   1  176.76  143.05
 -17  13   0  151.78   90.75
 -17  13  -1   44.59   51.23
 -17  13  -2  123.05  128.50
 -17  13  -3    1.77   87.15
 -17  13  -4  100.12  128.08
 -17  13  -5    8.09   68.68
 -17  13  -6   29.59   50.68
 -17  13  -7   85.29  118.43
 -17  13  -8   69.56   80.05
 -17  13  -9  -88.19   86.60
 -17  13 -10  175.39  118.32
  17 -13 -11    7.64   33.37
 -17  13 -11  227.16  124.88
  17 -13 -12  -27.27   33.87
 -17  13 -12  109.34   99.23
  17 -13 -13  -33.11   43.90
 -17  13 -13    6.23   51.50
  17 -13 -14  -16.41   48.12
 -17  13 -14   95.74   62.83
  17 -13 -15  -47.20   37.92
  14 -17 -15  156.27   99.06
  14 -17 -14  -27.71   38.09
  14 -17 -13   46.03   39.03
 -17  14   2  171.42  179.62
 -17  14   1 -114.84   89.98
 -17  14   0 -100.03  118.87
 -17  14  -1   50.55  134.95
 -17  14  -2  -62.76   74.73
 -17  14  -3  140.49  128.37
 -17  14  -4   25.02   86.62
 -17  14  -5  -55.33   94.33
 -17  14  -6   21.41   91.66
 -17  14  -7  -46.54   83.95
  17 -14  -8   -7.17   22.98
 -17  14  -8 -170.02   88.14
  17 -14  -9   -7.07   22.04
 -17  14  -9   11.00   56.59
  17 -14 -10   -7.05   42.02
 -17  14 -10 -126.20   89.45
  17 -14 -11   -7.36   48.32
 -17  14 -11  -45.23   80.82
  17 -14 -12  -33.86   66.23
 -17  14 -12    5.42   87.29
  17 -14 -13   41.31   46.93
 -17  14 -13   20.31   57.37
  17 -14 -14   -3.95   44.90
 -17  15  -1   43.50   83.46
 -17  15  -2  151.28  114.34
 -17  15  -3   25.85   67.52
 -17  15  -4  -74.86   85.69
 -17  15  -5 -138.75   66.60
 -17  15  -6   79.33   93.06
 -17  15  -7   93.45  115.57
 -17  15  -8   34.60   70.36
 -17  15  -9 -144.62  118.52
 -17  15 -10  128.57  139.24
  17 -15 -11  -38.69   60.54
 -17  15 -11   75.43  117.76
  17 -15 -12   86.86   65.27
  17 -15 -13   -7.37   28.17
 -17  16  -5  -50.25   97.69
 -17  16  -6 -118.64  130.19
 -17  16  -7  -47.54   86.25
 -17  16  -8  216.33  152.02
 -17  16  -9   92.17   72.46
 -17  16 -10  106.46  100.22
 -18   0   0  -34.06   63.06
 -18   0   1 -110.23   44.71
 -18   0  -1   65.48   76.05
 -18   0   2  153.20   96.81
 -18   0  -2   31.28   60.26
 -18   0  -3  -50.61   52.60
 -18   0   3   62.43   41.58
 -18   0   4  -18.84   39.84
 -18   0  -4   33.29   54.78
 -18   0   5   -5.59   51.44
 -18   0  -5   27.11   37.81
 -18   0  -6  -10.27   33.54
 -18   0   6   27.88   38.27
 -18   0  -7   89.12   55.31
 -18   0   7  -66.58   96.10
 -18   0   8   54.61   64.71
 -18   0   9  -45.45   34.82
 -18   0  10   74.06   80.47
 -18   0  11  135.19   97.73
 -18   0  12  -34.63   67.28
 -18   0  13   -6.05   46.46
 -18   0  14  105.75   91.95
 -18   0  15  -53.35   81.37
 -18   0  16  149.84  100.55
 -18   0  17  -96.55  105.18
 -18   0  18  121.54   57.14
 -18   1  18   27.45   95.09
 -18   1  17 -159.88  127.74
 -18   1  16   20.40   81.13
 -18   1  15  -35.16   48.39
 -18   1  14  -61.14   57.24
 -18   1  13   15.54   81.56
 -18   1  12   26.94   97.43
 -18   1  11  -37.73   67.87
 -18   1  10  -50.42   64.29
 -18   1   9   32.45   90.03
 -18   1   8  -76.79   71.34
 -18   1   7   56.96   96.42
 -18   1   6   19.35   59.50
 -18  -1  -5  152.72   84.92
 -18   1   5  -16.73   69.57
 -18  -1  -4   -0.87   25.62
 -18   1   4    7.20   52.82
 -18  -1  -3   76.48   76.35
 -18   1   3   50.91   44.81
 -18   1   2  -38.39   51.10
 -18  -1  -2  159.18   90.70
 -18  -1  -1   55.51   43.71
 -18   1   1  104.24   80.42
 -18   1   0   42.32   30.47
 -18  -1   0   61.75   57.33
 -18  -1   1  -72.77   67.63
 -18   1  -1  -17.93   74.63
 -18   1  -2 -102.57   55.56
 -18  -1   2   78.96   68.94
 -18  -1   3   39.37   32.26
 -18   1  -3   50.98   46.75
 -18   1  -4   -7.73   46.83
 -18  -1   4  -80.15   71.75
 -18  -1   5   48.27   29.42
 -18   1  -5  -38.08   42.99
 -18  -1   6  -15.34   63.14
 -18   1  -6   93.84   75.88
 -18   1  -7  -31.24   47.46
 -18  -1   7  132.03  105.16
 -18   1  -8   66.23   58.65
 -18  -1   8   39.57   65.30
 -18   1  -9  118.49   82.06
 -18  -1   9  -25.23   55.40
 -18  -1  10 -157.17  107.51
 -18  -1  11   15.46   91.43
 -18  -1  12   55.11   78.95
 -18  -1  13   29.37   72.73
 -18  -1  14   26.06   39.67
 -18  -1  15   40.46   55.11
 -18  -1  16 -137.00   85.59
 -18  -1  17 -125.73   83.32
 -18  -1  18   37.43  104.72
 -18   2  17   93.11   88.73
 -18   2  16  -80.60  112.52
 -18   2  15  171.09  112.30
 -18   2  14 -105.71  109.45
 -18   2  13  -93.28   69.26
 -18   2  12   31.50   47.17
 -18   2  11   -7.83   56.85
 -18   2  10  -21.59   75.94
 -18   2   9   44.48   63.13
 -18   2   8  468.37  162.76
 -18   2   7  111.97   93.29
 -18   2   6  -64.95   77.63
 -18   2   5  -76.54   63.12
 -18   2   4   96.78   81.98
 -18  -2  -3  170.35  103.68
 -18   2   3  190.63  103.88
 -18  -2  -2    3.42   26.20
 -18   2   2   15.09   46.77
 -18   2   1    7.78   39.01
 -18  -2  -1    5.90   45.18
 -18  -2   0   50.46   45.14
 -18   2   0  113.57   95.68
 -18   2  -1   24.29   29.93
 -18  -2   1  -17.60   55.11
 -18   2  -2  -24.49   36.42
 -18  -2   2  -37.71   47.92
 -18  -2   3   88.27   66.95
 -18   2  -3  -29.25   45.40
 -18   2  -4   21.52   36.80
 -18  -2   4   67.78   95.77
 -18  -2   5  -33.08   37.03
 -18   2  -5  -37.15   41.87
 -18  -2   6   28.53   64.66
 -18   2  -6   25.82   29.96
 -18   2  -7  -31.68   47.68
 -18  -2   7  -28.85   56.71
 -18  -2   8   -0.75   34.51
 -18   2  -8    5.18   64.89
 -18   2  -9  -30.66   50.50
 -18  -2   9  151.07   76.52
 -18   2 -10  138.70   90.38
 -18  -2  10  -12.02   37.59
 -18   2 -11  105.24   77.80
 -18  -2  11   14.11   56.10
 -18   2 -12   -6.04   48.74
 -18  -2  12   98.87   80.50
 -18   2 -13   97.89   80.46
 -18  -2  13  127.09   99.12
 -18  -2  14   10.88   60.49
 -18  -2  15   16.34   69.34
 -18  -2  16  -53.05   74.73
 -18  -2  17 -102.29   96.89
 -18   3  16  187.38  116.21
 -18   3  15   94.05   62.83
 -18   3  14  -82.90   89.12
 -18   3  13   -6.89   87.05
 -18   3  12   63.85   47.09
 -18   3  11   57.34   80.68
 -18   3  10   36.30   52.46
 -18   3   9  -40.18   89.04
 -18   3   8   61.88   99.28
 -18   3   7  -49.30   34.78
 -18   3   6   42.43   70.32
 -18   3   5  -50.11   84.50
 -18   3   4  -48.47   82.34
 -18   3   3   55.05   75.21
 -18   3   2   16.47   52.90
 -18  -3  -1   29.48   61.19
 -18   3   1   67.82   59.06
 -18  -3   0   57.74   62.08
 -18   3   0 -129.60   81.66
 -18   3  -1   11.93   59.39
 -18  -3   1  110.15   75.46
 -18  -3   2  -99.91   64.46
 -18   3  -2  -13.16   31.15
 -18   3  -3  -73.69   37.03
 -18  -3   3   10.82   33.25
 -18  -3   4  113.91   63.22
 -18   3  -4  -35.22   42.10
 -18   3  -5   -0.43   52.81
 -18  -3   5  -63.69   61.44
 -18   3  -6   18.82   56.43
 -18  -3   6   10.51   41.09
 -18  -3   7    0.91   45.77
 -18   3  -7   56.90   61.84
 -18  -3   8   58.00   60.92
 -18   3  -8   51.55   51.74
 -18   3  -9  -38.74   58.87
 -18  -3   9  -45.02   61.33
 -18   3 -10    6.02   74.63
 -18  -3  10 -127.22  111.32
 -18   3 -11   34.84   80.29
 -18  -3  11   35.25   39.56
 -18   3 -12   81.17   62.91
 -18  -3  12   97.44   69.70
 -18   3 -13  144.07   99.69
 -18  -3  13   73.63   65.32
 -18   3 -14   62.14   77.17
 -18  -3  14  -38.95   76.29
 -18   3 -15   17.23   52.11
 -18  -3  15  -18.84   74.44
 -18   3 -16   91.28   92.42
 -18  -3  16  -75.26   79.53
 -18   3 -17   -0.12   59.66
 -18   3 -18    7.45   52.10
 -18   4  16    7.11   59.76
 -18   4  15  -16.52   86.15
 -18   4  14 -132.70  101.22
 -18   4  13  172.72  133.20
 -18   4  12  140.87  122.73
 -18   4  11  111.21   52.51
 -18   4  10   89.57   67.85
 -18   4   9   34.11   63.90
 -18   4   8  138.77  120.00
 -18   4   7  -42.31   80.34
 -18   4   6   14.33   62.62
 -18   4   5  -27.09   43.60
 -18   4   4  105.82   76.97
 -18   4   3   33.45   86.85
 -18   4   2  121.15   80.17
 -18   4   1   19.70   52.13
 -18  -4   0  145.10   82.89
 -18   4   0   71.25   68.41
 -18   4  -1  -67.10   72.99
 -18  -4   1   94.54   76.82
 -18  -4   2    8.03   48.30
 -18   4  -2  -18.12   46.54
 -18   4  -3   11.03   36.51
 -18  -4   3  -42.97   31.44
 -18  -4   4    3.60   43.04
 -18   4  -4  105.25   74.09
 -18  -4   5   93.99   86.94
 -18   4  -5    1.97   70.18
 -18  -4   6   34.79   59.75
 -18   4  -6   47.64   68.69
 -18   4  -7   28.03   35.71
 -18  -4   7   17.61   74.17
 -18   4  -8  -53.75   46.72
 -18  -4   8   44.35   64.84
 -18   4  -9   20.14   41.95
 -18  -4   9   21.31   56.33
 -18  -4  10  122.97   78.91
 -18   4 -10   89.74   89.85
 -18   4 -11   31.05   59.52
 -18  -4  11  -25.31   49.81
 -18   4 -12   43.78   37.82
 -18  -4  12   -7.19   56.39
 -18   4 -13  -37.49   44.44
 -18  -4  13   53.66   75.07
 -18   4 -14  224.90  129.89
 -18  -4  14  123.34   79.81
 -18   4 -15  -38.24   39.65
 -18  -4  15  -37.54   33.13
 -18   4 -16  179.77   91.24
 -18   4 -17   74.11   77.64
 -18   4 -18   50.41   78.44
 -18   4 -19   52.38   77.28
 -18   4 -20    3.99   54.41
 -18   4 -21   34.90   92.38
 -18   4 -22  111.74   97.63
   5 -18 -20  -49.45   62.62
   5 -18 -19  -88.61   86.62
   5 -18 -18   86.04   69.18
   5 -18 -17   71.33   84.45
   5 -18 -16  -31.51   50.31
   5 -18 -15   23.92   66.80
 -18   5  15   37.88   88.69
   5 -18 -14   88.14   84.36
 -18   5  14  -12.71   74.85
   5 -18 -13 -108.30   78.93
 -18   5  13 -182.56  123.32
 -18   5  12  -12.71   44.95
 -18   5  11  -25.15   59.65
 -18   5  10 -109.06  114.60
 -18   5   9 -226.45  135.42
 -18   5   8  -15.73   50.70
 -18   5   7  -15.98   47.76
 -18   5   6    2.95   88.43
 -18   5   5   89.84   77.15
 -18   5   4  -50.26   55.07
 -18   5   3  137.17   92.77
 -18   5   2   86.17   79.06
 -18   5   1   -8.96   61.35
 -18   5   0  -28.16   68.02
 -18  -5   1  135.62   91.12
 -18   5  -1   34.40   58.57
 -18   5  -2  197.30  111.39
 -18  -5   2   -0.09   51.32
 -18   5  -3  -15.68   33.51
 -18  -5   3    5.65   60.09
 -18  -5   4   36.23   59.91
 -18   5  -4  -34.61   30.49
 -18   5  -5   78.33   79.24
 -18  -5   5   -9.57   28.56
 -18   5  -6   65.94   73.39
 -18  -5   6   26.10   49.35
 -18  -5   7 -115.85   72.10
 -18   5  -7   51.06   48.06
 -18   5  -8  117.56   84.65
 -18  -5   8   42.24   42.36
 -18  -5   9  -68.67   61.07
 -18   5  -9   23.07   76.16
 -18   5 -10   55.36   82.40
 -18  -5  10    5.10   44.27
 -18   5 -11  -39.74   58.53
 -18  -5  11   -1.13   59.51
 -18   5 -12   71.80   84.17
 -18  -5  12   75.53   60.19
 -18   5 -13  -83.58   74.50
 -18  -5  13  100.11   87.52
 -18   5 -14   65.24   77.13
 -18  -5  14   91.63   51.90
 -18   5 -15   55.20   66.68
 -18   5 -16   96.63   56.06
 -18   5 -17   60.54   49.67
 -18   5 -18    6.04   80.29
 -18   5 -19  -64.16   73.10
 -18   5 -20   67.07   49.29
 -18   5 -21  -38.01   76.95
 -18   5 -22  124.52  101.67
   6 -18 -20   -2.41   68.24
   6 -18 -19   14.49   32.28
   6 -18 -18  105.56   62.74
   6 -18 -17   -8.80   65.04
   6 -18 -16  132.32   83.32
   6 -18 -15   46.67   58.92
   6 -18 -14  226.90  106.60
 -18   6  14   30.53   93.96
   6 -18 -13   14.67   55.40
 -18   6  13  -10.41  109.39
   6 -18 -12  182.15   94.81
 -18   6  12  -38.82   89.18
   6 -18 -11   80.26   69.52
 -18   6  11   31.99   56.55
   6 -18 -10   11.86   53.47
 -18   6  10  120.08   93.80
   6 -18  -9  -53.10   34.63
 -18   6   9   28.40   87.83
   6 -18  -8  -62.62   39.80
 -18   6   8   76.46   71.05
 -18   6   7   -7.59   61.16
 -18   6   6  -34.74   52.87
 -18   6   5   90.32   62.76
 -18   6   4  228.59  119.68
 -18   6   3   93.93   45.12
 -18   6   2  -32.47   46.16
 -18   6   1   79.82   95.33
 -18   6   0  409.80  158.16
 -18   6  -1   56.42   90.15
 -18   6  -2   52.83   73.15
 -18  -6   3   62.28   48.82
 -18   6  -3   26.95   56.38
 -18  -6   4    7.71   28.93
 -18   6  -4  -40.29   37.10
 -18   6  -5    7.24   44.18
 -18  -6   5   37.57   38.43
 -18  -6   6   31.10   57.13
 -18   6  -6   28.53   59.51
 -18  -6   7  -23.40   47.84
 -18   6  -7   21.05   33.25
 -18   6  -8   -7.79   42.66
 -18  -6   8  -49.50   40.43
 -18  -6   9   18.49   37.24
 -18   6  -9    5.66   42.43
 -18  -6  10   -0.87   49.55
 -18   6 -10   51.22   75.46
 -18  -6  11   10.26   41.82
 -18   6 -11   15.27   61.44
 -18   6 -12   99.34   61.36
 -18  -6  12   75.41   80.85
 -18   6 -13  136.42   77.19
 -18  -6  13  -41.95   52.37
 -18   6 -14  103.55   84.23
 -18   6 -15   -0.87   54.87
 -18   6 -16   21.79   45.52
 -18   6 -17  -33.35   61.93
 -18   6 -18  -95.10   80.70
 -18   6 -19  227.82  136.94
 -18   6 -20  -76.75   75.90
 -18   6 -21  -13.55   69.42
 -18   6 -22  -59.16   94.84
   7 -18 -20 -107.32   51.82
   7 -18 -19  153.24  108.25
   7 -18 -18  -43.15   74.66
   7 -18 -17   73.01   68.86
   7 -18 -16    1.71   32.23
   7 -18 -15   10.36   55.92
   7 -18 -14   38.50   59.07
   7 -18 -13   23.01   61.96
 -18   7  13  246.85  145.81
   7 -18 -12  -25.51   53.26
 -18   7  12  -79.33   92.66
   7 -18 -11   -7.41   35.31
 -18   7  11   28.64  113.46
   7 -18 -10   44.38   66.74
 -18   7  10  104.43  111.15
   7 -18  -9   29.63   53.17
 -18   7   9    0.34   47.57
   7 -18  -8  -16.80   41.83
 -18   7   8  -19.02   61.41
   7 -18  -7  106.39   85.50
 -18   7   7  305.34  138.89
 -18   7   6    0.94   61.50
 -18   7   5  100.30  110.18
 -18   7   4   74.49   76.62
 -18   7   3   -9.72   84.07
 -18   7   2  103.53  114.53
 -18   7   1   86.22  104.83
 -18   7   0   85.62   74.71
 -18   7  -1  161.94  122.74
 -18   7  -2  145.47  123.61
 -18   7  -3    3.54   44.68
 -18  -7   4  138.28   87.29
 -18   7  -4   18.46   57.72
 -18  -7   5  112.36   70.12
 -18   7  -5  113.53   77.15
 -18   7  -6 -150.30  119.48
 -18  -7   6  -24.62   35.92
 -18   7  -7 -106.27   92.66
 -18  -7   7  142.53   86.01
 -18  -7   8  -88.46   60.65
 -18   7  -8  -68.91   72.18
 -18  -7   9   37.18   52.63
 -18   7  -9 -164.85   93.25
 -18  -7  10   -6.94   45.09
 -18   7 -10    3.57   47.31
 -18  -7  11  -10.62   40.13
 -18   7 -11  -35.44   53.65
 -18   7 -12   -7.72   39.12
 -18   7 -13  -18.28   72.91
 -18   7 -14  -58.68   45.29
 -18   7 -15   34.68   63.66
 -18   7 -16   21.11   83.78
 -18   7 -17    4.05   55.23
 -18   7 -18 -119.26   76.80
 -18   7 -19   37.01   43.77
 -18   7 -20   22.41   38.12
 -18   7 -21   68.33   65.86
   8 -18 -19  -14.11   52.03
   8 -18 -18   93.60   41.50
   8 -18 -17   74.19   31.92
   8 -18 -16  -46.16   57.00
   8 -18 -15  -14.25   54.85
   8 -18 -14   29.10   60.59
   8 -18 -13   36.60   66.76
   8 -18 -12   34.66   54.01
 -18   8  12  112.83  114.91
   8 -18 -11  108.69   67.01
 -18   8  11   78.23   88.73
   8 -18 -10   64.96   69.75
 -18   8  10  356.81  184.43
   8 -18  -9   66.32   60.22
 -18   8   9   96.87  107.72
   8 -18  -8  113.14   63.67
 -18   8   8   87.50  103.99
 -18   8   7  -36.71   58.86
 -18   8   6  144.75  117.93
 -18   8   5  -33.92   66.42
 -18   8   4    8.17   43.16
 -18   8   3  -37.66   75.78
 -18   8   2  196.80  132.92
 -18   8   1  -75.79   76.45
 -18   8   0  -61.21   95.65
 -18   8  -1   81.65   86.25
 -18   8  -2   15.90   37.68
 -18   8  -3   29.74   36.30
 -18  -8   4   31.43   40.84
 -18   8  -4  141.09   84.98
 -18  -8   5   20.77   37.92
 -18   8  -5   43.89   74.52
 -18  -8   6   -1.18   30.49
 -18   8  -6  -19.69   49.84
 -18  -8   7   -9.96   47.95
 -18   8  -7   53.70   95.86
 -18  -8   8   24.94   46.52
 -18   8  -8   -6.86   44.51
 -18  -8   9   41.70   60.36
 -18   8  -9  -26.42   45.03
 -18   8 -10   -1.18   40.74
 -18  -8  10  -31.05   29.12
 -18   8 -11  -93.14   89.50
 -18   8 -12   49.12   68.32
 -18   8 -13   -9.15   80.89
 -18   8 -14   60.55   80.66
 -18   8 -15  -50.33   40.69
 -18   8 -16 -127.19   84.89
 -18   8 -17   -7.60   44.88
 -18   8 -18   74.91  108.45
 -18   8 -19  -22.15   53.29
 -18   8 -20   -4.53   60.31
   9 -18 -18  -81.86   80.16
   9 -18 -17  -23.76   55.40
   9 -18 -16    1.73   56.32
   9 -18 -15   30.33   45.24
   9 -18 -14   54.38   48.99
   9 -18 -13  -29.56   70.05
   9 -18 -12    4.28   40.15
   9 -18 -11  -23.58   40.03
 -18   9  11   -0.78   77.35
   9 -18 -10    9.17   42.87
 -18   9  10  -36.08  113.19
   9 -18  -9  -93.31   61.55
 -18   9   9   85.37  115.70
 -18   9   8   29.12  129.52
 -18   9   7  -28.89   76.98
 -18   9   6  -73.15   54.06
 -18   9   5  119.49  121.77
 -18   9   4  253.53  134.34
 -18   9   3  -47.30   69.09
 -18   9   2   42.67   83.38
 -18   9   1 -168.87  142.50
 -18   9   0    2.60   61.85
 -18   9  -1   34.95   48.54
 -18   9  -2   12.86   88.92
 -18   9  -3  117.00   95.06
 -18   9  -4   75.22   85.14
 -18  -9   5  144.56   75.03
 -18   9  -5    3.00   69.59
 -18  -9   6  114.62   82.91
 -18   9  -6  127.70   86.44
 -18  -9   7   22.98   59.55
 -18   9  -7  165.24   95.86
 -18  -9   8  -92.73   54.99
 -18   9  -8  116.31   98.72
 -18  -9   9  -89.22   65.00
 -18   9  -9  -41.54   62.09
 -18   9 -10  134.09  106.68
 -18   9 -11   46.29   55.58
 -18   9 -12  114.79  103.25
 -18   9 -13   19.34   37.10
 -18   9 -14  -46.81   58.17
 -18   9 -15  -13.37   45.63
 -18   9 -16  -82.04   84.57
 -18   9 -17 -174.65  107.09
 -18   9 -18  -45.97   68.14
 -18   9 -19 -145.89   90.32
  10 -18 -18  130.27   80.51
  10 -18 -17  -77.83   79.04
  10 -18 -16   87.90   89.42
  10 -18 -15  -33.73   47.82
  10 -18 -14  -34.98   37.82
  10 -18 -13  122.67   85.11
  10 -18 -12   -7.25   53.04
  10 -18 -11   45.94   85.65
  10 -18 -10   24.74   37.14
 -18  10  10  -19.94   66.99
 -18  10   9   62.17  118.36
 -18  10   8   30.19   96.04
 -18  10   7  134.01  104.26
 -18  10   6   41.46   76.72
 -18  10   5    5.06   63.66
 -18  10   4   35.78   42.00
 -18  10   3  -90.03   99.16
 -18  10   2    4.59   56.82
 -18  10   1  126.21  120.37
 -18  10   0  -81.87   89.10
 -18  10  -1 -189.96  117.03
 -18  10  -2   43.69   51.43
 -18  10  -3  -73.64   54.57
 -18  10  -4    0.15   82.43
 -18  10  -5  252.01  132.24
 -18 -10   6   42.73   69.42
 -18  10  -6   48.95   38.14
 -18 -10   7   51.79   72.16
 -18  10  -7   66.93  110.70
 -18 -10   8  185.06   92.02
 -18  10  -8   19.67   85.46
 -18  10  -9   88.07   87.20
 -18  10 -10   41.49   42.04
 -18  10 -11   63.95  127.06
 -18  10 -12  330.18  167.25
 -18  10 -13   81.91  123.30
 -18  10 -14   13.81   68.85
 -18  10 -15   95.11  130.99
 -18  10 -16   35.06   68.26
 -18  10 -17  -69.93   76.49
 -18  10 -18   74.84   98.00
  11 -18 -17   84.24   69.56
  11 -18 -16   41.98   51.64
  11 -18 -15   65.24   70.23
  11 -18 -14   26.47   44.94
  11 -18 -13   36.89   37.53
  11 -18 -12   20.65   70.84
 -18  11   8  309.43  167.93
 -18  11   7  -21.75   67.39
 -18  11   6  111.43  135.59
 -18  11   5   51.95  134.69
 -18  11   4  155.65   77.20
 -18  11   3  125.30  126.93
 -18  11   2   78.80   87.14
 -18  11   1   -3.71   51.86
 -18  11   0  106.82   97.48
 -18  11  -1  117.15  137.79
 -18  11  -2  -49.34   44.29
 -18  11  -3  128.77  122.03
 -18  11  -4   96.25  111.94
 -18  11  -5  179.10  115.65
 -18  11  -6   50.51   95.39
 -18  11  -7  145.95  134.48
 -18  11  -8  -89.88   88.45
 -18  11  -9  -32.36   54.91
 -18  11 -10   53.72   90.96
 -18  11 -11   82.08  123.05
 -18  11 -12  178.42  120.27
 -18  11 -13  102.14   77.86
 -18  11 -14   34.74   90.85
 -18  11 -15   20.97   60.72
 -18  11 -16  212.68  156.89
  12 -18 -16   24.57   62.03
  12 -18 -15  -80.93   73.80
  12 -18 -14  -98.52   67.14
  12 -18 -13  -61.38   43.07
 -18  12   6 -211.76  140.93
 -18  12   5  114.34  159.62
 -18  12   4 -188.25  145.02
 -18  12   3  113.21   96.43
 -18  12   2  -13.15   84.81
 -18  12   1  -40.10   51.56
 -18  12   0 -198.91  122.36
 -18  12  -1  -54.83   51.84
 -18  12  -2  147.23  132.30
 -18  12  -3  140.68  110.30
 -18  12  -4   94.62   92.35
 -18  12  -5  177.19  120.57
 -18  12  -6 -157.14  100.60
 -18  12  -7  -72.11   87.87
 -18  12  -8  179.98  166.37
 -18  12  -9  -68.59   54.30
 -18  12 -10  -35.33   58.66
 -18  12 -11 -130.01  125.00
 -18  12 -12    6.93   61.83
 -18  12 -13   21.23   44.58
 -18  12 -14 -212.97  125.89
 -18  12 -15   24.01   68.11
  13 -18 -15  -23.43   55.16
 -18  13   4  -60.45  105.43
 -18  13   3   -3.05  119.48
 -18  13   2  -42.10   69.82
 -18  13   1  -15.80   48.06
 -18  13   0  108.33  109.31
 -18  13  -1  -43.12  107.00
 -18  13  -2 -125.80  112.99
 -18  13  -3  -66.09   58.99
 -18  13  -4  -58.17  101.35
 -18  13  -5  248.32  150.35
 -18  13  -6  106.32   77.00
 -18  13  -7 -128.92  108.10
 -18  13  -8  104.65  124.07
 -18  13  -9  -97.67  116.97
 -18  13 -10  -95.16   75.36
 -18  13 -11   59.25   94.28
  18 -13 -12   36.13   47.98
 -18  13 -12   -6.99   76.36
  18 -13 -13    0.33   46.15
 -18  13 -13    3.33   69.36
 -18  13 -14  -11.71   48.02
 -18  14   0  181.51  150.98
 -18  14  -1  321.87  170.09
 -18  14  -2  112.87   68.95
 -18  14  -3  -17.03   75.79
 -18  14  -4  -28.96   59.10
 -18  14  -5   17.44   87.28
 -18  14  -6  165.93  128.80
 -18  14  -7   12.05   95.01
 -18  14  -8 -204.99  134.54
  18 -14  -9  150.82   93.07
 -18  14  -9   37.43   76.46
  18 -14 -10   20.69   67.30
 -18  14 -10  110.94  101.95
  18 -14 -11  -79.25   57.70
 -18  14 -11   54.29  108.78
  18 -14 -12  -34.51   33.25
 -18  14 -12  -35.49   92.71
 -19   0   0   -6.66   31.72
 -19   0  -1   26.92   54.46
 -19   0   1 -101.33   71.39
 -19   0   2  -78.56   90.42
 -19   0  -2  147.17   94.68
 -19   0   3   22.63   56.45
 -19   0  -3   12.19   51.06
 -19   0  -4  100.94   94.33
 -19   0   4    2.64   52.31
 -19   0  -5   31.99   72.91
 -19   0   5  -31.95   48.80
 -19   0  -6  -62.23   66.65
 -19   0   6  -66.72   40.55
 -19   0  -7  -28.00   55.15
 -19   0   7   15.62   35.03
 -19   0  -8   14.67   48.06
 -19   0   8   92.36   95.44
 -19   0  -9  -59.20   49.55
 -19   0   9  -18.27   38.54
 -19   0  10  -81.54   67.26
 -19   0  11    8.97   38.18
 -19   0  12   91.84   93.55
 -19   0  13  144.85  119.67
 -19   0  14  -91.85   81.30
 -19   0  15   96.66   88.95
 -19   0  16  -63.69   76.78
 -19   0  17 -144.86  130.07
 -19   0  18   73.39   63.54
 -19   1  18  -50.74  118.37
 -19   1  17  -70.42   80.01
 -19   1  16   50.49   43.87
 -19   1  15  104.65   99.29
 -19   1  14   64.87   77.58
 -19   1  13   13.03   48.85
 -19   1  12  -44.75   56.52
 -19   1  11   -3.81   62.79
 -19   1  10   -8.00   61.94
 -19   1   9  -53.39   76.63
 -19   1   8   55.73   61.11
 -19   1   7  153.49  100.94
 -19  -1  -6  -29.33   47.54
 -19   1   6  -15.38   64.76
 -19  -1  -5   45.88   61.27
 -19   1   5  -51.45   88.82
 -19   1   4  -74.34   87.66
 -19  -1  -4   49.15   61.70
 -19   1   3   39.35   42.95
 -19  -1  -3  100.39   36.54
 -19   1   2   40.00   57.83
 -19  -1  -2   62.49   60.28
 -19  -1  -1  123.71  103.76
 -19   1   1  -37.38   43.86
 -19  -1   0   73.83   77.96
 -19   1   0   58.80   56.35
 -19  -1   1   98.76   81.90
 -19   1  -1   -6.01   65.00
 -19   1  -2  -57.30   76.17
 -19  -1   2   46.67   82.30
 -19   1  -3   54.82   59.28
 -19  -1   3   15.69   48.57
 -19  -1   4   -9.00   36.27
 -19   1  -4    2.73   80.74
 -19  -1   5  -53.46   84.21
 -19   1  -5  104.37   83.11
 -19  -1   6  -38.79   37.35
 -19   1  -6  203.77  118.98
 -19   1  -7  -49.03   46.76
 -19  -1   7  -89.50   82.16
 -19   1  -8   48.19   72.58
 -19  -1   8  -29.13   81.24
 -19   1  -9   27.63   31.66
 -19  -1   9   14.03   46.57
 -19   1 -10   65.11   84.34
 -19  -1  10   13.94   49.70
 -19   1 -11  -15.01   29.33
 -19  -1  11  103.87   95.15
 -19   1 -12  -67.74   67.42
 -19  -1  12   72.96   83.08
 -19  -1  13  -68.45   49.25
 -19  -1  14   59.73   56.21
 -19  -1  15   26.74   42.39
 -19  -1  16  -45.04   78.76
 -19  -1  17   87.45  109.62
 -19   2  17    9.58   78.41
 -19   2  16  125.90  134.21
 -19   2  15  107.35  115.52
 -19   2  14    0.48   46.45
 -19   2  13   65.72   90.22
 -19   2  12 -258.13  132.23
 -19   2  11  -47.89   52.25
 -19   2  10   96.99   87.99
 -19   2   9  -65.93   40.32
 -19   2   8   14.95   39.51
 -19   2   7    2.30   36.65
 -19   2   6   55.65   71.01
 -19   2   5  -33.74   35.21
 -19  -2  -4    7.05   44.04
 -19   2   4    0.25   49.42
 -19   2   3   69.83   71.82
 -19  -2  -3   99.15   91.70
 -19   2   2  -70.81   53.82
 -19  -2  -2   -7.03   37.74
 -19  -2  -1   42.07   47.73
 -19   2   1  -52.02   72.63
 -19   2   0   37.94   55.08
 -19  -2   0   41.64   78.02
 -19   2  -1   37.38   81.22
 -19  -2   1   12.57   32.06
 -19  -2   2   34.06   66.74
 -19   2  -2   -6.23   53.39
 -19  -2   3  -61.62   77.34
 -19   2  -3  -58.64   34.08
 -19   2  -4   50.68   60.25
 -19  -2   4   97.07   79.96
 -19  -2   5  -36.53   69.56
 -19   2  -5  112.01   83.19
 -19  -2   6  -35.21   43.67
 -19   2  -6   25.47   57.19
 -19  -2   7  -31.46   65.42
 -19   2  -7  -63.66   83.61
 -19   2  -8  195.21  113.60
 -19  -2   8  -60.03   71.30
 -19   2  -9    5.66   70.25
 -19  -2   9  173.37   92.60
 -19   2 -10  123.24   99.94
 -19  -2  10  -72.47   33.15
 -19   2 -11   44.87   46.57
 -19  -2  11   13.02   63.20
 -19   2 -12   60.74   88.31
 -19  -2  12   85.80   74.73
 -19   2 -13  157.15  120.08
 -19  -2  13   49.69   73.02
 -19   2 -14   46.71   46.85
 -19  -2  14   42.59   48.25
 -19   2 -15   23.67   51.31
 -19  -2  15  157.73   77.01
 -19   2 -16  154.45  103.75
 -19  -2  16   67.15   62.80
 -19   3  17  -39.34   81.59
 -19   3  16 -154.18   74.46
 -19   3  15  -76.45  105.93
 -19   3  14  -39.90  116.54
 -19   3  13  322.70  168.21
 -19   3  12  138.00  115.35
 -19   3  11  -28.76   69.61
 -19   3  10  -75.12   92.04
 -19   3   9   66.48   91.07
 -19   3   8  123.51   97.11
 -19   3   7   67.17  105.98
 -19   3   6  -52.74   73.06
 -19   3   5   68.95  105.52
 -19   3   4   60.78   82.38
 -19  -3  -3   90.44   83.83
 -19   3   3  -13.47   39.41
 -19  -3  -2  165.42   99.22
 -19   3   2  -16.78   33.92
 -19   3   1   86.16   80.08
 -19  -3  -1  -52.50   64.97
 -19   3   0  -40.32   84.71
 -19  -3   0   -3.07   46.56
 -19   3  -1  -50.16   60.62
 -19  -3   1  -12.86   32.93
 -19   3  -2   28.38   67.26
 -19  -3   2   45.27   56.48
 -19  -3   3  -22.98   52.51
 -19   3  -3   59.50   90.77
 -19  -3   4   33.31   50.70
 -19   3  -4  -37.28   76.92
 -19   3  -5   -1.62   48.64
 -19  -3   5  -42.62   55.54
 -19   3  -6   65.05   54.00
 -19  -3   6   12.77   64.02
 -19   3  -7   -0.12   73.57
 -19  -3   7   22.30   70.65
 -19  -3   8  -33.00   68.92
 -19   3  -8  105.51   70.29
 -19   3  -9  136.78   87.09
 -19  -3   9  149.36   98.66
 -19   3 -10   78.29   80.64
 -19  -3  10 -119.69   89.17
 -19   3 -11   21.99   50.36
 -19  -3  11  -27.51   59.08
 -19   3 -12  -17.97   45.39
 -19  -3  12   -3.69   44.61
 -19   3 -13   22.89   67.02
 -19  -3  13   88.64   61.24
 -19   3 -14  212.38  113.01
 -19  -3  14   44.81   53.96
 -19   3 -15   26.58   76.84
 -19  -3  15  -48.04   65.66
 -19   3 -16  -20.70   56.40
 -19   3 -17  -24.84   49.47
 -19   3 -18   59.69  107.84
 -19   3 -19  267.15  134.53
 -19   4  16   43.24  108.97
 -19   4  15  121.30  123.53
 -19   4  14  -47.94   89.42
 -19   4  13  -64.08   64.70
 -19   4  12   10.27  121.97
 -19   4  11  108.69  131.10
 -19   4  10  -69.97   82.29
 -19   4   9   69.50  134.37
 -19   4   8  -40.52   77.69
 -19   4   7  116.72   79.41
 -19   4   6   92.11  100.30
 -19   4   5   59.55   39.28
 -19   4   4  101.57   92.93
 -19   4   3  239.28  114.40
 -19   4   2   44.00   76.75
 -19  -4  -1  162.45   89.39
 -19   4   1  -73.43   64.22
 -19  -4   0   24.03   39.67
 -19   4   0  -47.86   63.57
 -19  -4   1   77.09   72.99
 -19   4  -1   43.33   59.29
 -19   4  -2 -119.37   64.87
 -19  -4   2   -3.97   46.65
 -19   4  -3   27.69   38.02
 -19  -4   3   52.41   64.28
 -19  -4   4   47.67   80.57
 -19   4  -4  -99.26   77.00
 -19  -4   5  -35.87   38.38
 -19   4  -5   24.12   42.98
 -19  -4   6   44.42   58.18
 -19   4  -6    9.94   29.78
 -19  -4   7  -61.54   72.63
 -19   4  -7  -13.64   66.04
 -19   4  -8  125.89   63.45
 -19  -4   8   22.73   44.32
 -19   4  -9   22.48   33.85
 -19  -4   9  -29.57   54.46
 -19   4 -10  216.34  119.87
 -19  -4  10  -43.58   82.91
 -19   4 -11  -36.06   39.40
 -19  -4  11  -54.88   44.33
 -19   4 -12   -9.12   43.31
 -19  -4  12 -101.29   59.46
 -19   4 -13  150.29  114.40
 -19  -4  13  134.18  100.44
 -19   4 -14  -64.06   40.97
 -19  -4  14   67.96   92.96
 -19   4 -15   48.19   36.27
 -19   4 -16   34.87   82.93
 -19   4 -17  -32.84   48.47
 -19   4 -18  -27.62   62.03
 -19   4 -19   66.60   74.95
 -19   5  15  -98.17  114.59
 -19   5  14  -53.74  121.88
 -19   5  13  128.61  135.74
 -19   5  12   26.88   90.31
 -19   5  11  -32.42   63.69
 -19   5  10   38.24   60.91
 -19   5   9  112.81  126.85
 -19   5   8   77.30   89.53
 -19   5   7  124.11   93.06
 -19   5   6  160.85  111.79
 -19   5   5  -29.39   57.03
 -19   5   4  -10.25   61.91
 -19   5   3  121.76   86.95
 -19   5   2  113.67  107.68
 -19   5   1   75.12  103.61
 -19  -5   0  147.79   86.59
 -19   5   0  -14.53   48.83
 -19  -5   1  176.87   94.13
 -19   5  -1    7.22   48.57
 -19   5  -2   82.09   51.06
 -19  -5   2  100.97   85.12
 -19  -5   3   36.46   54.45
 -19   5  -3  -32.21   54.58
 -19   5  -4  -90.44   75.19
 -19  -5   4  -17.48   35.77
 -19  -5   5   36.19   60.02
 -19   5  -5   -1.24   67.49
 -19   5  -6   33.63   54.30
 -19  -5   6 -152.53  102.96
 -19   5  -7   12.78   35.03
 -19  -5   7  -85.51   54.56
 -19  -5   8   78.96   60.92
 -19   5  -8  -10.55   73.58
 -19   5  -9  -22.57   64.06
 -19  -5   9  -26.66   58.55
 -19  -5  10   84.69   79.79
 -19   5 -10   83.39   66.73
 -19   5 -11  156.82  114.27
 -19  -5  11  -83.20   83.34
 -19   5 -12   43.32   50.68
 -19  -5  12   86.28   79.71
 -19   5 -13  -26.36   46.59
 -19  -5  13  -37.24   50.28
 -19   5 -14  -77.18   63.18
 -19   5 -15  -35.87   41.19
 -19   5 -16  -82.67   98.13
 -19   5 -17   82.30   86.66
 -19   5 -18   12.38   54.22
 -19   5 -19   75.97   97.96
   6 -19 -19   20.84   50.03
   6 -19 -18  118.57   82.16
   6 -19 -17  146.58   92.00
   6 -19 -16  -16.98   38.63
   6 -19 -15   14.62   66.98
   6 -19 -14   22.59   48.83
 -19   6  14  -44.60   99.52
 -19   6  13  -44.61   92.74
 -19   6  12   10.13   84.50
 -19   6  11  -39.22   59.90
 -19   6  10  -60.35  109.51
 -19   6   9   50.93   70.76
 -19   6   8   36.10   70.11
 -19   6   7   62.40  114.97
 -19   6   6   89.97   85.13
 -19   6   5   53.57   93.36
 -19   6   4  108.87   83.31
 -19   6   3   58.39   86.77
 -19   6   2  179.94  141.50
 -19   6   1   77.22  122.48
 -19   6   0  126.88  118.92
 -19  -6   1   81.92   70.78
 -19   6  -1   17.24   84.80
 -19  -6   2  -65.00   47.30
 -19   6  -2  -39.61   42.19
 -19  -6   3    2.29   41.00
 -19   6  -3  -40.57   71.74
 -19   6  -4   -3.71   35.77
 -19  -6   4   24.65   38.77
 -19   6  -5   14.95   38.92
 -19  -6   5   28.51   56.95
 -19  -6   6   41.63   49.36
 -19   6  -6   13.11   80.99
 -19  -6   7   32.16   54.25
 -19   6  -7 -141.04   93.90
 -19   6  -8  -80.63   47.21
 -19  -6   8   82.81   54.49
 -19   6  -9 -126.58  111.17
 -19  -6   9  -45.25   75.48
 -19   6 -10  -94.83   98.35
 -19  -6  10  -44.71   43.64
 -19  -6  11   43.05   44.03
 -19   6 -11   35.91   67.16
 -19   6 -12  107.15   52.54
 -19  -6  12   57.78   57.45
 -19   6 -13  161.19  115.39
 -19   6 -14   40.08   68.70
 -19   6 -15  130.69  110.22
 -19   6 -16  100.85   87.59
 -19   6 -17  -54.19  115.03
 -19   6 -18  -73.04  113.32
 -19   6 -19    1.99   54.51
   7 -19 -18   55.17   74.55
   7 -19 -17   86.29   82.37
   7 -19 -16  120.53   82.57
   7 -19 -15  131.54   99.15
   7 -19 -14  149.52   99.06
   7 -19 -13   51.21   33.34
 -19   7  13   56.76   92.75
   7 -19 -12   24.86   60.94
 -19   7  12  137.18  150.70
   7 -19 -11  113.92   71.99
 -19   7  11  -33.94   63.61
   7 -19 -10   85.03   74.99
 -19   7  10  -62.34  113.52
 -19   7   9  117.32  122.28
 -19   7   8 -126.95  108.14
 -19   7   7  -23.00   67.98
 -19   7   6  152.56  125.42
 -19   7   5  -92.79   70.70
 -19   7   4  -40.41   86.28
 -19   7   3  166.99  115.08
 -19   7   2   30.06   65.48
 -19   7   1    2.40   75.28
 -19   7   0  216.22  142.98
 -19   7  -1  144.55  117.73
 -19  -7   2   83.25   84.89
 -19   7  -2  105.20  110.04
 -19  -7   3   56.55   68.83
 -19   7  -3 -154.83  104.07
 -19  -7   4  -90.15   43.77
 -19   7  -4  -90.22   98.92
 -19  -7   5   43.45   67.54
 -19   7  -5   69.09  103.25
 -19  -7   6   93.62   78.51
 -19   7  -6  -68.68   85.96
 -19  -7   7   67.35   45.52
 -19   7  -7   11.22   65.52
 -19  -7   8  -48.19   51.63
 -19   7  -8  106.29  108.44
 -19   7  -9   -8.21   37.96
 -19  -7   9  -59.41   63.39
 -19  -7  10   98.05   61.18
 -19   7 -10    3.07   58.76
 -19   7 -11  -60.95   75.74
 -19  -7  11    3.99   70.61
 -19   7 -12 -153.47   86.00
 -19   7 -13   -3.25   35.33
 -19   7 -14  -83.08   71.46
 -19   7 -15   40.47   62.61
 -19   7 -16  -15.04   57.88
 -19   7 -17  166.67  124.82
 -19   7 -18  -31.46   87.04
   8 -19 -18  -14.19   43.96
   8 -19 -17  127.05   99.62
   8 -19 -16   74.85   68.47
   8 -19 -15   62.61   54.26
   8 -19 -14    5.58   34.51
   8 -19 -13  -88.05   85.57
   8 -19 -12   28.57   34.70
 -19   8  12  -87.16   83.39
   8 -19 -11  -31.39   43.55
 -19   8  11 -196.20  126.03
 -19   8  10   22.51   73.21
 -19   8   9   55.26  124.87
 -19   8   8   13.19  103.77
 -19   8   7  132.55  133.21
 -19   8   6   13.26   59.40
 -19   8   5  120.03  104.59
 -19   8   4   -7.04   41.84
 -19   8   3  -19.05  105.47
 -19   8   2 -120.91  135.18
 -19   8   1  -94.95   72.25
 -19   8   0 -117.11  113.19
 -19   8  -1  -42.74   97.05
 -19   8  -2  158.02   69.70
 -19  -8   3   49.31   42.30
 -19   8  -3   64.84   84.88
 -19  -8   4   25.75   55.65
 -19   8  -4    9.30   46.32
 -19  -8   5   88.69   87.84
 -19   8  -5   75.26  102.12
 -19  -8   6  -28.42   48.84
 -19   8  -6   11.10   93.50
 -19  -8   7  -34.07   33.46
 -19   8  -7  121.66   94.82
 -19  -8   8  -16.73   77.19
 -19   8  -8 -113.25   88.26
 -19  -8   9 -114.88   67.26
 -19   8  -9   45.52   95.69
 -19   8 -10   21.43   72.11
 -19   8 -11 -181.76  134.59
 -19   8 -12  -77.61   59.85
 -19   8 -13  -42.63  103.62
 -19   8 -14 -158.12  128.28
 -19   8 -15  111.44   89.24
 -19   8 -16  -53.86   72.42
 -19   8 -17   95.09   87.84
 -19   8 -18 -148.83  117.34
   9 -19 -17  104.78   87.99
   9 -19 -16   33.69   52.37
   9 -19 -15  -17.70   64.29
   9 -19 -14   63.69   85.63
   9 -19 -13  -87.52   84.50
   9 -19 -12  113.89   81.40
 -19   9  11   61.63   78.59
 -19   9  10   46.85  123.93
 -19   9   9  145.17  108.67
 -19   9   8  -83.55  128.69
 -19   9   7   91.85   92.54
 -19   9   6 -102.47  109.50
 -19   9   5  106.49  105.66
 -19   9   4  164.60  109.36
 -19   9   3  205.41  137.87
 -19   9   2  -94.63   89.61
 -19   9   1  -21.16   68.98
 -19   9   0  -97.53  107.86
 -19   9  -1   70.36   81.68
 -19   9  -2 -118.51   92.81
 -19   9  -3   12.88   63.35
 -19  -9   4   61.83   56.55
 -19   9  -4 -248.93  130.66
 -19  -9   5   83.23   59.14
 -19   9  -5   55.43   49.92
 -19  -9   6   76.26  101.75
 -19   9  -6    1.07   57.05
 -19  -9   7  156.50   87.32
 -19   9  -7   97.70  107.09
 -19  -9   8   47.40   71.89
 -19   9  -8   97.09   98.44
 -19   9  -9  168.98  124.94
 -19   9 -10    1.93   46.84
 -19   9 -11  123.03   83.56
 -19   9 -12  260.36  147.07
 -19   9 -13  189.94  119.68
 -19   9 -14  -26.11   78.94
 -19   9 -15  188.71  119.73
 -19   9 -16  -32.29   70.04
 -19   9 -17 -120.50   83.64
  10 -19 -17   14.47   40.10
  10 -19 -16   50.41   46.61
  10 -19 -15   -8.77   58.38
  10 -19 -14   58.75   57.35
 -19  10  10   30.23   69.75
 -19  10   9  -25.53  140.64
 -19  10   8   47.36  112.63
 -19  10   7  -17.24   62.60
 -19  10   6   56.52   92.85
 -19  10   5  -31.49   82.11
 -19  10   4    9.99   48.51
 -19  10   3  159.33  115.59
 -19  10   2  270.72  173.21
 -19  10   1  -14.08   50.79
 -19  10   0  237.84  165.94
 -19  10  -1   12.91   53.91
 -19  10  -2   36.28   44.82
 -19  10  -3  -53.21   72.32
 -19  10  -4    1.96   63.87
 -19 -10   5  -39.51   47.16
 -19  10  -5  133.47  118.55
 -19 -10   6  103.33   99.61
 -19  10  -6  -67.92   64.84
 -19 -10   7    6.40   71.89
 -19  10  -7  -83.01  116.58
 -19  10  -8   54.93   82.72
 -19  10  -9   26.81   59.45
 -19  10 -10  -11.24   52.63
 -19  10 -11  126.70  123.65
 -19  10 -12   99.56  100.55
 -19  10 -13   50.91  100.51
 -19  10 -14   67.11   45.35
 -19  10 -15   -0.16   43.19
 -19  10 -16  120.08   88.99
  11 -19 -16   34.59   71.32
  11 -19 -15   10.27   41.27
 -19  11   7  184.07  169.58
 -19  11   6   27.64   87.43
 -19  11   5    3.43   73.80
 -19  11   4  119.15   92.98
 -19  11   3  291.51  171.55
 -19  11   2  -90.64  107.12
 -19  11   1   67.37   79.48
 -19  11   0  183.43  121.55
 -19  11  -1   -8.35   83.95
 -19  11  -2  104.61   76.98
 -19  11  -3  -81.11   70.83
 -19  11  -4   84.32  113.41
 -19  11  -5  144.83  129.78
 -19  11  -6  304.02  164.15
 -19  11  -7  -16.66   98.10
 -19  11  -8   49.27   75.44
 -19  11  -9   76.94   63.68
 -19  11 -10  105.82  119.17
 -19  11 -11   90.62   80.75
 -19  11 -12   91.98  121.13
 -19  11 -13   47.43   53.43
 -19  11 -14   51.23   96.21
 -19  12   2   28.75  117.24
 -19  12   1  106.51   83.30
 -19  12   0  164.69  133.03
 -19  12  -1  -23.38  118.00
 -19  12  -2   89.90  112.38
 -19  12  -3   98.71   99.34
 -19  12  -4   45.93   97.08
 -19  12  -5   24.62   65.85
 -19  12  -6   48.50   68.70
 -19  12  -7   99.76   88.35
 -19  12  -8  -53.49   59.69
 -19  12  -9   -3.36   94.82
 -19  12 -10   25.05   56.05
 -19  12 -11   -9.37   49.89
 -20   0   0   29.97   32.27
 -20   0  -1   48.05   65.62
 -20   0   1  -36.71   75.97
 -20   0   2  -50.70   41.17
 -20   0  -2  153.30  109.29
 -20   0   3   67.35   79.10
 -20   0  -3   92.84   57.35
 -20   0   4  -47.74   39.51
 -20   0  -4   90.74   93.60
 -20   0   5 -114.16  110.13
 -20   0  -5    8.70   38.27
 -20   0  -6  -33.62   31.14
 -20   0   6  -70.13   61.44
 -20   0  -7   76.76   70.37
 -20   0   7  -52.32   70.99
 -20   0  -8   37.47   78.41
 -20   0   8  -64.55   60.97
 -20   0  -9   77.62   84.71
 -20   0   9   78.25   80.01
 -20   0 -10   87.28   66.74
 -20   0  10  -45.16   44.71
 -20   0 -11    6.09   59.05
 -20   0  11   50.34   89.29
 -20   0  12   86.36   98.30
 -20   0  13    2.60   38.80
 -20   0  14  -96.12   98.12
 -20   0  15   56.66   58.45
 -20   0  16   43.87   49.37
 -20   0  17   16.14   91.66
 -20   0  18  -97.08  111.01
 -20   1  18  -68.95   89.51
 -20   1  17 -220.83  145.11
 -20   1  16   41.89   55.51
 -20   1  15  -14.25   50.84
 -20   1  14 -102.33   86.14
 -20   1  13  -55.30   45.15
 -20   1  12 -119.70  104.03
 -20   1  11   28.07   55.49
 -20   1  10  104.89  146.39
 -20   1   9   85.36   80.19
 -20  -1  -8   33.54   64.18
 -20   1   8   68.92   96.02
 -20  -1  -7  128.77   95.57
 -20   1   7  130.04   96.34
 -20  -1  -6   43.05   64.81
 -20   1   6  119.11   90.50
 -20  -1  -5  109.60   83.20
 -20   1   5 -119.06   85.68
 -20   1   4   66.16   63.49
 -20  -1  -4   34.53   88.46
 -20   1   3  -57.90   89.45
 -20  -1  -3   10.37   37.48
 -20   1   2   21.08   53.20
 -20  -1  -2   36.37   34.41
 -20  -1  -1   74.54   85.29
 -20   1   1  109.45   97.41
 -20  -1   0  163.03   92.45
 -20   1   0  -64.19   53.89
 -20  -1   1 -122.00   82.42
 -20   1  -1   46.79   59.36
 -20   1  -2  114.52   62.11
 -20  -1   2  -28.90   49.75
 -20   1  -3  -10.27   42.38
 -20  -1   3  146.48  111.13
 -20   1  -4   32.88   50.15
 -20  -1   4    1.09   34.22
 -20  -1   5   51.75   71.84
 -20   1  -5   34.79   42.95
 -20  -1   6   54.36   69.92
 -20   1  -6   22.61   44.79
 -20   1  -7   91.65   65.86
 -20  -1   7  -40.82   69.12
 -20   1  -8   20.55   54.03
 -20  -1   8  -36.60   43.51
 -20   1  -9 -101.82   90.66
 -20  -1   9   72.89   82.18
 -20   1 -10    9.36   44.02
 -20  -1  10   85.33   36.71
 -20   1 -11   47.99   66.41
 -20  -1  11  143.37  109.41
 -20   1 -12   88.04   74.03
 -20  -1  12   57.36   77.09
 -20   1 -13   20.11   30.34
 -20  -1  13   15.42   68.39
 -20   1 -14  103.85  127.72
 -20  -1  14   40.15   58.69
 -20  -1  15 -130.76   87.04
 -20  -1  16  -69.97   84.60
 -20  -1  17   37.39   88.54
 -20   2  17 -114.54   92.87
 -20   2  16   92.88  111.94
 -20   2  15 -104.71   97.85
 -20   2  14 -132.30  146.47
 -20   2  13  -24.95   54.01
 -20   2  12  104.63  125.22
 -20   2  11  110.96   99.63
 -20   2  10   23.84   83.98
 -20   2   9  -64.15   74.83
 -20   2   8  -15.34   40.96
 -20   2   7  -62.85   96.41
 -20  -2  -6  166.77   95.90
 -20   2   6  243.38  132.09
 -20  -2  -5   22.11   61.80
 -20   2   5   73.10  123.31
 -20  -2  -4  144.66   95.28
 -20   2   4  -40.19   80.65
 -20  -2  -3   48.69   62.03
 -20   2   3 -144.54  114.49
 -20   2   2   58.85   86.41
 -20  -2  -2  -59.49   54.95
 -20   2   1   87.20   59.38
 -20  -2  -1   62.05   35.72
 -20   2   0  -40.66   63.40
 -20  -2   0   -2.83   29.51
 -20  -2   1    5.15   66.98
 -20   2  -1  166.74   91.55
 -20  -2   2  103.83   91.03
 -20   2  -2  -36.15   74.36
 -20  -2   3  245.44  119.12
 -20   2  -3   29.42   53.74
 -20   2  -4   79.42   72.75
 -20  -2   4 -101.16   77.58
 -20   2  -5  -55.67   80.70
 -20  -2   5  -98.09   74.71
 -20   2  -6  -19.25   48.37
 -20  -2   6   -4.24   82.89
 -20  -2   7  -48.33   72.20
 -20   2  -7  -82.95   84.54
 -20   2  -8   20.98   71.43
 -20  -2   8  -62.52   40.75
 -20   2  -9   78.47  103.55
 -20  -2   9 -160.93   96.61
 -20   2 -10  -68.50   43.33
 -20  -2  10  219.03  131.56
 -20   2 -11  133.78  106.21
 -20  -2  11  186.89  127.54
 -20   2 -12  -35.52   42.72
 -20  -2  12   43.34   69.82
 -20   2 -13  163.99  123.83
 -20  -2  13  133.95   97.51
 -20   2 -14   59.43  101.92
 -20  -2  14  130.42   89.10
 -20   2 -15   -0.53   55.45
 -20  -2  15   64.55   61.98
 -20   2 -16   69.88   75.38
 -20  -2  16 -164.58  102.02
 -20   3  17 -188.30  171.63
 -20   3  16   91.96   64.54
 -20   3  15  -62.22   75.30
 -20   3  14   36.42  111.78
 -20   3  13  -11.61   77.69
 -20   3  12   -9.09   45.12
 -20   3  11  -57.34   70.63
 -20   3  10  -40.21   79.14
 -20   3   9  114.77   61.33
 -20   3   8  253.32  159.80
 -20   3   7   28.36   61.47
 -20   3   6  130.36  134.83
 -20   3   5   24.97   55.08
 -20  -3  -4  -10.36   56.05
 -20   3   4   39.38   41.61
 -20  -3  -3   60.79   80.27
 -20   3   3   -7.37   43.63
 -20  -3  -2  114.97   70.52
 -20   3   2   81.65   74.95
 -20   3   1   27.68   69.45
 -20  -3  -1   49.61   89.98
 -20   3   0   10.25   35.05
 -20  -3   0   34.27   51.82
 -20  -3   1   77.78   70.42
 -20   3  -1  -40.11   60.90
 -20  -3   2   87.53  106.78
 -20   3  -2   78.26   63.76
 -20   3  -3   26.99   49.47
 -20  -3   3   80.59   61.82
 -20  -3   4   12.74   44.74
 -20   3  -4  109.69  111.75
 -20   3  -5   74.03  123.87
 -20  -3   5  -23.88   77.82
 -20  -3   6  -27.30   41.45
 -20   3  -6  169.54  122.89
 -20  -3   7  -16.27   72.44
 -20   3  -7   94.75   78.69
 -20   3  -8 -202.03  105.57
 -20  -3   8   67.18   58.20
 -20   3  -9   -5.79   46.12
 -20  -3   9  -73.66   93.44
 -20   3 -10 -130.46  112.84
 -20  -3  10  -10.13   35.13
 -20   3 -11   56.58   52.58
 -20  -3  11   72.88   83.89
 -20   3 -12   31.77   64.86
 -20  -3  12   30.42   60.40
 -20   3 -13  113.56  134.95
 -20  -3  13   88.55   74.76
 -20   3 -14  295.05  167.08
 -20  -3  14   98.20   89.71
 -20   3 -15   53.38   89.15
 -20  -3  15  -29.57   63.80
 -20   3 -16   65.26   80.22
 -20   4  16  239.34  142.92
 -20   4  15 -361.49  174.08
 -20   4  14   18.69   96.18
 -20   4  13   74.73   84.54
 -20   4  12  -52.24   85.13
 -20   4  11   41.59   76.84
 -20   4  10   50.41   63.01
 -20   4   9   11.68  118.33
 -20   4   8   25.77   55.33
 -20   4   7   -6.01   63.44
 -20   4   6    3.11   70.53
 -20   4   5    7.44   60.83
 -20   4   4   57.21   89.34
 -20   4   3  126.75  126.03
 -20  -4  -2  -55.89   59.69
 -20   4   2   95.54  100.79
 -20  -4  -1   34.94   73.50
 -20   4   1   -4.35   81.18
 -20  -4   0  185.67  114.03
 -20   4   0   85.18   95.31
 -20  -4   1   29.10   64.87
 -20   4  -1    4.47   45.32
 -20   4  -2   -5.07   61.55
 -20  -4   2   80.71   63.31
 -20  -4   3   -5.70   37.36
 -20   4  -3  -90.88   87.87
 -20  -4   4   55.07   74.56
 -20   4  -4    2.34   46.02
 -20   4  -5   -0.64   70.34
 -20  -4   5  -24.52   41.52
 -20  -4   6  -43.07   57.81
 -20   4  -6   41.56   34.03
 -20  -4   7  -41.01   56.47
 -20   4  -7  -55.81   49.83
 -20  -4   8  -47.05   50.98
 -20   4  -8   19.66   33.56
 -20   4  -9  128.27  122.64
 -20  -4   9  -32.69   51.77
 -20   4 -10  146.27   95.07
 -20  -4  10  -16.39   44.80
 -20   4 -11  -40.59   64.94
 -20  -4  11 -150.47   74.78
 -20   4 -12  -57.83   44.92
 -20  -4  12  156.33  102.29
 -20   4 -13   27.00   54.89
 -20  -4  13  -50.70   69.71
 -20   4 -14  -74.92   94.27
 -20   4 -15   72.24   76.12
 -20   5  15  108.81   99.13
 -20   5  14  -94.09   74.23
 -20   5  13  161.79  126.97
 -20   5  12  -85.72   56.65
 -20   5  11   16.21   77.45
 -20   5  10   81.22   97.97
 -20   5   9  -94.76  125.91
 -20   5   8  190.48  109.84
 -20   5   7   23.64   56.29
 -20   5   6 -175.24  132.84
 -20   5   5   96.12  100.71
 -20   5   4   45.88   96.42
 -20   5   3   64.59   84.56
 -20   5   2  -18.30   72.16
 -20  -5  -1    0.22   45.68
 -20   5   1  171.17  112.96
 -20  -5   0  -93.09   76.90
 -20   5   0  -34.87   67.59
 -20  -5   1  -84.69   31.61
 -20   5  -1  -11.59   45.19
 -20  -5   2   46.03   60.04
 -20   5  -2   36.28   50.73
 -20   5  -3   13.09   50.69
 -20  -5   3   48.48   73.92
 -20  -5   4  -37.69   32.88
 -20   5  -4  -16.47   82.03
 -20   5  -5 -136.27   61.56
 -20  -5   5  115.21   74.73
 -20  -5   6   -9.10   31.27
 -20   5  -6   28.94   63.83
 -20   5  -7   82.57   79.46
 -20  -5   7  121.29   60.18
 -20   5  -8   -3.72   82.03
 -20  -5   8  -47.30   68.55
 -20  -5   9   41.96   56.84
 -20   5  -9   38.13   64.95
 -20  -5  10   19.40   55.32
 -20   5 -10  -97.48   73.31
 -20   5 -11  -20.27   64.72
 -20  -5  11 -107.33   70.68
 -20   5 -12   36.35   53.59
 -20  -5  12   97.62  102.66
 -20   5 -13  271.97  127.33
 -20   5 -14   85.45   90.09
 -20   5 -15  131.71   89.78
 -20   6  14  120.17   61.53
 -20   6  13    8.22   83.81
 -20   6  12  -73.41  114.61
 -20   6  11  -16.77   82.95
 -20   6  10   89.07   88.71
 -20   6   9  356.88  161.69
 -20   6   8  125.03  141.82
 -20   6   7   46.55   90.32
 -20   6   6  203.33  127.59
 -20   6   5   32.48   59.05
 -20   6   4  101.46  104.78
 -20   6   3  157.92  135.49
 -20   6   2   72.23  108.56
 -20   6   1   92.24  107.51
 -20  -6   0   79.42   76.23
 -20   6   0   56.50   87.26
 -20  -6   1  219.46  118.01
 -20   6  -1  -76.81   74.54
 -20  -6   2   14.49   69.14
 -20   6  -2   24.12   59.52
 -20  -6   3   98.45  101.68
 -20   6  -3  130.85  115.87
 -20  -6   4   83.86   88.52
 -20   6  -4  -12.97   52.20
 -20  -6   5  107.02   90.85
 -20   6  -5  -88.89   55.50
 -20   6  -6   96.95  101.36
 -20  -6   6   78.32   75.41
 -20   6  -7  -85.97  116.60
 -20  -6   7   91.03   91.17
 -20  -6   8    1.68   55.15
 -20   6  -8 -212.97  119.32
 -20   6  -9   60.24   97.69
 -20  -6   9 -125.54   89.76
 -20   6 -10   85.65   94.53
 -20  -6  10 -174.97  113.29
 -20   6 -11  139.02  101.73
 -20  -6  11  -65.87   65.71
 -20   6 -12  228.95  134.59
 -20   6 -13  -13.66   40.29
 -20   6 -14  284.38  159.16
 -20   6 -15  -18.12   79.69
 -20   7  13 -136.70  120.33
 -20   7  12  264.63  175.29
 -20   7  11   -0.60   87.25
 -20   7  10   84.14   84.64
 -20   7   9   29.05   84.05
 -20   7   8  244.20  179.95
 -20   7   7   47.25  100.43
 -20   7   6  -49.70   74.44
 -20   7   5    2.63   63.21
 -20   7   4 -119.20   91.90
 -20   7   3   86.45   89.74
 -20   7   2   42.55   92.73
 -20   7   1  -44.98   51.12
 -20   7   0  -26.30   93.92
 -20  -7   1  -82.10   62.51
 -20   7  -1  140.89  126.50
 -20  -7   2   95.04   82.39
 -20   7  -2   -9.58   56.85
 -20  -7   3  142.24   76.33
 -20   7  -3  129.41   99.44
 -20  -7   4   22.74   85.89
 -20   7  -4   27.52   68.62
 -20  -7   5   12.01   38.33
 -20   7  -5   -7.58   54.22
 -20  -7   6   80.10   93.08
 -20   7  -6   61.88   60.67
 -20  -7   7  -40.89   32.41
 -20   7  -7  -78.94  111.58
 -20   7  -8   -9.47   61.93
 -20  -7   8  -80.11   70.49
 -20  -7   9  -34.73   38.71
 -20   7  -9  -20.42   76.43
 -20   7 -10 -216.07  113.39
 -20  -7  10   -6.83   49.95
 -20   7 -11  -12.87   67.98
 -20   7 -12  -43.50   68.00
 -20   7 -13 -144.46  125.60
 -20   7 -14   72.34   84.95
   8 -20 -17  -36.83   58.79
   8 -20 -16  103.36   69.15
   8 -20 -15   45.96   72.60
 -20   8  10  -22.29   85.45
 -20   8   9   97.46  106.50
 -20   8   8   -3.56   88.11
 -20   8   7  -25.58  111.86
 -20   8   6  145.87  132.92
 -20   8   5   40.44   74.36
 -20   8   4  118.99  134.95
 -20   8   3  -51.72   65.62
 -20   8   2  -18.92   49.59
 -20   8   1  -53.52   58.16
 -20   8   0  140.00  102.77
 -20   8  -1 -184.28  114.63
 -20  -8   2   26.77   34.82
 -20   8  -2  305.26  147.94
 -20  -8   3  -38.73   36.84
 -20   8  -3  -48.86   81.16
 -20  -8   4  146.74  100.92
 -20   8  -4  -26.26   65.12
 -20  -8   5  -27.31   63.67
 -20   8  -5  166.11  118.06
 -20  -8   6   46.12   64.05
 -20   8  -6   51.21   81.72
 -20  -8   7   -8.75   59.92
 -20   8  -7   24.90   43.80
 -20  -8   8  -53.33   48.75
 -20   8  -8   95.59   92.38
 -20  -8   9  141.81   85.90
 -20   8  -9   22.15   76.69
 -20   8 -10  -59.32   82.12
 -20   8 -11   17.18   40.26
 -20   8 -12 -101.19   89.39
 -20   8 -13   -2.76   41.87
   9 -20 -16   17.14   45.46
 -20   9   7  -60.50   62.31
 -20   9   6  138.53  163.61
 -20   9   5  186.30  149.67
 -20   9   4  122.56  141.72
 -20   9   3  323.76  191.01
 -20   9   2  108.67  100.12
 -20   9   1  -72.17   90.36
 -20   9   0   -0.17   57.53
 -20   9  -1 -123.75   96.94
 -20   9  -2 -110.49   95.68
 -20  -9   3  115.32  103.26
 -20   9  -3    5.54   56.54
 -20  -9   4  -10.40   63.50
 -20   9  -4  142.20  141.21
 -20  -9   5    0.21   33.06
 -20   9  -5   56.69   87.56
 -20  -9   6  -12.75   40.49
 -20   9  -6   25.53   78.51
 -20  -9   7   67.79   75.07
 -20   9  -7   29.30  110.86
 -20   9  -8   31.76   44.68
 -20   9  -9  -88.58  131.43
 -20   9 -10  158.64  117.38
 -20   9 -11   36.73   54.82
 -20  10   3   91.10  111.80
 -20  10   2  542.56  231.48
 -20  10   1    9.47   66.25
 -20  10   0   -0.18   85.16
 -20  10  -1  -89.82   70.81
 -20  10  -2   11.77   55.47
 -20  10  -3  -88.53  103.94
 -20 -10   4   63.22   80.77
 -20  10  -4   55.97   87.02
 -20 -10   5   63.24   65.36
 -20  10  -5  149.54  109.56
 -20 -10   6   40.13   49.13
 -20  10  -6  -38.74   45.26
 -20  10  -7   19.33   59.85
 -20  10  -8  148.37  102.27
 -20 -11   4  139.70   90.12
 -20 -11   5    6.11   32.33
 -21   0   0   74.90   71.10
 -21   0   1  124.22   82.37
 -21   0  -1  122.64   91.50
 -21   0  -2   -4.06   51.03
 -21   0   2  -12.32   62.90
 -21   0  -3   -8.35   67.10
 -21   0   3   82.29  100.11
 -21   0   4   41.39   67.63
 -21   0  -4  190.32  124.57
 -21   0  -5   40.53   50.70
 -21   0   5  -91.61  105.92
 -21   0  -6   16.64   69.06
 -21   0   6   90.24   67.89
 -21   0  -7   15.33   61.24
 -21   0   7   22.98   43.61
 -21   0  -8  122.41   88.50
 -21   0   8   41.08   98.70
 -21   0  -9  164.53   90.06
 -21   0   9  121.89  102.37
 -21   0 -10  -17.09   46.42
 -21   0  10   17.06   71.40
 -21   0 -11   54.27   75.58
 -21   0  11  225.42  112.04
 -21   0  12  -21.31   58.23
 -21   0  13   94.44  113.26
 -21   0  14 -185.17  123.15
 -21   0  15 -162.29  101.66
 -21   0  16  -32.40   50.42
 -21   0  17  169.36  117.19
 -21   1  18   64.94   49.76
 -21   1  17  -47.27   48.01
 -21   1  16   89.12   76.26
 -21   1  15  131.42  118.08
 -21   1  14   16.55   74.17
 -21   1  13  -71.55   96.49
 -21   1  12 -121.38  111.78
 -21   1  11  -41.27   93.81
 -21  -1 -10   61.72   68.69
 -21   1  10    5.14   60.64
 -21  -1  -9   18.79   89.16
 -21   1   9  136.97  137.34
 -21  -1  -8  132.27   80.95
 -21   1   8   38.24   81.73
 -21  -1  -7  153.82   96.53
 -21   1   7   87.74   78.74
 -21  -1  -6   34.04   41.10
 -21   1   6   58.79   87.96
 -21  -1  -5   16.47   75.86
 -21   1   5  -98.39   89.09
 -21  -1  -4   -8.77   53.11
 -21   1   4 -136.28  134.68
 -21   1   3   43.90   58.11
 -21  -1  -3   -1.98   36.60
 -21  -1  -2  203.35  111.67
 -21   1   2  -54.24   55.07
 -21  -1  -1  -16.49   42.52
 -21   1   1  -77.46  118.21
 -21   1   0  260.53   88.98
 -21  -1   0   75.46   69.92
 -21  -1   1   38.00   47.09
 -21   1  -1  108.51   66.26
 -21   1  -2    4.92   59.01
 -21  -1   2   60.98   57.14
 -21  -1   3   15.27   54.67
 -21   1  -3   45.88   77.70
 -21   1  -4  101.37   89.91
 -21  -1   4  -30.67   39.76
 -21   1  -5  114.44  105.97
 -21  -1   5   61.67   60.27
 -21   1  -6    0.26   47.13
 -21  -1   6  -97.37   73.70
 -21   1  -7   45.60   79.56
 -21  -1   7 -103.13  114.01
 -21   1  -8   -4.27   40.78
 -21  -1   8    3.29   57.71
 -21   1  -9  117.52   97.03
 -21  -1   9   10.28   38.31
 -21   1 -10   38.49   52.13
 -21  -1  10   65.00   87.40
 -21   1 -11   88.25  110.74
 -21  -1  11   -4.41   52.77
 -21   1 -12  101.92   94.35
 -21  -1  12  197.65  105.20
 -21  -1  13  146.21   92.93
 -21  -1  14  -26.25   67.01
 -21  -1  15   91.78  102.08
 -21  -1  16   23.92  103.52
 -21   2  17  -73.54   71.67
 -21   2  16   36.06   98.45
 -21   2  15  -45.54   85.29
 -21   2  14   89.50   77.40
 -21   2  13  -38.91   89.58
 -21   2  12  105.29  114.69
 -21   2  11 -105.68  100.80
 -21   2  10  147.06  125.29
 -21   2   9   51.68   80.89
 -21  -2  -8  135.74   95.99
 -21   2   8   87.30  103.93
 -21  -2  -7  -10.14   36.96
 -21   2   7   23.77  106.52
 -21  -2  -6  119.04   87.40
 -21   2   6   68.34   82.44
 -21  -2  -5    4.03   82.82
 -21   2   5   -4.84   40.44
 -21  -2  -4   38.75   55.35
 -21   2   4   87.11   46.53
 -21  -2  -3    9.01   64.11
 -21   2   3  -15.20   51.20
 -21   2   2  -56.75   78.41
 -21  -2  -2  154.97  103.43
 -21   2   1    5.57   71.05
 -21  -2  -1   37.21   46.82
 -21  -2   0  -21.71   67.24
 -21   2   0  196.09  106.46
 -21  -2   1  -10.79   47.51
 -21   2  -1  145.89  111.03
 -21   2  -2  -67.74   91.63
 -21  -2   2  -17.72   46.76
 -21  -2   3   46.36   84.81
 -21   2  -3  -17.60   49.02
 -21  -2   4  -11.38   74.06
 -21   2  -4   25.14   39.90
 -21   2  -5  135.95  115.97
 -21  -2   5   -1.16   61.92
 -21   2  -6   38.61   44.63
 -21  -2   6  -13.00   36.05
 -21   2  -7   12.67   62.02
 -21  -2   7   63.70   91.16
 -21   2  -8   19.47   62.38
 -21  -2   8   81.78   79.42
 -21   2  -9  -12.47   61.90
 -21  -2   9   55.08   77.59
 -21   2 -10  107.35  107.42
 -21  -2  10   16.73   74.89
 -21   2 -11  106.20  152.71
 -21  -2  11    9.23   44.14
 -21  -2  12   18.59   79.83
 -21  -2  13   47.32   77.79
 -21  -2  14   -3.72   58.51
 -21  -2  15 -138.63  117.32
 -21   3  17  -32.33   88.97
 -21   3  16    0.20  100.76
 -21   3  15  -29.30  104.81
 -21   3  14  111.95   77.97
 -21   3  13   51.89  103.40
 -21   3  12  105.52  124.20
 -21   3  11    4.28   88.49
 -21   3  10    1.23   54.59
 -21   3   9  141.21  100.03
 -21   3   8   10.82   83.60
 -21   3   7  270.91  138.55
 -21  -3  -6  -26.71   41.00
 -21   3   6    3.84   49.37
 -21  -3  -5   22.39   49.89
 -21   3   5  127.92  109.78
 -21  -3  -4  116.34   84.27
 -21   3   4   78.48  106.79
 -21  -3  -3   32.93   76.13
 -21   3   3  -35.32   62.19
 -21  -3  -2   74.60   72.17
 -21   3   2  -91.96   88.34
 -21  -3  -1   25.28   58.34
 -21   3   1   82.21   93.77
 -21   3   0  -77.14  115.06
 -21  -3   0   10.87   32.57
 -21  -3   1   53.33   90.15
 -21   3  -1  -42.21   35.96
 -21  -3   2   92.55   73.64
 -21   3  -2 -121.69   92.07
 -21   3  -3  207.81  126.20
 -21  -3   3   10.00   35.47
 -21   3  -4  -73.01   71.36
 -21  -3   4  109.28   65.03
 -21  -3   5   73.57   73.24
 -21   3  -5   61.42   68.21
 -21   3  -6  -13.73   52.25
 -21  -3   6  -43.56   74.69
 -21   3  -7  176.00  115.79
 -21  -3   7  -12.04   46.58
 -21   3  -8   34.41   51.26
 -21  -3   8  -70.81   83.63
 -21   3  -9  -66.54   44.60
 -21  -3   9   -0.82   77.50
 -21   3 -10   59.67   54.00
 -21  -3  10   15.22   59.43
 -21   3 -11  -65.91   72.04
 -21  -3  11   75.14  103.61
 -21  -3  12  -23.31   67.17
 -21  -3  13  128.15   96.27
 -21  -3  14   13.74   52.48
 -21   4  15  -13.60  114.81
 -21   4  14  -92.13   87.71
 -21   4  13 -120.64   70.82
 -21   4  12 -125.44  146.19
 -21   4  11    8.44   50.23
 -21   4  10   36.24   94.89
 -21   4   9   31.24   85.80
 -21   4   8  -94.23  103.67
 -21   4   7   16.21   92.80
 -21   4   6  152.67  116.25
 -21   4   5 -168.52  143.18
 -21  -4  -4   52.45   54.15
 -21   4   4    2.24   40.46
 -21  -4  -3   -8.46   60.31
 -21   4   3   83.19  103.20
 -21  -4  -2  101.82   73.73
 -21   4   2   32.40   50.44
 -21  -4  -1   47.82   85.83
 -21   4   1   99.88  114.81
 -21  -4   0   12.87   84.77
 -21   4   0  -14.42  105.26
 -21  -4   1   72.41   66.57
 -21   4  -1 -125.61  124.03
 -21  -4   2   43.31   62.50
 -21   4  -2   13.91   64.64
 -21  -4   3  121.09   94.30
 -21   4  -3 -110.80   86.01
 -21  -4   4   27.51   72.58
 -21   4  -4 -113.09   90.15
 -21   4  -5  -17.91   59.36
 -21  -4   5   22.81   40.12
 -21   4  -6  134.67  102.25
 -21  -4   6  103.60   92.88
 -21  -4   7   11.92   73.14
 -21   4  -7   89.95   82.88
 -21   4  -8   38.81   85.28
 -21  -4   8  -16.39   52.31
 -21   4  -9  -38.30   61.80
 -21  -4   9  -18.97   47.59
 -21   4 -10  -27.09   66.67
 -21  -4  10  274.99  141.78
 -21   4 -11   27.90   65.50
 -21  -4  11   76.65  105.40
 -21  -4  12   16.89   46.75
 -21  -4  13   53.62   81.84
 -21   5  12 -132.22  117.66
 -21   5  11    2.56   89.12
 -21   5  10  -30.43   86.05
 -21   5   9   81.10   91.35
 -21   5   8  -47.30   98.84
 -21   5   7   58.63   92.29
 -21   5   6   16.16   91.65
 -21   5   5   27.80   66.39
 -21   5   4  282.10  149.41
 -21  -5  -3  109.63   89.22
 -21   5   3   54.64   82.29
 -21  -5  -2   57.86   81.83
 -21   5   2  130.09  104.44
 -21  -5  -1  184.38  104.06
 -21   5   1  203.60  152.51
 -21  -5   0  100.05   92.60
 -21   5   0   91.34  107.69
 -21  -5   1   20.68   96.09
 -21   5  -1  163.68  132.62
 -21  -5   2  -26.95   41.18
 -21   5  -2 -140.61   86.71
 -21  -5   3 -126.67  104.33
 -21   5  -3  115.08   66.82
 -21  -5   4   47.59   35.60
 -21   5  -4 -201.32   92.46
 -21  -5   5  -76.90   55.88
 -21   5  -5 -103.61  112.30
 -21   5  -6 -117.76   86.28
 -21  -5   6   67.82   84.56
 -21  -5   7  -95.44   96.43
 -21   5  -7  -19.12   44.20
 -21   5  -8  -27.86   60.27
 -21  -5   8    1.63   35.03
 -21   5  -9   37.24   71.90
 -21  -5   9   29.23   58.45
 -21   5 -10   56.15   67.83
 -21  -5  10  189.91  134.94
 -21  -5  11 -106.43   84.19
 -21  -5  12   14.03   89.87
 -21   6  10 -425.67  193.05
 -21   6   9  -27.13   87.60
 -21   6   8  -20.67  106.85
 -21   6   7  -27.11   76.81
 -21   6   6   61.20   90.28
 -21   6   5 -117.97   98.41
 -21   6   4   -4.87   70.07
 -21   6   3  -12.13   79.18
 -21   6   2  121.72   95.89
 -21  -6  -1   68.47   80.57
 -21   6   1   55.53   50.30
 -21  -6   0  225.05  129.19
 -21   6   0   17.33   64.16
 -21  -6   1  160.87  122.41
 -21   6  -1   65.23   92.38
 -21  -6   2   39.54   64.55
 -21   6  -2   37.72  101.84
 -21  -6   3    3.53   62.82
 -21   6  -3   -3.27   60.18
 -21  -6   4  -54.10   41.50
 -21   6  -4  -18.17   97.89
 -21  -6   5  -52.07   81.83
 -21   6  -5   29.02   61.57
 -21   6  -6   55.91   84.30
 -21  -6   6   16.77   43.84
 -21   6  -7   47.49   83.91
 -21  -6   7  103.50   57.83
 -21   6  -8  -19.44   52.03
 -21  -6   8  -38.06   75.41
 -21  -6   9 -123.76   58.79
 -21   6  -9  -80.98   90.28
 -21  -6  10  -51.01   67.91
 -21   7   6   52.24  139.57
 -21   7   5   29.88   52.53
 -21   7   4   23.61  130.76
 -21   7   3  -18.22   64.51
 -21   7   2   10.54   61.10
 -21   7   1  139.62  124.04
 -21  -7   0   83.46   64.85
 -21   7   0 -126.02   65.67
 -21  -7   1  -26.95   59.02
 -21   7  -1  104.47   87.68
 -21  -7   2   -8.85   37.64
 -21   7  -2   74.84   64.46
 -21  -7   3  162.98   95.09
 -21   7  -3   37.22   61.57
 -21  -7   4   64.22   73.90
 -21   7  -4  109.99  107.02
 -21  -7   5  -54.50   61.52
 -21   7  -5  230.33  146.75
 -21  -7   6   -9.82   57.31
 -21   7  -6   86.45  136.04
 -21  -7   7    7.70   65.90
 -21   7  -7  153.60  110.96
 -21  -7   8   27.75   45.76
 -21  -7   9  -68.33   96.30
 -21   8   0   44.51   78.81
 -21  -8   1  109.39   91.39
 -21   8  -1  -21.94   97.44
 -21  -8   2  134.29   91.42
 -21   8  -2 -108.35  111.46
 -21  -8   3  273.16  116.35
 -21  -8   4   52.81   60.40
 -21  -8   5   74.87   56.48
 -21  -8   6  -77.51   41.32
 -21  -8   7 -120.17   78.00
 -21  -8   8   61.09   53.87
 -21  -9   2  147.73  127.73
 -21  -9   3  -24.32   45.59
 -21  -9   4   -4.26   59.80
 -21  -9   5   68.95   81.24
 -21  -9   6   18.06   73.27
 -21  -9   7   84.63   51.85
 -21 -10   3    3.34   48.04
 -21 -10   4   68.92   95.07
 -21 -10   5   12.72   38.80
 -21 -11   3   -1.38   54.12
 -21 -11   4   51.47   74.21
 -22   0   0  188.08  136.88
 -22   0   1 -165.67   97.78
 -22   0  -1   44.02   55.29
 -22   0  -2  -87.05   68.44
 -22   0   2  -43.79   77.17
 -22   0  -3  169.89  103.77
 -22   0   3  -56.43   68.71
 -22   0  -4   46.71   44.73
 -22   0   4 -180.02   91.19
 -22   0  -5  132.71   90.39
 -22   0   5  -71.21   84.11
 -22   0  -6   67.05   96.89
 -22   0   6    0.46   75.42
 -22   0   7  -88.83   59.13
 -22   0   8   -5.48   56.07
 -22   0   9  -93.96  108.36
 -22   0  10  -48.76   67.70
 -22   0  11   74.90   92.39
 -22   0  12  -12.30   83.81
 -22   0  13 -113.19  132.90
 -22   0  14   -6.53   70.49
 -22   0  15  212.03  140.84
 -22   0  16  -42.87   99.30
 -22   1  15   67.55   82.29
 -22   1  14  -56.86   68.74
 -22   1  13  370.87  190.62
 -22   1  12  363.86  189.56
 -22   1  11   91.98   79.36
 -22   1  10  -40.86   89.37
 -22   1   9   28.80   63.35
 -22   1   8  128.43  101.99
 -22   1   7  -26.85   82.72
 -22  -1  -6   93.57  108.68
 -22   1   6  -32.51   60.68
 -22  -1  -5   34.50   95.16
 -22   1   5 -191.93  114.76
 -22  -1  -4   27.93   58.65
 -22   1   4 -129.38  100.56
 -22  -1  -3   77.84   62.54
 -22   1   3  -46.22   42.70
 -22   1   2  149.07  119.47
 -22  -1  -2  -97.49   82.43
 -22   1   1  -28.92   50.13
 -22  -1  -1    4.46   58.05
 -22   1   0  -65.78   94.41
 -22  -1   0   57.09   44.92
 -22   1  -1  -62.52   55.41
 -22  -1   1   73.16   84.53
 -22  -1   2  -18.72   56.96
 -22   1  -2 -190.82  127.29
 -22   1  -3   50.83   94.89
 -22  -1   3   53.65   59.93
 -22  -1   4  -14.65   72.48
 -22   1  -4   61.85   74.76
 -22   1  -5 -100.53  118.64
 -22  -1   5 -147.92  120.20
 -22   1  -6   56.03   86.73
 -22  -1   6   48.48   46.79
 -22  -1   7   78.43   80.76
 -22  -1   8  208.42   93.76
 -22  -1   9   23.00   63.82
 -22  -1  10   90.46  125.62
 -22  -1  11  401.74  160.05
 -22  -1  12  -84.30   46.74
 -22  -1  13  -83.43   85.42
 -22  -1  14  108.78   97.53
 -22  -1  15   21.50   87.14
 -22   2  13   79.50  111.48
 -22   2  12  -83.42  116.04
 -22   2  11  125.75  120.37
 -22   2  10   91.25   90.53
 -22   2   9  262.18  148.54
 -22   2   8  146.48  127.45
 -22   2   7   69.87  118.15
 -22  -2  -6  104.89   83.34
 -22   2   6  106.42  103.63
 -22  -2  -5  120.23   98.28
 -22   2   5  -46.70   47.49
 -22  -2  -4  160.98  121.78
 -22   2   4  -48.17   68.70
 -22  -2  -3  143.73  109.14
 -22   2   3   61.71  113.95
 -22  -2  -2   -2.12   46.00
 -22   2   2 -104.86   84.62
 -22  -2  -1   47.98   75.20
 -22   2   1   94.55   46.49
 -22  -2   0  -20.55   41.86
 -22   2   0   29.30   63.98
 -22  -2   1  -55.22   96.31
 -22   2  -1 -126.82  102.44
 -22   2  -2  -25.08   46.55
 -22  -2   2   -5.54   41.91
 -22  -2   3  183.41  116.14
 -22   2  -3 -105.72   99.46
 -22  -2   4    6.37   54.18
 -22   2  -4  237.09  137.69
 -22  -2   5  -42.29   40.01
 -22   2  -5    3.69   50.73
 -22  -2   6   41.09   72.97
 -22  -2   7 -133.33  115.90
 -22  -2   8  176.94  132.83
 -22  -2   9  146.84  119.56
 -22  -2  10  212.27  147.71
 -22  -2  11  134.58  121.02
 -22  -2  12   93.56   96.73
 -22  -2  13 -140.95   84.65
 -22  -2  14   76.13   57.78
 -22   3  10   79.37  104.21
 -22   3   9  214.29  137.56
 -22   3   8   41.62   89.24
 -22   3   7   81.30  107.69
 -22  -3  -6  129.77   76.92
 -22   3   6   80.99  128.28
 -22  -3  -5   11.64   55.06
 -22   3   5  237.50  163.12
 -22  -3  -4   69.48   81.48
 -22   3   4  228.00  145.51
 -22  -3  -3  -48.16   57.95
 -22   3   3   10.63   40.90
 -22  -3  -2  113.90   80.25
 -22   3   2 -168.51  127.86
 -22  -3  -1  165.61   90.09
 -22   3   1   45.77   58.34
 -22  -3   0  124.52  108.86
 -22   3   0   46.72   84.27
 -22  -3   1  -38.56   53.93
 -22   3  -1   -4.28   46.01
 -22   3  -2  -92.03   93.14
 -22  -3   2 -107.37   52.57
 -22  -3   3  -22.07   61.99
 -22   3  -3   38.93   53.89
 -22  -3   4   40.80   47.62
 -22   3  -4    8.65   54.63
 -22  -3   5  -69.14   91.62
 -22  -3   6   26.64   60.37
 -22  -3   7   37.86   55.86
 -22  -3   8   53.39   86.62
 -22  -3   9   94.57   69.58
 -22  -3  10  137.43   75.97
 -22  -3  11  188.45  137.14
 -22  -3  12   35.95   58.80
 -22  -3  13  114.98  105.95
 -22   4   7  128.29  114.16
 -22   4   6  232.31  153.09
 -22  -4  -5   -1.17   59.46
 -22   4   5   52.03   54.14
 -22  -4  -4  178.30  110.79
 -22   4   4  215.17  154.62
 -22  -4  -3   37.21   89.21
 -22   4   3  120.69  105.39
 -22  -4  -2   23.02   45.01
 -22   4   2  -70.34   86.74
 -22  -4  -1   83.30   94.50
 -22   4   1   10.29   56.36
 -22  -4   0  -27.75   84.40
 -22   4   0   61.87  122.68
 -22  -4   1  311.59  138.69
 -22   4  -1 -104.19   91.34
 -22   4  -2 -131.57  140.19
 -22  -4   2  123.63  127.50
 -22   4  -3   57.38   67.15
 -22  -4   3  -90.84   65.69
 -22  -4   4  116.43   67.13
 -22  -4   5  -85.83   83.27
 -22  -4   6   29.37   62.69
 -22  -4   7   40.15   62.62
 -22  -4   8   61.79   77.24
 -22  -4   9  112.14  102.84
 -22  -4  10   32.19   75.19
 -22  -4  11  213.37  126.14
 -22  -4  12   56.49  105.78
 -22  -5  -4   71.12   79.53
 -22  -5  -3    9.07   58.02
 -22  -5  -2   74.27   82.52
 -22  -5  -1    5.61   49.53
 -22  -5   0  131.15  101.34
 -22  -5   1   20.87   34.66
 -22  -5   2   78.86  104.19
 -22  -5   3   55.13   88.43
 -22  -5   4  -33.09   75.21
 -22  -5   5  112.80   89.24
 -22  -5   6   29.47   44.05
 -22  -5   7  -42.40   88.38
 -22  -5   8   -6.42   64.27
 -22  -5   9    9.47   54.17
 -22  -5  10  -55.98  105.70
 -22  -5  11  105.63   81.22
 -22  -6  -3   53.99   47.81
 -22  -6  -2  106.49  109.74
 -22  -6  -1  176.33   95.23
 -22  -6   0   62.79   84.54
 -22  -6   1   14.19   38.87
 -22  -6   2  -75.23   73.25
 -22  -6   3  105.88   72.67
 -22  -6   4   77.44   79.40
 -22  -6   5  -99.66   70.06
 -22  -6   6  -16.62   64.73
 -22  -6   7   53.27   40.72
 -22  -6   8   25.21   65.40
 -22  -6   9   17.38   54.99
 -22  -6  10  179.10   62.55
 -22  -7  -2  122.61   98.49
 -22  -7  -1   40.87   87.88
 -22  -7   0   92.91   97.39
 -22  -7   1 -132.97   99.37
 -22  -7   2   48.83   63.33
 -22  -7   3  125.32   81.66
 -22  -7   4  -56.22   51.56
 -22  -7   5  -50.12   66.24
 -22  -7   6   25.04   39.84
 -22  -7   7   35.61   54.48
 -22  -7   8 -120.16  108.68
 -22  -8  -1   89.93   74.18
 -22  -8   0   80.93   94.00
 -22  -8   1  -13.27   33.20
 -22  -8   2   30.27   70.67
 -22  -8   3  -34.80   58.67
 -22  -8   4  213.80  140.37
 -22  -8   5  -87.34   41.20
 -22  -8   6   -8.35   42.55
 -22  -8   7  -13.45   38.38
 -22  -9   0    4.40   65.76
 -22  -9   1  -65.58   66.14
 -22  -9   2  115.27   70.31
 -22  -9   3  -13.81   45.46
 -22  -9   4  -38.81   39.06
 -22  -9   5   61.29   60.84
 -22  -9   6   68.06   94.92
 -22 -10   1  -54.55   54.38
 -22 -10   2   -5.59   61.71
 -22 -10   3   62.87   95.33
 -22 -10   4  -25.03   48.73
 -22 -11   3  142.40  105.29
 -23  -1   4 -103.78  120.43
 -23  -1   5  -73.99   55.82
 -23  -1   6   34.21  116.29
 -23  -1   7   28.22   52.33
 -23  -1   8  269.52  175.10
 -23  -2   3   60.73   68.78
 -23  -2   4  -70.25  110.30
 -23  -2   5 -136.59  101.29
 -23  -2   6   15.46   60.72
 -23  -2   7   -5.89   91.31
 -23  -2   8  149.31   83.85
 -23  -2   9  -37.74   65.85
 -23  -2  10  370.33  176.28
 -23  -2  11  -50.83  118.30
 -23  -3   3  -63.25   70.57
 -23  -3   4  -73.42  101.19
 -23  -3   5   65.02   71.58
 -23  -3   6  -26.63   94.20
 -23  -3   7   44.54   79.92
 -23  -3   8  113.98  118.75
 -23  -3   9  -12.21   88.54
 -23  -3  10  137.61  121.53
 -23  -3  11   -0.17   78.12
 -23  -3  12   71.79  100.85
 -23  -4   3   37.23   58.01
 -23  -4   4  130.99  101.00
 -23  -4   5   -2.03   45.20
 -23  -4   6   53.30   73.12
 -23  -4   7   77.09   91.18
 -23  -4   8 -109.98  107.44
 -23  -4   9   12.79   60.07
 -23  -4  10   47.22   87.68
 -23  -4  11   57.06   75.25
 -23  -5   3 -202.20  120.97
 -23  -5   4   36.75   83.68
 -23  -5   5 -116.21  105.83
 -23  -5   6 -122.08   92.26
 -23  -5   7 -132.73  107.96
 -23  -5   8  -73.53   78.00
 -23  -5   9 -106.04   99.89
 -23  -5  10  -20.09   70.46
 -23  -6   4    7.21   40.78
 -23  -6   5  -40.03   89.70
 -23  -6   6   81.03   79.64
 -23  -6   7   86.76   77.98
 -23  -6   8   78.78   79.62
 -23  -6   9   26.91   67.75
 -23  -7   5 -116.54   72.59
 -23  -7   6  -53.98   43.89
 -23  -7   7 -185.40  135.39
 -23  -8   6   40.41  101.37
   0   0   0    0.00    0.00




TITL P20201215D9 in P4(1)2(1)2
REM P4(1)2(1)2 (#92 in standard setting)
CELL 0.71073  17.976404  17.976404  26.415427  90.0000  90.0000  90.0000
ZERR   37.00   0.002508   0.002508   0.003153   0.0000   0.0000   0.0000
LATT -1
SYMM -x,-y, z+1/2
SYMM -y+1/2, x+1/2, z+1/4
SYMM  y+1/2,-x+1/2, z+3/4
SYMM -x+1/2, y+1/2,-z+1/4
SYMM  x+1/2,-y+1/2,-z+3/4
SYMM  y, x,-z
SYMM -y,-x,-z+1/2
SFAC C H N O
UNIT 407.00 370.00 37.00 37.00
TREF
HKLF 4
END
_computing_structure_solution     'SHELXT 2018/2 (Sheldrick, 2018)'
_computing_structure_solution     'SHELXT 2018/2 (Sheldrick, 2018)'
_computing_structure_solution     'SHELXT 2018/2 (Sheldrick, 2018)'
;
_shelx_hkl_checksum              65111
_shelx_fab_file
;
    0    0   12      9.66     -0.10
    0    0   16     23.15      0.37
    0    0   20     -1.47      1.31
    0    0   24      2.04     -0.04
    0    0   28    -16.39     -0.04
    0    1    4     -2.73     -0.40
    0    1    5      0.88     10.95
    0    1    7     -1.01    -34.43
    0    1    8    -20.32     -0.20
    0    1    9      0.64     -7.81
    0    1   11     -0.73      3.62
    0    1   12    -11.98      0.44
    0    1   13     -0.13     -1.36
    0    1   14     18.57      0.44
    0    1   15     -0.50     22.74
    0    1   16     -1.87     -0.15
    0    1   17      0.58      6.96
    0    1   18     -4.64     -0.48
    0    1   19     -0.04     -8.24
    0    1   20    -13.59      5.32
    0    1   21     -1.21     -2.39
    0    1   22    -11.89      1.60
    0    1   23      0.19     -1.43
    0    1   24     -3.40     -0.63
    0    1   25      0.65     -5.19
    0    1   26     -1.23      0.15
    0    1   27     -0.22     -2.13
    0    1   28     11.99     -5.57
    0    1   29      0.10      6.72
    0    1   30     -1.38      4.79
    1    1    4     32.93     -1.85
    1    1    7     13.67     11.09
    1    1    9    -13.00     12.61
    1    1   10     -1.77      0.25
    1    1   11     -2.06     -1.77
    1    1   12     16.16     -1.55
    1    1   13     12.62    -11.04
    1    1   14     -1.55      1.01
    1    1   15    -12.81    -13.21
    1    1   17     -1.47     -0.24
    1    1   18      1.48      1.97
    1    1   19      5.75      3.80
    1    1   20     26.71     -8.18
    1    1   21     -1.32      2.04
    1    1   22     -0.55     -3.46
    1    1   23      0.36      1.53
    1    1   24      2.85      1.18
    1    1   25     -4.54      5.04
    1    1   26     -1.21     -1.19
    1    1   27     -1.96     -0.50
    1    1   28     -9.45      1.34
    1    1   29     -3.99      3.75
    1    1   30      2.41      3.05
    0    2    3      6.85    -11.78
    0    2    4      8.71     -0.39
    0    2    5     -2.12    -12.46
    0    2    6     23.15      0.56
    0    2    7      0.72      7.58
    0    2    8      8.28     -2.19
    0    2   10     -2.87     -0.49
    0    2   11      0.42     -6.39
    0    2   12      4.90      0.61
    0    2   14     -4.67     -0.30
    0    2   15      3.09    -12.60
    0    2   16     10.45     -1.57
    0    2   17     -0.55     -6.74
    0    2   18     -3.97      1.95
    0    2   19      0.27      4.79
    0    2   20     -2.74     -2.05
    0    2   21      1.51      0.36
    0    2   22      3.82      1.19
    0    2   23      0.47     -5.31
    0    2   24      8.89     -0.41
    0    2   25     -1.01     -6.12
    0    2   26      1.98      0.86
    0    2   27     -0.22     -0.79
    0    2   28     -7.23      6.26
    0    2   29      2.99     -3.74
    0    2   30      1.73    -10.03
    1    2   30      0.28      7.93
    1    2   29      3.14     -9.46
    1    2   28      7.80     18.14
    1    2   27      3.47      5.47
    1    2   26     -2.66      5.36
    1    2   25      4.48      2.30
    1    2   24     -2.40     -1.72
    1    2   23     -4.23      8.81
    1    2   22     -4.35      2.12
    1    2   21      2.64      0.54
    1    2   20     -7.28      3.03
    1    2   19      1.61     -4.67
    1    2   18      7.37     -2.91
    1    2   17      1.10     -4.17
    1    2   16      1.94     -0.52
    1    2   15      8.29      3.13
    1    2   14     -9.56     -0.80
    1    2   13     -0.56     -1.15
    1    2   12     -6.69     10.73
    1    2   11      2.79     -2.10
    1    2   10     -3.13      1.83
    1    2    9     10.48      1.82
    1    2    8      4.55     -8.18
    1    2    7     16.60     -2.24
    1    2    6      7.70    -20.15
    1    2    5      4.23     14.32
    1    2    3    -51.81      5.35
    1    2    2    -31.30    -38.58
    2    2    2     -0.55     39.75
    2    2    4    -35.29      5.65
    2    2    6      1.31     39.83
    2    2    8     -3.86     -0.20
    2    2    9      7.26     -8.17
    2    2   10      0.26     -0.10
    2    2   11     -2.70     -2.31
    2    2   12      7.89     -0.69
    2    2   14      0.06     -3.16
    2    2   15      1.02      2.05
    2    2   16     -0.74      1.58
    2    2   17     -2.76      3.65
    2    2   19      0.67      2.06
    2    2   20      9.50     -0.63
    2    2   21      0.84     -1.82
    2    2   22      0.85     -4.11
    2    2   23     -4.29     -4.81
    2    2   24     -0.17      0.35
    2    2   25     -2.49     -0.08
    2    2   26      0.08     -9.27
    2    2   27     -8.68     -7.51
    2    2   28     -3.73      0.11
    2    2   29     -5.96     13.99
    2    2   30     -2.52    -21.35
    0    3    1      1.44     57.27
    0    3    2    -62.69     -0.33
    0    3    3    -18.65    -29.16
    0    3    4     38.38     -2.23
    0    3    5      1.59      9.01
    0    3    6      5.06      2.51
    0    3    7      0.69     -1.13
    0    3    8      7.24      2.44
    0    3    9     -0.15     -8.69
    0    3   10     11.37     -1.25
    0    3   11     -0.22      7.83
    0    3   12     -4.41      0.23
    0    3   13      0.05      4.79
    0    3   14      6.17      0.48
    0    3   15     -4.16     12.74
    0    3   16     -8.28     -0.33
    0    3   17     -0.83     13.66
    0    3   18     -1.74      0.25
    0    3   19      0.80      5.36
    0    3   20     -6.52     -1.28
    0    3   21      0.61     -6.46
    0    3   22      8.85     -1.33
    0    3   23     -0.51     -5.81
    0    3   24    -10.32      4.66
    0    3   25      1.24     -3.21
    0    3   26     -2.42      0.08
    0    3   27      0.38      2.49
    0    3   28    -11.53     -6.73
    0    3   29     -7.10      8.85
    0    3   30    -11.99      5.23
    1    3   30      8.42      1.56
    1    3   29      7.94      0.10
    1    3   28      6.86     -6.42
    1    3   27      7.60     -0.94
    1    3   26      7.78     -4.92
    1    3   25     -4.25      4.71
    1    3   24      1.89      2.20
    1    3   23      0.17      0.64
    1    3   22      2.43      5.47
    1    3   21     -2.72      4.67
    1    3   20     -7.08     -7.84
    1    3   19     -0.42     -6.55
    1    3   18     -0.26     -2.78
    1    3   17      9.43     -5.73
    1    3   16      3.47     -0.28
    1    3   15      7.64     -9.18
    1    3   14      8.99     -1.77
    1    3   13      4.13     -5.90
    1    3   12     -8.75     -2.53
    1    3   11      2.78     -0.82
    1    3   10     -3.33      9.19
    1    3    9     -1.04      7.79
    1    3    8     -8.15    -10.12
    1    3    7     -1.59     13.10
    1    3    5     -5.82     -4.74
    1    3    4     -4.56    -30.03
    1    3    3      4.20     -5.07
    1    3    2     18.31    -37.46
    1    3    1      1.14    -22.39
    1    3    0      1.00     -0.25
    2    3   30      3.12      3.66
    2    3   29     -1.36     -7.66
    2    3   28     -3.42     -7.86
    2    3   27     -2.57     -1.38
    2    3   26     -2.67     -2.60
    2    3   25      0.93     -3.27
    2    3   24      2.68     -3.91
    2    3   23      1.69     -0.71
    2    3   22      3.02     -1.08
    2    3   21     -6.89     -2.92
    2    3   20      2.05      2.74
    2    3   19     -1.65      3.23
    2    3   18      8.10      2.14
    2    3   17     -0.26      7.98
    2    3   16     -0.76      6.60
    2    3   15     -4.07      0.10
    2    3   14      0.47      5.11
    2    3   13     -6.53     -3.95
    2    3   12      1.87     -5.75
    2    3   11      0.44     -0.98
    2    3   10     -1.24     -4.04
    2    3    9    -10.79     -1.05
    2    3    8      0.29      5.38
    2    3    7     -0.32     -7.66
    2    3    6     -4.11     -1.87
    2    3    5     -0.04    -13.33
    2    3    4      6.12     22.45
    2    3    3      9.23      2.83
    2    3    2    -10.72     43.04
    2    3    0    -19.12      1.30
    3    3    0      5.02      0.48
    3    3    1      0.38     -5.00
    3    3    3    -11.63     -7.22
    3    3    4      5.54      0.27
    3    3    5     -0.71      0.65
    3    3    6      1.21      1.22
    3    3    7     10.16     12.68
    3    3    8      6.37      0.25
    3    3    9      7.33     -6.56
    3    3   10     -0.26     -1.43
    3    3   12     -0.07      0.69
    3    3   13     -4.51     -0.56
    3    3   14     -1.90      0.94
    3    3   15     -8.40     -8.19
    3    3   16     -6.30      0.19
    3    3   17      2.49     -0.12
    3    3   18      1.24     -3.40
    3    3   19      0.35      1.31
    3    3   20     -3.89      0.40
    3    3   21      2.54     -2.58
    3    3   22     -1.01      2.61
    3    3   23      8.73      9.50
    3    3   24     -9.21      0.00
    3    3   25      1.69     -0.80
    3    3   26     -1.04     11.57
    3    3   27     -1.64     -0.53
    3    3   28     -6.00      7.39
    3    3   29     -6.07      8.07
    3    3   30     -3.39      5.41
    0    4    0    -14.52     -5.98
    0    4    1     -2.44     15.48
    0    4    2    -14.89      0.03
    0    4    3      6.42    -13.61
    0    4    6    -10.27     -5.18
    0    4    8     12.70     -1.37
    0    4    9      0.48    -14.21
    0    4   10      8.86      0.92
    0    4   11     -0.54      7.40
    0    4   12     18.27     -0.43
    0    4   13     -0.03      1.61
    0    4   14     -6.56     -1.38
    0    4   15     -0.44      4.11
    0    4   16      2.60      2.91
    0    4   17      0.57     -4.05
    0    4   18     -3.01     -4.87
    0    4   19     -2.45     -4.32
    0    4   20      9.66      2.31
    0    4   21     -0.24      0.14
    0    4   22    -11.01      0.42
    0    4   23      2.85    -13.41
    0    4   24      9.90     -3.20
    0    4   25     -1.00      5.35
    0    4   26      1.07     -0.45
    0    4   27     -1.21      3.63
    0    4   28     -7.29      3.52
    0    4   29      1.30     -4.28
    0    4   30     -7.71     -3.72
    1    4   30      0.65      4.33
    1    4   29     -2.68      0.39
    1    4   28      9.85      4.19
    1    4   27     -7.80     -7.38
    1    4   26      1.65     14.01
    1    4   25     -2.28     -0.86
    1    4   24     -4.39     -0.30
    1    4   23     -5.17     10.63
    1    4   22     -1.05    -12.85
    1    4   21     -4.63      2.28
    1    4   20      8.05      6.28
    1    4   19     -3.77      6.76
    1    4   18     -4.31      1.62
    1    4   17     -2.75     -3.32
    1    4   16      0.41     -3.78
    1    4   15    -13.81      3.80
    1    4   14     -5.96      1.28
    1    4   13     -4.59     -4.34
    1    4   12     -3.84     -0.64
    1    4   11      7.36     -1.50
    1    4   10     -5.37    -10.11
    1    4    9     -0.92      4.06
    1    4    7    -12.58     14.02
    1    4    6      1.90    -10.46
    1    4    5      0.54      0.16
    1    4    4     19.32     25.56
    1    4    3    -21.93     12.30
    1    4    1    -14.52     -8.82
    1    4    0    -26.50      1.53
    1    4    8     -8.34     21.15
    2    4   29      0.34      1.95
    2    4   28     -4.72     -4.08
    2    4   27      9.50      7.38
    2    4   26     -6.24      0.52
    2    4   25     -0.25     -5.05
    2    4   24     -3.79      2.13
    2    4   23      0.14     -7.57
    2    4   22     -2.56      3.76
    2    4   21      9.49     -0.73
    2    4   20      2.44      5.51
    2    4   19      1.91     -5.38
    2    4   18     -3.27      1.54
    2    4   17     -1.12     -4.43
    2    4   16     -3.04      0.15
    2    4   15      7.36      3.02
    2    4   14      0.73     -2.53
    2    4   13     14.64     -3.80
    2    4   12      6.50     13.17
    2    4   11     -7.57      3.58
    2    4   10      2.96      4.01
    2    4    9      0.97      3.04
    2    4    8     -0.11     -2.54
    2    4    7      6.54     -8.81
    2    4    6     -4.11     -2.69
    2    4    5     11.79      6.56
    2    4    4      1.01     -4.31
    2    4    3      3.11     -2.85
    2    4    2      5.30     -8.44
    2    4    1     23.33     -9.02
    2    4    0     -1.55     -0.39
    3    4   29      5.29     -1.74
    3    4   28      9.90     -3.57
    3    4   27      3.10      4.96
    3    4   26     -1.15     -4.32
    3    4   25     -0.08      6.13
    3    4   24      7.87     -5.78
    3    4   23     -1.50     -4.90
    3    4   22      9.23     -3.78
    3    4   21      5.46      5.01
    3    4   20     -3.27      0.16
    3    4   19      3.34      2.85
    3    4   18     -2.70     -7.41
    3    4   17     -3.38      3.58
    3    4   16      5.55     -3.48
    3    4   15      3.78     10.19
    3    4   14      6.01     -4.08
    3    4   13     -3.32     -5.26
    3    4   12     -3.33     -3.81
    3    4   11     -2.22     -3.65
    3    4   10     -4.53     -5.57
    3    4    9     -1.10      0.18
    3    4    8      1.88     -6.46
    3    4    7      3.01     -3.19
    3    4    6     -1.52     -3.90
    3    4    5     -4.31      3.61
    3    4    4    -14.75      1.69
    3    4    3      0.05      4.78
    3    4    2     -9.21    -30.07
    3    4    1     -2.81     -0.14
    3    4    0     11.09      0.56
    4    4    0    -16.06     -0.06
    4    4    1     -3.36      3.08
    4    4    2     -0.85     21.05
    4    4    3     -1.98     -1.28
    4    4    4     25.39      0.25
    4    4    5     -2.96      2.96
    4    4    6      0.09      0.74
    4    4    7     -2.70     -4.02
    4    4    8      0.96     -1.47
    4    4    9     -0.24      0.67
    4    4   10     -0.81      7.16
    4    4   11     -1.13     -0.38
    4    4   12      3.22     -0.36
    4    4   13     -7.60      9.88
    4    4   14      0.43      6.76
    4    4   15      0.00      1.14
    4    4   16     -2.27      0.05
    4    4   17      7.84     -8.26
    4    4   18     -1.99      5.61
    4    4   19    -13.78    -13.11
    4    4   20     -2.15     -0.64
    4    4   21     -8.62      8.10
    4    4   22      0.59      5.39
    4    4   23      1.62     -0.73
    4    4   24     -4.08      0.07
    4    4   25     -0.07      1.49
    4    4   26     -1.63      0.89
    4    4   27    -12.80    -12.70
    4    4   28     -5.00      1.91
    4    4   29     -6.58      6.12
    0    5    0     -9.63     -0.12
    0    5    1      0.20     12.69
    0    5    2     16.36      0.08
    0    5    3      1.26      9.79
    0    5    4    -19.37      0.39
    0    5    6      2.47      1.06
    0    5    7     -0.08     -0.86
    0    5    8     -4.73     -0.58
    0    5    9     -0.53     -7.78
    0    5   10     13.71      0.02
    0    5   11      0.02    -21.47
    0    5   12      2.24      0.01
    0    5   13      0.02      8.62
    0    5   14     -0.91      3.12
    0    5   15     -0.15     -3.84
    0    5   16    -10.53     -6.68
    0    5   17     -5.49      4.08
    0    5   18     12.08      6.97
    0    5   19      3.05     12.10
    0    5   20      7.86     -2.30
    0    5   21      0.41      3.54
    0    5   22     10.89     -1.20
    0    5   23     -5.41     14.98
    0    5   24     16.14      0.43
    0    5   25      0.69     -4.70
    0    5   26     -3.10      3.17
    0    5   27     -0.27      6.16
    0    5   28      7.93     -5.02
    0    5   29     -0.55      6.34
    1    5   29     -3.84     -3.74
    1    5   28     -4.50      0.70
    1    5   27     -0.48     -4.77
    1    5   26     -6.50    -16.96
    1    5   25      4.60     -1.78
    1    5   24     -6.61      0.81
    1    5   23     12.32     -7.56
    1    5   22     -3.85     14.15
    1    5   21     -0.08      0.21
    1    5   20     -7.20      0.37
    1    5   19      1.07    -11.88
    1    5   18     -4.95      1.72
    1    5   17     -2.22      5.18
    1    5   16      3.65      5.46
    1    5   15      7.47     -6.62
    1    5   14      6.18      7.28
    1    5   13      2.80     -2.49
    1    5   12     -3.52     -4.73
    1    5   11     -0.02      8.66
    1    5   10    -13.92     -9.16
    1    5    9     -3.69      6.81
    1    5    8      3.70     -9.66
    1    5    7      8.38      0.32
    1    5    6      7.45      8.30
    1    5    5     -4.37     29.22
    1    5    4     -1.31     -9.03
    1    5    3     16.35     -4.25
    1    5    2    -13.65     12.95
    1    5    1      8.17    -10.54
    1    5    0     20.47     -0.30
    2    5   29      1.20      1.40
    2    5   28     -8.52      5.10
    2    5   27     -6.01      2.38
    2    5   26      4.27     -0.88
    2    5   25      4.82      4.20
    2    5   24      7.53      3.10
    2    5   23     -4.94      0.04
    2    5   22     -5.84     -0.07
    2    5   21     -2.13     -3.82
    2    5   20     -7.49    -14.06
    2    5   19      0.43      3.15
    2    5   18      2.96     -2.66
    2    5   17      4.42     -1.13
    2    5   16      3.37     -6.82
    2    5   15     -3.39     -7.73
    2    5   14     -5.93      2.37
    2    5   13      2.19     19.27
    2    5   12     -2.25     -2.56
    2    5   11      3.66      1.23
    2    5   10      7.74     10.58
    2    5    9      5.26     -5.61
    2    5    8     -1.64     -4.54
    2    5    7     -2.56      6.58
    2    5    6      3.40     -2.63
    2    5    5     -5.86     -2.08
    2    5    4      6.24      3.94
    2    5    3     -3.16     -2.00
    2    5    2     -1.68    -10.42
    2    5    1     -7.42      6.30
    2    5    0      8.87      0.70
    3    5   29     -0.07     -3.70
    3    5   28      9.59      6.19
    3    5   27     -2.70     -2.10
    3    5   26      4.03      0.93
    3    5   25     -6.26      1.99
    3    5   24     -0.29      3.57
    3    5   23      1.54      5.99
    3    5   22     -5.10      2.56
    3    5   21     -4.07      1.25
    3    5   20      8.13     -1.34
    3    5   19     -5.07     -0.18
    3    5   18      1.15      4.98
    3    5   17     -0.78      3.77
    3    5   16      1.11      3.79
    3    5   15     -4.45      3.25
    3    5   14     -0.06     -6.31
    3    5   13     -4.49    -10.58
    3    5   12      3.22     -4.34
    3    5   11     -7.96     -8.95
    3    5   10      1.68      3.59
    3    5    9     -3.29      7.63
    3    5    8     -6.05      8.95
    3    5    7     -2.15     -5.94
    3    5    6     -3.24      4.50
    3    5    5      0.25     -4.67
    3    5    4     -1.70    -10.32
    3    5    3      5.59      1.19
    3    5    2     -1.82     15.21
    3    5    1     -6.41     -1.99
    3    5    0    -17.81     -0.02
    4    5   29      7.39      2.44
    4    5   28     -9.29      0.79
    4    5   27      8.12      1.35
    4    5   26      0.24     -0.05
    4    5   25      3.77    -11.54
    4    5   24      1.64     -8.56
    4    5   23     -0.55     -2.59
    4    5   22      7.78     -4.59
    4    5   21      5.78     -5.87
    4    5   20      0.73      5.72
    4    5   19      7.83      5.40
    4    5   18     -0.29      6.99
    4    5   17     -1.73     -2.29
    4    5   16      1.17      1.27
    4    5   15     -2.14     -2.53
    4    5   14      0.34      1.27
    4    5   13     10.00      2.14
    4    5   12     -8.22      6.60
    4    5   11      3.49      3.68
    4    5   10     -3.30     -4.60
    4    5    9     -3.95     -6.69
    4    5    8     -0.73     -8.92
    4    5    7     -2.32      2.70
    4    5    6      5.73      3.89
    4    5    5      3.59      2.88
    4    5    4     -6.47     -0.85
    4    5    3     -5.23      3.54
    4    5    2      1.60     -2.79
    4    5    1      1.13      2.43
    4    5    0      6.19     -0.64
    5    5    0     15.22     -2.41
    5    5    1      6.11     -6.25
    5    5    2      0.53      5.37
    5    5    3     -1.95     -2.39
    5    5    4      7.96     -1.30
    5    5    5      8.64     -7.69
    5    5    6     -1.62     -2.76
    5    5    7      5.27      7.89
    5    5    8     16.23      0.46
    5    5    9      4.33     -3.50
    5    5   10     -0.02      6.47
    5    5   11      3.42      4.47
    5    5   12      9.18      0.12
    5    5   13     -1.03     -0.44
    5    5   14     -0.49     -3.29
    5    5   15      0.39      1.69
    5    5   16     -5.06      2.20
    5    5   17      3.51     -2.29
    5    5   18      0.82    -18.20
    5    5   19     -4.63     -2.87
    5    5   20     -9.23      1.73
    5    5   21     -4.89      6.17
    5    5   22     -0.64      6.29
    5    5   23      1.70      3.50
    5    5   24    -12.49      0.71
    5    5   25     -9.45     10.76
    5    5   26      0.55     -6.63
    5    5   27      0.67      2.40
    5    5   28      9.81      0.18
    0    6    0     13.26      2.27
    0    6    1      0.28      1.89
    0    6    2      1.28     -0.39
    0    6    3     -4.49     -1.64
    0    6    4      3.91     -0.21
    0    6    5      0.08     18.37
    0    6    6    -15.33     -0.38
    0    6    7     -0.81     -1.22
    0    6    8     -3.12      1.37
    0    6    9      0.16     -4.10
    0    6   10      7.76     -0.02
    0    6   11      0.21     -1.93
    0    6   12     -4.21     -0.33
    0    6   13     -0.23    -10.28
    0    6   14     -1.25     -1.50
    0    6   15     -3.85      2.34
    0    6   16     12.04     13.09
    0    6   17      0.82      1.64
    0    6   18      5.21     -2.51
    0    6   19     -1.34      2.87
    0    6   20     -0.67      0.06
    0    6   21     -1.39      3.24
    0    6   22      7.05      0.11
    0    6   23      1.19     -6.92
    0    6   24    -16.19      3.62
    0    6   25     -0.30      3.56
    0    6   26     12.48     -1.88
    0    6   27      0.79    -11.12
    0    6   28     -5.91      8.83
    0    6   29     -0.61     -7.06
    1    6   29      4.29      3.48
    1    6   28      3.57     -7.97
    1    6   27     -1.53      3.56
    1    6   26     -2.63      8.00
    1    6   25     -9.22     -4.81
    1    6   24     -1.67     -5.84
    1    6   23    -13.08      4.16
    1    6   22      3.95     -2.92
    1    6   21     -2.55     -8.16
    1    6   20     -3.24      5.49
    1    6   19     -8.69      3.79
    1    6   18     -8.44     -5.02
    1    6   17      0.88     -6.97
    1    6   16     -5.08     -3.08
    1    6   15      5.70      2.18
    1    6   14      1.35     -3.29
    1    6   13      3.33      2.73
    1    6   12      1.95     -3.50
    1    6   11    -14.70      0.20
    1    6   10     -5.09      8.58
    1    6    9     -1.50      5.88
    1    6    8      1.53     -0.55
    1    6    7     -0.03     -3.13
    1    6    6      3.32      0.76
    1    6    5      8.52    -15.22
    1    6    4     -0.80      4.61
    1    6    3      0.78      7.01
    1    6    2     -3.20     -6.35
    1    6    1      4.19     -5.09
    1    6    0     -7.49      0.60
    2    6   29      2.10      2.61
    2    6   28      6.92     -3.97
    2    6   27      9.51      0.41
    2    6   26      6.36      6.81
    2    6   25      4.06      6.60
    2    6   24     -2.57      2.19
    2    6   23     15.81      2.80
    2    6   22      4.67     -0.69
    2    6   21      8.95     -0.53
    2    6   20      2.48      6.44
    2    6   19      4.86      3.11
    2    6   18     11.34      0.59
    2    6   17     -1.41     -3.30
    2    6   16     -4.38      9.16
    2    6   15      1.25     16.99
    2    6   14     -1.40     -1.36
    2    6   13     -3.49    -10.91
    2    6   12      0.64      4.92
    2    6   11     13.35      1.13
    2    6   10      2.78     -3.58
    2    6    9      2.47      0.89
    2    6    8     10.61      7.52
    2    6    7     -0.83      3.00
    2    6    6     -1.52      0.69
    2    6    5     -7.09      1.54
    2    6    4     -0.66      0.58
    2    6    3      4.32      2.29
    2    6    2      8.62      3.46
    2    6    1     -2.89      2.17
    2    6    0     -5.46     -0.73
    3    6   29     -6.63     -3.49
    3    6   28     -5.37     -4.99
    3    6   27     -8.09      1.04
    3    6   26     -4.26      1.04
    3    6   25      0.60     -2.22
    3    6   24     -8.53     -2.92
    3    6   23    -12.01      2.35
    3    6   22     -0.01    -10.60
    3    6   21     -4.93     -0.78
    3    6   20     -3.79     -1.53
    3    6   19      0.67     -1.36
    3    6   18     -3.08      0.92
    3    6   17      4.76      1.22
    3    6   16      1.12     -7.57
    3    6   15     -2.87    -11.11
    3    6   14     -0.54     -0.23
    3    6   13     -3.60      0.72
    3    6   12     -3.23     -8.24
    3    6   11     -2.25      2.63
    3    6   10     -1.33     -6.44
    3    6    9     -1.58     -3.45
    3    6    8     -0.31     -5.42
    3    6    7      1.12      3.42
    3    6    6     -7.24     -9.05
    3    6    5     -0.23      3.50
    3    6    4     -0.72      0.09
    3    6    3     -6.83     -5.92
    3    6    2     -3.43     -7.75
    3    6    1      6.37      1.09
    3    6    0      6.03     -0.33
    4    6   28      6.76      0.60
    4    6   27      6.44      4.35
    4    6   26     -3.15      0.91
    4    6   25     -3.87      1.54
    4    6   24      9.58      3.09
    4    6   23      1.86     -5.56
    4    6   22     -1.05     -0.58
    4    6   21     -4.11      2.51
    4    6   20      2.89      2.55
    4    6   19      2.06      8.60
    4    6   18     -1.99     -2.83
    4    6   17     -9.48      3.83
    4    6   16     -2.69     -2.43
    4    6   15     -0.30     -4.43
    4    6   14      2.48      3.16
    4    6   13      4.53      1.40
    4    6   12      3.64      7.16
    4    6   11      0.36      4.78
    4    6   10     -2.75      4.53
    4    6    9      2.75     -2.25
    4    6    8      3.08      8.16
    4    6    7      0.45     -3.37
    4    6    6     -0.22      3.78
    4    6    5     -0.28     -2.18
    4    6    4      3.09      5.54
    4    6    3     -3.08      2.24
    4    6    2      2.52     -2.00
    4    6    1     -2.11      1.42
    4    6    0      3.13      0.84
    5    6   28    -10.01      0.11
    5    6   27     -7.03    -10.14
    5    6   26      4.20      6.70
    5    6   25      6.43     -8.94
    5    6   24      3.38      2.49
    5    6   23      4.10     -0.42
    5    6   22     -7.94      5.47
    5    6   21      4.60     -7.28
    5    6   20      4.25     -5.49
    5    6   19      1.64     -6.89
    5    6   18     -0.57      9.77
    5    6   17      3.18     -2.76
    5    6   16      6.42      3.91
    5    6   15      3.73     -2.68
    5    6   14      3.89      0.27
    5    6   13     -2.30      4.08
    5    6   12     -0.10     -1.98
    5    6   11     -5.56      0.70
    5    6   10     -0.33     -0.59
    5    6    9      2.50      6.93
    5    6    8    -14.06     -1.79
    5    6    7     -1.82    -10.46
    5    6    6      6.86     -0.13
    5    6    5      0.81      0.09
    5    6    4     -6.19      2.85
    5    6    3     12.53     -7.93
    5    6    2      1.00     -0.73
    5    6    1     -1.99     -2.57
    5    6    0    -13.90      2.29
    6    6    0      1.45     -0.79
    6    6    1     -2.64      3.49
    6    6    2     -0.14     -1.59
    6    6    3      4.19      3.94
    6    6    4      2.90      0.45
    6    6    5    -11.44     15.88
    6    6    6      1.14     -7.78
    6    6    7      3.94      2.36
    6    6    8      8.11      1.80
    6    6    9      2.86     -4.31
    6    6   10      0.10    -14.02
    6    6   11     -3.18     -2.56
    6    6   12     -4.97      1.49
    6    6   13     -0.62     -0.26
    6    6   14     -0.85      3.30
    6    6   15      1.50      1.52
    6    6   16     -6.45      0.97
    6    6   17     -0.18      0.42
    6    6   18      0.28    -15.17
    6    6   19      2.67      5.39
    6    6   20      2.28     -0.17
    6    6   21    -11.10      9.11
    6    6   22     -0.06     -1.15
    6    6   23     -2.96     -2.89
    6    6   24     -0.95     -0.05
    6    6   25     -5.82      7.66
    6    6   26      0.24    -14.21
    6    6   27      8.41      7.59
    6    6   28      2.69      0.81
    0    7    0      2.89      0.59
    0    7    1     -1.11     -3.14
    0    7    2      5.78      1.17
    0    7    3      1.13     -1.03
    0    7    4      1.97     -1.13
    0    7    5     -0.90     -3.56
    0    7    6     13.24      1.52
    0    7    7      0.21     10.12
    0    7    8      3.72     -2.08
    0    7    9      0.91      4.33
    0    7   10     -8.46      0.81
    0    7   11     -0.77      5.99
    0    7   12      8.49      0.19
    0    7   13     -0.48      0.64
    0    7   14     -9.71      2.59
    0    7   15      2.30      2.14
    0    7   16     -4.84     -4.89
    0    7   17      0.63     10.49
    0    7   18      7.27      0.31
    0    7   19     -2.15      2.80
    0    7   20      0.12     -0.01
    0    7   21      0.37     -3.41
    0    7   22    -20.83      4.24
    0    7   23      0.36      3.81
    0    7   24      7.83     -0.67
    0    7   25      0.09     12.46
    0    7   26      3.90      2.09
    0    7   27      0.15      8.71
    0    7   28     -2.95     -2.40
    1    7   28     -0.56      1.05
    1    7   27     -8.47      0.82
    1    7   26     -5.75    -13.75
    1    7   25      0.89     -6.04
    1    7   24      5.73      1.07
    1    7   23     -3.23     -5.16
    1    7   22      0.49     -7.64
    1    7   21     -0.26      1.42
    1    7   20     -1.30      1.45
    1    7   19      9.99     -4.63
    1    7   18     -2.95      5.63
    1    7   17      1.00      0.69
    1    7   16      1.59     -2.19
    1    7   15     -4.49     -5.17
    1    7   14      8.41     -3.01
    1    7   13     -6.19      0.84
    1    7   12     -1.22      0.24
    1    7   11     -0.75     -5.29
    1    7   10      1.30     -1.84
    1    7    9      5.98     -8.43
    1    7    8     -9.70      2.93
    1    7    7      3.88     -0.70
    1    7    6      0.45     -5.02
    1    7    5     -6.57      8.43
    1    7    4      1.27     -5.62
    1    7    3     -2.92     -5.17
    1    7    2     -7.25    -11.15
    1    7    1     -4.50      0.81
    1    7    0     -2.29     -1.25
    2    7   28     -9.12      9.15
    2    7   27      5.99     -1.54
    2    7   26      1.01      5.61
    2    7   25      1.90      0.68
    2    7   24      6.32      0.50
    2    7   23      0.80     -0.37
    2    7   22      1.99      0.19
    2    7   21     -6.14      7.97
    2    7   20      8.46      2.93
    2    7   19     -3.64     -9.57
    2    7   18     -6.39      1.36
    2    7   17      0.43      6.27
    2    7   16      4.21     -7.42
    2    7   15      0.96     -8.54
    2    7   14     -1.60      1.59
    2    7   13     -4.23      9.72
    2    7   12     -3.12      2.38
    2    7   11     -0.09      1.75
    2    7   10      1.47      0.71
    2    7    9     -2.60      4.92
    2    7    8     -2.96     -2.42
    2    7    7     -1.97     -0.51
    2    7    6      0.82      2.94
    2    7    5      8.25     -4.12
    2    7    4      0.82      1.58
    2    7    3      1.59     -4.69
    2    7    2      0.04      5.94
    2    7    1     -4.16      5.65
    2    7    0     -2.52      0.91
    3    7   28     -3.93     -0.30
    3    7   27      2.09     -9.12
    3    7   26      1.32    -12.37
    3    7   25     -2.62     -3.90
    3    7   24     -3.09      1.70
    3    7   23      2.44     -0.36
    3    7   22     -4.51      4.79
    3    7   21      2.06      4.74
    3    7   20      0.19     -9.17
    3    7   19      0.73      4.34
    3    7   18      1.83     -2.74
    3    7   17     -0.97     -5.53
    3    7   16     -2.82     11.91
    3    7   15      7.52     -0.22
    3    7   14      3.75      0.29
    3    7   13      4.41     -1.66
    3    7   12      2.23      0.79
    3    7   11      4.33     -5.72
    3    7   10      0.67      0.69
    3    7    9      0.57     -3.34
    3    7    8     -0.42     -1.39
    3    7    7     -7.52     -0.40
    3    7    6      4.50      3.72
    3    7    5      1.36     -7.35
    3    7    4     -4.65     -0.89
    3    7    3     -0.06      3.96
    3    7    2      2.50      0.48
    3    7    1      1.26      0.70
    3    7    0      0.44     -0.72
    4    7   28      7.90      0.42
    4    7   27     -2.31      6.60
    4    7   26      1.62      1.22
    4    7   25      6.54      4.38
    4    7   24     -5.07      0.41
    4    7   23     -5.36     -6.23
    4    7   22     -0.60     10.17
    4    7   21      5.06     -2.39
    4    7   20     -1.77      4.39
    4    7   19     -8.66     -4.33
    4    7   18      2.03     -5.17
    4    7   17      2.06      3.33
    4    7   16     -0.40     -4.60
    4    7   15     -1.25      8.20
    4    7   14     -8.45     -0.73
    4    7   13     -9.25      1.70
    4    7   12      0.20     -2.21
    4    7   11      2.68     -0.17
    4    7   10      4.02      1.96
    4    7    9     -3.49      5.09
    4    7    8     -1.43      1.51
    4    7    7      2.38      0.22
    4    7    6      5.75      0.14
    4    7    5     -1.65      6.06
    4    7    4      3.24     -0.64
    4    7    3      7.78      3.57
    4    7    2     -0.82      2.02
    4    7    1     -5.09     -1.77
    4    7    0      1.87      2.36
    5    7   27     -3.48      4.89
    5    7   26     -2.33      1.96
    5    7   25     -2.01      5.05
    5    7   24      2.59     -0.41
    5    7   23      5.31      6.06
    5    7   22      3.37    -11.54
    5    7   21      7.20      4.70
    5    7   20     -4.06      2.84
    5    7   19      3.55     -7.02
    5    7   18      0.72     -0.05
    5    7   17     -2.57     -0.44
    5    7   16     -1.90     -2.04
    5    7   15      0.72      1.85
    5    7   14      1.34     -0.21
    5    7   13     -0.14     -5.46
    5    7   12      2.25      1.00
    5    7   11      5.02     -2.92
    5    7   10     -2.45     -5.18
    5    7    9     -3.39      3.71
    5    7    8     -6.28     -4.75
    5    7    7      5.39      6.80
    5    7    6     -7.90     -6.16
    5    7    5      2.32     -6.57
    5    7    4      2.55      3.52
    5    7    3    -11.23     -2.97
    5    7    2     -1.88      4.18
    5    7    1      4.02      1.62
    5    7    0     -1.07     -5.31
    6    7   27     -3.05      1.10
    6    7   26     -0.55      1.89
    6    7   25    -11.49     -4.80
    6    7   24     -1.16     -0.44
    6    7   23     -5.50      1.41
    6    7   22      3.85      2.37
    6    7   21     -3.56     -7.58
    6    7   20      0.24     -3.40
    6    7   19     -9.21     11.72
    6    7   18      7.12      9.77
    6    7   17     -1.77      3.84
    6    7   16     -2.26      4.71
    6    7   15      5.38     -3.91
    6    7   14     -1.36      1.34
    6    7   13      5.62      4.27
    6    7   12      3.51      0.23
    6    7   11     -1.20     -5.01
    6    7   10      1.71      6.79
    6    7    9     -2.88     -4.97
    6    7    8     11.64      0.17
    6    7    7     -3.17      2.91
    6    7    6     -0.60      7.26
    6    7    5      2.38     -2.11
    6    7    4     -6.60     -2.92
    6    7    3     -0.92     -8.13
    6    7    2     -4.56     -7.79
    6    7    1      2.63      2.00
    6    7    0      7.85      1.18
    7    7    0     -4.67      0.26
    7    7    1      0.03      1.86
    7    7    2     -0.19      3.09
    7    7    3      4.11      3.82
    7    7    4     14.72      0.89
    7    7    5      0.94     -0.85
    7    7    6     -0.54      3.50
    7    7    7     -1.41     -0.91
    7    7    8     -8.51     -0.94
    7    7    9     -4.68      4.77
    7    7   10     -0.30      0.91
    7    7   11      1.30      1.64
    7    7   12     -9.18     -0.58
    7    7   13      3.60     -1.74
    7    7   14      0.09     -6.90
    7    7   15     -5.27     -3.58
    7    7   16      8.08      0.67
    7    7   17      0.21      0.19
    7    7   18      0.53     -7.04
    7    7   19     -1.31     -4.33
    7    7   20     -2.87     -0.48
    7    7   21      9.01     -8.04
    7    7   22     -0.46     -3.35
    7    7   23      2.43      0.25
    7    7   24      0.60      0.01
    7    7   25     13.91    -13.52
    7    7   26      0.13     -2.25
    7    7   27     -2.35     -1.69
    0    8    0      0.35     -1.27
    0    8    1      0.98    -14.19
    0    8    2     -1.19     -0.96
    0    8    3      0.27     -9.26
    0    8    4     -4.18      4.87
    0    8    5      0.16      0.57
    0    8    6     -5.09     -1.44
    0    8    7     -2.06     -2.88
    0    8    8      5.26      0.70
    0    8    9      0.05      7.11
    0    8   10      4.14     -0.88
    0    8   11      0.79     -5.52
    0    8   12     -6.90      0.41
    0    8   13     -1.07     -7.55
    0    8   14      6.64      0.37
    0    8   15     -0.09     -6.01
    0    8   16     -0.69      0.37
    0    8   17      0.80    -10.05
    0    8   18     -1.20     -0.01
    0    8   19      0.80     -8.91
    0    8   20      4.74      0.93
    0    8   21     -3.06     -3.03
    0    8   22      5.53     -0.23
    0    8   23      0.95     -1.69
    0    8   24     -4.39      0.55
    0    8   25     -0.40    -12.83
    0    8   26     -0.20     -0.32
    0    8   27      0.70    -11.69
    0    8   28      5.86     -0.44
    1    8   28      2.94     -4.33
    1    8   27      6.73      2.94
    1    8   26     -3.76      1.75
    1    8   25     -0.81      7.43
    1    8   24     -3.15     -5.74
    1    8   23      4.47     -4.33
    1    8   22      0.71     12.68
    1    8   21     -2.21      7.06
    1    8   20     -1.30     -6.74
    1    8   19     -1.73      5.12
    1    8   18      5.42      0.62
    1    8   17     -4.18     -2.03
    1    8   16     -2.54      3.95
    1    8   15      5.86      9.39
    1    8   14     -2.94     -5.81
    1    8   13      0.22      3.13
    1    8   12     -2.43      4.91
    1    8   11     -1.64      6.54
    1    8   10     -1.38      2.05
    1    8    9     -5.34     -5.75
    1    8    8      5.19     -0.33
    1    8    7      5.04     -2.21
    1    8    6     -8.95      2.32
    1    8    5      0.44      4.81
    1    8    4      5.55     -1.73
    1    8    3     -6.34      5.50
    1    8    2      4.69      4.33
    1    8    1     -0.36      9.18
    1    8    0     -6.27      0.65
    2    8   28      9.39      6.31
    2    8   27     -8.14      5.17
    2    8   26     -1.21      4.51
    2    8   25      3.51      1.43
    2    8   24     -0.38      0.31
    2    8   23     -3.70      9.87
    2    8   22      0.91     -3.09
    2    8   21      8.74     -7.72
    2    8   20     -4.52      5.37
    2    8   19      4.37      6.58
    2    8   18     -2.62      0.24
    2    8   17     -0.18      0.50
    2    8   16      2.20     -4.84
    2    8   15     -2.51     -0.57
    2    8   14     -1.95      3.01
    2    8   13     12.84     -7.66
    2    8   12      0.93      1.83
    2    8   11     -0.49      7.15
    2    8   10      3.49      1.52
    2    8    9      6.00      2.13
    2    8    8      2.48     -0.96
    2    8    7      1.83     -3.92
    2    8    6      1.17      1.86
    2    8    5     -4.65     -2.12
    2    8    4     -3.31     -0.67
    2    8    3      2.32      4.65
    2    8    2     -0.87     -4.83
    2    8    1     14.45     -6.42
    2    8    0      9.21     -0.90
    3    8   28     -0.09    -11.15
    3    8   27     -5.63     -0.73
    3    8   26     -5.68      6.77
    3    8   25     -4.12     -2.95
    3    8   24      4.36     -5.99
    3    8   23      1.87     -2.32
    3    8   22      3.57     -2.81
    3    8   21     -6.83     -2.22
    3    8   20     -0.36     -4.61
    3    8   19     -0.56     -0.42
    3    8   18     -0.83     -2.81
    3    8   17     -1.96      1.94
    3    8   16      2.43      1.61
    3    8   15     -7.33      3.05
    3    8   14     -4.10      4.13
    3    8   13    -10.01      0.93
    3    8   12      3.00     -0.18
    3    8   11     -6.79     -2.01
    3    8   10      0.00     -5.68
    3    8    9     -1.45     -8.32
    3    8    8     -4.66     -5.09
    3    8    7      3.08     -0.49
    3    8    6     -5.70     -2.15
    3    8    5      0.35      7.13
    3    8    4      5.25      2.71
    3    8    3     -0.62     -0.35
    3    8    2      1.50      3.48
    3    8    1     -8.38      0.53
    3    8    0     -8.28      1.65
    4    8   27     10.38    -10.51
    4    8   26      8.12     -4.10
    4    8   25     -4.29     -4.14
    4    8   24     -7.34     -2.27
    4    8   23      2.98      4.56
    4    8   22      4.88      1.34
    4    8   21     -6.65     -2.67
    4    8   20      0.76      7.67
    4    8   19      2.17     -6.90
    4    8   18      0.18      4.39
    4    8   17      5.33     -6.90
    4    8   16     -0.35     -0.14
    4    8   15     -0.15      2.15
    4    8   14      8.27     -7.03
    4    8   13      9.85      1.18
    4    8   12      0.78     -6.32
    4    8   11     -2.09      1.73
    4    8   10      2.61      1.86
    4    8    9      0.14      2.15
    4    8    8      3.57      4.18
    4    8    7     -0.66      2.20
    4    8    6     -1.05      5.18
    4    8    5     -0.17     -0.39
    4    8    4     -0.22     -1.12
    4    8    3     -3.76     -7.09
    4    8    2      2.99     -1.94
    4    8    1      9.02     -5.04
    4    8    0     -2.92     -2.61
    5    8   27      2.31      3.21
    5    8   26     -2.51      5.78
    5    8   25      5.99      3.92
    5    8   24     -1.78     10.24
    5    8   23      1.41      4.82
    5    8   22      1.03     -1.96
    5    8   21     -0.64      4.60
    5    8   20     -0.27     -7.83
    5    8   19      7.23      8.59
    5    8   18     -6.36     -1.54
    5    8   17     -1.22     -2.71
    5    8   16     -0.52      1.08
    5    8   15     -4.05     -0.61
    5    8   14     -5.50      2.45
    5    8   13      2.70     -3.70
    5    8   12     -7.23      3.89
    5    8   11      0.28     -0.42
    5    8   10     -1.93      0.39
    5    8    9      3.52      1.10
    5    8    8      0.21     -2.47
    5    8    7     -1.94     -0.62
    5    8    6     -0.02      2.03
    5    8    5     -6.61      0.79
    5    8    4      0.33    -10.77
    5    8    3      4.65      8.71
    5    8    2     -4.42     -2.97
    5    8    1     -9.92      3.02
    5    8    0      0.16      2.17
    6    8   26     -8.33      0.11
    6    8   25     -1.25     -2.02
    6    8   24      7.21     -5.41
    6    8   23      0.21    -12.65
    6    8   22     -2.64     -1.39
    6    8   21     -2.87      7.88
    6    8   20      3.20      5.51
    6    8   19     -4.75     -8.36
    6    8   18     -3.33     -0.61
    6    8   17      2.00      1.48
    6    8   16      3.68     -1.31
    6    8   15      5.21      3.76
    6    8   14      0.20      2.87
    6    8   13     -0.92     -3.64
    6    8   12      0.52      1.08
    6    8   11     -2.66      4.98
    6    8   10      2.07      3.43
    6    8    9      0.04     -3.23
    6    8    8     -6.48      3.06
    6    8    7      0.66     -4.43
    6    8    6      3.74      0.46
    6    8    5      4.96     -3.09
    6    8    4     -1.59      3.25
    6    8    3      4.79      4.33
    6    8    2      6.17     10.50
    6    8    1      2.44     -0.95
    6    8    0      3.22      0.50
    7    8   26      4.51     -4.30
    7    8   25     -5.20      1.92
    7    8   24     -4.40     -5.40
    7    8   23      5.49      3.72
    7    8   22      3.39      2.03
    7    8   21     -7.84     -2.09
    7    8   20     -6.39     -3.87
    7    8   19      0.40      1.14
    7    8   18      3.31      0.55
    7    8   17     -0.40     -0.10
    7    8   16      2.49      3.25
    7    8   15     -4.49      0.05
    7    8   14      8.21     -2.76
    7    8   13     -4.24      7.40
    7    8   12      5.20     -2.43
    7    8   11      4.33      0.65
    7    8   10     -2.01      0.17
    7    8    9      0.74      0.93
    7    8    8      1.93      2.21
    7    8    7      2.59     -0.23
    7    8    6      5.92     -9.62
    7    8    5     -2.69      1.04
    7    8    4     -2.34      2.28
    7    8    3     -0.77     -2.64
    7    8    2     -5.62      1.89
    7    8    1     -0.16     -3.73
    7    8    0     -1.91     -0.09
    8    8    0      7.74     -0.77
    8    8    1      0.03      1.59
    8    8    2     -1.88      0.68
    8    8    3     -0.65     -2.77
    8    8    4      3.47     -1.34
    8    8    5     -8.15      6.95
    8    8    6     -0.09     -3.11
    8    8    7      0.50      0.38
    8    8    8     -5.53     -0.33
    8    8    9      5.52     -5.10
    8    8   10      0.50     -7.66
    8    8   11     -8.64     -4.35
    8    8   12     -6.67      0.53
    8    8   13     -1.00      0.76
    8    8   14     -0.42     -2.10
    8    8   15     -1.51     -2.21
    8    8   16     -4.48      0.61
    8    8   17      3.62     -4.07
    8    8   18      1.17     -9.13
    8    8   19      7.69      7.19
    8    8   20      1.65      0.07
    8    8   21      7.68     -6.40
    8    8   22     -0.30     15.87
    8    8   23     -3.89     -5.21
    8    8   24      6.36     -1.03
    8    8   25     -2.53      2.76
    0    9    0      7.83      0.52
    0    9    1     -0.84      0.17
    0    9    2    -14.50      0.69
    0    9    3      0.21     -6.27
    0    9    4    -10.70     -6.33
    0    9    5      0.01    -10.06
    0    9    6     -4.09      0.92
    0    9    7      0.35     -6.27
    0    9    8     -3.75      1.37
    0    9    9     -0.26      6.20
    0    9   10     -5.06     -0.86
    0    9   11      0.53      1.52
    0    9   12      5.41      0.30
    0    9   13     -0.81     -1.11
    0    9   14     -1.96     -0.07
    0    9   15      0.87     -1.04
    0    9   16     -0.33      0.71
    0    9   17     -0.44      5.78
    0    9   18     -4.81     -0.49
    0    9   19     -2.31      1.20
    0    9   20     -8.83      1.76
    0    9   21      3.00     -1.30
    0    9   22     -4.61      0.67
    0    9   23     -0.59      2.48
    0    9   24     -6.55      0.57
    0    9   25      0.16     -5.63
    0    9   26    -17.45      0.61
    0    9   27     -0.36     -5.26
    1    9   27      4.79     -0.29
    1    9   26     21.05      0.97
    1    9   25      7.40      0.27
    1    9   24      6.30     -0.66
    1    9   23     -1.61      6.27
    1    9   22      5.20     -8.97
    1    9   21     11.75     -0.09
    1    9   20      4.68      1.54
    1    9   19     -4.13     -4.23
    1    9   18      1.48      0.65
    1    9   17     12.82      3.88
    1    9   16      6.08      1.63
    1    9   15     -3.27      0.44
    1    9   14     -5.86      1.34
    1    9   13     -3.93      2.22
    1    9   12      4.89     -5.15
    1    9   11      2.39     -3.16
    1    9   10      3.65      3.71
    1    9    9      2.50      2.30
    1    9    8     -6.02     -0.74
    1    9    7     -8.40      3.22
    1    9    6     13.84     -3.75
    1    9    5      5.02      0.61
    1    9    4      2.43      3.42
    1    9    3      1.13      8.66
    1    9    2      9.13      1.26
    1    9    1     -3.46     -0.88
    1    9    0     -0.08     -0.30
    2    9   27      0.24      3.62
    2    9   26     -3.42      1.35
    2    9   25    -11.43      7.69
    2    9   24     -4.96     11.24
    2    9   23     -8.19    -13.05
    2    9   22     -6.19     10.06
    2    9   21     -6.78      0.34
    2    9   20     -1.93     -6.35
    2    9   19      5.48      4.81
    2    9   18      3.07     -5.80
    2    9   17     -4.63     -6.40
    2    9   16     -4.50      7.87
    2    9   15     -4.85    -10.02
    2    9   14      5.97      4.33
    2    9   13      0.35     -2.01
    2    9   12     -2.64      0.64
    2    9   11      6.33     -4.31
    2    9   10     -6.06     -1.50
    2    9    9     -1.39      2.55
    2    9    8      4.07      1.82
    2    9    7     -5.45     -0.18
    2    9    6      0.90      3.26
    2    9    5      3.85     -0.96
    2    9    4      1.54     -1.47
    2    9    3      2.58     -6.61
    2    9    2    -11.11      0.12
    2    9    1     -3.61      6.17
    2    9    0      0.49      1.83
    3    9   27      3.75     -0.60
    3    9   26      2.52    -16.72
    3    9   25      8.61     -5.82
    3    9   24      0.20     -3.45
    3    9   23      7.32      1.25
    3    9   22     -6.16     -4.87
    3    9   21      5.14      2.11
    3    9   20     -3.06      4.84
    3    9   19     -9.79     -4.05
    3    9   18     12.60      2.72
    3    9   17     -1.06      7.95
    3    9   16     -7.36    -11.68
    3    9   15      3.43     12.55
    3    9   14     -1.96     -7.44
    3    9   13      6.79      3.87
    3    9   12      0.43     -0.22
    3    9   11     -4.16     -3.89
    3    9   10     -2.38     -1.64
    3    9    9     -3.45      1.19
    3    9    8     -3.48     -1.81
    3    9    7      4.03      1.31
    3    9    6      0.21     -5.37
    3    9    5     -2.55     -3.08
    3    9    4     -1.50     -0.36
    3    9    3     -4.10     -3.94
    3    9    2     -2.46      4.39
    3    9    1     -2.54     -2.46
    3    9    0     15.21     -4.48
    4    9   27     -5.15      5.34
    4    9   26     -5.06     10.20
    4    9   25      0.55      8.30
    4    9   24     16.44      5.00
    4    9   23     -5.56      2.44
    4    9   22     -0.79     -7.71
    4    9   21      3.24     -6.73
    4    9   20      5.15     -6.88
    4    9   19      8.60      5.29
    4    9   18    -11.26      8.81
    4    9   17     -1.62     -0.57
    4    9   16      2.14      4.12
    4    9   15      4.87    -16.46
    4    9   14     -1.18      2.39
    4    9   13     -8.85      1.46
    4    9   12     -4.04      4.98
    4    9   11     -2.20      4.59
    4    9   10     -3.42     -0.85
    4    9    9      6.98      3.39
    4    9    8      7.51      7.55
    4    9    7      0.79      8.22
    4    9    6      2.22      0.01
    4    9    5      4.00      3.09
    4    9    4     -6.68      0.76
    4    9    3      0.92      6.07
    4    9    2     -3.73     -0.94
    4    9    1     -2.53      0.55
    4    9    0      8.14      5.07
    5    9   26      5.05     -5.09
    5    9   25     -4.11     -2.62
    5    9   24     -3.93     -6.45
    5    9   23     -7.00     -3.12
    5    9   22     -8.61     13.51
    5    9   21     -4.31     -6.00
    5    9   20     -0.17      1.11
    5    9   19    -10.35      4.71
    5    9   18      6.09     -4.38
    5    9   17      0.04     11.50
    5    9   16      0.54     -0.23
    5    9   15     -5.50     -1.20
    5    9   14      9.96      1.85
    5    9   13      3.05      1.99
    5    9   12      7.98     -3.79
    5    9   11      4.56     -4.35
    5    9   10     -1.18      2.53
    5    9    9     -4.06     -8.98
    5    9    8      6.46      1.31
    5    9    7     -3.18    -10.59
    5    9    6     -2.45     -7.44
    5    9    5      2.90     -6.89
    5    9    4     -3.33      1.65
    5    9    3     -1.64     -4.96
    5    9    2      4.62      0.28
    5    9    1      5.93     -0.79
    5    9    0     -4.77     -0.78
    6    9   26      6.48      5.05
    6    9   25     12.92     -1.34
    6    9   24    -14.96     -1.62
    6    9   23      4.63      3.20
    6    9   22      0.31     -4.62
    6    9   21     10.11     -0.07
    6    9   20      5.56      4.51
    6    9   19      7.45     -6.71
    6    9   18      3.89      3.50
    6    9   17      3.69     -9.13
    6    9   16     -3.93     -2.41
    6    9   15      0.02      1.02
    6    9   14     -4.36     -5.58
    6    9   13      0.61      0.92
    6    9   12     -2.49      3.65
    6    9   11      1.51      1.99
    6    9   10      0.98     -0.35
    6    9    9     -4.74      5.33
    6    9    8      0.39     -3.56
    6    9    7      0.18      3.12
    6    9    6     -1.28      4.29
    6    9    5      0.02      8.21
    6    9    4      3.25      1.85
    6    9    3     -0.31      4.08
    6    9    2      0.13     -3.34
    6    9    1      1.71     -0.50
    6    9    0     -1.62     -0.85
    7    9   25     -8.80      6.30
    7    9   24     14.51      2.24
    7    9   23     -7.50      2.59
    7    9   22     -3.67     -4.57
    7    9   21      0.84      6.25
    7    9   20      2.71     -3.09
    7    9   19     -0.67      3.38
    7    9   18     -0.04      2.87
    7    9   17     -4.33     -1.93
    7    9   16     -3.85     -3.45
    7    9   15      4.55      2.02
    7    9   14     -9.13      3.35
    7    9   13     -1.02     -6.47
    7    9   12     -2.11     -4.48
    7    9   11      0.37      6.53
    7    9   10     -3.77     -7.18
    7    9    9      4.80     -0.03
    7    9    8     -0.09     -5.58
    7    9    7     -4.80      4.28
    7    9    6     -3.89      5.41
    7    9    5     -2.49     -6.29
    7    9    4      1.05     -1.78
    7    9    3     -2.77      1.47
    7    9    2      4.40     -8.22
    7    9    1     -2.96      0.78
    7    9    0    -11.44     -0.90
    8    9   25      3.49    -10.64
    8    9   24     -5.28      3.69
    8    9   23      9.19     -5.15
    8    9   22     -4.26     -8.97
    8    9   21    -13.73      1.84
    8    9   20     -0.07     -4.65
    8    9   19     -4.09     -0.33
    8    9   18     -0.79      3.89
    8    9   17      0.57      4.46
    8    9   16     -1.91      0.10
    8    9   15      1.55      1.27
    8    9   14      8.41      5.28
    8    9   13      0.61     -0.57
    8    9   12      3.23      3.93
    8    9   11     -2.68      2.40
    8    9   10     -2.04      7.90
    8    9    9     -9.99     -6.14
    8    9    8      3.14      4.61
    8    9    7      7.12     -4.31
    8    9    6     -3.76      8.53
    8    9    5     11.40     -1.94
    8    9    4     -5.95      4.17
    8    9    3     -1.59      1.09
    8    9    2      7.17      1.56
    8    9    1     -3.41     -4.88
    8    9    0      3.98      2.70
    9    9    0    -16.50     -4.25
    9    9    1     -2.91      4.52
    9    9    2     -2.05     -3.09
    9    9    3      2.72      1.66
    9    9    4      8.84      0.40
    9    9    5     -3.61      4.27
    9    9    6      1.61    -11.71
    9    9    7      0.99      1.87
    9    9    8      9.11     -0.46
    9    9    9      0.87     -2.25
    9    9   10     -1.43     -9.21
    9    9   11      4.61      3.93
    9    9   12      1.21      0.53
    9    9   13      4.53     -3.00
    9    9   14      0.28     -2.25
    9    9   15     -6.21     -5.26
    9    9   16      3.82     -0.05
    9    9   17     -4.92      5.85
    9    9   18     -0.21     -3.81
    9    9   19     -0.40     -0.72
    9    9   20      1.46      0.27
    9    9   21      6.31     -6.54
    9    9   22      1.37     13.46
    9    9   23      1.09      7.15
    9    9   24     -1.64      0.13
    0   10    0    -12.26      0.13
    0   10    1     -0.64      0.47
    0   10    2      5.36     -0.86
    0   10    3      0.20      2.71
    0   10    4      4.15      2.80
    0   10    5     -4.30     -0.64
    0   10    6     -7.00      1.04
    0   10    7      1.48     -1.61
    0   10    8      6.10     -0.94
    0   10    9      0.09      1.15
    0   10   10      4.84     -0.18
    0   10   11     -1.28      2.73
    0   10   12    -14.43      0.15
    0   10   13      1.26     -2.70
    0   10   14      2.90      0.01
    0   10   15      0.23      2.88
    0   10   16     -0.78     -2.69
    0   10   17      0.74     -3.54
    0   10   18     -4.93      0.99
    0   10   19      2.24      5.41
    0   10   20     -1.23      0.63
    0   10   21     -0.32      3.58
    0   10   22    -12.53     -1.27
    0   10   23     -0.23      1.70
    0   10   24    -13.83      0.92
    0   10   25      0.48     18.02
    0   10   26      3.05      0.00
    1   10   26    -12.12     -4.14
    1   10   25     -2.27    -13.00
    1   10   24      6.84      9.48
    1   10   23     19.07     -0.66
    1   10   22      4.43     -3.47
    1   10   21    -13.92     -3.16
    1   10   20      3.72     -2.27
    1   10   19      3.66     -0.15
    1   10   18      2.42      0.52
    1   10   17     -8.02     -7.09
    1   10   16     -2.06     -4.63
    1   10   15      0.37      1.80
    1   10   14     -1.12     -1.43
    1   10   13      2.82      3.03
    1   10   12      1.35      2.81
    1   10   11     -5.16     -3.28
    1   10   10     -0.42     -2.97
    1   10    9     -4.33     -4.69
    1   10    8      0.22     -4.43
    1   10    7      5.73      6.70
    1   10    6     -5.05      5.84
    1   10    5     -4.20     -2.94
    1   10    4      3.48      5.59
    1   10    3      3.54     -0.28
    1   10    2     -6.31     -1.14
    1   10    1      4.62      0.13
    1   10    0      8.23     -0.65
    2   10   26     12.17      4.95
    2   10   25     -5.89     -1.98
    2   10   24      4.84     -5.21
    2   10   23      0.97     10.88
    2   10   22     11.82     -0.20
    2   10   21      9.93     -1.37
    2   10   20     -1.45     -4.55
    2   10   19     -3.31      2.92
    2   10   18     -9.20      4.80
    2   10   17      6.82      7.74
    2   10   16      3.81     -3.47
    2   10   15      4.95     -1.72
    2   10   14      3.35     -4.46
    2   10   13     -1.05      2.16
    2   10   12      6.57     -1.79
    2   10   11      3.37      3.54
    2   10   10      3.54     -2.18
    2   10    9      2.03     -4.42
    2   10    8      0.02     -1.25
    2   10    7      3.60      1.61
    2   10    6      0.40    -10.19
    2   10    5     -2.62      1.14
    2   10    4     -4.05     -2.32
    2   10    3     -4.08     -0.16
    2   10    2     14.46     -1.45
    2   10    1     -1.31     -0.40
    2   10    0    -12.78      0.62
    3   10   26    -13.54      6.44
    3   10   25      3.60     -6.25
    3   10   24     -7.76     -5.20
    3   10   23     -6.98    -13.71
    3   10   22      0.01      4.07
    3   10   21    -13.67     -3.05
    3   10   20      4.56      9.74
    3   10   19     -3.17     -4.36
    3   10   18    -11.51     -5.11
    3   10   17      0.03    -12.57
    3   10   16      7.20      8.35
    3   10   15     -0.15      4.77
    3   10   14      2.73      8.53
    3   10   13      0.06      1.27
    3   10   12     -3.17     -1.26
    3   10   11      3.30     -2.72
    3   10   10     -4.55      6.35
    3   10    9     -5.37      3.41
    3   10    8     -2.96      8.88
    3   10    7      0.58     -3.27
    3   10    6     -0.46      3.93
    3   10    5      0.07      1.38
    3   10    4     -0.84      2.46
    3   10    3      2.02      2.67
    3   10    2      3.18     -0.69
    3   10    1      5.01     -3.71
    3   10    0    -13.53     -0.55
    4   10   26      0.52     -9.77
    4   10   25      0.63      9.08
    4   10   24    -13.53     -4.67
    4   10   23      2.70     13.42
    4   10   22      3.91     -1.42
    4   10   21     10.15     14.00
    4   10   20     -1.34      2.32
    4   10   19     -0.10     -1.83
    4   10   18     11.66     -5.81
    4   10   17      0.76     -2.21
    4   10   16     -3.16     -0.61
    4   10   15     -8.87      4.52
    4   10   14     -6.74      3.91
    4   10   13     -6.85     -6.65
    4   10   12     -0.15     -2.67
    4   10   11     -0.63     -1.08
    4   10   10      5.19     -3.31
    4   10    9     -5.29      2.51
    4   10    8     -4.52     -9.79
    4   10    7      0.70     -2.67
    4   10    6     -0.21      6.04
    4   10    5     -0.98      0.27
    4   10    4     12.03      2.76
    4   10    3      1.80      0.38
    4   10    2      3.69     -5.59
    4   10    1      3.49      3.01
    4   10    0     -9.43     -0.95
    5   10   25     -0.14     -6.94
    5   10   24     16.34      9.34
    5   10   23      7.17    -14.05
    5   10   22      8.92      1.60
    5   10   21      1.16      0.26
    5   10   20    -10.60     -4.67
    5   10   19     -0.10      0.01
    5   10   18     -5.08     -7.69
    5   10   17     -1.65      5.74
    5   10   16      4.14      1.22
    5   10   15     14.41      5.25
    5   10   14      0.83     -3.86
    5   10   13      5.75     -6.74
    5   10   12     -2.24      0.12
    5   10   11     -0.48      1.01
    5   10   10      2.09      4.73
    5   10    9     10.24      2.08
    5   10    8     -3.00     -1.38
    5   10    7     -0.80      0.30
    5   10    6      1.34     -5.88
    5   10    5      0.69      2.08
    5   10    4     -1.86      0.75
    5   10    3     -4.90     -3.73
    5   10    2     -7.73      1.80
    5   10    1     -0.73     -0.44
    5   10    0      7.82     -0.43
    6   10   25     -7.44     -0.55
    6   10   24     -9.31      2.77
    6   10   23      3.43     10.88
    6   10   22     -2.27     -3.55
    6   10   21     -6.76     -6.19
    6   10   20     -3.23      4.89
    6   10   19      3.53      8.00
    6   10   18     -3.84      7.70
    6   10   17     -3.41     -0.18
    6   10   16     -2.32      1.50
    6   10   15     -1.53     -1.77
    6   10   14     -0.97     -2.63
    6   10   13     -5.85      9.71
    6   10   12      3.46     -6.62
    6   10   11     -6.16     -1.90
    6   10   10     -1.29     -0.11
    6   10    9      4.87     -0.52
    6   10    8     -4.00      4.27
    6   10    7     -2.30      1.64
    6   10    6      0.30     -0.41
    6   10    5     -2.09     -2.37
    6   10    4      2.09     -0.04
    6   10    3      0.92     -1.62
    6   10    2     -0.38     -7.86
    6   10    1      1.37      5.54
    6   10    0      0.24      0.13
    7   10   24      2.77     -1.93
    7   10   23    -10.80     -8.34
    7   10   22     10.63      1.58
    7   10   21     -0.96     -7.33
    7   10   20      2.91      0.39
    7   10   19      0.77     -8.85
    7   10   18     -2.29     -4.71
    7   10   17      1.50     -5.14
    7   10   16      7.47     -1.82
    7   10   15     -6.74     -9.32
    7   10   14      4.63      2.17
    7   10   13      1.23      1.34
    7   10   12     -0.17      4.61
    7   10   11     -0.28     -4.10
    7   10   10      4.74      0.27
    7   10    9      1.48      1.76
    7   10    8     -1.09      1.62
    7   10    7      0.88     -1.44
    7   10    6      3.55      2.88
    7   10    5      2.31      3.65
    7   10    4     -2.63      2.17
    7   10    3     -0.97     -5.51
    7   10    2     -5.28      8.58
    7   10    1     -0.67     -0.61
    7   10    0      9.89     -0.17
    8   10   24     -5.45     -2.51
    8   10   23      0.81      5.68
    8   10   22      4.74     -0.38
    8   10   21      9.42      9.14
    8   10   20      1.95     -0.70
    8   10   19     -7.98      2.21
    8   10   18     -0.03     -0.45
    8   10   17      1.80      2.76
    8   10   16     -2.48      0.80
    8   10   15      6.34      9.30
    8   10   14     -4.92      2.66
    8   10   13      4.49     -0.07
    8   10   12      0.04      0.15
    8   10   11     -1.10     -7.13
    8   10   10      2.91      3.72
    8   10    9      2.76      9.56
    8   10    8     -2.27     -7.06
    8   10    7     -6.47     -0.14
    8   10    6      4.43     -5.11
    8   10    5     -4.53     -7.87
    8   10    4      1.22     -1.80
    8   10    3      6.72     -1.34
    8   10    2      0.19     -0.44
    8   10    1      1.99      6.68
    8   10    0      1.80      0.27
    9   10   23      4.51     -8.09
    9   10   22     -8.05      5.76
    9   10   21      7.05     -0.72
    9   10   20     -5.51     -1.30
    9   10   19     -1.45     15.53
    9   10   18      1.22      4.82
    9   10   17      4.03     -5.68
    9   10   16      3.48      0.86
    9   10   15     -1.38     -4.54
    9   10   14     -3.55     -3.66
    9   10   13     -4.28      2.82
    9   10   12     -3.51     -1.44
    9   10   11     -0.89      1.68
    9   10   10     -0.24      5.49
    9   10    9     -0.84     -2.90
    9   10    8     -5.19     -3.29
    9   10    7      1.66     -1.43
    9   10    6      1.89     -3.79
    9   10    5     -1.48      7.20
    9   10    4     -2.62     -0.53
    9   10    3     -4.30      1.93
    9   10    2     -5.30      6.16
    9   10    1      3.62     -7.23
    9   10    0      7.40     -1.61
   10   10    0     11.15      7.88
   10   10    1     -2.15      7.33
   10   10    2      0.58     -8.82
   10   10    3      0.43     -0.21
   10   10    4     -7.50     -0.64
   10   10    5     -0.18     -0.22
   10   10    6     -1.92     23.81
   10   10    7      6.41      5.33
   10   10    8     -3.60     -0.16
   10   10    9      1.15     -2.82
   10   10   10      2.13    -12.27
   10   10   11     -1.59     -2.03
   10   10   12      3.21      0.20
   10   10   13      3.05     -4.10
   10   10   14     -0.13      5.29
   10   10   15      6.02      6.09
   10   10   16     -2.86     -1.41
   10   10   17     -6.99      7.58
   10   10   18     -0.74     -8.57
   10   10   19    -17.70    -18.08
   10   10   20      7.69      1.98
   10   10   21      9.53     -4.90
   10   10   22      0.13    -12.99
    0   11    0     -2.50      1.25
    0   11    1      0.23      5.56
    0   11    2      0.20     -0.81
    0   11    3     -0.62     -0.67
    0   11    4     -6.08     -1.07
    0   11    5      9.34     -5.12
    0   11    6      5.76      0.38
    0   11    7     -2.57      4.57
    0   11    8      0.83      0.46
    0   11    9      1.96      4.19
    0   11   10      0.60      0.03
    0   11   11      0.78      5.08
    0   11   12      9.32      0.02
    0   11   13      0.34     -6.50
    0   11   14     -4.19     -0.80
    0   11   15     -1.65    -12.69
    0   11   16      0.00      0.45
    0   11   17     -0.47     -4.78
    0   11   18     -3.20      0.42
    0   11   19      1.54    -11.56
    0   11   20      0.41      0.13
    0   11   21     -0.30     -1.20
    0   11   22     14.36      2.22
    1   11   26     -1.58     -1.89
    1   11   25     12.22      8.43
    1   11   24      9.59    -17.93
    1   11   23    -14.57    -10.77
    1   11   22     -5.93      7.27
    1   11   21     12.43      3.34
    1   11   20     -0.37     13.91
    1   11   19      1.34     11.67
    1   11   18     -2.85     -2.47
    1   11   17      2.66      8.54
    1   11   16     -0.76     -5.08
    1   11   15     -2.15      1.76
    1   11   14      1.92      0.13
    1   11   13     -5.76      6.22
    1   11   12     -3.21      1.49
    1   11   11      6.64     -1.74
    1   11   10     -0.64      0.48
    1   11    9      4.23     -2.19
    1   11    8     -1.83      6.51
    1   11    7      0.36     -9.09
    1   11    6      0.93      0.75
    1   11    5      2.71     12.20
    1   11    4     -0.89     -2.63
    1   11    3     -8.54     -4.98
    1   11    2     -0.53      0.32
    1   11    1     -9.10     -0.35
    1   11    0     -6.13     -0.04
    2   11   25      4.60      7.11
    2   11   24     -6.78      4.26
    2   11   23     -1.48      5.78
    2   11   22    -14.70     -7.20
    2   11   21    -13.84      1.43
    2   11   20      3.27      2.39
    2   11   19      0.98    -19.05
    2   11   18     15.71    -10.84
    2   11   17     -1.59     -7.14
    2   11   16     -1.06      6.77
    2   11   15      4.92      9.94
    2   11   14      0.25      4.07
    2   11   13      1.42     -4.04
    2   11   12     -1.94     -0.60
    2   11   11      0.12     -2.72
    2   11   10      0.46      0.74
    2   11    9     -3.58      2.48
    2   11    8     -1.68     -2.76
    2   11    7     -6.93      0.67
    2   11    6      1.42      4.84
    2   11    5     -2.03     -3.15
    2   11    4      3.33     -0.34
    2   11    3      6.71      1.97
    2   11    2     -1.27      0.61
    2   11    1      4.65     -5.08
    2   11    0     19.72     -2.04
    3   11   25     -4.15     -4.45
    3   11   24      1.62     10.07
    3   11   23     -0.70      2.58
    3   11   22      5.07     -1.87
    3   11   21     12.39      1.70
    3   11   20      1.88    -12.90
    3   11   19     -0.12      9.96
    3   11   18     -8.39      7.79
    3   11   17     -9.36     14.20
    3   11   16     -3.21     -0.44
    3   11   15     -1.15    -13.96
    3   11   14     -2.51     -6.08
    3   11   13     -3.67     -3.90
    3   11   12      0.33     -1.63
    3   11   11     -4.42      6.34
    3   11   10      0.58      0.47
    3   11    9      5.10     -1.76
    3   11    8      4.68     -6.72
    3   11    7     -3.90      4.53
    3   11    6     -3.17     -5.63
    3   11    5      6.37     -2.41
    3   11    4     -4.41     -1.97
    3   11    3     -0.43     -2.76
    3   11    2     -6.60      2.26
    3   11    1     -1.45      2.68
    3   11    0      3.45      3.95
    4   11   25     -3.84      0.83
    4   11   24      5.96     -3.35
    4   11   23      6.59     -7.10
    4   11   22    -12.40      4.78
    4   11   21     -9.40     -4.35
    4   11   20     -5.41      2.55
    4   11   19      8.22     -3.36
    4   11   18      9.71      8.60
    4   11   17      6.69      2.31
    4   11   16     -0.26      1.83
    4   11   15      6.58      3.94
    4   11   14      1.94     -4.33
    4   11   13      4.86      5.26
    4   11   12      1.80      3.41
    4   11   11     -1.60      2.65
    4   11   10     -0.28      4.09
    4   11    9      6.99     -4.01
    4   11    8      3.41      8.38
    4   11    7     -1.04     -2.14
    4   11    6      5.75      1.65
    4   11    5     -3.28      1.32
    4   11    4     -4.06     -3.52
    4   11    3      3.41      2.68
    4   11    2     -3.04      0.52
    4   11    1     -7.65      4.08
    4   11    0      1.54     -0.07
    5   11   25      4.43     -1.87
    5   11   24      2.08      3.90
    5   11   23     -1.45     10.15
    5   11   22      3.04     -4.46
    5   11   21     -0.15      2.60
    5   11   20      6.18      3.72
    5   11   19     -3.92     -6.80
    5   11   18      1.49     -1.04
    5   11   17     -2.94    -12.22
    5   11   16      3.66    -12.45
    5   11   15     -8.68     -6.86
    5   11   14     -4.48      0.98
    5   11   13     -0.54      5.04
    5   11   12     -5.22      1.17
    5   11   11      3.05      2.79
    5   11   10     -1.18     -9.93
    5   11    9    -10.37     -3.11
    5   11    8     -4.63     -0.43
    5   11    7      7.55     -1.53
    5   11    6     -2.69      7.02
    5   11    5     -4.09     -0.52
    5   11    4      1.67     -3.32
    5   11    3      0.11      2.53
    5   11    2      9.90      5.64
    5   11    1     -0.53     -4.14
    5   11    0     -9.18     -1.59
    6   11   24      0.24     -9.14
    6   11   23    -15.24     -6.35
    6   11   22     -9.97      4.44
    6   11   21      4.46      8.94
    6   11   20      3.48    -11.60
    6   11   19     -2.39      1.67
    6   11   18     -3.43      3.27
    6   11   17      9.84      9.33
    6   11   16     -1.57      9.78
    6   11   15     -9.07      4.56
    6   11   14     -1.57      2.97
    6   11   13     -2.51     -8.60
    6   11   12     -2.56      7.73
    6   11   11      4.10     -8.06
    6   11   10      6.19     -4.96
    6   11    9     -4.33      0.93
    6   11    8      4.47     -7.12
    6   11    7      1.87      2.36
    6   11    6     -3.69     -6.78
    6   11    5      0.32      0.58
    6   11    4     -0.31      0.53
    6   11    3      4.21     -0.93
    6   11    2      0.96      5.92
    6   11    1     -5.94     -4.62
    6   11    0      5.52      1.41
    7   11   23     13.01      0.24
    7   11   22     -0.73     -0.45
    7   11   21     -0.36     -5.23
    7   11   20     -4.34      3.90
    7   11   19     -0.63     -2.54
    7   11   18      2.56     -9.16
    7   11   17      0.06     -5.08
    7   11   16     -3.01     -1.31
    7   11   15      1.51      4.85
    7   11   14     10.91     -0.14
    7   11   13      4.87      4.87
    7   11   12      1.26      1.76
    7   11   11      9.91      5.78
    7   11   10     -5.29      8.90
    7   11    9     -6.38      4.56
    7   11    8      5.84      9.04
    7   11    7      2.80     -3.30
    7   11    6     -2.15      1.35
    7   11    5      1.11      3.71
    7   11    4     -3.89     -1.11
    7   11    3     -5.47      6.19
    7   11    2      0.63     -0.01
    7   11    1      1.00     -2.71
    7   11    0     -8.03      1.04
    8   11   23     -7.22      0.98
    8   11   22     -0.53      3.63
    8   11   21     -1.77      2.27
    8   11   20      5.48      8.64
    8   11   19      3.73      2.52
    8   11   18      0.02     -3.55
    8   11   17      1.22      6.42
    8   11   16     -5.56      3.07
    8   11   15      3.41     -3.57
    8   11   14     -6.70     -7.51
    8   11   13     -4.44     -0.86
    8   11   12      7.29     -8.15
    8   11   11     -4.69      2.51
    8   11   10     -0.69    -10.75
    8   11    9     -3.37    -11.58
    8   11    8      0.78      3.65
    8   11    7      3.65      2.42
    8   11    6     -2.96      2.60
    8   11    5      4.70      0.08
    8   11    4      5.04     -1.81
    8   11    3     -0.95     -1.11
    8   11    2     -0.55     -4.33
    8   11    1      5.16      0.59
    8   11    0     -0.23     -0.19
    9   11   22      1.50    -15.66
    9   11   21     -6.33      5.85
    9   11   20      0.38      8.90
    9   11   19     -0.67    -13.63
    9   11   18      3.51      0.47
    9   11   17     -7.34     -5.92
    9   11   16      1.89      0.88
    9   11   15     -2.24      3.75
    9   11   14      4.32      2.07
    9   11   13      1.27     -0.06
    9   11   12     -5.21      3.70
    9   11   11      3.06     -1.23
    9   11   10     -7.19      1.23
    9   11    9      2.79      0.95
    9   11    8     -6.55     -1.38
    9   11    7    -12.75      0.17
    9   11    6      4.80     -5.18
    9   11    5     -0.73      2.76
    9   11    4     -0.08     -2.33
    9   11    3      7.12      0.47
    9   11    2      7.98     -3.46
    9   11    1     -3.10      0.79
    9   11    0     -8.88      0.15
   10   11   21    -11.31     -1.71
   10   11   20    -10.83    -17.67
   10   11   19     13.34      8.05
   10   11   18     -1.78      4.77
   10   11   17      7.91     -2.08
   10   11   16      1.30      9.43
   10   11   15     -3.08     -2.43
   10   11   14      0.40      0.59
   10   11   13     -2.41     -1.86
   10   11   12      1.92      3.69
   10   11   11     -0.25      0.25
   10   11   10      3.24      7.48
   10   11    9      3.81      5.84
   10   11    8      5.41      2.53
   10   11    7      2.50     -4.12
   10   11    6     -5.21     -3.90
   10   11    5     -2.62    -10.84
   10   11    4      5.02     12.19
   10   11    3    -12.81      0.10
   10   11    2      0.75     -2.26
   10   11    1      3.59     -1.53
   10   11    0    -12.93     -1.85
   11   11    0     -7.31      0.41
   11   11    1     -2.17      1.55
   11   11    2     -0.40     14.40
   11   11    3      7.35      4.08
   11   11    4      0.68     -0.42
   11   11    5      8.57     -8.83
   11   11    6     -0.44     -2.82
   11   11    7      7.01     10.03
   11   11    8      6.23     -0.83
   11   11    9     -3.60      1.65
   11   11   10      0.30     -8.95
   11   11   11      0.14     -1.91
   11   11   12     -1.05      0.22
   11   11   13      1.53     -0.45
   11   11   14      0.39    -18.19
   11   11   15      1.58      2.46
   11   11   16     -0.32     -0.29
   11   11   17     -6.21      4.41
   11   11   18     -2.63     -7.53
   11   11   19      1.53      1.59
   11   11   20      4.97      0.08
    0   12    0     -3.11     -0.26
    0   12    1     -0.98      1.57
    0   12    2     -2.16      0.65
    0   12    3      0.65      0.89
    0   12    4     -3.21     -0.28
    0   12    5     -4.26      7.22
    0   12    6      0.17      0.16
    0   12    7      6.90     12.87
    0   12    8     -2.26      0.35
    0   12    9     -4.81     -3.18
    0   12   10      3.94      0.28
    0   12   11     -0.54      2.61
    0   12   12     -4.29     -0.39
    0   12   13      0.43      0.47
    0   12   14      6.44      0.25
    0   12   15      0.16     -3.97
    0   12   16      0.07      0.13
    1   12   25     -2.03     -1.18
    1   12   24    -13.16     13.58
    1   12   23     15.06      1.67
    1   12   22      7.23      4.11
    1   12   21      6.26      2.37
    1   12   20     -9.39     -4.09
    1   12   19     -4.52     -3.01
    1   12   18      6.77     -0.41
    1   12   17     -6.17      3.40
    1   12   16     -7.84     -5.19
    1   12   15     -5.11      2.93
    1   12   14      0.49     -3.05
    1   12   13      2.56     -3.71
    1   12   12      2.75     -1.80
    1   12   11     -0.76     -3.18
    1   12   10     -3.58      3.07
    1   12    9      1.35     -1.08
    1   12    8      5.80      2.71
    1   12    7     -1.09      0.27
    1   12    6     -1.73      0.37
    1   12    5      2.84     -7.92
    1   12    4      0.99     -0.48
    1   12    3      1.34      2.54
    1   12    2      2.80      2.54
    1   12    1      2.43     -3.19
    1   12    0     -3.32     -0.16
    2   12   24      8.19      2.21
    2   12   23     -6.33     -5.16
    2   12   22      3.01     -6.52
    2   12   21      0.11     -3.21
    2   12   20      1.76     -6.23
    2   12   19     -4.18     -1.90
    2   12   18     -9.50     20.45
    2   12   17      4.37     -4.15
    2   12   16      8.42      6.34
    2   12   15      2.99     -1.45
    2   12   14     -5.47      2.50
    2   12   13      2.41      5.32
    2   12   12     -3.04     -3.38
    2   12   11     -8.02      4.55
    2   12   10     -5.15     -0.32
    2   12    9      2.41      1.82
    2   12    8     -3.75      3.20
    2   12    7      6.26     -9.04
    2   12    6     -1.62     -5.67
    2   12    5     -2.50     -3.70
    2   12    4      2.70     -2.61
    2   12    3     -1.11      2.26
    2   12    2      2.35     -1.53
    2   12    1     -2.35      3.96
    2   12    0      7.10      1.22
    3   12   24     -4.56    -13.54
    3   12   23      7.61     -7.05
    3   12   22     -1.50      2.53
    3   12   21      0.37      3.20
    3   12   20    -12.61      0.80
    3   12   19      5.02     14.50
    3   12   18      7.23    -16.38
    3   12   17     -5.24     -2.48
    3   12   16     -4.56    -11.06
    3   12   15     -4.03     -5.24
    3   12   14      7.48     -0.39
    3   12   13      1.48     -4.57
    3   12   12      2.55      1.04
    3   12   11      0.21     -3.37
    3   12   10      6.37     -8.11
    3   12    9      0.28      9.08
    3   12    8     -0.06     -1.80
    3   12    7     -3.46      1.08
    3   12    6      2.86      7.91
    3   12    5     -2.59      3.38
    3   12    4     -0.84      2.60
    3   12    3      2.83     -1.71
    3   12    2     -5.54      2.71
    3   12    1      1.46     -1.91
    3   12    0     -6.03     -2.89
    4   12   24      3.13      0.61
    4   12   23    -12.47      7.26
    4   12   22     14.34      1.84
    4   12   21      4.07     -4.81
    4   12   20      6.66      9.35
    4   12   19     -3.37     -3.50
    4   12   18    -17.63      9.24
    4   12   17     13.45     -2.48
    4   12   16      2.26      1.84
    4   12   15      0.04      2.10
    4   12   14     -2.16     -1.35
    4   12   13      0.07      2.56
    4   12   12     -1.40      6.76
    4   12   11      2.69     -3.24
    4   12   10      1.71     11.78
    4   12    9     -5.25     -4.87
    4   12    8      5.76     -1.39
    4   12    7      6.55     -0.29
    4   12    6     -4.45     -3.65
    4   12    5     -0.23     -0.85
    4   12    4      0.39     -3.39
    4   12    3     -7.37      3.05
    4   12    2      2.35     -5.05
    4   12    1      3.74     -3.52
    4   12    0     -2.21     -0.57
    5   12   24     -8.74     -1.96
    5   12   23      7.63     -4.26
    5   12   22     -2.09      1.78
    5   12   21     -3.85     -5.96
    5   12   20     12.50     -8.04
    5   12   19     -8.22      8.49
    5   12   18      1.87     -6.57
    5   12   17     -7.54     -0.55
    5   12   16      0.14      8.58
    5   12   15      1.51      2.38
    5   12   14      4.15      3.29
    5   12   13      1.14      4.64
    5   12   12      6.49     -6.34
    5   12   11      1.83      3.73
    5   12   10     -8.58     -2.29
    5   12    9      5.91      4.89
    5   12    8     -8.33     -5.09
    5   12    7     -5.25      4.45
    5   12    6      2.57     -2.26
    5   12    5      0.27     -0.61
    5   12    4      3.59     11.71
    5   12    3      1.56     -2.91
    5   12    2     -4.14      3.61
    5   12    1     -1.14      5.03
    5   12    0     10.70      2.20
    6   12   23      5.14      4.22
    6   12   22     -0.20     -2.77
    6   12   21     -5.76      1.46
    6   12   20    -11.43     10.58
    6   12   19      8.62     -0.14
    6   12   18     13.65     -4.26
    6   12   17      0.18      3.93
    6   12   16     -8.10    -10.18
    6   12   15      9.47     -4.58
    6   12   14     -2.56      5.99
    6   12   13     -1.37    -10.33
    6   12   12      3.55     -8.34
    6   12   11     -3.01     -1.73
    6   12   10     -3.25     -0.83
    6   12    9     -4.21     -7.45
    6   12    8      2.00      3.11
    6   12    7     -4.19     -1.03
    6   12    6      0.02      5.96
    6   12    5      9.88     -4.10
    6   12    4     -0.74     -7.60
    6   12    3     -2.35      0.90
    6   12    2      3.54    -10.77
    6   12    1      4.23      2.12
    6   12    0     -2.87     -0.69
    7   12   22     -2.91     -3.27
    7   12   21      7.78     -3.63
    7   12   20     -0.40    -15.20
    7   12   19     -1.24     -4.40
    7   12   18     -5.64      9.31
    7   12   17    -14.53      4.50
    7   12   16      2.69      0.43
    7   12   15     -3.92     -1.85
    7   12   14     -7.18     -6.87
    7   12   13     -5.14      3.03
    7   12   12     -0.28      4.46
    7   12   11    -11.74      7.25
    7   12   10      5.47      7.74
    7   12    9     12.19     -0.56
    7   12    8     -0.10      0.67
    7   12    7     -3.17      2.71
    7   12    6      1.22     -7.62
    7   12    5     -9.48     -0.61
    7   12    4     -1.96     -0.86
    7   12    3      5.06     -1.78
    7   12    2     -6.44      7.15
    7   12    1      3.51     -3.31
    7   12    0      1.47     -2.85
    8   12   22      3.51      6.65
    8   12   21     -8.91    -10.14
    8   12   20     -0.91     -1.84
    8   12   19      8.05      3.29
    8   12   18      2.80     15.53
    8   12   17      7.14      1.33
    8   12   16      7.37      0.43
    8   12   15      4.98      4.58
    8   12   14      1.83      4.14
    8   12   13      6.31     -2.12
    8   12   12     -6.85     -1.71
    8   12   11      8.46     -0.37
    8   12   10     -0.11     -5.57
    8   12    9      2.56      6.26
    8   12    8     -2.62      2.05
    8   12    7      0.91     -3.91
    8   12    6     -0.08      7.55
    8   12    5      3.68      5.53
    8   12    4      0.92      6.00
    8   12    3     -1.34      1.40
    8   12    2      0.74      0.32
    8   12    1    -11.15      0.45
    8   12    0      2.67     -2.69
    9   12   21      5.37      1.41
    9   12   20     -0.40     -5.45
    9   12   19     -2.93      4.68
    9   12   18     -1.66      1.54
    9   12   17     -5.83     -0.50
    9   12   16     -9.03     -8.55
    9   12   15      0.78     -7.66
    9   12   14      3.75     -1.88
    9   12   13     -0.45     -7.30
    9   12   12      5.89      3.74
    9   12   11     -1.60     -4.69
    9   12   10      3.68     -4.26
    9   12    9     -9.20     -0.09
    9   12    8      7.15     -6.54
    9   12    7      4.40     -3.06
    9   12    6      1.61      0.94
    9   12    5     -1.21     -3.55
    9   12    4      5.23     -7.87
    9   12    3     -0.22      1.40
    9   12    2     -7.58      1.79
    9   12    1      2.91     -1.94
    9   12    0      8.72      8.57
   10   12   20      7.43      8.86
   10   12   19     -3.57      5.61
   10   12   18      0.08     -8.97
   10   12   17      3.65     -1.97
   10   12   16      9.64     -4.67
   10   12   15     -2.56      0.67
   10   12   14     -2.16      6.57
   10   12   13     -4.84     13.15
   10   12   12     -4.79     -2.29
   10   12   11     -2.58      5.48
   10   12   10     -4.45      7.54
   10   12    9     -0.32      4.94
   10   12    8      3.65      1.65
   10   12    7      2.28     -2.43
   10   12    6     -7.91      1.39
   10   12    5      6.65     -0.71
   10   12    4     -7.24     -6.98
   10   12    3     -2.06      0.33
   10   12    2      0.39     -3.45
   10   12    1     -8.96      6.42
   10   12    0     12.90    -12.48
   11   12   19     -5.97     -1.43
   11   12   18     -4.31      4.41
   11   12   17      0.47     -0.79
   11   12   16     -8.09     -2.11
   11   12   15      3.76     -5.80
   11   12   14     -3.42      3.75
   11   12   13      2.82     -6.18
   11   12   12     -2.15     -2.55
   11   12   11      0.66     -3.88
   11   12   10      3.43      1.56
   11   12    9      6.61     -5.30
   11   12    8    -11.25     -4.18
   11   12    7     -2.34     -1.11
   11   12    6      8.14     -2.60
   11   12    5    -12.06     12.09
   11   12    4     -0.74     14.65
   11   12    3      0.29     -0.57
   11   12    2    -12.45      2.69
   11   12    1      3.03    -10.05
   11   12    0      7.25      5.95
   12   12    0     10.88     -3.21
   12   12    1      0.88     -4.06
   12   12    2     -0.19     -8.93
   12   12    3     11.69     12.05
   12   12    4      0.10      2.22
   12   12    5      3.57     -3.46
   12   12    6     -1.36     11.46
   12   12    7     -9.47     -8.80
   12   12    8      3.30     -0.85
   12   12    9      1.98     -2.71
   12   12   10      0.69     -7.86
   12   12   11      7.11      6.97
   12   12   12      7.95      0.76
   12   12   13     -9.48     10.70
   12   12   14     -0.46      3.06
   12   12   15      8.43      6.89
   12   12   16      5.13     -0.56
   12   12   17     -2.56      1.78
    0   13    0      7.68     -2.25
    0   13    1     -0.04      5.59
    0   13    2     -7.43      0.38
    0   13    3      0.31     -0.73
    0   13    4     -0.04      0.65
    0   13    5      0.51     -0.31
    0   13    6     -8.87     -2.49
    0   13    7     -5.22     -6.74
    0   13    8     -5.20     -0.91
    0   13    9      2.42     14.50
    0   13   10    -15.09     -0.37
    0   13   11      0.77      1.65
    0   13   12     -3.48      0.24
    0   13   13     -0.25     13.08
    0   13   14     -7.01      1.10
    0   13   15     -0.35     11.14
    0   13   16      4.19      3.02
    1   13   21     -8.26     -2.78
    1   13   20     20.78     -5.02
    1   13   19      9.50      7.22
    1   13   18     -8.70     -3.47
    1   13   17     -5.17      1.71
    1   13   16      7.58     -1.96
    1   13   15     -9.27     -1.96
    1   13   14     -0.46     -0.24
    1   13   13     -0.49    -10.34
    1   13   12      3.15     -4.41
    1   13   11     -2.04     -2.14
    1   13   10     12.72     -5.52
    1   13    9     -4.44    -10.34
    1   13    8      0.75     -1.48
    1   13    7     -2.20     -1.55
    1   13    6      6.24      2.18
    1   13    5     -5.85      1.53
    1   13    4     -0.67      4.99
    1   13    3      2.57      0.10
    1   13    2      0.20      1.43
    1   13    1      2.55     -2.53
    1   13    0      9.22      1.04
    2   13   23     -1.24     13.17
    2   13   22      0.02     11.74
    2   13   21     -3.47     -4.66
    2   13   20    -13.56      2.50
    2   13   19      1.21      0.17
    2   13   18      2.36     -7.49
    2   13   17     11.47      2.43
    2   13   16     -6.11      5.04
    2   13   15     11.61      0.05
    2   13   14      7.09      0.40
    2   13   13      0.12      4.76
    2   13   12     -1.24      6.03
    2   13   11      7.28     -0.01
    2   13   10     -3.57      1.22
    2   13    9      2.18      0.91
    2   13    8      1.15     -0.83
    2   13    7     -0.33      7.74
    2   13    6     -0.22      2.06
    2   13    5      3.88      3.36
    2   13    4      2.64     -1.64
    2   13    3      3.99     -2.74
    2   13    2      0.38     -1.52
    2   13    1      2.89      1.67
    2   13    0    -10.27     -0.12
    3   13   23     -4.06     -0.76
    3   13   22     -0.23      6.80
    3   13   21     -1.66     -0.40
    3   13   20     16.79      7.95
    3   13   19     -4.88     -1.88
    3   13   18      5.03      4.92
    3   13   17     -3.39      2.09
    3   13   16     -0.68     -0.84
    3   13   15    -11.03      6.02
    3   13   14     -7.04      0.26
    3   13   13     -0.15     -3.22
    3   13   12     -0.61      5.30
    3   13   11      1.58      7.66
    3   13   10     -1.39     -1.52
    3   13    9     -8.97     -5.34
    3   13    8     -1.57     -3.09
    3   13    7      8.39      3.69
    3   13    6      1.00     -2.92
    3   13    5     -4.81     -1.76
    3   13    4     -1.29      1.34
    3   13    3     -6.05      0.01
    3   13    2      0.02     -6.15
    3   13    1     -1.27     -1.47
    3   13    0     -7.18      0.18
    4   13   23      8.29      3.53
    4   13   22     -9.38    -16.27
    4   13   21      2.03     -1.93
    4   13   20     -6.57    -11.82
    4   13   19      7.24    -10.56
    4   13   18      2.33    -10.58
    4   13   17     -3.38     -4.27
    4   13   16      6.05      1.53
    4   13   15      5.12      1.68
    4   13   14      4.49      2.75
    4   13   13     -5.62     -1.96
    4   13   12     -0.33    -11.00
    4   13   11     -1.73    -11.22
    4   13   10      0.68     -8.22
    4   13    9      8.36     -0.10
    4   13    8     -6.35      9.34
    4   13    7     -6.36     -4.83
    4   13    6      1.89      3.79
    4   13    5      4.65      2.06
    4   13    4      2.78      5.48
    4   13    3      1.25     -7.86
    4   13    2      5.44      4.70
    4   13    1      1.11      3.70
    4   13    0      8.26      0.26
    5   13   22      7.09      3.50
    5   13   21      2.53     16.56
    5   13   20    -14.63      8.92
    5   13   19     -1.60     -0.05
    5   13   18      8.05      2.68
    5   13   17     -6.98      3.96
    5   13   16     -8.91     -3.87
    5   13   15      4.32     -2.27
    5   13   14     -6.46     -0.77
    5   13   13     -1.57      2.48
    5   13   12     -4.15      9.55
    5   13   11     -3.42      2.37
    5   13   10      4.14      8.66
    5   13    9      0.67      5.91
    5   13    8      9.06      0.39
    5   13    7     -2.44      5.74
    5   13    6     -4.21     -9.65
    5   13    5     -2.32      1.13
    5   13    4    -10.91     -6.92
    5   13    3      1.23      2.92
    5   13    2     -5.33     -0.84
    5   13    1      3.49      1.78
    5   13    0     -0.30      0.24
    6   13   22      1.38      5.59
    6   13   21      0.60     -8.55
    6   13   20      3.35      6.29
    6   13   19     10.07      4.50
    6   13   18    -24.24      6.77
    6   13   17     -1.69    -10.99
    6   13   16     14.96      9.54
    6   13   15     -2.19      5.18
    6   13   14      3.43     -6.69
    6   13   13     10.04      8.45
    6   13   12     -6.08     -2.05
    6   13   11      0.06     -3.60
    6   13   10      3.28     -7.64
    6   13    9      1.68     -2.11
    6   13    8     -1.09     -1.83
    6   13    7      4.36     -4.19
    6   13    6      3.75      6.48
    6   13    5     -2.07      1.05
    6   13    4      7.97      1.98
    6   13    3      5.88     -4.26
    6   13    2      2.69     -0.08
    6   13    1     -5.38     -3.08
    6   13    0     -0.84     -2.83
    7   13   21     -6.72      9.09
    7   13   20     10.97     -4.21
    7   13   19    -13.51     -0.52
    7   13   18      6.16    -20.19
    7   13   17      9.55     -0.02
    7   13   16      2.43     -3.81
    7   13   15     -2.11      3.52
    7   13   14      6.97      8.67
    7   13   13     -2.17     -4.39
    7   13   12      3.23      1.05
    7   13   11      2.93     -1.83
    7   13   10     -2.92      2.59
    7   13    9     -7.11     -1.65
    7   13    8     -4.36     -2.07
    7   13    7      1.20     -1.06
    7   13    6      0.87     -4.97
    7   13    5     -6.26      1.17
    7   13    4      1.11      0.97
    7   13    3     -2.83      4.13
    7   13    2     -2.46     -5.58
    7   13    1     -1.76      3.18
    7   13    0     -4.05      6.21
    8   13   20     -0.29     10.96
    8   13   19      3.00     -0.53
    8   13   18     -4.51     -2.03
    8   13   17      3.37     -5.08
    8   13   16     -0.39      2.35
    8   13   15     -1.07     -3.93
    8   13   14      3.08     -1.71
    8   13   13     -3.88      2.11
    8   13   12     -6.79     -3.61
    8   13   11     -4.34     -3.36
    8   13   10     -2.69      3.54
    8   13    9      1.60      2.25
    8   13    8     -0.97     -0.72
    8   13    7      9.13      4.47
    8   13    6      0.81      8.10
    8   13    5     -0.41    -11.24
    8   13    4     -0.43      7.91
    8   13    3      1.14     -5.84
    8   13    2      3.86      1.78
    8   13    1      9.65      2.67
    8   13    0     -6.60     -0.79
    9   13   20     -1.79     -3.74
    9   13   19     -1.02     -4.37
    9   13   18    -10.78      1.29
    9   13   17     -1.85      4.80
    9   13   16     -1.61      3.22
    9   13   15     -3.98      0.18
    9   13   14     -9.09     -0.80
    9   13   13      5.86      2.55
    9   13   12      9.58     -3.54
    9   13   11      1.92      3.06
    9   13   10      7.39     -0.36
    9   13    9      2.01      3.07
    9   13    8     -3.22     -6.58
    9   13    7     -4.29      3.14
    9   13    6     -6.48     -6.91
    9   13    5     -2.10      6.25
    9   13    4      4.47     -0.42
    9   13    3     -2.24      7.05
    9   13    2      6.86     -1.45
    9   13    1      1.02     -1.82
    9   13    0     -2.34     -3.02
   10   13   19      1.26     -7.62
   10   13   18     10.74      2.07
   10   13   17     -3.02      0.93
   10   13   16     -0.33      4.05
   10   13   15      0.96      6.20
   10   13   14     -0.45     -3.01
   10   13   13     -2.71     -4.21
   10   13   12     -9.33      5.78
   10   13   11     -3.22      0.98
   10   13   10     -1.05      1.20
   10   13    9     -3.11    -14.58
   10   13    8     -3.30     13.21
   10   13    7      0.37      4.11
   10   13    6      8.41     -2.91
   10   13    5     -1.40      2.77
   10   13    4    -11.40     -4.20
   10   13    3      5.67    -12.62
   10   13    2     -2.65      2.44
   10   13    1     -2.82      4.80
   10   13    0     -4.52      4.62
   11   13   17      5.36      3.47
   11   13   16      2.65     -3.01
   11   13   15      0.48     -4.20
   11   13   14      9.64      2.60
   11   13   13      5.63     -2.04
   11   13   12     11.47     -3.42
   11   13   11     11.19      1.08
   11   13   10    -10.69      2.36
   11   13    9     -5.39     14.64
   11   13    8     12.92     -7.25
   11   13    7     -5.36      0.04
   11   13    6      2.01      2.52
   11   13    5      4.89     -0.68
   11   13    4      6.66     -2.55
   11   13    3      0.61     -7.00
   11   13    2      8.55      1.56
   11   13    1     -0.41      0.15
   11   13    0     -8.74      1.91
   12   13   16      1.48      1.77
   12   13   15    -12.71      2.98
   12   13   14     -8.64     -0.99
   12   13   13      8.29      2.83
   12   13   12     -3.23     -3.62
   12   13   11    -10.95    -10.72
   12   13   10      2.32     -0.60
   12   13    9      1.41     -6.77
   12   13    8     -1.03     -3.44
   12   13    7     12.45     -7.92
   12   13    6    -15.47     -8.11
   12   13    5      3.46     -4.19
   12   13    4      1.69      8.73
   12   13    3    -11.37      1.44
   12   13    2     -4.53     -3.15
   12   13    1     -0.80      5.31
   12   13    0      2.06      0.23
   13   13    0      5.83     -0.43
   13   13    1     -6.79      4.33
   13   13    2      1.89    -13.66
   13   13    3      6.39      6.20
   13   13    4     -5.31      0.88
   13   13    5     -6.27      7.02
   13   13    6      5.73     14.91
   13   13    7      8.08      6.95
   13   13    8      1.38     -2.43
   13   13    9     -9.96      9.51
   13   13   10     -2.88     11.53
   13   13   11     -1.11      3.36
   13   13   12     -2.85      0.12
   13   13   13     -0.47      0.70
   13   13   14      2.55     -5.27
    0   14    0     -8.25      2.12
    0   14    1      1.05      6.22
    0   14    2     -0.07     -0.35
    0   14    3     -0.74      6.39
    0   14    4      4.72      0.22
    0   14    5      0.21     -0.16
    0   14    6      4.66      0.55
    0   14    7     -0.10     -4.78
    0   14    8    -13.64      0.40
    0   14    9      0.04      0.51
    0   14   10     -1.01      0.36
    0   14   11      0.14      6.13
    0   14   12     -3.18     -1.01
    0   14   13      2.10     -5.43
    0   14   14     -1.97     -0.66
    0   14   15      0.39    -10.96
    0   14   16      7.46      0.13
    0   14   17     -0.05     -5.28
    1   14   16    -10.49      7.44
    1   14   15      3.39      3.22
    1   14   14      2.79     -5.09
    1   14   13     -2.86      5.96
    1   14   12      3.43      3.70
    1   14   11      1.47     -3.79
    1   14   10     -3.32      4.16
    1   14    9      6.65      5.58
    1   14    8      9.61      3.68
    1   14    7      5.05      5.35
    1   14    6      1.49      1.28
    1   14    5      4.65      4.09
    1   14    4     -2.92     -4.38
    1   14    3     -2.56     -1.90
    1   14    2     -0.15     -5.15
    1   14    1     -4.90     -5.80
    1   14    0     -5.16      0.29
    1   14   17     -1.11     10.50
    2   14   22      2.88     -8.04
    2   14   21      0.97     18.49
    2   14   20     -1.17     -3.19
    2   14   19     -2.83      1.88
    2   14   18     -7.12      1.57
    2   14   17     -5.17     -6.90
    2   14   16      3.41     -4.58
    2   14   15     -0.11      0.03
    2   14   14      0.34      2.22
    2   14   13      2.21     -7.61
    2   14   12      2.07     -3.68
    2   14   11     -7.12     -1.87
    2   14   10      6.14      1.09
    2   14    9     -2.94     -1.97
    2   14    8     -6.21     -4.10
    2   14    7     -3.23    -10.86
    2   14    6     -5.26     -5.95
    2   14    5      1.25     -9.09
    2   14    4     -2.26      0.54
    2   14    3     -5.08     -0.19
    2   14    2     11.87      4.49
    2   14    1      3.17     -4.69
    2   14    0      4.48     -0.79
    3   14   22    -13.70     -4.45
    3   14   21     -3.24     -6.05
    3   14   20      5.53     -1.58
    3   14   19     -2.71     -7.08
    3   14   18      5.81      0.24
    3   14   17     12.93     -3.30
    3   14   16      6.50     -1.36
    3   14   15      3.18     -3.53
    3   14   14     -8.39     -1.66
    3   14   13     -6.63     11.36
    3   14   12     -4.90     -0.76
    3   14   11      2.20     -3.87
    3   14   10     -2.82      5.14
    3   14    9      7.47      4.60
    3   14    8      6.31      3.05
    3   14    7     -8.88      1.92
    3   14    6     -1.24     -0.15
    3   14    5      2.64      5.01
    3   14    4      1.26      3.01
    3   14    3      5.02      6.46
    3   14    2     -6.85      0.05
    3   14    1     -7.43      9.93
    3   14    0     -4.71      0.18
    4   14   22      6.23      5.57
    4   14   21      0.27      1.32
    4   14   20     -4.09      2.21
    4   14   19     -0.92     11.76
    4   14   18      4.17      9.80
    4   14   17    -10.31      6.13
    4   14   16     -7.96     -2.02
    4   14   15     -1.58     -2.17
    4   14   14      1.39     -8.31
    4   14   13      9.53     -5.57
    4   14   12      7.18      3.38
    4   14   11      3.11      9.38
    4   14   10     -0.13      1.12
    4   14    9    -12.03     -2.66
    4   14    8     -3.31     -5.06
    4   14    7      7.11     -1.26
    4   14    6      0.45      1.48
    4   14    5      1.86     -3.90
    4   14    4      4.06     -2.75
    4   14    3     -3.35      8.32
    4   14    2      3.21     -4.00
    4   14    1     -2.63     -7.77
    4   14    0      0.97      0.06
    5   14   21      0.48    -11.96
    5   14   20     18.00    -12.71
    5   14   19      8.98      1.82
    5   14   18    -12.00      0.67
    5   14   17      9.39     -0.90
    5   14   16     -3.48      4.23
    5   14   15    -16.75      7.88
    5   14   14      7.46      6.38
    5   14   13     -1.65     -4.75
    5   14   12      0.78     -0.17
    5   14   11      0.05     -3.18
    5   14   10     -0.40     -3.78
    5   14    9      0.68      1.45
    5   14    8      2.80     -1.08
    5   14    7      0.09     -4.01
    5   14    6     -1.76      4.16
    5   14    5      1.23     -0.07
    5   14    4     -5.42      5.05
    5   14    3      1.26     -1.60
    5   14    2     -3.93      6.92
    5   14    1     -2.56    -11.76
    5   14    0     -4.21      0.73
    6   14   21      6.94      8.34
    6   14   20     -5.59      1.29
    6   14   19    -21.08    -15.13
    6   14   18     16.07      2.58
    6   14   17      7.88      4.46
    6   14   16     -9.03     -4.88
    6   14   15      9.26    -12.02
    6   14   14     -3.76     -7.14
    6   14   13      6.03      3.03
    6   14   12      3.75     -7.36
    6   14   11      5.10      6.29
    6   14   10     -4.30      2.56
    6   14    9      0.92      0.65
    6   14    8     -2.85      1.41
    6   14    7      0.70     -0.75
    6   14    6      2.19     -0.42
    6   14    5      1.33      2.70
    6   14    4      1.12     -4.99
    6   14    3     -2.90      0.29
    6   14    2      7.41     -6.64
    6   14    1     10.39      8.71
    6   14    0      2.43     -0.15
    7   14   20    -13.63     -3.32
    7   14   19      5.30      9.98
    7   14   18      4.29      1.06
    7   14   17     -7.57      6.30
    7   14   16      1.89      4.71
    7   14   15     -1.45     -2.86
    7   14   14     -3.76      6.70
    7   14   13    -13.31     -3.05
    7   14   12      0.56     11.80
    7   14   11     -2.85     -4.34
    7   14   10     -3.58      1.85
    7   14    9      0.02      1.45
    7   14    8      2.19     -1.50
    7   14    7     -8.18      1.32
    7   14    6      0.33     -0.89
    7   14    5      3.42      2.18
    7   14    4      2.70     -3.58
    7   14    3     -4.67      2.94
    7   14    2      2.39      4.52
    7   14    1     -5.20      0.53
    7   14    0     -2.86     -2.09
    8   14   19      0.05     -3.85
    8   14   18     13.74      5.51
    8   14   17      6.84      1.39
    8   14   16     -1.32     -2.86
    8   14   15     -1.83      5.99
    8   14   14     -1.13     -6.77
    8   14   13      3.95      1.82
    8   14   12      7.17     -1.49
    8   14   11      1.70     -3.56
    8   14   10      5.52     -8.27
    8   14    9      0.46      0.03
    8   14    8      6.75      1.62
    8   14    7     -4.03      2.45
    8   14    6     -4.41      1.14
    8   14    5      7.95     -4.20
    8   14    4    -14.63      0.97
    8   14    3     -2.32     -8.09
    8   14    2     -6.23      4.36
    8   14    1     -4.99     -2.85
    8   14    0      8.28      0.94
    9   14   18     -3.84    -10.16
    9   14   17      3.59     -4.72
    9   14   16     -6.98     -0.52
    9   14   15      3.21      0.90
    9   14   14     -0.15     -4.97
    9   14   13      1.74      3.54
    9   14   12    -12.66     -2.23
    9   14   11      0.72      4.42
    9   14   10     -2.31      7.47
    9   14    9      2.65     -8.60
    9   14    8      0.28     14.88
    9   14    7      3.55      4.72
    9   14    6      4.46    -11.39
    9   14    5      4.09      7.02
    9   14    4      5.08      3.65
    9   14    3      5.20      4.71
    9   14    2      1.53      0.39
    9   14    1      0.45      0.13
    9   14    0     -4.06     -1.09
   10   14   17     -5.32     -0.72
   10   14   16      2.50      2.35
   10   14   15     -5.68     -3.72
   10   14   14      1.86     10.37
   10   14   13     -5.94      0.74
   10   14   12      3.51      0.53
   10   14   11      0.41     -6.35
   10   14   10      0.60     -8.98
   10   14    9      4.28      3.54
   10   14    8      0.73    -10.68
   10   14    7     -2.95    -15.45
   10   14    6     -6.45     -3.05
   10   14    5     -9.17     -7.41
   10   14    4      4.42     -5.40
   10   14    3     -7.92      5.27
   10   14    2      0.99     -4.80
   10   14    1      1.67     -6.81
   10   14    0      7.85      2.06
   11   14   16     -5.17     -3.22
   11   14   15      5.32      0.01
   11   14   14      3.04     -5.22
   11   14   13      5.13     -3.89
   11   14   12      3.62      3.53
   11   14   11     -2.83     15.99
   11   14   10      8.81     -6.74
   11   14    9     -0.52      4.76
   11   14    8    -13.15     17.70
   11   14    7     -9.43      9.72
   11   14    6      1.15     13.16
   11   14    5      3.27     -0.17
   11   14    4      1.89      8.56
   11   14    3     -0.88     12.63
   11   14    2      3.83      6.30
   11   14    1     14.86      0.42
   11   14    0     -5.97     -4.05
   12   14   14      0.86      0.36
   12   14   13    -11.17     -5.34
   12   14   12     -9.44      4.86
   12   14   11      3.53     -3.14
   12   14   10      3.50     -8.29
   12   14    9     -2.61    -13.83
   12   14    8     -3.80     -5.68
   12   14    7     14.69      1.66
   12   14    6     10.44    -10.95
   12   14    5      5.50      0.65
   12   14    4     -2.29    -11.66
   12   14    3      5.82     -2.61
   12   14    2     -0.90     -1.33
   12   14    1      2.95     -1.39
   12   14    0    -30.95     -0.84
   13   14   12      1.48      1.87
   13   14   11      2.22      6.15
   13   14   10     -3.30      3.58
   13   14    9      3.58      6.63
   13   14    8      3.95     12.24
   13   14    7     -6.13     -9.71
   13   14    6    -11.94     -1.95
   13   14    5     -5.07      2.82
   13   14    4      5.73     -4.46
   13   14    3    -22.59     -1.07
   13   14    2     12.98     11.94
   13   14    1     -0.55    -12.30
   13   14    0     12.93      1.16
   14   14    1     -5.39      5.14
   14   14    2     -4.11     -7.04
   14   14    3     12.44     12.24
   14   14    4      0.14      7.28
   14   14    5      7.84     -6.22
   14   14    6     -0.60      2.20
   14   14    7     -0.68     -2.43
   14   14    8      0.85      0.90
   14   14    9     -7.07      3.03
    0   15    0     -0.76      2.46
    0   15    1     -1.21     -1.37
    0   15    2      7.79      2.25
    0   15    3     -0.07     -0.89
    0   15    4     -2.13     -0.11
    0   15    5      0.05     -7.08
    0   15    6    -11.24      0.05
    0   15    7      0.14      2.78
    0   15    8      4.08     -0.48
    0   15    9     -1.16    -12.30
    0   15   10    -16.02      1.07
    0   15   11     -0.33     -6.27
    0   15   12     -8.17     -0.60
    0   15   13     -0.17      8.92
    0   15   14      0.91     -0.08
    0   15   15      1.00     -1.18
    0   15   16     -2.97      0.19
    0   15   17     -0.61      3.63
    1   15   17      2.98      0.34
    1   15   16      3.04     -2.87
    1   15   15     -5.36      1.09
    1   15   14     -7.75      4.93
    1   15   13     -7.98     -2.35
    1   15   12      4.25     -4.35
    1   15   11      0.11      7.48
    1   15   10     15.89     -2.50
    1   15    9     -1.42      3.92
    1   15    8      0.30     -3.12
    1   15    7      6.63      0.27
    1   15    6      1.58      2.69
    1   15    5     -3.31      4.48
    1   15    4      3.69     -1.04
    1   15    3     -3.39      2.84
    1   15    2     -3.52      7.44
    1   15    1      6.82      5.89
    1   15    0      1.61     -4.64
    1   15   18      2.35      0.40
    2   15   16      4.14     -7.83
    2   15   15     -1.44     -7.36
    2   15   14      5.15     -3.98
    2   15   13      8.59     -3.18
    2   15   12     -0.95      6.48
    2   15   11      2.49     -2.73
    2   15   10    -12.06     -2.41
    2   15    9      1.97     -0.96
    2   15    8      1.87     -5.06
    2   15    7     -1.10      1.48
    2   15    6      1.30      4.48
    2   15    5     -4.73     -0.92
    2   15    4      4.27     -2.56
    2   15    3      5.13    -12.04
    2   15    2     -9.37     -7.33
    2   15    1     -2.29     -6.74
    2   15    0      1.20      4.20
    2   15   17     -3.05      4.19
    2   15   18     -5.83     -4.18
    3   15   20     -5.66      5.43
    3   15   19      8.31     -8.46
    3   15   18      4.50      2.41
    3   15   17     -2.92     -1.21
    3   15   16     -4.80     12.01
    3   15   15      5.83      3.36
    3   15   14     -0.06      7.71
    3   15   13      1.04      3.58
    3   15   12      3.29    -10.44
    3   15   11     -0.06      1.53
    3   15   10      4.12      4.01
    3   15    9     -8.01     -4.74
    3   15    8     -2.48      6.03
    3   15    7     -0.48      2.87
    3   15    6      0.64      2.67
    3   15    5      6.20      3.54
    3   15    4     -7.00     -3.49
    3   15    3     -4.42      0.16
    3   15    2      1.48      7.36
    3   15    1      6.52      5.89
    3   15    0     15.02     -1.66
    4   15   20     -6.88     -0.35
    4   15   19     -7.58     -0.18
    4   15   18     -6.32    -10.77
    4   15   17      3.88     -0.10
    4   15   16      3.95     -4.33
    4   15   15     -3.70     -4.90
    4   15   14      1.38      9.50
    4   15   13     -3.89      3.52
    4   15   12    -10.21     -0.53
    4   15   11     -6.73      1.37
    4   15   10     -2.99      1.70
    4   15    9     11.31     -1.42
    4   15    8      4.27     -4.65
    4   15    7     -2.86      0.33
    4   15    6     -4.51     -2.86
    4   15    5     -6.95     -1.67
    4   15    4      4.63      0.68
    4   15    3      4.11     -3.51
    4   15    2     -2.65      2.72
    4   15    1      1.88      5.15
    4   15    0     -0.92      0.25
    5   15   20     -0.08      3.34
    5   15   19     -6.38     -3.00
    5   15   18     -2.35     -9.30
    5   15   17     -1.43     11.77
    5   15   16      9.71     -0.04
    5   15   15      2.51     -3.89
    5   15   14     -1.86      0.76
    5   15   13     -3.08     -1.53
    5   15   12      3.37     -0.42
    5   15   11      8.41     -2.06
    5   15   10      4.11     -4.29
    5   15    9      3.63     -2.84
    5   15    8     -1.57      0.35
    5   15    7      1.70      5.94
    5   15    6      7.48      0.51
    5   15    5     -0.88      5.10
    5   15    4      1.05     -7.51
    5   15    3      0.40     -1.85
    5   15    2      1.37     -2.57
    5   15    1      5.78     -0.03
    5   15    0    -11.21     -0.06
    6   15   19     11.30     13.60
    6   15   18     -0.21     13.23
    6   15   17     -1.14    -10.99
    6   15   16      2.10      0.58
    6   15   15     11.25     13.02
    6   15   14      3.96     -8.67
    6   15   13     -7.14     -2.82
    6   15   12     -3.03     -0.95
    6   15   11     -9.48     -0.07
    6   15   10      0.04      4.38
    6   15    9     -7.74      1.89
    6   15    8     -0.07      7.33
    6   15    7      2.85      0.15
    6   15    6     -3.07      0.40
    6   15    5      0.96    -10.17
    6   15    4      0.00     10.25
    6   15    3     -7.29     -1.06
    6   15    2     -4.89     -0.70
    6   15    1     -9.39     -2.00
    6   15    0     12.12      1.26
    7   15   18    -12.49     -0.17
    7   15   17     -4.65    -10.15
    7   15   16     -8.37     -9.82
    7   15   15     -4.72     -7.26
    7   15   14     -5.86      0.64
    7   15   13     11.70      0.75
    7   15   12     -2.21     -4.17
    7   15   11      3.88      4.84
    7   15   10      6.22     -1.20
    7   15    9      2.12     -2.59
    7   15    8     -8.20     -2.89
    7   15    7      0.91     -5.11
    7   15    6     -1.45     -3.09
    7   15    5      0.31      0.41
    7   15    4      0.31     -5.04
    7   15    3      4.28      7.27
    7   15    2     -0.13      3.38
    7   15    1     14.23      2.45
    7   15    0     -0.21      0.72
    8   15   17    -11.28      1.67
    8   15   16     18.39      8.12
    8   15   15      1.73     -1.43
    8   15   14      3.35     14.62
    8   15   13     -0.31     -4.13
    8   15   12     -0.41      5.94
    8   15   11     -4.73      8.75
    8   15   10     -1.54      0.68
    8   15    9      3.50      5.42
    8   15    8     -0.07     -3.44
    8   15    7     -0.81     -0.76
    8   15    6     -2.04      0.26
    8   15    5     -6.65      4.38
    8   15    4      5.10      2.68
    8   15    3      3.69     -0.50
    8   15    2     -0.64     -7.77
    8   15    1     -8.13     -1.84
    8   15    0      0.23     -0.86
    9   15   16     -6.60     -5.02
    9   15   15      1.88      4.16
    9   15   14      0.08     -7.08
    9   15   13     -2.10      0.51
    9   15   12     10.72     -0.86
    9   15   11      1.80     -4.52
    9   15   10    -10.37      3.21
    9   15    9     -5.27     -0.61
    9   15    8      3.09    -13.79
    9   15    7     -3.75     -7.56
    9   15    6     19.14     13.40
    9   15    5      4.45     -0.26
    9   15    4     -0.96     -7.03
    9   15    3      3.70     -6.33
    9   15    2     -3.92      4.91
    9   15    1      3.55     -4.86
    9   15    0     -9.43      0.09
   10   15   15     -1.21     -1.64
   10   15   14     -4.48     -5.74
   10   15   13     -4.28     -4.80
   10   15   12     -4.12     -4.42
   10   15   11     -0.76     -0.97
   10   15   10      1.11      5.95
   10   15    9     13.16      0.90
   10   15    8     -2.91     -3.76
   10   15    7      2.55      9.15
   10   15    6     -7.56     12.72
   10   15    5     -8.12     -6.03
   10   15    4     -4.71      4.24
   10   15    3     -7.68     11.74
   10   15    2      5.86     -6.43
   10   15    1      4.95     14.01
   10   15    0     13.55      2.63
   11   15   13      4.03     10.01
   11   15   12      0.64      0.06
   11   15   11     -3.43    -12.38
   11   15   10      3.95      6.00
   11   15    9     -7.53     -1.27
   11   15    8     -2.49     -5.44
   11   15    7      9.01     -0.26
   11   15    6     -7.14    -13.53
   11   15    5     -2.60      6.90
   11   15    4      0.29     -2.31
   11   15    3     18.70     -8.35
   11   15    2    -15.61      2.42
   11   15    1    -22.54    -10.69
   11   15    0      8.44     -4.42
   12   15   12      2.44     -7.63
   12   15   11     -0.08      2.30
   12   15   10     -1.23      9.64
   12   15    9      2.33     15.11
   12   15    8      7.52     -7.31
   12   15    7    -18.23      0.65
   12   15    6      7.24     15.81
   12   15    5      2.75     -9.65
   12   15    4     -0.26      1.18
   12   15    3      3.33    -13.75
   12   15    2     -2.06      0.48
   12   15    1    -12.67      5.74
   12   15    0     15.17     -1.30
   13   15    9      0.44    -16.09
   13   15    8     -7.03     -0.80
   13   15    7      2.94      7.84
   13   15    6     10.92    -11.69
   13   15    5      5.76      3.90
   13   15    3     -0.37      9.20
   13   15    2     -4.71     -4.53
   13   15    1      6.09      8.79
   13   15    0      2.35      1.20
   13   15    4      6.76      2.09
   14   15    5     -5.64     -5.05
   14   15    4    -17.53      2.76
   14   15    0     12.68     -3.78
   14   15    1     -1.77      0.47
   14   15    2     -0.07      1.44
   14   15    3     -0.90      0.82
    0   16    0      2.45     -4.23
    0   16    1      0.63      8.09
    0   16    2     -4.25     -1.35
    0   16    3      1.70      8.07
    0   16    4    -11.74     -0.20
    0   16    5     -0.19      5.12
    0   16    6     -1.53      0.72
    0   16    7     -0.08     -1.90
    0   16    8     -0.66     -0.65
    0   16    9     -0.32     -7.21
    0   16   10     14.89     -0.41
    0   16   11      3.92    -11.34
    0   16   12      4.49      0.01
    0   16   13     -3.00    -21.12
    0   16   14      6.01     -0.74
    0   16   15     -0.32     -1.69
    0   16   16     -3.29     -0.58
    0   16   17      3.01    -21.61
    0   16   18    -12.27     -0.11
    1   16   17     -1.53     11.40
    1   16   16     -0.57      0.19
    1   16   15     12.06      4.95
    1   16   14     12.43      4.76
    1   16   13     11.11     13.11
    1   16   12     -8.84      1.67
    1   16   11     -7.72      8.15
    1   16   10    -13.68     -0.24
    1   16    9      0.39      4.34
    1   16    8     -2.10      0.99
    1   16    7     -7.18      3.18
    1   16    6      4.79     -8.67
    1   16    5      4.80     -3.40
    1   16    4      4.85      7.79
    1   16    3      3.25      1.27
    1   16    2      2.43     -8.04
    1   16    1     -4.50     -8.04
    1   16    0     -0.97      2.04
    1   16   18     -1.76     -1.63
    2   16   17      1.29     -2.75
    2   16   16     -9.19      1.79
    2   16   15    -15.86     -4.35
    2   16   14    -17.16     -8.30
    2   16   13    -22.71     -5.35
    2   16   12     -3.11     -3.04
    2   16   11     15.80     -1.15
    2   16   10     14.16      2.82
    2   16    9     -0.79      2.75
    2   16    8      0.61      9.16
    2   16    7      1.61     -0.82
    2   16    6      5.57     -3.32
    2   16    5     -4.91     -8.17
    2   16    4     -2.30      8.00
    2   16    3     -3.07     -0.48
    2   16    2      1.14     -2.33
    2   16    1     -8.60      2.26
    2   16    0      0.91      0.28
    2   16   18     16.18     -0.94
    3   16   19      2.76      0.26
    3   16   18     -8.42      3.31
    3   16   17     -0.97     -7.68
    3   16   16      4.42      2.34
    3   16   15     12.77     12.55
    3   16   14     23.68      5.42
    3   16   13     19.42     -3.91
    3   16   12      8.82      9.86
    3   16   11    -12.79     -5.10
    3   16   10     -5.28    -12.33
    3   16    9     -1.10     -1.31
    3   16    8     -9.27     -0.17
    3   16    7      3.89     -4.70
    3   16    6     -6.39      1.75
    3   16    5      0.32      3.97
    3   16    4     -5.38     -1.99
    3   16    3      7.75      5.56
    3   16    2      5.54      0.44
    3   16    1      2.84     -3.24
    3   16    0     -7.55     -1.44
    4   16   18     -8.42      8.75
    4   16   17     -6.47      3.59
    4   16   16     -4.78     -8.03
    4   16   15     -3.73      5.29
    4   16   14    -14.16    -23.87
    4   16   13     -5.09      0.18
    4   16   12     -1.19      8.51
    4   16   11      6.44     -4.85
    4   16   10     -1.88      2.62
    4   16    9     -0.77     13.23
    4   16    8      2.97     -0.04
    4   16    7      2.85     -0.15
    4   16    6     15.47     -8.34
    4   16    5     -0.43     -1.33
    4   16    4     -3.80     -4.31
    4   16    3      1.05     -0.92
    4   16    2      1.38      0.28
    4   16    1     -2.91     -0.26
    4   16    0     -3.51     -0.07
    5   16   18     21.74      2.15
    5   16   17     -3.71    -17.04
    5   16   16     -0.05     12.09
    5   16   15      4.67     -4.53
    5   16   14     -2.14     12.60
    5   16   13     -1.16     -0.75
    5   16   12     -0.42     -2.97
    5   16   11     -7.26      6.15
    5   16   10     -1.91     -3.66
    5   16    9     -5.61     -2.50
    5   16    8     -2.31     -2.38
    5   16    7     -2.34     -1.85
    5   16    6     -5.43      9.42
    5   16    5      1.96     -0.72
    5   16    4     11.64      7.63
    5   16    3     -3.06     -0.87
    5   16    2     -5.46     -2.04
    5   16    1     -8.46      0.69
    5   16    0      0.97      0.55
    6   16   17      4.20     19.64
    6   16   16      2.30    -11.47
    6   16   15     -3.97      2.87
    6   16   14      0.78     -0.39
    6   16   13      7.68      3.76
    6   16   12      4.53      5.99
    6   16   11      3.00     -4.90
    6   16   10      0.22     -0.05
    6   16    9      9.44     -6.82
    6   16    8      2.94      1.19
    6   16    7     -1.07     -1.94
    6   16    6     -4.65     -3.39
    6   16    5     -5.29      7.98
    6   16    4    -10.15      0.41
    6   16    3      8.30      5.90
    6   16    2      3.71      7.58
    6   16    1     -3.12      5.72
    6   16    0      8.58     -2.33
    7   16   16     -8.17     11.90
    7   16   15    -11.78     -4.53
    7   16   14      5.44     -4.49
    7   16   13     -7.81     -5.67
    7   16   12     -2.35     -2.24
    7   16   11     -1.57     -7.93
    7   16   10     -3.47     -5.76
    7   16    9     -2.12      3.76
    7   16    8     11.36     -1.06
    7   16    7      5.07      0.68
    7   16    6      3.45      2.08
    7   16    5     -2.58      5.72
    7   16    4     -0.89     -5.40
    7   16    3     -0.94    -16.56
    7   16    2     -3.99    -15.47
    7   16    1    -15.78    -18.09
    7   16    0     -5.59     -3.59
    8   16   15      9.16      6.32
    8   16   14      2.90     -0.48
    8   16   13      3.18     13.07
    8   16   12     -5.15     -2.58
    8   16   11     11.50      3.73
    8   16   10      3.52      5.35
    8   16    9     -8.22      4.04
    8   16    8     -3.47      7.01
    8   16    7      2.84      7.81
    8   16    6     -6.66      5.71
    8   16    5     -1.95     -6.95
    8   16    4     -1.42     -0.47
    8   16    3      9.22      1.34
    8   16    2     13.21     11.11
    8   16    1     21.12     16.04
    8   16    0      6.94      1.74
    9   16   14      0.66      2.67
    9   16   13     -0.97     -2.41
    9   16   12     -9.06      4.48
    9   16   11     -2.75     -1.17
    9   16   10      4.49     -4.43
    9   16    9     -4.07     -5.67
    9   16    8     -1.39      4.36
    9   16    7      0.42    -10.55
    9   16    6     -6.61    -16.20
    9   16    5      2.41      1.03
    9   16    4      4.90     -0.01
    9   16    3    -11.75      9.80
    9   16    2    -10.37      4.09
    9   16    1    -11.91      9.88
    9   16    0     -5.86      2.33
   10   16   13      1.85     -5.88
   10   16   12     11.90     -0.02
   10   16   11      0.56     -3.43
   10   16   10      3.90    -16.90
   10   16    9    -10.85      3.36
   10   16    8     -0.51      6.46
   10   16    7      7.97      2.69
   10   16    6     -0.07     -1.12
   10   16    5      3.70     12.29
   10   16    4      5.38      5.66
   10   16    3      0.76    -21.04
   10   16    2      3.67      1.51
   10   16    1     -3.00    -18.25
   10   16    0    -11.67    -13.64
   11   16   11     -1.53      5.72
   11   16   10    -15.20      9.70
   11   16    9      0.59     -4.53
   11   16    8     10.62     -4.77
   11   16    7     -1.11      3.42
   11   16    6      6.70      4.60
   11   16    5      8.75     -1.07
   11   16    4     -6.24     -1.65
   11   16    3    -13.19      2.37
   11   16    2     16.20     -6.14
   11   16    1     17.53      6.76
   11   16    0     -4.08     21.92
   12   16    8      6.66     17.74
   12   16    7      4.54     -4.91
   12   16    5    -11.81     -6.94
   12   16    4     -3.65     -1.75
   12   16    3     -4.36      6.51
   12   16    2     -7.40     -5.12
   12   16    1     13.24      9.57
   12   16    0     -9.76     -2.52
   12   16    6    -13.15    -11.81
   13   16    3     10.51     -1.73
   13   16    2     13.67     12.58
   13   16    1    -14.18    -13.53
   13   16    0      0.53     -2.02
   13   16    4      3.38      2.37
   13   16    5     -6.37     10.52
    0   17    0     11.52      3.56
    0   17    1     -0.15     -5.64
    0   17    2     -3.15      0.92
    0   17    3     -0.16     -1.47
    0   17    4     -5.11     -1.41
    0   17    5     -0.54     12.09
    0   17    6      2.41     -0.60
    0   17    7      0.77      4.32
    0   17    8      0.18      8.68
    0   17    9      6.56     21.43
    0   17   10      6.35     -1.37
    0   17   11     -4.33     18.03
    0   17   12      4.73     -0.86
    0   17   13      2.83     19.91
    0   17   14    -11.48      1.48
    0   17   15      1.92      6.31
    0   17   16     -6.55     -0.33
    0   17   17     -0.07      7.28
    1   17   17      1.15     -7.41
    1   17   16      6.94      7.08
    1   17   15      2.62     -1.13
    1   17   14     -7.41     -1.22
    1   17   13      1.04    -10.05
    1   17   12     10.76     11.09
    1   17   11      3.13    -11.96
    1   17   10     -3.05     10.31
    1   17    9     -8.73     -8.27
    1   17    8      1.51     -5.86
    1   17    7      0.97     -8.03
    1   17    6      0.57      0.79
    1   17    5     -3.40     -5.26
    1   17    4      5.80     -7.44
    1   17    3      5.27    -15.67
    1   17    2      0.34      5.24
    1   17    1      1.69      9.12
    1   17    0    -12.58      0.26
    2   17   17    -10.56      0.68
    2   17   16      4.00     -5.99
    2   17   15     -5.94      3.41
    2   17   14      8.20      6.31
    2   17   13     11.58      0.54
    2   17   12     -5.11     -9.48
    2   17   11    -14.52     -3.32
    2   17   10     -6.31    -11.02
    2   17    9      9.37    -12.55
    2   17    8      1.80     -5.15
    2   17    7     -1.88      5.62
    2   17    6    -14.75      9.94
    2   17    5      6.54     14.73
    2   17    4     -1.41    -12.49
    2   17    3    -12.38     11.67
    2   17    2      5.88      8.88
    2   17    1      6.12     -5.66
    2   17    0      6.66     -3.92
    3   17   16      0.32     -2.33
    3   17   15      0.87    -18.64
    3   17   14    -16.01     -9.28
    3   17   13    -13.70      4.89
    3   17   12     -6.96     -5.21
    3   17   11     12.74     13.57
    3   17   10      1.45      9.28
    3   17    9      0.31      4.23
    3   17    8      9.81      2.06
    3   17    7     -3.85     -1.57
    3   17    6      1.35     -0.56
    3   17    5     -4.38     -7.12
    3   17    4      6.74      3.27
    3   17    3      5.15     -0.91
    3   17    2     -9.41     -5.28
    3   17    1      0.16      4.52
    3   17    0     -4.44      3.55
    3   17   17     17.81      2.79
    4   17   16     -5.99      5.56
    4   17   15     -3.89      8.34
    4   17   14     11.02     20.60
    4   17   13      2.10     -0.95
    4   17   12     10.30     -8.45
    4   17   11     -0.96      6.91
    4   17   10     10.69      6.75
    4   17    9      1.99     -7.83
    4   17    8     -1.83      3.27
    4   17    7     -1.45      4.77
    4   17    6    -10.28     -0.23
    4   17    5      5.13      0.88
    4   17    4      6.07      8.51
    4   17    3     -3.91     -2.56
    4   17    2      5.90     -5.23
    4   17    1      5.08     -0.31
    4   17    0      5.30      1.66
    5   17   16      2.56     -3.63
    5   17   15     -1.26     -8.82
    5   17   14      5.03     -4.64
    5   17   13      1.52      1.11
    5   17   12     -4.14     -4.31
    5   17   11      3.40     -4.72
    5   17   10     -9.48     -2.14
    5   17    9     -4.13      0.90
    5   17    8     -3.38      1.32
    5   17    7     -0.41     -4.13
    5   17    6     -1.07    -14.33
    5   17    5      0.87     -3.82
    5   17    4     -9.67     -3.55
    5   17    3     -0.59     -4.04
    5   17    2      1.54      0.78
    5   17    1      4.64     -6.35
    5   17    0     -6.84     -0.11
    6   17   15      0.22      1.71
    6   17   14     -8.41      0.25
    6   17   13     -1.38     -1.61
    6   17   12     -5.51      2.54
    6   17   11      1.07      1.00
    6   17   10      6.50      7.69
    6   17    9     -3.37      7.17
    6   17    8     -1.24     -9.97
    6   17    7     -6.67     -3.65
    6   17    6     10.82     11.97
    6   17    5      1.35     -0.84
    6   17    4     11.95      2.45
    6   17    3     -5.79     13.13
    6   17    2      2.25      3.62
    6   17    1      8.41      4.36
    6   17    0    -13.61     -4.05
    7   17   14     -2.24      2.15
    7   17   13     -1.80      1.17
    7   17   12     10.07     -1.13
    7   17   11     -4.60     -0.49
    7   17   10      1.10      2.37
    7   17    9      5.26     -4.51
    7   17    8     -8.58      1.99
    7   17    7      8.59     15.46
    7   17    6     -8.71    -10.59
    7   17    5     13.41    -12.40
    7   17    4     -0.19      4.40
    7   17    3     -6.75      1.23
    7   17    2      3.72      2.19
    7   17    1      1.40      5.28
    7   17    0     -1.35     12.60
    8   17   13      2.58     -1.83
    8   17   12      3.14     -0.85
    8   17   11     -8.20     -2.82
    8   17   10     -5.01     -4.13
    8   17    9      5.67     -6.66
    8   17    8      6.81     -3.49
    8   17    7     -9.14     -5.90
    8   17    6      8.89      0.28
    8   17    5      0.00      9.07
    8   17    4     -5.23      0.41
    8   17    3    -10.23      6.69
    8   17    2    -12.94     -9.97
    8   17    1     -5.16    -15.51
    8   17    0     11.88     -2.78
    9   17   12      2.14     -2.96
    9   17   11      6.47      3.40
    9   17   10      0.25      7.19
    9   17    9      9.31      4.93
    9   17    8     -1.43     11.32
    9   17    7     -7.97      3.13
    9   17    6     -3.25      3.61
    9   17    5    -19.48    -13.99
    9   17    4      1.55      3.99
    9   17    3     19.58     -2.72
    9   17    2      2.06     -6.98
    9   17    1     13.52     -2.18
    9   17    0     -1.47      1.80
   10   17   10     -1.62      2.45
   10   17    9      4.47      3.72
   10   17    8     -2.89    -10.35
   10   17    7      0.57      8.23
   10   17    6      0.64     -3.62
   10   17    5     17.56     -6.94
   10   17    4      4.50      3.10
   10   17    3     -3.15      7.78
   10   17    2      2.99      0.06
   10   17    1    -13.17     13.45
   10   17    0      7.17      3.60
   11   17    7    -12.46     -9.93
   11   17    6     -1.50     -3.83
   11   17    5     -5.61      8.60
   11   17    4      0.00     -7.30
   11   17    3     10.11      7.48
   11   17    2    -10.69      5.45
   11   17    1     -2.09    -11.06
   11   17    0      6.49    -12.98
   12   17    2     -5.60      5.65
   12   17    1     -0.63      0.62
   12   17    0     -3.75     -0.56
    0   18    0      1.47      0.64
    0   18    1      1.82     -1.21
    0   18    2      3.64     -0.90
    0   18    3     -0.93      8.41
    0   18    4      1.90      3.43
    0   18    5      0.76     -6.32
    0   18    6    -10.90      0.25
    0   18    7      1.68    -14.65
    0   18    8     -1.40    -11.73
    0   18    9     -1.17     -8.44
    0   18   10     -9.19     -0.30
    0   18   11      5.36     15.68
    0   18   12     -6.61      1.28
    0   18   13     -0.04      2.20
    0   18   14     -2.24     -2.21
    0   18   15     -0.58     -5.17
    1   18   15     -5.11      1.31
    1   18   14      6.94     -3.81
    1   18   13     -4.48      0.03
    1   18   12    -10.65     -0.49
    1   18   11      5.48     -6.98
    1   18   10      5.47      0.30
    1   18    9     12.87      3.61
    1   18    8     -1.74     10.02
    1   18    7      2.30     12.12
    1   18    6     11.52      0.80
    1   18    5      5.76     -5.82
    1   18    4      2.12      4.46
    1   18    3     -3.68     10.21
    1   18    2     -3.51     -1.32
    1   18    1     -3.23      2.17
    1   18    0      1.32     -3.63
    2   18   15      9.01     -3.45
    2   18   14      2.43      3.44
    2   18   13     -8.69     -6.54
    2   18   12     20.66     -3.62
    2   18   11     -3.91     -5.20
    2   18   10     -0.52     -7.85
    2   18    9    -11.48     10.61
    2   18    8     -7.11     -3.35
    2   18    7      5.59     -6.50
    2   18    6      9.57     -4.98
    2   18    5     -5.64      0.62
    2   18    4     -9.29     13.18
    2   18    3      5.44     -9.28
    2   18    2     -0.57     -0.46
    2   18    1     -4.08     -6.46
    2   18    0      3.06      8.58
    3   18   14     -2.83      0.64
    3   18   13     11.24      6.95
    3   18   12    -11.44      7.53
    3   18   11     -2.97     -1.01
    3   18   10      3.86     11.11
    3   18    9     -4.09      3.68
    3   18    8     -6.68      1.55
    3   18    7     -1.63      3.64
    3   18    6     -0.20     -6.14
    3   18    5      1.21      0.65
    3   18    4     -2.00     -2.75
    3   18    3     -5.88     -0.44
    3   18    2     -3.81     -3.40
    3   18    1      2.80     -2.14
    3   18    0     -7.27     -6.40
    4   18   14     -3.13    -11.52
    4   18   13     -5.19     -3.97
    4   18   12     -2.78     11.86
    4   18   11      3.31    -11.61
    4   18   10     -4.14    -10.27
    4   18    9      7.48      1.22
    4   18    8      6.54    -10.03
    4   18    7      9.15     -5.34
    4   18    6      7.52     14.52
    4   18    5     -3.31     -5.20
    4   18    4     -6.38    -14.53
    4   18    3     -2.66      3.84
    4   18    2      3.03      1.05
    4   18    1     -5.47      8.13
    4   18    0     17.97     -2.19
    5   18   13      4.06      0.13
    5   18   12     -0.25      0.33
    5   18   11    -12.81      1.91
    5   18   10      9.77     -7.40
    5   18    9     -5.20      1.66
    5   18    8     -3.64      5.68
    5   18    7     -1.81      8.19
    5   18    6     -0.82     10.42
    5   18    5     -2.38      7.01
    5   18    4     -0.43     -0.44
    5   18    3      9.61      0.99
    5   18    2     -3.51      5.96
    5   18    1      0.65     -4.96
    5   18    0     13.94     -1.53
    6   18   12     -4.37      1.23
    6   18   11     10.67      2.37
    6   18   10     -8.81     -1.57
    6   18    9      0.13     -0.28
    6   18    8      5.18      5.46
    6   18    7     -2.13      3.78
    6   18    6     -4.35     -7.19
    6   18    5    -10.56    -12.17
    6   18    4      1.97     -1.89
    6   18    3     11.45    -15.40
    6   18    2     -1.60     -2.96
    6   18    1      3.15     15.76
    6   18    0     -7.76     12.35
    7   18   11      5.81      3.34
    7   18   10      1.59      7.45
    7   18    9     -1.60     -6.45
    7   18    8      0.14     -0.61
    7   18    7      9.29    -20.03
    7   18    6      5.42     -2.95
    7   18    5      5.93     17.96
    7   18    4     -8.22     -7.23
    7   18    3     -2.68      4.39
    7   18    2    -17.21     19.44
    7   18    1     -5.18    -19.46
    7   18    0      4.50    -19.02
    8   18   10      1.53    -10.39
    8   18    9     -6.38      7.22
    8   18    8     -5.68     -3.76
    8   18    7     -8.06      2.63
    8   18    6      5.19      5.13
    8   18    5     -9.99      9.21
    8   18    4     19.34      3.23
    8   18    3      2.49      0.86
    8   18    2     27.19    -10.49
    8   18    1     -9.62     11.48
    8   18    0     -7.74      0.26
    9   18    8      1.56     -5.22
    9   18    7     11.20     -4.61
    9   18    6     -4.98     11.49
    9   18    5     22.49      2.48
    9   18    4    -24.47     -5.23
    9   18    3    -14.47     -7.86
    9   18    2     -6.79      5.20
    9   18    1     -1.89      2.81
    9   18    0     -0.96      0.04
   10   18    5    -15.50     -1.06
   10   18    4     -1.27     -6.42
   10   18    3      4.36     -2.80
   10   18    2      0.53      6.15
   10   18    1     11.34     -8.02
   10   18    0      7.09      0.65
    0   19    0    -19.75      1.18
    0   19    1      0.46     -0.05
    0   19    2    -10.72      0.08
    0   19    3      5.94     10.82
    0   19    4      0.50     -8.36
    0   19    5      0.77      8.44
    0   19    6      1.34     -1.89
    0   19    7      0.54      9.12
    0   19    8      6.95      1.60
    0   19    9     -0.44      1.01
    0   19   10      9.66     -2.02
    0   19   11     -1.28     -7.68
    0   19   12     13.74     -1.93
    1   19   12     -1.67      2.18
    1   19   11     -0.24      6.05
    1   19   10     -5.41      7.71
    1   19    9     -3.26     -1.73
    1   19    8      7.84      3.01
    1   19    7     -1.57     -9.12
    1   19    6     -8.96      4.90
    1   19    5     -2.47     -3.24
    1   19    4      0.23     -5.94
    1   19    3     -4.63    -13.10
    1   19    2      9.46      2.27
    1   19    1      2.39      0.42
    1   19    0     16.28      1.95
    2   19   12    -10.89      1.61
    2   19   11     -0.61      2.84
    2   19   10     -2.78     -5.28
    2   19    9     -6.61     -3.68
    2   19    8     -7.22    -11.97
    2   19    7     -4.93      5.79
    2   19    6    -13.02      2.99
    2   19    5      4.44      4.00
    2   19    4      8.65      4.18
    2   19    3      4.02      5.92
    2   19    2     -5.31     -2.49
    2   19    1      8.10     -0.87
    2   19    0     -8.87     -4.29
    3   19   12      7.03     -1.14
    3   19   11      4.70      3.23
    3   19   10     -0.33      0.18
    3   19    9     14.52    -10.50
    3   19    8     19.55     -0.44
    3   19    7     -0.92      0.01
    3   19    6      8.31     -0.01
    3   19    5     -5.99      3.44
    3   19    4     -1.06     -6.12
    3   19    3      0.48     -0.17
    3   19    2      2.83      2.89
    3   19    1     -4.40      7.89
    3   19    0      1.12     -1.51
    4   19   11     -3.35      0.17
    4   19   10     -4.64      3.88
    4   19    9     -4.71     -0.23
    4   19    8     -6.77     17.98
    4   19    7     -1.89     -0.57
    4   19    6     -4.99     -8.68
    4   19    5     11.55      2.10
    4   19    4      8.72     14.76
    4   19    3      5.77     -6.97
    4   19    2      0.00      1.40
    4   19    1     -2.08    -11.94
    4   19    0    -14.47      4.25
    5   19   10     -8.08      9.59
    5   19    9      0.39     -2.42
    5   19    8     -5.01    -14.81
    5   19    7     -5.86     -2.38
    5   19    6    -10.87     -8.40
    5   19    5      0.27      8.73
    5   19    4     -2.77      1.23
    5   19    3    -17.82      8.40
    5   19    2      6.49    -10.57
    5   19    1     -7.24      0.24
    5   19    0     -8.20     10.17
    6   19    9      5.91      0.51
    6   19    8     13.68      7.22
    6   19    7     -3.82     -4.86
    6   19    6     13.50      3.70
    6   19    5      8.17     -3.56
    6   19    4     -4.47      6.06
    6   19    3     -4.78     -1.26
    6   19    2     -1.84     -4.20
    6   19    1      8.19     -0.77
    6   19    0     12.23    -25.52
    7   19    7     -2.29     13.87
    7   19    6    -12.91      2.85
    7   19    5     -0.85     -5.31
    7   19    4      2.86     -0.59
    7   19    3     14.95     -5.31
    7   19    2     16.18    -12.94
    7   19    1      6.20      8.70
    7   19    0    -14.50     25.07
    8   19    5     -7.38    -16.58
    8   19    4      0.05      1.10
    8   19    3    -13.97      0.07
    8   19    2    -15.50     12.16
    8   19    1      0.05     -0.70
    8   19    0     -0.94     -2.46
    0   20    0     -6.11     -5.09
    0   20    1      5.81    -15.50
    0   20    2      3.34     -2.56
    0   20    3     -4.67    -17.04
    0   20    4     -1.73      4.27
    0   20    5      2.89     -9.95
    0   20    6      0.03     -1.51
    0   20    7     -0.86    -12.85
    0   20    8    -13.09     -1.15
    1   20    8      1.34      8.35
    1   20    7      1.49     14.68
    1   20    6      8.78     -4.92
    1   20    5     -5.40      5.11
    1   20    4     -2.79      8.28
    1   20    3      6.29      3.41
    1   20    2      4.78      8.30
    1   20    1     -3.01      9.62
    1   20    0      4.25      0.91
    2   20    8     -5.22      4.25
    2   20    7     -1.66     -1.92
    2   20    6      1.43     -5.96
    2   20    5      5.19     -4.14
    2   20    4     -7.76    -11.92
    2   20    3      3.31     11.85
    2   20    2     -4.43    -11.85
    2   20    1    -11.15      6.28
    2   20    0     -4.90     -1.15
    3   20    7     -0.40     -9.33
    3   20    6      5.09     -1.82
    3   20    5     -1.29     -7.16
    3   20    4      5.19      9.18
    3   20    3     -5.62     -7.76
    3   20    2     -0.86     16.21
    3   20    1      0.55    -12.01
    3   20    0     -3.77      8.35
    4   20    6      1.25     10.41
    4   20    5     -0.79     -1.82
    4   20    4     -4.34     -8.18
    4   20    3      1.17      5.97
    4   20    2      2.27    -10.64
    4   20    1      5.90      6.70
    4   20    0     18.84    -10.38
    5   20    5     -9.04     -2.75
    5   20    4      0.51     -5.38
    5   20    3      7.81      1.00
    5   20    2     -6.98     15.98
    5   20    1      5.47      3.55
    5   20    0     -9.92      0.24
    6   20    1    -16.30     -8.98
    6   20    0      6.96      7.56
    0    1    0   -506.60      1.73
    1    1    0     -4.38     -0.72
    0    2    0      8.75     -0.17
    1    2    0     50.80      2.60
    2    2    0     42.07     -8.37
    0    3    0     55.71      3.12
   14   14    0    -14.51      3.25
   15   15    0    -20.12      4.16
   14   16    0     -9.37      2.30
   15   16    0      9.18     -1.44
   16   16    0      4.39     -0.69
   13   17    0     11.05     -0.10
   14   17    0     -3.74      1.91
   15   17    0     -4.54     -0.74
   16   17    0     -2.49      1.13
   11   18    0    -10.78      3.78
   12   18    0      4.11      1.35
   13   18    0     -2.78      0.94
   14   18    0     -2.57     -1.25
   15   18    0      5.06      0.01
    9   19    0      8.09     -0.62
   10   19    0     -8.73     -0.56
   11   19    0      0.59      0.38
   12   19    0      5.71     -1.20
   13   19    0     -7.37     -0.04
    7   20    0     13.87     -6.06
    8   20    0     -0.49     -1.25
    9   20    0     -3.83      0.03
   10   20    0      1.02      0.57
   11   20    0      0.97     -0.63
   12   20    0      2.05     -0.34
    0   21    0      7.24     -0.87
    1   21    0     -1.62      1.72
    2   21    0      0.57      0.97
    3   21    0      5.62     -3.27
    4   21    0    -11.57      4.01
    5   21    0      6.63     -1.34
    6   21    0     -8.67     -0.77
    7   21    0     -2.44     -0.15
    8   21    0     -2.81      0.05
    9   21    0      3.87      0.10
   10   21    0     -0.95      0.38
    0    1    1     -1.79    -71.19
    1    1    1    -19.81     21.46
    0    2    1     -1.97    -55.63
    1    2    1    -35.38     17.22
    2    2    1     -4.98      6.91
    2    3    1     12.61     12.57
   15   15    1     10.91    -12.25
   14   16    1      7.11      1.82
   15   16    1     -8.71      3.88
   16   16    1      4.85     -4.77
   13   17    1     12.94     -1.17
   14   17    1     -2.40      1.62
   15   17    1     -0.42      5.06
   16   17    1     -2.86     -3.23
   11   18    1     -2.00      8.27
   12   18    1     -9.25     -1.94
   13   18    1     -6.31     -1.58
   14   18    1      1.49      0.99
   15   18    1     -1.43     -3.72
    9   19    1     -1.72      0.11
   10   19    1     -1.58     -6.03
   11   19    1      2.55      4.61
   12   19    1      5.79     -1.55
   13   19    1     -0.08      3.23
    7   20    1      3.87      3.68
    8   20    1      3.81     -3.57
    9   20    1      1.12     -3.53
   10   20    1     -2.33      4.02
   11   20    1     -3.43     -3.29
   12   20    1      1.48      0.74
    0   21    1     -1.38      5.15
    1   21    1      2.30     -7.04
    2   21    1      5.87      0.51
    3   21    1      3.51      2.27
    4   21    1     -2.20      2.55
    5   21    1     -4.03     -2.60
    6   21    1      5.83     -2.28
    7   21    1     -1.66      3.43
    8   21    1     -2.18      1.20
    9   21    1      1.75      0.62
   10   21    1      0.18      4.31
    0    1    2    227.69     -1.33
    1    1    2     -1.67    -16.85
    0    2    2     -6.89     -1.24
    3    3    2     -1.08    -10.49
    1    4    2     28.86     27.36
   15   15    2      0.63      4.22
   14   16    2     -6.74     -2.67
   15   16    2     -5.44     -5.86
   16   16    2     -0.03      5.53
   13   17    2      2.28     -8.01
   14   17    2      3.35      1.73
   15   17    2      1.86     -1.71
   16   17    2      0.65      0.05
   11   18    2      1.60     -3.38
   12   18    2      5.52     -2.95
   13   18    2     -1.11      1.51
   14   18    2     -4.15     -0.46
   15   18    2      1.59      0.68
    9   19    2      1.91      1.52
   10   19    2      2.39     -6.43
   11   19    2     -1.73     -1.06
   12   19    2      1.20     -1.38
   13   19    2      0.36      3.18
    6   20    2     -0.92     -6.62
    7   20    2     -6.70      4.95
    8   20    2     -1.38      1.11
    9   20    2      3.58     -3.16
   10   20    2     -5.17     -0.17
   11   20    2      0.51     -0.38
   12   20    2      0.70      3.62
    0   21    2     -5.09      0.55
    1   21    2     -1.35      1.86
    2   21    2      0.84     -4.69
    3   21    2      1.79      0.23
    4   21    2     -1.07     -0.85
    5   21    2      1.22     -2.95
    6   21    2      3.81      2.41
    7   21    2     -0.81     -0.09
    8   21    2      6.15     -3.34
    9   21    2     -1.87     -1.03
   10   21    2      0.81      4.51
    0    1    3      1.14     72.77
    1    1    3    -14.39     -9.48
    2    2    3     33.97     35.95
   15   15    3     -2.61     -2.51
   14   16    3     -0.63     -1.11
   15   16    3     -1.98      1.57
   16   16    3      3.21      1.83
   12   17    3     -9.07     -4.41
   13   17    3     -6.77     -1.54
   14   17    3      3.05      0.52
   15   17    3     -0.97     -1.69
   16   17    3     -0.01     -2.82
   11   18    3     -0.10      0.71
   12   18    3      8.46     -2.41
   13   18    3      2.27      6.08
   14   18    3      0.77      0.30
    9   19    3     12.73      6.24
   10   19    3     -0.69     -1.62
   11   19    3     -8.18      1.26
   12   19    3      0.72      0.33
   13   19    3     -0.95     -6.70
    6   20    3     -0.94     -0.37
    7   20    3      2.11      3.65
    8   20    3     -0.03      1.18
    9   20    3      0.64     -0.15
   10   20    3     -3.43      0.35
   11   20    3      3.76      1.37
   12   20    3     -1.25      0.51
    0   21    3      3.52      2.40
    1   21    3     -2.69      2.32
    2   21    3     -4.62     -6.44
    3   21    3      4.31      0.03
    4   21    3      0.61     -1.16
    5   21    3     -3.41     -1.91
    6   21    3     -2.24      1.07
    7   21    3     -1.24      0.94
    8   21    3      0.43     -3.30
    9   21    3      0.20     -3.59
   10   21    3     -0.21      0.51
    0    0    4    -57.61     -0.16
    1    2    4    -13.48    -42.46
    0    4    4    -30.09      1.26
   15   15    4     10.93     -0.15
   14   16    4      7.53     -4.10
   15   16    4      2.27      0.27
   16   16    4     -1.52      0.17
   12   17    4     -2.85      3.74
   13   17    4      5.76      1.39
   14   17    4     -5.24     -2.41
   15   17    4     -3.63     -1.07
   11   18    4      7.29      2.66
   12   18    4     -4.20     -0.27
   13   18    4     -3.02      3.71
   14   18    4      3.76     -0.75
    9   19    4      6.63      3.02
   10   19    4      1.89      0.40
   11   19    4     -3.46      0.00
   12   19    4     -0.44      2.61
   13   19    4      4.26     -3.30
    6   20    4     -0.19     -2.38
    7   20    4     -0.43      2.27
    8   20    4     -0.24     -3.83
    9   20    4      2.94      2.74
   10   20    4     -0.72      1.17
   11   20    4      2.15     -0.92
   12   20    4     -0.18     -2.64
    0   21    4     -2.06     -0.68
    1   21    4      3.69      3.31
    2   21    4      0.64     -6.99
    3   21    4      1.58      2.58
    4   21    4     -1.43      3.63
    5   21    4      2.57      4.41
    6   21    4      3.87     -3.20
    7   21    4     -6.67      1.65
    8   21    4      1.77      1.47
    9   21    4     -2.33     -3.40
   10   21    4     -1.47      1.11
    1    1    5      5.49     -8.44
    2    2    5      2.53     -4.26
    0    4    5     -2.16      5.59
    0    5    5     -1.29    -53.44
   15   15    5     -1.28      2.52
   14   16    5      7.27     -0.83
   15   16    5     -4.65     -1.97
   16   16    5      1.43     -1.63
   12   17    5      5.19     -3.77
   13   17    5      2.39      0.39
   14   17    5     -0.98      4.55
   15   17    5      2.92     -3.81
   11   18    5     -0.54      1.81
   12   18    5     -3.71     -3.34
   13   18    5     -0.51     -4.31
   14   18    5     -1.70     -0.16
    9   19    5      1.46      2.75
   10   19    5      3.06      3.59
   11   19    5     -2.38     -2.78
   12   19    5      4.54      1.32
   13   19    5      2.34      5.14
    6   20    5     -6.69      1.29
    7   20    5      5.61     -1.67
    8   20    5     -0.08      9.89
    9   20    5     -1.31      2.67
   10   20    5     -1.62     -2.70
   11   20    5      1.85      0.47
    0   21    5     -1.88     -4.46
    1   21    5      1.71      6.70
    2   21    5     -3.63      4.17
    3   21    5     -0.24     -2.23
    4   21    5     -0.15      3.77
    5   21    5      5.28      3.11
    6   21    5      4.40     -1.50
    7   21    5     -1.23      1.22
    8   21    5     -1.74     -2.73
    9   21    5      1.60     -3.44
    0    1    6    -57.64      1.51
    1    1    6      1.01      0.60
    1    3    6     -8.12      2.20
   14   15    6    -10.04      2.95
   15   15    6      0.44      2.07
   13   16    6     -0.84      2.83
   14   16    6      1.36     -0.08
   15   16    6     -2.96     -1.17
   16   16    6      0.88      2.47
   12   17    6      7.82      7.67
   13   17    6      0.55      6.52
   14   17    6     -2.07     -4.45
   15   17    6     -0.49      3.45
   10   18    6      4.43     -1.91
   11   18    6      3.82     -0.94
   12   18    6     -3.45      0.52
   13   18    6     -1.45     -2.62
   14   18    6      6.32     -4.27
    8   19    6      0.84     -2.64
    9   19    6     -1.80     -8.84
   10   19    6     -2.19     -0.58
   11   19    6      1.40      3.88
   12   19    6     -3.75     -4.15
   13   19    6     -0.76      4.60
    5   20    6      0.52     -1.80
    6   20    6      1.82      7.42
    7   20    6      0.42     -5.52
    8   20    6      1.72      0.73
    9   20    6      2.24      0.19
   10   20    6      0.00      3.48
   11   20    6     -3.19     -3.08
    0   21    6      0.97     -1.45
    1   21    6     -2.07      5.43
    2   21    6     -3.67      3.78
    3   21    6     -2.90     -0.41
    4   21    6      0.41     -1.69
    5   21    6      1.28     -3.19
    6   21    6     -0.33     -4.01
    7   21    6     -4.15      6.67
    8   21    6      1.55     -2.27
    9   21    6     -0.18      1.04
    2    2    7    -18.72    -17.62
    0    4    7      1.76    -25.49
   14   15    7      3.37     -1.20
   15   15    7     -1.27     -1.41
   13   16    7      2.22      2.16
   14   16    7     -1.46     -5.84
   15   16    7     -0.51     -0.44
   16   16    7      2.75      4.49
   12   17    7      4.75     -3.14
   13   17    7     -3.87     -0.73
   14   17    7      0.84      6.91
   15   17    7      0.13     -0.18
   10   18    7      3.17     -1.85
   11   18    7      4.99      5.03
   12   18    7     -0.16      4.20
   13   18    7      1.91      0.31
   14   18    7     -0.59     -0.66
    8   19    7      2.53      0.19
    9   19    7     -0.80      9.74
   10   19    7     -7.12     -2.94
   11   19    7      2.37     -3.68
   12   19    7     -3.50     -3.24
    4   20    7      9.21      4.13
    5   20    7      0.00      6.38
    6   20    7      8.28     -4.58
    7   20    7     -0.51     -1.64
    8   20    7     -2.52     -2.70
    9   20    7      2.06     -9.37
   10   20    7      1.20      1.10
   11   20    7      0.06      4.33
    0   21    7     -0.18     -9.17
    1   21    7     -1.89      4.44
    2   21    7      0.13     -6.90
    3   21    7      2.62      2.91
    4   21    7     -5.44      1.68
    5   21    7     -2.48     -5.04
    6   21    7      0.61      0.77
    7   21    7     -1.13      0.57
    8   21    7      0.85      2.40
    9   21    7     -1.11      5.99
    0    0    8     41.39      0.22
    1    1    8      1.65      1.15
   14   15    8      2.50     -1.89
   15   15    8      1.36      0.81
   13   16    8     -3.88     -5.29
   14   16    8     -2.91      0.38
   15   16    8     -1.15      3.50
   16   16    8      2.05     -0.92
   11   17    8     -0.30      4.53
   12   17    8     -5.71     -5.41
   13   17    8     -1.79     -1.28
   14   17    8      4.69     -3.68
   15   17    8     -0.69      3.30
   10   18    8      1.44     -1.10
   11   18    8     -6.62      2.51
   12   18    8      2.50     -3.87
   13   18    8      0.72      4.07
   14   18    8     -0.80     -0.12
    7   19    8     -7.97     -3.91
    8   19    8      2.35      5.51
    9   19    8      2.78     -0.45
   10   19    8      3.56      2.68
   11   19    8      0.28      1.19
   12   19    8      1.89      1.05
    3   20    8     -3.07      1.39
    4   20    8     -1.02     -7.49
    5   20    8     -1.82      3.59
    6   20    8     -0.67     -1.59
    7   20    8     -3.25     -0.75
    8   20    8      0.47     -2.17
    9   20    8     -1.55      1.94
   10   20    8     -2.85      0.63
   11   20    8      1.11     -4.13
    0   21    8      7.62      0.32
    1   21    8      0.91     -6.40
    2   21    8      3.79     -0.22
    3   21    8     -2.45      0.33
    4   21    8      0.92     -0.07
    5   21    8      0.96      0.01
    6   21    8      0.96      1.48
    7   21    8      0.40     -0.06
    8   21    8      2.84      0.33
    9   21    8      1.57     -0.86
    0    2    9     -0.30      0.61
   14   15    9      5.62      2.30
   15   15    9     -2.06      2.62
   12   16    9      5.89      1.17
   13   16    9     -1.98     -2.15
   14   16    9      0.03     -0.14
   15   16    9     -2.19      3.58
   16   16    9      2.18     -1.83
   11   17    9     -0.44     -4.50
   12   17    9     -1.08     -0.48
   13   17    9      3.02      7.02
   14   17    9     -2.13     -0.96
   15   17    9      1.11     -4.26
    9   18    9     -4.77     -3.81
   10   18    9     -0.80     -0.21
   11   18    9     -1.56     -1.21
   12   18    9     -2.40      0.90
   13   18    9     -1.62     -1.09
    7   19    9      6.32      5.18
    8   19    9     -0.39     -0.85
    9   19    9      0.74      1.22
   10   19    9     -1.20     -2.49
   11   19    9      6.11      3.33
   12   19    9     -0.08      0.40
    0   20    9     -2.03     -3.53
    1   20    9     -2.93      5.18
    2   20    9      2.75      0.20
    3   20    9     -4.54      5.68
    4   20    9     -0.09      1.67
    5   20    9     -2.26      0.66
    6   20    9     -3.92     -1.72
    7   20    9     -3.86      0.86
    8   20    9      0.73     -3.52
    9   20    9     -0.21      3.44
   10   20    9      0.27     -1.53
    0   21    9      0.82     -8.63
    1   21    9      4.63      4.82
    2   21    9     -2.55     -4.14
    3   21    9      6.71     -0.87
    4   21    9     -4.25      0.41
    5   21    9      1.87     -1.05
    6   21    9      2.82      2.77
    7   21    9     -2.36     -2.86
    8   21    9      1.60      1.74
    0    1   10      3.89     -0.80
   14   14   10      0.84    -11.20
   13   15   10     -0.12      2.59
   14   15   10      0.21     -0.60
   15   15   10     -0.48     -1.40
   12   16   10      1.28     -5.10
   13   16   10     -4.18     -2.47
   14   16   10      6.94      1.08
   15   16   10     -2.03      2.06
   11   17   10      4.25     -3.98
   12   17   10      6.74     -1.24
   13   17   10     -2.75     -2.46
   14   17   10     -1.92      0.73
    9   18   10      0.05      4.63
   10   18   10      2.34      2.86
   11   18   10      1.38     -1.75
   12   18   10     -2.39      5.37
   13   18   10      2.27     -0.24
    6   19   10      5.25     -3.85
    7   19   10      0.20     -5.91
    8   19   10     -4.62      5.60
    9   19   10      4.10     -3.60
   10   19   10     -3.16     -2.27
   11   19   10     -4.59      1.94
   12   19   10      0.77     -3.99
    0   20   10      7.18     -1.12
    1   20   10      3.60      3.15
    2   20   10     -2.96     -0.06
    3   20   10      2.44     -1.23
    4   20   10      5.96     -2.84
    5   20   10      1.99     -1.98
    6   20   10      4.71      0.67
    7   20   10     -5.25      1.19
    8   20   10      4.63      3.05
    9   20   10     -0.04     -0.04
   10   20   10      0.64     -0.25
    0   21   10     -7.35      1.49
    1   21   10     -2.02     -3.44
    2   21   10      0.89      2.97
    3   21   10      0.80      0.53
    4   21   10     -3.45     -2.09
    5   21   10     -1.55     -0.41
    6   21   10     -1.38      2.93
    7   21   10      0.44     -3.24
    8   21   10     -1.64     -1.85
    3    3   11      6.20      4.81
   14   14   11      0.93      1.40
   13   15   11     -1.66     -6.58
   14   15   11      1.63      4.31
   15   15   11     -1.12     -1.08
   12   16   11      4.55      3.14
   13   16   11     -3.17     -0.18
   14   16   11     -1.72      1.48
   15   16   11      0.02     -0.30
   10   17   11     -8.06     -0.10
   11   17   11      7.08      1.92
   12   17   11      1.53     -0.12
   13   17   11     -1.24     -2.65
   14   17   11     -0.70     -2.83
    8   18   11     -1.82      6.46
    9   18   11     -3.42      0.85
   10   18   11      4.36     -4.50
   11   18   11     -2.50      1.40
   12   18   11     -3.99     -2.04
   13   18   11      3.49      3.30
    5   19   11      4.44      3.31
    6   19   11     -5.38      3.09
    7   19   11     -6.46    -11.16
    8   19   11      5.01     -4.94
    9   19   11     -1.02      0.54
   10   19   11     -0.16     -0.95
   11   19   11      0.54      1.09
    0   20   11     -0.32      4.96
    1   20   11     -5.36     -7.94
    2   20   11      0.37      0.69
    3   20   11      5.74     -1.60
    4   20   11     -0.71      4.44
    5   20   11     -1.67     -5.83
    6   20   11      2.17      1.99
    7   20   11      3.85      5.52
    8   20   11     -2.36     -0.50
    9   20   11      0.98      4.41
    0   21   11      0.41      2.25
    1   21   11      3.10      0.57
    2   21   11     -0.93      0.23
    3   21   11     -0.51      3.41
    4   21   11     -6.08     -5.00
    5   21   11      4.88      1.63
    6   21   11     -1.08      1.34
    7   21   11     -1.19     -3.71
   14   14   12      5.16      0.34
   13   15   12     -1.83      3.73
   14   15   12     -3.67     -0.98
   15   15   12      4.09      0.04
   11   16   12     -7.76      1.83
   12   16   12      4.64     -0.57
   13   16   12      3.07     -2.10
   14   16   12      3.65     -2.81
   15   16   12     -3.25     -3.48
   10   17   12     -3.20      0.27
   11   17   12     -2.86      1.14
   12   17   12     -3.26      5.62
   13   17   12      2.03     -0.80
   14   17   12     -3.86      6.00
    7   18   12      2.17     -1.43
    8   18   12     -4.80      0.21
    9   18   12      3.48      1.62
   10   18   12     -4.74     -0.33
   11   18   12      5.35     -2.44
   12   18   12      1.96     -3.68
    4   19   12      4.62     -9.46
    5   19   12      7.57     -2.07
    6   19   12     -2.65     -5.42
    7   19   12     -0.12      8.46
    8   19   12      0.13     -4.80
    9   19   12      0.45      3.25
   10   19   12      1.90      0.19
   11   19   12     -3.16      0.72
    0   20   12     -5.91      0.57
    1   20   12      3.60     -6.42
    2   20   12     -1.42      4.35
    3   20   12     -2.78     -2.06
    4   20   12     -2.14      2.00
    5   20   12     -6.31      2.47
    6   20   12      3.19      4.61
    7   20   12     -0.41     -6.35
    8   20   12     -1.79      3.66
    9   20   12      1.35     -2.92
    0   21   12      2.65     -1.02
    1   21   12     -2.82      4.23
    2   21   12      3.24     -1.31
    3   21   12     -1.48      0.52
    4   21   12      4.63     -2.66
    5   21   12     -1.69      5.78
    6   21   12      1.65     -3.05
    0    2   13     -0.86     11.69
    2    2   13    -13.61     13.96
   13   14   13     -0.75     -2.75
   14   14   13      3.37     -2.14
   12   15   13      5.32      0.09
   13   15   13     -3.29      6.36
   14   15   13     -0.56      1.00
   15   15   13      1.38     -2.10
   11   16   13      0.73      1.13
   12   16   13      1.90     -1.44
   13   16   13     -3.15     -3.10
   14   16   13      2.47      0.65
    9   17   13      1.48      3.04
   10   17   13     -2.47     -1.06
   11   17   13     -4.76      0.77
   12   17   13     -3.12     -0.20
   13   17   13      3.11      2.39
    6   18   13      1.41      2.25
    7   18   13     -3.30     -5.69
    8   18   13      0.11      0.04
    9   18   13      1.08     -2.66
   10   18   13      3.51     -1.05
   11   18   13     -0.32      4.91
   12   18   13      4.09     -4.49
    0   19   13      0.46      6.06
    1   19   13     -0.21     -1.95
    2   19   13      8.12     -1.81
    3   19   13     -4.69      1.52
    4   19   13      2.05      1.06
    5   19   13     -1.57      0.70
    6   19   13     -1.15      2.12
    7   19   13     -0.33      2.12
    8   19   13      1.83     -1.56
    9   19   13     -3.78      5.71
   10   19   13      0.86     -2.89
    0   20   13      0.64     -1.73
    1   20   13     -0.76     -1.05
    2   20   13     -2.41      0.36
    3   20   13     -1.13      3.00
    4   20   13      2.81     -5.20
    5   20   13     -7.76     -1.86
    6   20   13      6.27      0.25
    7   20   13      0.38     -1.17
    8   20   13     -1.84     -0.60
    0   21   13     -0.78      7.54
    1   21   13      1.48     -5.19
    2   21   13     -1.04      2.21
    3   21   13      2.15      1.47
    4   21   13     -1.33     -0.88
    5   21   13      2.74      2.94
   13   14   14      2.73      3.26
   14   14   14     -1.28     -3.09
   11   15   14      2.34      1.52
   12   15   14     -7.22     -2.67
   13   15   14      0.59      1.38
   14   15   14      1.90     -0.66
   15   15   14      0.07     -1.78
   10   16   14      0.44      9.42
   11   16   14     -3.36     -4.88
   12   16   14      2.68      1.39
   13   16   14      0.43      1.13
   14   16   14     -2.27      4.34
    8   17   14     -3.21     -6.87
    9   17   14      0.05     -0.66
   10   17   14      2.89     -1.12
   11   17   14      2.60     -0.27
   12   17   14     -0.90      0.16
   13   17   14      3.47     -2.64
    5   18   14      0.79     -1.34
    6   18   14      3.01      0.38
    7   18   14      4.61      0.52
    8   18   14     -2.85      3.66
    9   18   14      1.01      1.31
   10   18   14     -3.06     -1.74
   11   18   14     -1.58      0.89
    0   19   14      4.65      1.01
    1   19   14     -0.93      2.72
    2   19   14     -0.03     -2.01
    3   19   14     -2.17     -1.44
    4   19   14      6.63      9.35
    5   19   14     -2.72     -4.07
    6   19   14     -5.22      5.56
    7   19   14      5.70      0.58
    8   19   14     -3.19     -1.57
    9   19   14      3.27     -3.30
   10   19   14      0.50      1.54
    0   20   14     -4.71     -1.26
    1   20   14      1.24     -1.26
    2   20   14     -1.59      2.52
    3   20   14     -0.98     -0.70
    4   20   14      2.11     -1.57
    5   20   14     -1.19      0.92
    6   20   14      1.85     -3.35
    7   20   14     -3.12     -0.36
    0   21   14      1.53      0.07
    1   21   14     -0.64     -0.77
    2   21   14      2.12     -0.53
    3   21   14     -1.79     -0.54
    4   21   14      1.43     -1.91
   13   13   15     -0.07      0.71
   12   14   15      6.04      1.32
   13   14   15     -2.02      2.84
   14   14   15      0.08      0.74
   11   15   15      3.29      3.01
   12   15   15     -1.69     -6.45
   13   15   15     -0.89      0.42
   14   15   15      0.92     -2.35
    9   16   15      0.80     -3.54
   10   16   15     -3.29      1.32
   11   16   15     -3.07      0.91
   12   16   15     -0.70      2.75
   13   16   15     -1.49     -1.93
    7   17   15      2.96      1.80
    8   17   15      1.19     -2.55
    9   17   15     -5.76     -0.68
   10   17   15      3.19     -1.69
   11   17   15      2.36     -1.20
   12   17   15      1.74     -0.52
    3   18   15      3.72      6.97
    4   18   15     -0.69      0.19
    5   18   15      2.71      4.38
    6   18   15     -4.43      0.24
    7   18   15      2.15     -1.56
    8   18   15     -0.48      2.35
    9   18   15     -2.21     -1.47
   10   18   15      7.02      2.35
   11   18   15     -8.39      0.84
    0   19   15     -0.78      6.00
    1   19   15     -2.09     -1.97
    2   19   15     -4.19     -3.24
    3   19   15     -6.47      6.60
    4   19   15      0.86     -5.77
    5   19   15     -1.33     -3.37
    6   19   15      8.58      0.40
    7   19   15     -7.34      1.34
    8   19   15      3.37      0.70
    9   19   15      0.39      0.48
    0   20   15     -0.65      6.13
    1   20   15      7.10     -2.89
    2   20   15      2.03     -0.21
    3   20   15      3.51     -0.82
    4   20   15      0.08      2.12
    5   20   15     -3.38      2.91
    6   20   15      1.04     -2.88
    0   21   15      0.63     -4.04
    1   21   15     -2.32      0.56
    2   21   15     -2.92      1.22
    1    1   16    -14.88      2.02
   13   13   16     -2.31      1.11
   12   14   16     -2.38     -0.02
   13   14   16      2.96      1.15
   14   14   16     -1.99     -0.48
   10   15   16      0.95      4.88
   11   15   16      7.45      3.37
   12   15   16     -0.45      0.36
   13   15   16      1.23     -1.49
   14   15   16     -0.20     -0.43
    8   16   16     -1.52     -5.09
    9   16   16      0.66     -3.09
   10   16   16      1.02     -1.42
   11   16   16      0.25     -4.17
   12   16   16     -5.59      0.65
   13   16   16      1.63     -0.02
    6   17   16     -1.08      1.29
    7   17   16      5.19     -1.38
    8   17   16     -4.53      3.89
    9   17   16      3.52      1.73
   10   17   16     -2.26      2.09
   11   17   16     -1.90     -1.93
   12   17   16      2.76      1.78
    0   18   16      3.39     -1.88
    1   18   16      0.30     -6.74
    2   18   16     -0.72      9.96
    3   18   16      2.23     -4.34
    4   18   16      1.72     -1.12
    5   18   16      6.34     -1.33
    6   18   16     -3.82      4.48
    7   18   16      0.54      0.49
    8   18   16      0.68     -7.85
    9   18   16      0.44      1.36
   10   18   16      0.62      1.99
    0   19   16     -4.12      0.45
    1   19   16     -1.11      0.85
    2   19   16     -0.30      0.42
    3   19   16     -6.58      2.88
    4   19   16      0.30     -2.58
    5   19   16     -2.77     -0.52
    6   19   16     -1.27     -0.24
    7   19   16      0.78     -1.20
    8   19   16     -1.58      4.26
    0   20   16      1.54     -0.08
    1   20   16      2.07      1.76
    2   20   16     -1.40     -5.81
    3   20   16      2.31     -2.29
    4   20   16      4.97      4.62
    5   20   16     -3.57     -0.47
    0   12   17     -0.44      5.99
    0   13   17     -0.33    -18.90
   12   13   17     -3.24     -1.75
   13   13   17      1.79     -1.36
   11   14   17     -1.53     -3.29
   12   14   17      1.23      1.54
   13   14   17      1.31     -1.18
   14   14   17     -0.57      1.22
    9   15   17      4.96      6.32
   10   15   17      2.14      0.43
   11   15   17     -3.05      0.06
   12   15   17      0.51     -0.84
   13   15   17     -2.56      2.22
    7   16   17      0.50     -1.54
    8   16   17      3.64     -0.81
    9   16   17     -0.26     -4.66
   10   16   17     -1.98      1.15
   11   16   17      4.10      2.18
   12   16   17      0.99     -1.26
    4   17   17     -1.81      5.23
    5   17   17      5.08      0.81
    6   17   17      1.20     -2.41
    7   17   17     -2.59     -0.88
    8   17   17      4.07      0.54
    9   17   17     -4.12      3.44
   10   17   17      3.14     -1.06
   11   17   17     -1.75     -3.14
    0   18   17     -0.61     10.31
    1   18   17      4.96     -0.88
    2   18   17     -3.49      1.73
    3   18   17     -4.77     -5.08
    4   18   17     -1.37      5.03
    5   18   17     -2.70     -5.27
    6   18   17     -2.47     -3.37
    7   18   17      2.77      3.53
    8   18   17     -0.85      1.81
    9   18   17     -2.05     -3.84
    0   19   17     -0.25      2.62
    1   19   17      3.41     -4.45
    2   19   17      4.21     -4.05
    3   19   17      0.10      8.34
    4   19   17     -0.04     -4.78
    5   19   17      1.00      3.66
    6   19   17      0.95     -1.82
    7   19   17     -0.59      0.36
    0   20   17     -0.11     -0.32
    1   20   17     -2.50      1.64
    2   20   17     -5.84      0.13
    3   20   17      1.95     -0.58
    4   20   17     -0.13     -0.10
    2    2   18     -1.04      4.51
    0   12   18      7.84      0.51
   12   12   18      0.34      1.01
    0   13   18     -6.06     -0.09
   11   13   18     -2.39      0.82
   12   13   18      0.18     -1.91
   13   13   18      0.31      4.96
    0   14   18      9.40      0.06
    1   14   18     -0.75      2.24
   10   14   18      7.65      6.43
   11   14   18     -3.65     -2.29
   12   14   18      1.21     -2.16
   13   14   18     -1.47     -1.99
   14   14   18     -0.29     -0.14
    0   15   18      5.71      0.50
    8   15   18     -2.55     -5.55
    9   15   18     -2.39      5.55
   10   15   18     -4.40     -5.34
   11   15   18     -0.95      2.15
   12   15   18      2.58      2.52
   13   15   18     -2.16      0.63
    6   16   18     -4.49     -7.95
    7   16   18     -1.12      0.34
    8   16   18      6.40      1.84
    9   16   18     -3.71      0.10
   10   16   18      3.33      1.53
   11   16   18      3.22     -1.05
   12   16   18     -1.87      0.56
    0   17   18      6.63     -1.39
    1   17   18      0.52      5.59
    2   17   18     -1.50     -0.40
    3   17   18     -1.30     -1.20
    4   17   18      2.87     -7.48
    5   17   18     -2.39     -0.12
    6   17   18     -2.41      4.55
    7   17   18      1.48     -1.28
    8   17   18     -1.41     -1.61
    9   17   18      2.85     -1.17
   10   17   18     -3.21      2.77
    0   18   18     -5.02      0.26
    1   18   18     -1.42     -1.07
    2   18   18     -4.10      1.36
    3   18   18      1.50      0.63
    4   18   18     -0.34      0.65
    5   18   18     -4.15      4.60
    6   18   18      2.54     -5.53
    7   18   18     -1.70      2.11
    8   18   18      1.95      1.92
    0   19   18      6.56      0.01
    1   19   18     -1.97     -3.36
    2   19   18      3.96     -1.59
    3   19   18      1.86     -0.37
    4   19   18     -0.52      0.10
    5   19   18      1.81     -0.69
    6   19   18     -0.26     -0.66
    0   20   18      0.39     -0.14
    1   20   18     -0.75      4.16
    0   12   19     -0.43      1.80
   12   12   19     -2.63     -3.52
    0   13   19      0.42     -8.03
   11   13   19     -0.31      5.56
   12   13   19      4.53     -4.25
   13   13   19      0.23     -0.95
    0   14   19     -0.85      0.61
    1   14   19     -1.86      1.49
    9   14   19     -0.71      0.30
   10   14   19      1.11      5.29
   11   14   19      2.24      1.35
   12   14   19     -2.55      2.42
   13   14   19      0.75     -0.17
    0   15   19     -1.01    -16.75
    1   15   19     -7.60      5.82
    2   15   19      2.83      2.73
    7   15   19      0.46     -1.90
    8   15   19      2.28     -2.59
    9   15   19      3.95      8.11
   10   15   19     -6.35     -7.94
   11   15   19      1.93     -4.04
   12   15   19      0.24      0.79
    0   16   19      0.55      2.82
    1   16   19     -3.40      1.74
    2   16   19      5.38     -0.08
    4   16   19     -0.03      2.79
    5   16   19      5.75      2.74
    6   16   19      1.99     -8.67
    7   16   19      2.68     -7.44
    8   16   19     -8.63      6.71
    9   16   19     -0.33     -5.68
   10   16   19      2.19      2.92
   11   16   19     -1.19      2.90
    0   17   19     -0.58     -4.80
    1   17   19      6.72      2.98
    2   17   19     -4.44      1.14
    3   17   19     -5.70     -2.82
    4   17   19     -1.32      2.65
    5   17   19     -4.73     -2.26
    6   17   19     -0.96      0.65
    7   17   19     -1.25      8.49
    8   17   19     -1.05     -2.36
    9   17   19      3.29      0.22
    0   18   19      0.82      2.61
    1   18   19     -3.84     -3.32
    2   18   19     -0.45     -4.26
    3   18   19      2.91      6.15
    4   18   19      2.49     -1.37
    5   18   19      0.76     -0.23
    6   18   19     -1.32      0.08
    7   18   19      2.50     -1.84
    0   19   19      0.79      6.78
    1   19   19      4.22     -3.38
    2   19   19     -3.31      1.18
    3   19   19      3.80      0.26
    4   19   19     -2.40     -3.16
    0   12   20      7.10     -0.28
   11   12   20      4.35      3.00
   12   12   20     -7.64     -0.56
    0   13   20    -19.59      0.52
   10   13   20      5.09     -6.64
   11   13   20     -8.25     -0.33
   12   13   20      2.63     -1.61
   13   13   20     -2.45     -0.55
    0   14   20     10.81     -1.03
    1   14   20     -5.01      7.81
    8   14   20     -1.78      3.40
    9   14   20     -2.18      1.29
   10   14   20     -0.06      1.50
   11   14   20      0.68      5.57
   12   14   20      1.01      0.37
   13   14   20      1.25      0.89
    0   15   20     -5.54     -0.27
    1   15   20     -4.35     -5.65
    2   15   20      4.63      2.41
    6   15   20      6.33      5.00
    7   15   20      3.34     -2.19
    8   15   20      4.78     -1.02
    9   15   20     -0.53     -2.51
   10   15   20      0.61     -1.65
   11   15   20      0.22     -2.51
    0   16   20     -0.99     -0.11
    1   16   20      3.65      1.15
    2   16   20      3.31      0.52
    3   16   20     -0.94     -5.61
    4   16   20      3.69     -0.14
    5   16   20     -4.01     -4.55
    6   16   20     -6.67      4.28
    7   16   20      7.01     -0.40
    8   16   20     -5.28     -2.80
    9   16   20      1.48      1.06
   10   16   20     -1.50      4.07
    0   17   20      2.74      0.87
    1   17   20     -3.19     -5.50
    2   17   20     -1.09      4.44
    3   17   20      0.22      0.05
    4   17   20     -0.92      1.71
    5   17   20      4.22     -0.13
    6   17   20      4.58     -0.70
    7   17   20     -8.63     -1.48
    8   17   20      6.75      1.87
    0   18   20      4.01     -0.04
    1   18   20     -2.82      2.99
    2   18   20      3.06     -4.36
    3   18   20     -3.89      2.95
    4   18   20      3.55     -4.06
    5   18   20     -2.65      6.15
    6   18   20     -3.63     -3.88
    0   19   20     -0.27     -0.26
    1   19   20     -1.16     -0.53
    2   19   20      1.85      2.38
   11   11   21     -2.73      1.74
    0   12   21      0.39     -4.70
   10   12   21      5.34      3.31
   11   12   21      3.47     -3.93
   12   12   21      2.35     -2.14
    0   13   21     -0.46      7.55
    8   13   21      5.73      7.02
    9   13   21     -2.25     -6.95
   10   13   21      1.67      0.44
   11   13   21     -2.21      7.79
   12   13   21     -1.88     -4.18
   13   13   21     -1.51      2.61
    0   14   21     -0.13     -7.28
    1   14   21      8.03     -5.10
    7   14   21     -1.11     -6.78
    8   14   21      1.85     -0.74
    9   14   21     -0.43      1.75
   10   14   21     -3.29     -1.36
   11   14   21      0.58     -5.19
   12   14   21     -1.00      2.29
    0   15   21     -0.09      5.71
    1   15   21     -1.92      0.84
    2   15   21      3.22     -4.24
    3   15   21      2.97     -1.40
    4   15   21      0.79      3.79
    5   15   21     -1.70      1.86
    6   15   21     -2.98     -5.32
    7   15   21     -0.21     -0.01
    8   15   21      0.90      1.92
    9   15   21     -2.18      1.82
   10   15   21      0.02     -1.07
   11   15   21      2.57      2.28
    0   16   21     -1.34     -4.38
    1   16   21     -8.03      2.14
    2   16   21      2.81     -2.12
    3   16   21     -5.53     -2.24
    4   16   21     -1.46      1.64
    5   16   21     -2.61      4.76
    6   16   21     -1.13     -5.81
    7   16   21      1.38      9.36
    8   16   21     -1.14      0.19
    9   16   21      2.97     -4.49
    0   17   21      0.70     -0.41
    1   17   21      4.19      1.30
    2   17   21     -1.86      2.53
    3   17   21      7.02     -1.30
    4   17   21     -0.72     -1.73
    5   17   21      0.80      0.27
    6   17   21      1.83     -0.22
    7   17   21      1.38     -5.02
    0   18   21      0.04     -2.07
    1   18   21     -5.10      0.70
    2   18   21      6.83     -1.57
    3   18   21     -6.14      2.81
    4   18   21      2.76     -3.25
   10   11   22      4.89      8.35
   11   11   22     -0.21      8.99
    0   12   22     -7.40     -0.93
    9   12   22     -3.89      0.54
   10   12   22     -2.28     -5.38
   11   12   22      0.66      0.01
   12   12   22     -0.93     -5.07
    0   13   22     -9.77      0.52
    1   13   22      6.10     -8.18
    7   13   22      5.64     -5.31
    8   13   22     -6.92      3.77
    9   13   22      1.19      1.95
   10   13   22      2.02     -1.46
   11   13   22      0.46      4.31
   12   13   22     -0.37      0.91
    0   14   22     -2.52      0.92
    1   14   22     -2.43      3.61
    5   14   22     -5.03      3.13
    6   14   22     -2.55     -1.93
    7   14   22     -0.04     -0.92
    8   14   22      1.57     -0.47
    9   14   22      2.39     -1.16
   10   14   22     -0.06     -3.58
   11   14   22     -0.78     -3.20
    0   15   22      0.66     -0.48
    1   15   22      2.13      0.28
    2   15   22      3.20     -0.34
    3   15   22     11.11      3.76
    4   15   22     -4.83      1.24
    5   15   22      6.47     -5.29
    6   15   22     -0.08      0.51
    7   15   22     -2.64     -0.91
    8   15   22      0.30      0.69
    9   15   22      2.89      0.61
   10   15   22     -3.83      5.82
    0   16   22     -6.01      0.20
    1   16   22      2.47     -6.04
    2   16   22     -6.21      6.12
    3   16   22     -1.42     -0.58
    4   16   22      0.62     -0.98
    5   16   22     -2.56     -0.53
    6   16   22     -0.65      0.89
    7   16   22      1.67      1.72
    8   16   22     -1.11      0.82
    0   17   22      0.43      0.36
    1   17   22     -1.14      0.52
    2   17   22      1.64      0.68
    3   17   22     -1.82     -2.36
    4   17   22      2.93     -1.56
    5   17   22     -2.71      5.31
    6   17   22      1.23     -2.92
    0   18   22      5.07     -0.18
    1   18   22      0.07     -0.30
    2   18   22      0.46     -0.22
   10   10   23     -3.70     -5.39
    0   11   23     -0.35      2.18
    9   11   23      3.85      2.75
   10   11   23      4.14     -2.56
   11   11   23      1.29      3.25
    0   12   23      0.04      4.49
    7   12   23      4.41      4.38
    8   12   23     -4.35     -3.68
    9   12   23     -1.11      2.06
   10   12   23     -0.83     -2.91
   11   12   23     -3.88      0.42
   12   12   23      2.22      1.18
    0   13   23     -0.67      1.10
    1   13   23     -1.33     -1.43
    5   13   23     -5.36     -5.73
    6   13   23     -1.22     -3.31
    7   13   23     -1.13     -1.44
    8   13   23      1.03      1.16
    9   13   23      1.60     -0.16
   10   13   23     -3.27      3.53
   11   13   23      3.41     -0.86
    0   14   23     -0.47     -5.47
    1   14   23      0.20     -3.07
    2   14   23      2.23     -2.58
    3   14   23     -0.45     -3.02
    4   14   23      0.13     -4.79
    5   14   23     -0.22      7.43
    6   14   23     -1.97     -3.50
    7   14   23      0.26      4.63
    8   14   23     -1.15     -0.18
    9   14   23     -0.58     -1.98
   10   14   23      1.89      0.90
    0   15   23     -0.01     10.72
    1   15   23     -0.79     -1.97
    2   15   23      0.05     -0.99
    3   15   23     -2.41      2.42
    4   15   23     -1.26      2.00
    5   15   23     -2.15      0.88
    6   15   23      5.92      0.99
    7   15   23     -3.61     -5.20
    8   15   23      3.13      2.63
    9   15   23     -1.05     -1.60
    0   16   23      1.04     -4.70
    1   16   23     -3.73      0.75
    2   16   23      3.51      5.02
    3   16   23      1.18     -3.29
    4   16   23      4.38     -2.21
    5   16   23     -0.21      1.83
    6   16   23     -0.40     -3.49
    7   16   23     -0.75      3.70
    0   17   23     -0.23     -2.08
    1   17   23      1.05      0.54
    2   17   23     -2.27     -1.00
    3   17   23     -0.47     -0.59
    4   17   23     -2.29      2.20
    9   10   24      0.01      2.14
   10   10   24      9.19     -1.57
    0   11   24     -6.26     -0.70
    7   11   24      0.47     -0.21
    8   11   24      0.30      6.17
    9   11   24      0.79     -3.69
   10   11   24     -0.13      2.40
   11   11   24     -7.62      0.33
    0   12   24     14.10      1.34
    6   12   24     -1.90      7.77
    7   12   24      5.26     -2.00
    8   12   24      1.02      4.64
    9   12   24     -4.25     -7.85
   10   12   24      1.06     -0.15
   11   12   24      2.95      4.59
    0   13   24     -8.05      0.29
    1   13   24      4.91     -6.12
    2   13   24     -3.54     -2.99
    3   13   24     -2.82      8.28
    4   13   24      2.83      2.79
    5   13   24      2.44     -3.97
    6   13   24      1.39     -2.02
    7   13   24     -0.49     -0.50
    8   13   24     -3.16     -2.02
    9   13   24      2.71      4.93
   10   13   24     -0.88     -3.39
    0   14   24     -4.79      0.12
    1   14   24      2.53     -5.40
    2   14   24      9.97      0.82
    3   14   24     -3.68      4.43
    4   14   24      0.09     -3.36
    5   14   24      0.40      3.75
    6   14   24     -1.00     -2.99
    7   14   24     -1.46      2.61
    8   14   24      2.17     -2.97
    9   14   24      0.05      3.89
    0   15   24     -1.00     -0.20
    1   15   24     -1.22      3.33
    2   15   24     -5.01      3.12
    3   15   24     -1.69     -8.36
    4   15   24      3.23      3.07
    5   15   24     -3.64     -0.94
    6   15   24      1.54      0.98
    7   15   24     -0.84      1.12
    0   16   24      1.60      1.18
    1   16   24      3.18      0.10
    2   16   24     -1.11     -1.91
    3   16   24      1.34      1.72
    4   16   24      0.19     -2.20
    5   16   24      0.95      2.18
    9    9   25     -0.35      1.07
    7   10   25      1.35      6.22
    8   10   25     -0.41     -0.42
    9   10   25     -0.39      0.91
   10   10   25     -3.56      3.57
    0   11   25     -0.63     -9.32
    6   11   25      2.79      4.14
    7   11   25      0.37     -4.18
    8   11   25      2.88     -0.96
    9   11   25     -3.16      0.65
   10   11   25      5.16     -2.72
   11   11   25     -2.58      2.00
    0   12   25      0.10      3.03
    2   12   25     -8.55     -2.61
    3   12   25     -1.75      0.59
    4   12   25      4.67      5.03
    5   12   25      1.59     -2.68
    6   12   25     -5.84     -4.26
    7   12   25      1.23     -0.14
    8   12   25     -3.26      8.04
    9   12   25      3.62     -2.54
   10   12   25     -3.58     -0.68
    0   13   25      0.30     -3.27
    1   13   25      5.27     -5.01
    2   13   25      3.53      1.09
    3   13   25      1.28     -3.02
    4   13   25     -2.57      0.44
    5   13   25     -3.36     -0.34
    6   13   25      2.46     -0.06
    7   13   25      3.22      4.25
    8   13   25     -3.33     -6.95
    9   13   25      3.13      0.86
    0   14   25      0.02      2.69
    1   14   25      1.65      7.02
    2   14   25     -4.90     -1.21
    3   14   25     -0.78      1.20
    4   14   25      2.47      0.72
    5   14   25      3.23      2.09
    6   14   25     -1.75      1.29
    7   14   25     -0.56     -1.21
    8   14   25     -0.25     -0.33
    0   15   25     -1.07     -1.54
    1   15   25     -4.79     -3.03
    2   15   25      1.90      2.77
    3   15   25      0.30     -3.09
    4   15   25      5.06     -1.41
    5   15   25     -6.93      1.82
    6   15   25      2.60     -4.29
    0   16   25      0.78     -3.17
    1   16   25      2.13      0.85
    2   16   25      1.81      0.03
    8    8   26     -0.97      0.50
    7    9   26     -1.11      3.15
    8    9   26      3.02      2.15
    9    9   26      0.27     -2.34
    5   10   26      2.30      6.50
    6   10   26     -6.55     -9.03
    7   10   26      1.48     -3.59
    8   10   26     -6.31      3.41
    9   10   26      1.73     -2.64
   10   10   26     -0.73      0.38
    0   11   26      4.47      0.49
    2   11   26     -0.02      1.31
    3   11   26      4.90     -1.65
    4   11   26      4.19      0.74
    5   11   26      1.75      0.92
    6   11   26     -3.80      3.42
    7   11   26      8.83      1.00
    8   11   26     -2.41      1.22
    9   11   26     -2.12     -1.52
   10   11   26      1.84      0.39
    0   12   26     -2.38      0.58
    1   12   26      3.13      5.26
    2   12   26     -3.79     -3.23
    3   12   26     -2.09     -0.30
    4   12   26      1.01      4.21
    5   12   26     -5.15     -1.80
    6   12   26      0.47      0.50
    7   12   26     -1.79     -3.47
    8   12   26      2.83      0.84
    9   12   26      0.20      1.59
    0   13   26      0.33     -0.42
    1   13   26     -1.17     -3.21
    2   13   26      5.43      1.41
    3   13   26     -2.82     -4.11
    4   13   26      1.65      1.48
    5   13   26     -0.71     -2.03
    6   13   26      0.03     -0.07
    7   13   26     -0.66      2.72
    8   13   26     -0.68     -2.32
    0   14   26      0.08      0.48
    1   14   26     -0.85     -0.29
    2   14   26     -2.67      0.18
    3   14   26      2.66      2.96
    4   14   26     -2.26      1.05
    5   14   26      2.20     -1.98
    6   14   26      3.17     -0.14
    0   15   26      3.41     -0.62
    1   15   26     -0.94      0.58
    2   15   26      0.96     -0.94
    3   15   26     -0.30      0.43
    6    8   27     -2.83      0.64
    7    8   27      4.75     -0.60
    8    8   27     -2.06     -2.01
    5    9   27     -1.13     -5.01
    6    9   27      2.34      0.97
    7    9   27     -5.26      2.09
    8    9   27      3.12     -1.71
    9    9   27     -1.07     -1.86
    0   10   27     -0.13     -0.17
    1   10   27     -1.33      7.34
    2   10   27     -3.17     -5.02
    3   10   27      1.69      0.04
    4   10   27     -0.88      6.69
    5   10   27     -1.13     -2.27
    6   10   27      3.42     -5.01
    7   10   27     -1.38      6.97
    8   10   27      1.37     -3.97
    9   10   27      1.17      2.83
   10   10   27     -0.85     -0.24
    0   11   27      0.14      0.39
    1   11   27      0.07     -3.25
    2   11   27      1.76     -3.77
    3   11   27     -2.04     -2.80
    4   11   27     -0.32      0.17
    5   11   27      0.71     -1.64
    6   11   27      2.33     -1.00
    7   11   27     -1.34      1.24
    8   11   27      0.97      1.12
    9   11   27     -2.44     -3.27
    0   12   27      0.06     -4.61
    1   12   27      8.20      4.55
    2   12   27     -5.36      1.91
    3   12   27     -0.51      3.94
    4   12   27      4.80     -1.59
    5   12   27     -1.31      3.03
    6   12   27     -5.36      0.61
    7   12   27      1.19     -1.79
    8   12   27     -0.02      1.96
    0   13   27     -0.84      2.25
    1   13   27      0.89      0.39
    2   13   27     -4.38     -1.79
    3   13   27      2.45     -3.71
    4   13   27      1.69      4.19
    5   13   27     -1.24     -3.13
    6   13   27      3.45     -0.34
    0   14   27      1.17     -0.77
    1   14   27      1.74     -1.83
    2   14   27      3.71      1.77
    3   14   27     -5.86     -0.49
    4   14   27     -0.53     -0.11
    5    7   28      5.77     -1.63
    6    7   28     -4.80      5.15
    7    7   28      1.07     -0.66
    4    8   28     -4.89      2.20
    5    8   28      1.09     -0.57
    6    8   28      1.62     -2.68
    7    8   28      1.03      3.34
    8    8   28     -0.74      1.32
    0    9   28     -2.59     -0.18
    1    9   28     -7.71     -0.32
    2    9   28     -0.30      0.44
    3    9   28     -3.54      1.84
    4    9   28      2.42      1.14
    5    9   28     -6.02      3.89
    6    9   28      1.33     -2.68
    7    9   28      2.21     -5.38
    8    9   28     -4.46     -1.32
    9    9   28      1.81      0.26
    0   10   28      8.53      0.09
    1   10   28     -1.77     -0.10
    2   10   28      3.59     -3.48
    3   10   28     -1.20      4.42
    4   10   28      3.20     -4.26
    5   10   28      4.12      1.69
    6   10   28      0.38      0.72
    7   10   28     -0.96      5.58
    8   10   28      2.45      1.83
    9   10   28     -0.11     -0.72
    0   11   28     -3.04     -0.47
    1   11   28      0.25      2.09
    2   11   28      2.50      3.03
    3   11   28     -1.96     -5.93
    4   11   28     -1.89      2.57
    5   11   28     -5.68     -1.93
    6   11   28     -0.13      0.52
    7   11   28     -1.42     -4.35
    8   11   28     -0.60      1.17
    0   12   28      4.15      0.33
    1   12   28     -4.05     -0.74
    2   12   28      0.23     -2.12
    3   12   28      1.97      1.75
    4   12   28     -0.05      2.29
    5   12   28      2.53     -0.82
    6   12   28      3.37     -1.04
    0   13   28      3.29      0.35
    1   13   28     -0.24      3.22
    2   13   28     -3.16     -1.69
    3   13   28      4.86      1.42
    4   13   28     -3.12     -2.48
    5    5   29     -2.01      1.06
    4    6   29      3.64     -2.10
    5    6   29     -2.23      6.27
    6    6   29     -2.10      2.69
    0    7   29      0.98     -3.84
    1    7   29     -2.26      2.05
    2    7   29     -4.63      0.22
    3    7   29      0.01      2.00
    4    7   29      0.13     -2.56
    5    7   29      1.67     -4.83
    6    7   29     10.01      2.26
    7    7   29     -0.75     -0.10
    0    8   29      1.61     -4.75
    1    8   29     -0.52      3.52
    2    8   29      5.56     -4.23
    3    8   29      1.48      4.38
    4    8   29      1.56      0.59
    5    8   29     -8.35      1.39
    6    8   29     -0.71      1.21
    7    8   29     -3.43      3.28
    8    8   29      7.99     -7.18
    0    9   29     -0.29     -4.74
    1    9   29     -0.81      4.93
    2    9   29     -0.83      1.52
    3    9   29     -4.78     -4.99
    4    9   29      4.79     -0.46
    5    9   29     -0.86     -0.99
    6    9   29      0.36     -1.92
    7    9   29      1.69      1.50
    8    9   29     -2.12      1.02
    9    9   29     -1.70      2.34
    0   10   29     -0.43     -6.52
    1   10   29      1.43      1.42
    2   10   29      1.03     -3.73
    3   10   29      1.41      3.68
    4   10   29     -3.36     -0.22
    5   10   29      0.44     -0.86
    6   10   29      3.85      0.58
    7   10   29     -1.55     -0.85
    0   11   29     -0.67      1.74
    1   11   29     -0.58      4.21
    2   11   29     -4.59     -0.62
    3   11   29      3.98      0.05
    4   11   29      1.18      1.89
    5   11   29     -1.05      0.55
    6   11   29     -1.95     -0.08
    0   12   29     -0.07     -0.60
    1   12   29      7.28     -3.26
    2   12   29     -1.89     -0.15
    3   12   29     -3.94     -0.22
    4   12   29      3.04     -1.24
    2    4   30     -6.42     -4.64
    3    4   30      5.40      0.79
    4    4   30      0.06      3.91
    0    5   30     -2.73      2.56
    1    5   30      8.39     -4.15
    2    5   30     -1.87      1.21
    3    5   30     -0.33     -4.59
    4    5   30      1.26     -0.50
    5    5   30      0.50     -0.17
    0    6   30      1.94     -0.87
    1    6   30     -1.36      6.84
    2    6   30     -9.44     -7.06
    3    6   30      3.18      3.88
    4    6   30      2.04      3.50
    5    6   30      0.16     -1.32
    6    6   30      0.03      0.00
    0    7   30     -1.83      2.00
    1    7   30      6.32     -7.05
    2    7   30      3.42     10.64
    3    7   30     -2.63     -2.86
    4    7   30      2.90     -4.75
    5    7   30     -6.15     -1.25
    6    7   30      3.36      3.33
    7    7   30     -0.60     -0.02
    0    8   30     -7.78     -0.17
    1    8   30     -1.65     -1.48
    2    8   30     -0.17     -1.81
    3    8   30      0.54      1.04
    4    8   30     -3.64      1.61
    5    8   30      3.71      1.82
    6    8   30     -1.21     -2.28
    7    8   30      0.90     -1.22
    8    8   30      0.24      0.73
    0    9   30      6.29     -0.48
    1    9   30     -0.44     -0.14
    2    9   30      0.25     -0.25
    3    9   30     -1.50     -0.93
    4    9   30      4.20      3.03
    5    9   30      0.74     -5.71
    6    9   30     -3.00      3.11
    7    9   30      0.13      0.38
    0   10   30      2.41     -1.27
    1   10   30     -1.22      2.89
    2   10   30     -2.34      0.18
    3   10   30      5.35     -1.17
    4   10   30     -4.68     -1.79
    5   10   30     -1.21      5.21
    0   11   30      3.55      0.90
    1   11   30     -3.41      0.67
    2   11   30      1.11     -1.58
    3   11   30     -0.53      2.01
    0    1   31      1.09     -0.71
    1    1   31     -3.05     -0.51
    0    2   31     -0.70      2.40
    1    2   31     -1.63     -2.07
    2    2   31      5.66      6.40
    0    3   31     -1.84      2.80
    1    3   31      1.99     -3.66
    2    3   31     -1.99     -0.28
    3    3   31      0.19     -2.07
    0    4   31     -1.31     -3.62
    1    4   31     -0.19      2.14
    2    4   31     -2.35      1.41
    3    4   31      5.02     -2.13
    4    4   31     -1.74     -1.30
    0    5   31      0.38      3.67
    1    5   31      3.03     -0.83
    2    5   31     -1.86     -2.78
    3    5   31     -0.92     -0.66
    4    5   31     -1.24      5.68
    5    5   31     -1.91     -1.85
    0    6   31      0.53      0.98
    1    6   31     -0.54      0.83
    2    6   31     -2.03      2.85
    3    6   31     -1.78     -0.38
    4    6   31      6.04     -4.27
    5    6   31     -1.82      1.95
    6    6   31      0.14     -0.02
    0    7   31     -0.32     -8.23
    1    7   31      5.76      1.08
    2    7   31      1.74      1.14
    3    7   31      1.93     -0.07
    4    7   31     -4.72     -2.03
    5    7   31      1.36      2.35
    6    7   31     -0.69     -0.58
    7    7   31     -1.14     -1.71
    0    8   31     -0.04      2.40
    1    8   31     -5.30      0.88
    2    8   31     -2.16     -1.83
    3    8   31     -0.29      3.24
    4    8   31      0.95     -0.09
    5    8   31     -1.47     -1.83
    6    8   31      4.45      1.46
    0    9   31      0.11     -2.70
    1    9   31     -2.96      0.55
    2    9   31      2.88     -0.38
    3    9   31      0.78     -2.94
    4    9   31      0.89      1.60
    5    9   31     -2.49     -0.04
    0   10   31      0.39     -2.39
    1   10   31      4.80      1.99
    2   10   31     -2.25      1.64
    0    0    0      0.00      0.00
# SQUEEZE RESULTS (Version =  91117)
# Note: Data are Listed for all Voids in the P1 Unit Cell
# i.e. Centre of Gravity, Solvent Accessible Volume,
# Recovered number of Electrons in the Void and
# Details about the Squeezed Material
loop_
  _platon_squeeze_void_nr
  _platon_squeeze_void_average_x
  _platon_squeeze_void_average_y
  _platon_squeeze_void_average_z
  _platon_squeeze_void_volume
  _platon_squeeze_void_count_electrons
  _platon_squeeze_void_content
   1 -0.080  0.468  0.183      4805      1294 ' '
# Missing Reflections Below sin(th)/lambda = 0.25
loop_
  _platon_missing_refln_index_h
  _platon_missing_refln_index_k
  _platon_missing_refln_index_l
  _platon_missing_refln_theta
    0    1    0     1.133
    1    1    0     1.602
    0    2    0     2.266
    1    2    0     2.534
    2    2    0     3.205
    0    3    0     3.400
    0    1    1     1.370
    1    1    1     1.778
    0    2    1     2.394
    1    2    1     2.648
    2    2    1     3.297
    2    3    1     4.160
    0    1    2     1.913
    1    1    2     2.224
    0    2    2     2.741
    3    3    2     5.053
    1    4    2     4.924
    0    1    3     2.576
    1    1    3     2.814
    2    2    3     3.954
    0    0    4     3.085
    1    2    4     3.993
    0    4    4     5.489
    1    1    5     4.177
    2    2    5     5.018
    0    4    5     5.959
    0    5    5     6.867
    0    1    6     4.767
    1    1    6     4.900
    1    3    6     5.860
    2    2    7     6.288
    0    4    7     7.063
    0    0    8     6.178
    1    1    8     6.384
    0    2    9     7.318
    0    1   10     7.815
    3    3   11     9.793
_platon_squeeze_void_probe_radius                  1.20
_platon_squeeze_details
)
TITL p20201215d9_a.res in P4(3)22
CELL   17.9760   17.9760   26.4150     90.00     90.00     90.00
SPGR P4322
# Solvent Accessible Volume =      4822
# Electrons Found in S.A.V. =      1239
# Note: Atoms in Void are Labelled as Cxxx and Qxxx for all Others
C101 0.730 0.342 0.086 !       2.63 eA-3
C102 0.703 0.703 0.813 !       2.62 eA-3
C103 0.249 0.668 0.172 !       2.52 eA-3
Q104 0.703 0.733 0.923 !       2.24 eA-3
C105 0.271 0.372 0.845 !       2.22 eA-3
C106 0.812 0.395 0.321 !       2.20 eA-3
C107 0.570 0.376 0.738 !       2.20 eA-3
C108 0.860 0.376 0.133 !       2.17 eA-3
C109 0.457 0.941 0.564 !       2.15 eA-3
C110 0.529 0.434 0.837 !       2.15 eA-3
C111 0.315 0.859 0.946 !       2.10 eA-3
C112 0.407 0.169 0.582 !       2.09 eA-3
C113 0.492 0.411 0.945 !       2.05 eA-3
C114 0.716 0.377 0.006 !       2.05 eA-3
C115 0.422 0.653 0.867 !       2.04 eA-3
C116 0.687 0.611 0.089 !       2.03 eA-3
C117 0.654 0.670 0.233 !       2.03 eA-3
C118 0.345 0.607 0.448 !       2.01 eA-3
C119 0.644 0.455 0.918 !       2.00 eA-3
C120 0.222 0.219 0.627 !       1.99 eA-3
C121 0.175 0.391 0.630 !       1.99 eA-3
C122 0.639 0.607 0.526 !       1.98 eA-3
C123 0.468 0.500 0.397 !       1.98 eA-3
C124 0.675 0.670 0.143 !       1.96 eA-3
C125 0.392 0.185 0.006 !       1.93 eA-3
C126 0.234 0.597 0.842 !       1.93 eA-3
C127 0.562 0.642 0.442 !       1.93 eA-3
C128 0.721 0.531 0.243 !       1.91 eA-3
C129 0.354 0.360 0.793 !       1.87 eA-3
C130 0.089 0.340 0.229 !       1.86 eA-3
C131 0.364 0.358 0.602 !       1.86 eA-3
C132 0.641 0.893 0.025 !       1.83 eA-3
C133 0.516 0.830 0.962 !       1.83 eA-3
C134 0.263 0.185 0.640 !       1.82 eA-3
C135 0.495 0.815 0.897 !       1.81 eA-3
C136 0.427 0.421 0.953 !       1.81 eA-3
Q137 0.916 0.343 0.820 !       1.80 eA-3
C138 0.389 0.529 0.405 !       1.80 eA-3
C139 0.454 0.340 0.211 !       1.80 eA-3
C140 0.433 0.391 0.654 !       1.79 eA-3
Q141 0.667 0.360 0.817 !       1.79 eA-3
C142 0.678 0.659 0.823 !       1.79 eA-3
C143 0.563 0.500 0.691 !       1.79 eA-3
C144 0.703 0.703 0.397 !       1.78 eA-3
C145 0.762 0.691 0.422 !       1.78 eA-3
C146 0.590 0.716 0.129 !       1.77 eA-3
C147 0.455 0.469 0.273 !       1.77 eA-3
C148 0.637 0.873 0.560 !       1.76 eA-3
C149 0.535 0.329 0.252 !       1.76 eA-3
C150 0.814 0.407 0.283 !       1.76 eA-3
C151 0.377 0.938 0.448 !       1.76 eA-3
C152 0.301 0.652 0.226 !       1.75 eA-3
C153 0.728 0.327 0.625 !       1.75 eA-3
C154 0.622 0.658 0.773 !       1.74 eA-3
Q155 0.284 0.326 0.205 !       1.72 eA-3
C156 0.658 0.299 0.704 !       1.72 eA-3
C157 0.504 0.360 0.190 !       1.72 eA-3
C158 0.450 0.937 0.914 !       1.72 eA-3
C159 0.669 0.939 0.025 !       1.72 eA-3
C160 0.391 0.307 0.444 !       1.71 eA-3
C161 0.452 0.090 0.070 !       1.70 eA-3
C162 0.581 0.572 0.498 !       1.69 eA-3
C163 0.750 0.440 0.640 !       1.69 eA-3
C164 0.517 0.238 0.514 !       1.69 eA-3
C165 0.458 0.484 0.008 !       1.69 eA-3
C166 0.601 0.546 0.974 !       1.68 eA-3
C167 0.908 0.451 0.819 !       1.68 eA-3
C168 0.865 0.376 0.321 !       1.67 eA-3
Q169 0.775 0.609 0.881 !       1.67 eA-3
C170 0.458 0.172 0.552 !       1.67 eA-3
C171 0.542 0.424 0.700 !       1.67 eA-3
C172 0.568 0.938 0.562 !       1.67 eA-3
C173 0.572 0.500 0.749 !       1.67 eA-3
C174 0.420 0.328 0.598 !       1.66 eA-3
C175 0.309 0.480 0.014 !       1.66 eA-3
C176 0.466 0.513 0.952 !       1.66 eA-3
C177 0.892 0.593 0.676 !       1.66 eA-3
C178 0.280 0.611 0.554 !       1.65 eA-3
C179 0.189 0.686 0.829 !       1.65 eA-3
C180 0.515 0.671 0.631 !       1.65 eA-3
C181 0.096 0.346 0.689 !       1.65 eA-3
C182 0.536 0.094 0.929 !       1.64 eA-3
C183 0.719 0.328 0.131 !       1.64 eA-3
C184 0.292 0.548 0.858 !       1.62 eA-3
C185 0.612 0.298 0.391 !       1.62 eA-3
C186 0.616 0.474 0.723 !       1.62 eA-3
C187 0.547 0.436 0.590 !       1.62 eA-3
C188 0.291 0.636 0.133 !       1.61 eA-3
C189 0.618 0.530 0.644 !       1.61 eA-3
C190 0.626 0.467 0.764 !       1.61 eA-3
C191 0.409 0.485 0.375 !       1.61 eA-3
Q192 0.704 0.721 0.726 !       1.61 eA-3
C193 0.750 0.172 0.408 !       1.61 eA-3
C194 0.399 0.998 0.447 !       1.60 eA-3
Q195 0.153 0.799 0.899 !       1.60 eA-3
C196 0.388 0.405 0.041 !       1.60 eA-3
Q197 0.144 0.313 0.228 !       1.60 eA-3
C198 0.649 0.577 0.290 !       1.59 eA-3
C199 0.436 0.482 0.158 !       1.59 eA-3
)
;
_shelx_fab_checksum              42907
_platon_squeeze_void_probe_radius 1.20
loop_
_space_group_symop_operation_xyz
'x, y, z'
'-x, -y, z+1/2'
'-y, x, z+3/4'
'y, -x, z+1/4'
'-x, y, -z'
'x, -y, -z+1/2'
'y, x, -z+1/4'
'-y, -x, -z+3/4'
loop_
_atom_site_label
_atom_site_type_symbol
_atom_site_fract_x
_atom_site_fract_y
_atom_site_fract_z
_atom_site_U_iso_or_equiv
_atom_site_adp_type
_atom_site_occupancy
_atom_site_site_symmetry_order
_atom_site_calc_flag
_atom_site_refinement_flags_posn
_atom_site_refinement_flags_adp
_atom_site_refinement_flags_occupancy
_atom_site_disorder_assembly
_atom_site_disorder_group
Mn2 Mn 1.000000 0.7492(2) 0.500000 0.0513(9) Uani 1 2 d S T P . .
Mn1 Mn 1.24813(17) 0.16675(14) 0.17663(9) 0.0861(10) Uani 1 1 d . . . . .
O2 O 1.1900(7) 0.2032(7) 0.2391(4) 0.113(5) Uani 1 1 d D . . . .
O1 O 1.1654(6) 0.0813(8) 0.2495(4) 0.117(4) Uani 1 1 d D U . . .
C20 C 0.7827(9) 0.0965(9) 0.5946(5) 0.102(6) Uani 1 1 d D . . . .
H20 H 0.747325 0.107422 0.620251 0.123 Uiso 1 1 calc R U . . .
O4 O 0.8425(7) 0.6398(6) 0.5601(5) 0.137(6) Uani 1 1 d D . . . .
C2 C 1.1102(7) 0.1654(8) 0.3043(5) 0.071(4) Uani 1 1 d D U . . .
O3 O 0.9181(7) 0.6701(7) 0.4900(4) 0.121(5) Uani 1 1 d D . . . .
C6 C 1.0209(7) 0.1334(8) 0.3704(5) 0.081(5) Uani 1 1 d D . . . .
H6 H 0.993908 0.095213 0.387148 0.097 Uiso 1 1 calc R U . . .
O6 O 0.7918(6) -0.0909(9) 0.6216(3) 0.128(5) Uani 1 1 d D . . . .
C21 C 0.8048(9) 0.0206(10) 0.5933(5) 0.126(7) Uani 1 1 d D . . . .
C25 C 0.7671(11) -0.0319(8) 0.6328(6) 0.105(8) Uani 1 1 d D U . . .
N2 N 0.9549(9) 0.2963(9) 0.4383(6) 0.176(9) Uani 1 1 d D . . . .
C5 C 1.0106(8) 0.2064(8) 0.3861(5) 0.103(6) Uani 1 1 d D . . . .
C1 C 1.1587(12) 0.1484(6) 0.2566(7) 0.115(9) Uani 1 1 d D U . . .
O5 O 0.7458(7) -0.0042(10) 0.6710(3) 0.184(7) Uani 1 1 d D . . . .
C22 C 0.8580(9) 0.0046(11) 0.5552(5) 0.139(8) Uani 1 1 d D . . . .
H22 H 0.876471 -0.044634 0.551445 0.167 Uiso 1 1 calc R U . . .
C24 C 0.8565(9) 0.1365(11) 0.5280(6) 0.129(6) Uani 1 1 d D U . . .
C17 C 0.8869(10) 0.6241(10) 0.5221(5) 0.122(8) Uani 1 1 d D U . . .
C19 C 0.8033(9) 0.1594(11) 0.5648(5) 0.129(7) Uani 1 1 d D . . . .
H19 H 0.784551 0.208491 0.568793 0.154 Uiso 1 1 calc R U . . .
C3 C 1.1000(7) 0.2382(9) 0.3202(5) 0.103(5) Uani 1 1 d D . . . .
H3 H 1.127162 0.276310 0.303458 0.124 Uiso 1 1 calc R U . . .
C13 C 0.9224(8) 0.5207(11) 0.4643(7) 0.155(8) Uani 1 1 d D . . . .
H13 H 0.942734 0.556994 0.442146 0.185 Uiso 1 1 calc R U . . .
N3 N 0.8773(7) 0.2615(9) 0.5065(5) 0.152(7) Uani 1 1 d D . . . .
N1 N 0.9351(8) 0.1661(9) 0.4536(4) 0.129(6) Uani 1 1 d D . . . .
C14 C 0.8820(8) 0.5399(10) 0.5081(6) 0.128(5) Uani 1 1 d D U . . .
C16 C 0.8597(9) 0.4137(11) 0.5313(7) 0.177(10) Uani 1 1 d D . . . .
H16 H 0.839118 0.377199 0.553148 0.212 Uiso 1 1 calc R U . . .
C23 C 0.8839(10) 0.0621(10) 0.5225(7) 0.163(9) Uani 1 1 d D . . . .
H23 H 0.919471 0.051060 0.497034 0.196 Uiso 1 1 calc R U . . .
C11 C 0.8996(10) 0.3909(12) 0.4883(6) 0.161(9) Uani 1 1 d D . . . .
C9 C 0.9109(8) 0.3117(12) 0.4775(5) 0.123(6) Uani 1 1 d D U . . .
C4 C 1.0521(7) 0.2590(9) 0.3595(4) 0.109(6) Uani 1 1 d D . . . .
H4 H 1.047806 0.310037 0.368282 0.131 Uiso 1 1 calc R U . . .
C7 C 1.0689(6) 0.1133(9) 0.3310(4) 0.072(4) Uani 1 1 d D . . . .
H7 H 1.073377 0.062217 0.322280 0.086 Uiso 1 1 calc R U . . .
C10 C 0.8932(9) 0.1929(11) 0.4908(6) 0.166(9) Uani 1 1 d D . . . .
C12 C 0.9303(9) 0.4446(10) 0.4558(7) 0.152(9) Uani 1 1 d D . . . .
H12 H 0.957432 0.428388 0.427015 0.183 Uiso 1 1 calc R U . . .
C8 C 0.9638(10) 0.2239(9) 0.4291(7) 0.154(9) Uani 1 1 d D . . . .
C15 C 0.8496(8) 0.4898(11) 0.5426(7) 0.130(5) Uani 1 1 d D U . . .
H15 H 0.822797 0.506092 0.571522 0.156 Uiso 1 1 calc R U . . .
Cl1 Cl 1.2743(3) 0.2743(3) 0.125000 0.132(3) Uani 1 2 d S T P . .
loop_
_atom_site_aniso_label
_atom_site_aniso_U_11
_atom_site_aniso_U_22
_atom_site_aniso_U_33
_atom_site_aniso_U_23
_atom_site_aniso_U_13
_atom_site_aniso_U_12
Mn2 0.066(2) 0.053(2) 0.0344(14) 0.000 -0.0077(16) 0.000
Mn1 0.094(2) 0.081(2) 0.0830(16) 0.0295(16) 0.013(2) 0.000(2)
O2 0.105(11) 0.171(14) 0.063(7) -0.036(8) -0.019(7) 0.078(10)
O1 0.090(8) 0.150(10) 0.110(7) -0.046(8) -0.051(7) 0.027(8)
C20 0.116(14) 0.143(12) 0.049(9) -0.033(9) -0.025(8) -0.024(12)
O4 0.089(11) 0.088(11) 0.235(15) -0.048(10) 0.066(11) -0.017(8)
C2 0.071(4) 0.071(4) 0.071(4) 0.0000(14) -0.0007(14) 0.0004(14)
O3 0.093(10) 0.121(11) 0.149(11) 0.044(10) -0.055(9) -0.027(9)
C6 0.101(12) 0.059(7) 0.082(10) 0.008(8) 0.017(7) 0.008(9)
O6 0.088(10) 0.255(17) 0.041(6) 0.012(9) -0.009(6) 0.002(12)
C21 0.174(18) 0.142(12) 0.062(10) -0.031(10) 0.003(9) -0.017(12)
C25 0.105(8) 0.105(8) 0.105(8) -0.0003(14) -0.0001(14) -0.0002(14)
N2 0.26(2) 0.086(9) 0.179(12) 0.014(10) 0.094(14) 0.005(12)
C5 0.191(17) 0.060(8) 0.058(9) 0.015(7) 0.029(9) 0.016(10)
C1 0.115(9) 0.115(9) 0.115(9) 0.0001(14) -0.0002(14) -0.0002(14)
O5 0.073(9) 0.43(2) 0.045(6) -0.034(10) -0.004(8) 0.010(14)
C22 0.21(2) 0.112(11) 0.093(14) -0.044(10) 0.038(11) -0.039(12)
C24 0.157(12) 0.116(10) 0.114(10) -0.033(8) 0.026(8) -0.038(9)
C17 0.122(8) 0.122(8) 0.122(8) 0.0000(14) -0.0003(14) 0.0001(14)
C19 0.161(17) 0.141(12) 0.083(12) -0.028(10) 0.009(10) -0.020(11)
C3 0.167(15) 0.066(5) 0.076(9) 0.014(6) 0.025(9) 0.013(7)
C13 0.190(19) 0.104(10) 0.170(11) -0.047(10) 0.051(12) -0.083(12)
N3 0.233(17) 0.110(8) 0.114(9) -0.040(7) 0.053(9) -0.029(10)
N1 0.259(19) 0.082(9) 0.047(8) -0.028(7) 0.010(8) -0.025(10)
C14 0.129(5) 0.128(5) 0.128(5) -0.0003(14) 0.0004(14) 0.0001(14)
C16 0.28(3) 0.129(6) 0.123(15) 0.008(9) 0.063(15) 0.004(11)
C23 0.25(2) 0.112(11) 0.132(16) -0.034(10) 0.069(14) -0.031(13)
C11 0.24(2) 0.111(10) 0.133(16) -0.035(10) 0.061(13) -0.082(13)
C9 0.123(6) 0.122(6) 0.123(6) -0.0001(14) 0.0005(14) 0.0001(14)
C4 0.193(16) 0.055(8) 0.079(10) 0.017(8) 0.037(8) 0.016(9)
C7 0.073(10) 0.073(6) 0.071(8) 0.006(6) -0.001(7) 0.007(6)
C10 0.29(2) 0.114(7) 0.091(13) -0.044(10) 0.045(13) -0.022(12)
C12 0.21(2) 0.102(11) 0.142(15) -0.029(10) 0.050(13) -0.073(13)
C8 0.22(2) 0.088(9) 0.153(16) 0.015(9) 0.040(14) 0.012(12)
C15 0.130(5) 0.130(5) 0.130(5) -0.0003(14) 0.0007(14) 0.0000(14)
Cl1 0.137(5) 0.137(5) 0.122(5) 0.072(4) -0.072(4) -0.054(6)
loop_
_atom_type_symbol
_atom_type_description
_atom_type_scat_dispersion_real
_atom_type_scat_dispersion_imag
_atom_type_scat_source
C C 0.0033 0.0016 'International Tables Vol C Tables 4.2.6.8 and 6.1.1.4'
H H 0.0000 0.0000 'International Tables Vol C Tables 4.2.6.8 and 6.1.1.4'
Cl Cl 0.1484 0.1585 'International Tables Vol C Tables 4.2.6.8 and 6.1.1.4'
Mn Mn 0.3368 0.7283 'International Tables Vol C Tables 4.2.6.8 and 6.1.1.4'
N N 0.0061 0.0033 'International Tables Vol C Tables 4.2.6.8 and 6.1.1.4'
O O 0.0106 0.0060 'International Tables Vol C Tables 4.2.6.8 and 6.1.1.4'
loop_
_geom_angle_atom_site_label_1
_geom_angle_atom_site_label_2
_geom_angle_atom_site_label_3
_geom_angle
_geom_angle_site_symmetry_1
_geom_angle_site_symmetry_3
_geom_angle_publ_flag
O1 Mn2 O1 87.3(7) 4_675 8_675 ?
O3 Mn2 O1 171.9(4) . 4_675 ?
O3 Mn2 O1 90.4(4) . 8_675 ?
O3 Mn2 O1 171.9(4) 5_756 8_675 ?
O3 Mn2 O1 90.4(4) 5_756 4_675 ?
O3 Mn2 O3 92.9(7) . 5_756 ?
O3 Mn2 O5 83.0(5) . 3_654 ?
O3 Mn2 O5 83.0(5) 5_756 7_656 ?
O3 Mn2 O5 94.7(5) . 7_656 ?
O3 Mn2 O5 94.7(5) 5_756 3_654 ?
O5 Mn2 O1 89.4(5) 7_656 8_675 ?
O5 Mn2 O1 93.0(5) 3_654 8_675 ?
O5 Mn2 O1 89.4(5) 3_654 4_675 ?
O5 Mn2 O1 93.0(5) 7_656 4_675 ?
O5 Mn2 O5 176.7(7) 3_654 7_656 ?
O2 Mn1 O6 125.6(5) . 2_754 ?
O2 Mn1 Cl1 107.3(4) . . ?
O4 Mn1 O2 112.8(6) 8_765 . ?
O4 Mn1 O6 113.5(5) 8_765 2_754 ?
O4 Mn1 Cl1 88.3(4) 8_765 . ?
O6 Mn1 Cl1 101.2(4) 2_754 . ?
C1 O2 Mn1 106.2(11) . . ?
C1 O1 Mn2 138.5(15) . 3_744 ?
C21 C20 H20 113.8 . . ?
C21 C20 C19 132.5(18) . . ?
C19 C20 H20 113.8 . . ?
C17 O4 Mn1 113.0(11) . 8_675 ?
C3 C2 C1 120.3(12) . . ?
C3 C2 C7 114.3(14) . . ?
C7 C2 C1 125.2(13) . . ?
C17 O3 Mn2 131.0(12) . . ?
C5 C6 H6 118.4 . . ?
C5 C6 C7 123.3(16) . . ?
C7 C6 H6 118.4 . . ?
C25 O6 Mn1 106.0(11) . 2_755 ?
C20 C21 C25 116.3(14) . . ?
C22 C21 C20 113.6(17) . . ?
C22 C21 C25 130.1(16) . . ?
O6 C25 C21 102.2(14) . . ?
O6 C25 O5 135(2) . . ?
O5 C25 C21 117.0(14) . . ?
C8 N2 C9 115(2) . . ?
C6 C5 C4 114.8(15) . . ?
C6 C5 C8 121.2(14) . . ?
C4 C5 C8 123.9(13) . . ?
O2 C1 O1 133.5(19) . . ?
O2 C1 C2 113.7(12) . . ?
O1 C1 C2 111.8(13) . . ?
C25 O5 Mn2 148.6(15) . 4_565 ?
C21 C22 H22 119.9 . . ?
C21 C22 C23 120.2(19) . . ?
C23 C22 H22 119.9 . . ?
C19 C24 C23 125(2) . . ?
C19 C24 C10 121.7(16) . . ?
C23 C24 C10 113.5(15) . . ?
O4 C17 C14 110.9(13) . . ?
O3 C17 O4 128.3(18) . . ?
O3 C17 C14 118.7(14) . . ?
C20 C19 H19 125.7 . . ?
C24 C19 C20 108.7(18) . . ?
C24 C19 H19 125.7 . . ?
C2 C3 H3 118.0 . . ?
C2 C3 C4 123.9(15) . . ?
C4 C3 H3 118.0 . . ?
C14 C13 H13 122.4 . . ?
C12 C13 H13 122.4 . . ?
C12 C13 C14 115(2) . . ?
C9 N3 C10 110.7(18) . . ?
C10 N1 C8 107.3(18) . . ?
C13 C14 C17 113.8(15) . . ?
C15 C14 C17 119.3(16) . . ?
C15 C14 C13 126.1(19) . . ?
C11 C16 H16 119.4 . . ?
C11 C16 C15 121(2) . . ?
C15 C16 H16 119.4 . . ?
C22 C23 C24 120(2) . . ?
C22 C23 H23 119.9 . . ?
C24 C23 H23 119.9 . . ?
C16 C11 C9 120.7(18) . . ?
C12 C11 C16 120(2) . . ?
C12 C11 C9 119.7(17) . . ?
N2 C9 C11 115.8(17) . . ?
N3 C9 N2 125(2) . . ?
N3 C9 C11 119.0(17) . . ?
C5 C4 C3 121.5(15) . . ?
C5 C4 H4 119.3 . . ?
C3 C4 H4 119.3 . . ?
C2 C7 C6 122.3(15) . . ?
C2 C7 H7 118.9 . . ?
C6 C7 H7 118.9 . . ?
N3 C10 C24 108.5(14) . . ?
N1 C10 C24 118.0(16) . . ?
N1 C10 N3 133(2) . . ?
C13 C12 C11 122(2) . . ?
C13 C12 H12 118.8 . . ?
C11 C12 H12 118.8 . . ?
N2 C8 C5 115.2(16) . . ?
N1 C8 N2 129(2) . . ?
N1 C8 C5 115.9(16) . . ?
C14 C15 C16 115.4(19) . . ?
C14 C15 H15 122.3 . . ?
C16 C15 H15 122.3 . . ?
Mn1 Cl1 Mn1 90.4(3) 7_645 . ?
loop_
_geom_bond_atom_site_label_1
_geom_bond_atom_site_label_2
_geom_bond_distance
_geom_bond_site_symmetry_2
_geom_bond_publ_flag
Mn2 O1 2.119(12) 8_675 ?
Mn2 O1 2.119(13) 4_675 ?
Mn2 O3 2.065(12) 5_756 ?
Mn2 O3 2.065(12) . ?
Mn2 O5 2.090(9) 3_654 ?
Mn2 O5 2.090(9) 7_656 ?
Mn1 O2 2.060(10) . ?
Mn1 O4 2.051(11) 8_765 ?
Mn1 O6 2.119(12) 2_754 ?
Mn1 Cl1 2.413(5) . ?
O2 C1 1.225(10) . ?
O1 C1 1.226(10) . ?
C20 H20 0.9500 . ?
C20 C21 1.421(10) . ?
C20 C19 1.427(10) . ?
O4 C17 1.312(10) . ?
C2 C1 1.562(13) . ?
C2 C3 1.388(10) . ?
C2 C7 1.389(10) . ?
O3 C17 1.312(10) . ?
C6 H6 0.9500 . ?
C6 C5 1.388(10) . ?
C6 C7 1.398(10) . ?
O6 C25 1.187(10) . ?
C21 C25 1.561(13) . ?
C21 C22 1.419(10) . ?
C25 O5 1.187(10) . ?
N2 C9 1.332(10) . ?
N2 C8 1.332(10) . ?
C5 C4 1.394(10) . ?
C5 C8 1.45(2) . ?
C22 H22 0.9500 . ?
C22 C23 1.425(10) . ?
C24 C19 1.425(10) . ?
C24 C23 1.432(10) . ?
C24 C10 1.56(2) . ?
C17 C14 1.562(13) . ?
C19 H19 0.9500 . ?
C3 H3 0.9500 . ?
C3 C4 1.399(10) . ?
C13 H13 0.9500 . ?
C13 C14 1.408(11) . ?
C13 C12 1.394(11) . ?
N3 C9 1.329(10) . ?
N3 C10 1.331(10) . ?
N1 C10 1.328(10) . ?
N1 C8 1.328(10) . ?
C14 C15 1.407(11) . ?
C16 H16 0.9500 . ?
C16 C11 1.404(11) . ?
C16 C15 1.412(11) . ?
C23 H23 0.9500 . ?
C11 C9 1.47(2) . ?
C11 C12 1.402(11) . ?
C4 H4 0.9500 . ?
C7 H7 0.9500 . ?
C12 H12 0.9500 . ?
C15 H15 0.9500 . ?
loop_
_geom_torsion_atom_site_label_1
_geom_torsion_atom_site_label_2
_geom_torsion_atom_site_label_3
_geom_torsion_atom_site_label_4
_geom_torsion
_geom_torsion_site_symmetry_1
_geom_torsion_site_symmetry_2
_geom_torsion_site_symmetry_3
_geom_torsion_site_symmetry_4
_geom_torsion_publ_flag
Mn2 O1 C1 O2 53(4) 3_744 . . . ?
Mn2 O1 C1 C2 -114.6(16) 3_744 . . . ?
Mn2 O3 C17 O4 68(3) . . . . ?
Mn2 O3 C17 C14 -129.7(14) . . . . ?
Mn1 O2 C1 O1 13(4) . . . . ?
Mn1 O2 C1 C2 -179.0(12) . . . . ?
Mn1 O4 C17 O3 -8(3) 8_675 . . . ?
Mn1 O4 C17 C14 -170.8(10) 8_675 . . . ?
Mn1 O6 C25 C21 175.3(8) 2_755 . . . ?
Mn1 O6 C25 O5 25(3) 2_755 . . . ?
C20 C21 C25 O6 176.1(13) . . . . ?
C20 C21 C25 O5 -27(2) . . . . ?
C20 C21 C22 C23 -0.3(7) . . . . ?
O4 C17 C14 C13 173.7(13) . . . . ?
O4 C17 C14 C15 -16(2) . . . . ?
C2 C3 C4 C5 0.3(8) . . . . ?
O3 C17 C14 C13 9(2) . . . . ?
O3 C17 C14 C15 179.1(14) . . . . ?
C6 C5 C4 C3 -0.1(4) . . . . ?
C6 C5 C8 N2 -175.9(8) . . . . ?
C6 C5 C8 N1 3.4(13) . . . . ?
O6 C25 O5 Mn2 26(5) . . . 4_565 ?
C21 C20 C19 C24 -0.4(11) . . . . ?
C21 C25 O5 Mn2 -122(2) . . . 4_565 ?
C21 C22 C23 C24 0.1(4) . . . . ?
C25 C21 C22 C23 178.9(15) . . . . ?
C5 C6 C7 C2 -0.2(8) . . . . ?
C1 C2 C3 C4 173.9(13) . . . . ?
C1 C2 C7 C6 -173.6(14) . . . . ?
C22 C21 C25 O6 -3(2) . . . . ?
C22 C21 C25 O5 154.0(14) . . . . ?
C17 C14 C15 C16 -168.8(14) . . . . ?
C19 C20 C21 C25 -178.9(13) . . . . ?
C19 C20 C21 C22 0.5(12) . . . . ?
C19 C24 C23 C22 0.0(4) . . . . ?
C19 C24 C10 N3 11.7(14) . . . . ?
C19 C24 C10 N1 -171.7(9) . . . . ?
C3 C2 C1 O2 6(3) . . . . ?
C3 C2 C1 O1 176.2(14) . . . . ?
C3 C2 C7 C6 0.4(10) . . . . ?
C13 C14 C15 C16 0.2(4) . . . . ?
C14 C13 C12 C11 0.6(10) . . . . ?
C16 C11 C9 N2 -174.4(8) . . . . ?
C16 C11 C9 N3 6.0(15) . . . . ?
C16 C11 C12 C13 -0.5(11) . . . . ?
C23 C24 C19 C20 0.1(7) . . . . ?
C23 C24 C10 N3 -165.8(8) . . . . ?
C23 C24 C10 N1 10.7(13) . . . . ?
C11 C16 C15 C14 0.0(4) . . . . ?
C9 N2 C8 C5 179.2(10) . . . . ?
C9 N2 C8 N1 0.0(11) . . . . ?
C9 N3 C10 C24 176.5(11) . . . . ?
C9 N3 C10 N1 0.7(12) . . . . ?
C9 C11 C12 C13 -179.1(14) . . . . ?
C4 C5 C8 N2 8.3(14) . . . . ?
C4 C5 C8 N1 -172.4(9) . . . . ?
C7 C2 C1 O2 179.5(14) . . . . ?
C7 C2 C1 O1 -10(3) . . . . ?
C7 C2 C3 C4 -0.4(10) . . . . ?
C7 C6 C5 C4 0.0(4) . . . . ?
C7 C6 C5 C8 -176.1(11) . . . . ?
C10 C24 C19 C20 -177.2(12) . . . . ?
C10 C24 C23 C22 177.5(11) . . . . ?
C10 N3 C9 N2 -0.2(4) . . . . ?
C10 N3 C9 C11 179.3(14) . . . . ?
C10 N1 C8 N2 0.3(13) . . . . ?
C10 N1 C8 C5 -178.9(11) . . . . ?
C12 C13 C14 C17 169.0(14) . . . . ?
C12 C13 C14 C15 -0.5(8) . . . . ?
C12 C11 C9 N2 4.2(15) . . . . ?
C12 C11 C9 N3 -175.3(9) . . . . ?
C8 N2 C9 N3 0.0(4) . . . . ?
C8 N2 C9 C11 -179.6(14) . . . . ?
C8 C5 C4 C3 176.0(11) . . . . ?
C8 N1 C10 C24 -176.2(12) . . . . ?
C8 N1 C10 N3 -0.7(14) . . . . ?
C15 C16 C11 C9 178.8(14) . . . . ?
C15 C16 C11 C12 0.1(8) . . . . ?
loop_
_platon_squeeze_void_nr
_platon_squeeze_void_average_x
_platon_squeeze_void_average_y
_platon_squeeze_void_average_z
_platon_squeeze_void_volume
_platon_squeeze_void_count_electrons
_platon_squeeze_void_content
1 -0.080 0.468 0.183 4805 1294 ' '
